# generated using pymatgen
data_Y3Mg3Cd2Ru
_symmetry_space_group_name_H-M   'P 1'
_cell_length_a   8.07980400
_cell_length_b   8.07980441
_cell_length_c   3.85082100
_cell_angle_alpha   90.00000000
_cell_angle_beta   90.00000000
_cell_angle_gamma   120.00000540
_symmetry_Int_Tables_number   1
_chemical_formula_structural   Y3Mg3Cd2Ru
_chemical_formula_sum   'Y3 Mg3 Cd2 Ru1'
_cell_volume   217.71362723
_cell_formula_units_Z   1
loop_
 _symmetry_equiv_pos_site_id
 _symmetry_equiv_pos_as_xyz
  1  'x, y, z'
loop_
 _atom_site_type_symbol
 _atom_site_label
 _atom_site_symmetry_multiplicity
 _atom_site_fract_x
 _atom_site_fract_y
 _atom_site_fract_z
 _atom_site_occupancy
  Y  Y0  1  0.433230  0.389718  0.500000  1
  Y  Y1  1  0.956489  0.566770  0.500000  1
  Y  Y2  1  0.610282  0.043511  0.500000  1
  Mg  Mg3  1  0.732355  0.732834  0.000000  1
  Mg  Mg4  1  0.267166  0.999520  0.000000  1
  Mg  Mg5  1  0.000480  0.267645  0.000000  1
  Cd  Cd6  1  0.333333  0.666667  0.000000  1
  Cd  Cd7  1  0.000000  0.000000  0.500000  1
  Ru  Ru8  1  0.666667  0.333333  0.000000  1
