# generated using pymatgen
data_Cs8NiP4PdS16
_symmetry_space_group_name_H-M   'P 1'
_cell_length_a   13.43728090
_cell_length_b   7.48147708
_cell_length_c   9.83485212
_cell_angle_alpha   84.91602521
_cell_angle_beta   90.42274956
_cell_angle_gamma   89.54982998
_symmetry_Int_Tables_number   1
_chemical_formula_structural   Cs8NiP4PdS16
_chemical_formula_sum   'Cs8 Ni1 P4 Pd1 S16'
_cell_volume   984.75222713
_cell_formula_units_Z   1
loop_
 _symmetry_equiv_pos_site_id
 _symmetry_equiv_pos_as_xyz
  1  'x, y, z'
loop_
 _atom_site_type_symbol
 _atom_site_label
 _atom_site_symmetry_multiplicity
 _atom_site_fract_x
 _atom_site_fract_y
 _atom_site_fract_z
 _atom_site_occupancy
  Cs  Cs0  1  0.132262  0.820848  0.680268  1
  Cs  Cs1  1  0.629515  0.180128  0.821152  1
  Cs  Cs2  1  0.867738  0.179152  0.319732  1
  Cs  Cs3  1  0.370485  0.819872  0.178848  1
  Cs  Cs4  1  0.345794  0.278016  0.532635  1
  Cs  Cs5  1  0.844694  0.719197  0.965367  1
  Cs  Cs6  1  0.654206  0.721984  0.467365  1
  Cs  Cs7  1  0.155306  0.280803  0.034633  1
  Ni  Ni8  1  0.500000  0.500000  0.000000  1
  P  P9  1  0.421572  0.755523  0.765976  1
  P  P10  1  0.919332  0.238667  0.741608  1
  P  P11  1  0.578428  0.244477  0.234024  1
  P  P12  1  0.080668  0.761333  0.258392  1
  Pd  Pd13  1  0.000000  0.500000  0.500000  1
  S  S14  1  0.066085  0.301829  0.679795  1
  S  S15  1  0.566496  0.685359  0.836923  1
  S  S16  1  0.933915  0.698171  0.320205  1
  S  S17  1  0.433504  0.314641  0.163077  1
  S  S18  1  0.399528  0.752049  0.562998  1
  S  S19  1  0.897068  0.237510  0.944124  1
  S  S20  1  0.600472  0.247951  0.437002  1
  S  S21  1  0.102932  0.762490  0.055876  1
  S  S22  1  0.144353  0.532584  0.365493  1
  S  S23  1  0.638758  0.469753  0.122370  1
  S  S24  1  0.855647  0.467416  0.634507  1
  S  S25  1  0.361242  0.530247  0.877630  1
  S  S26  1  0.375144  0.990177  0.832230  1
  S  S27  1  0.873805  0.008213  0.669135  1
  S  S28  1  0.624856  0.009823  0.167770  1
  S  S29  1  0.126195  0.991787  0.330865  1
