# generated using pymatgen
data_Y4Er6Si5As
_symmetry_space_group_name_H-M   'P 1'
_cell_length_a   8.40046100
_cell_length_b   8.41717136
_cell_length_c   6.29034500
_cell_angle_alpha   90.00000000
_cell_angle_beta   90.00000000
_cell_angle_gamma   119.93434556
_symmetry_Int_Tables_number   1
_chemical_formula_structural   Y4Er6Si5As
_chemical_formula_sum   'Y4 Er6 Si5 As1'
_cell_volume   385.44403173
_cell_formula_units_Z   1
loop_
 _symmetry_equiv_pos_site_id
 _symmetry_equiv_pos_as_xyz
  1  'x, y, z'
loop_
 _atom_site_type_symbol
 _atom_site_label
 _atom_site_symmetry_multiplicity
 _atom_site_fract_x
 _atom_site_fract_y
 _atom_site_fract_z
 _atom_site_occupancy
  Y  Y0  1  0.996442  0.752939  0.750000  1
  Y  Y1  1  0.757495  0.000000  0.750000  1
  Y  Y2  1  0.243503  0.247061  0.750000  1
  Y  Y3  1  0.243789  0.000000  0.250000  1
  Er  Er4  1  0.000172  0.244503  0.250000  1
  Er  Er5  1  0.755669  0.755497  0.250000  1
  Er  Er6  1  0.333044  0.663913  0.498761  1
  Er  Er7  1  0.669132  0.336087  0.001239  1
  Er  Er8  1  0.669132  0.336087  0.498761  1
  Er  Er9  1  0.333044  0.663913  0.001239  1
  Si  Si10  1  0.393822  0.392956  0.250000  1
  Si  Si11  1  0.000868  0.607044  0.250000  1
  Si  Si12  1  0.999730  0.393909  0.750000  1
  Si  Si13  1  0.605822  0.606091  0.750000  1
  Si  Si14  1  0.607851  0.000000  0.250000  1
  As  As15  1  0.390485  0.000000  0.750000  1
