# generated using pymatgen
data_DyLuGa9Ru5
_symmetry_space_group_name_H-M   'P 1'
_cell_length_a   8.03098997
_cell_length_b   8.03098964
_cell_length_c   8.03098870
_cell_angle_alpha   135.21030839
_cell_angle_beta   134.63185929
_cell_angle_gamma   65.65397504
_symmetry_Int_Tables_number   1
_chemical_formula_structural   DyLuGa9Ru5
_chemical_formula_sum   'Dy1 Lu1 Ga9 Ru5'
_cell_volume   255.80592159
_cell_formula_units_Z   1
loop_
 _symmetry_equiv_pos_site_id
 _symmetry_equiv_pos_as_xyz
  1  'x, y, z'
loop_
 _atom_site_type_symbol
 _atom_site_label
 _atom_site_symmetry_multiplicity
 _atom_site_fract_x
 _atom_site_fract_y
 _atom_site_fract_z
 _atom_site_occupancy
  Dy  Dy0  1  0.000000  0.500000  0.500000  1
  Lu  Lu1  1  0.500000  0.000000  0.500000  1
  Ga  Ga2  1  0.437556  0.858959  0.001411  1
  Ga  Ga3  1  0.142452  0.141041  0.578597  1
  Ga  Ga4  1  0.857548  0.436144  0.998589  1
  Ga  Ga5  1  0.857548  0.858959  0.421403  1
  Ga  Ga6  1  0.562444  0.141041  0.998589  1
  Ga  Ga7  1  0.142452  0.563856  0.001411  1
  Ga  Ga8  1  0.562444  0.563856  0.421403  1
  Ga  Ga9  1  0.000000  0.000000  0.000000  1
  Ga  Ga10  1  0.437556  0.436144  0.578597  1
  Ru  Ru11  1  0.181578  0.181578  0.000000  1
  Ru  Ru12  1  0.818422  0.818422  0.000000  1
  Ru  Ru13  1  0.250180  0.750180  0.500000  1
  Ru  Ru14  1  0.749820  0.249820  0.500000  1
  Ru  Ru15  1  0.500000  0.500000  0.000000  1
