# generated using pymatgen
data_Dy3Y2Hf5(Si5Ir2)4
_symmetry_space_group_name_H-M   'P 1'
_cell_length_a   12.49263605
_cell_length_b   12.49305305
_cell_length_c   4.16855800
_cell_angle_alpha   90.00000000
_cell_angle_beta   90.00000000
_cell_angle_gamma   89.98962582
_symmetry_Int_Tables_number   1
_chemical_formula_structural   Dy3Y2Hf5(Si5Ir2)4
_chemical_formula_sum   'Dy3 Y2 Hf5 Si20 Ir8'
_cell_volume   650.59169250
_cell_formula_units_Z   1
loop_
 _symmetry_equiv_pos_site_id
 _symmetry_equiv_pos_as_xyz
  1  'x, y, z'
loop_
 _atom_site_type_symbol
 _atom_site_label
 _atom_site_symmetry_multiplicity
 _atom_site_fract_x
 _atom_site_fract_y
 _atom_site_fract_z
 _atom_site_occupancy
  Dy  Dy0  1  0.000000  0.000000  0.000000  1
  Dy  Dy1  1  0.884299  0.384981  0.500000  1
  Dy  Dy2  1  0.115701  0.615019  0.500000  1
  Y  Y3  1  0.384972  0.115763  0.500000  1
  Y  Y4  1  0.615028  0.884237  0.500000  1
  Hf  Hf5  1  0.500000  0.500000  0.000000  1
  Hf  Hf6  1  0.673820  0.175674  0.500000  1
  Hf  Hf7  1  0.326180  0.824326  0.500000  1
  Hf  Hf8  1  0.175507  0.326340  0.500000  1
  Hf  Hf9  1  0.824493  0.673660  0.500000  1
  Si  Si10  1  0.565826  0.068089  0.000000  1
  Si  Si11  1  0.434174  0.931911  0.000000  1
  Si  Si12  1  0.067999  0.434273  0.000000  1
  Si  Si13  1  0.932001  0.565727  0.000000  1
  Si  Si14  1  0.665166  0.701430  0.000000  1
  Si  Si15  1  0.334834  0.298570  0.000000  1
  Si  Si16  1  0.163667  0.800290  0.000000  1
  Si  Si17  1  0.836333  0.199710  0.000000  1
  Si  Si18  1  0.298427  0.665128  0.000000  1
  Si  Si19  1  0.701573  0.334872  0.000000  1
  Si  Si20  1  0.199565  0.163704  0.000000  1
  Si  Si21  1  0.800435  0.836296  0.000000  1
  Si  Si22  1  0.650930  0.508300  0.500000  1
  Si  Si23  1  0.349070  0.491700  0.500000  1
  Si  Si24  1  0.157032  0.992179  0.500000  1
  Si  Si25  1  0.842968  0.007821  0.500000  1
  Si  Si26  1  0.491639  0.650832  0.500000  1
  Si  Si27  1  0.508361  0.349168  0.500000  1
  Si  Si28  1  0.007756  0.157126  0.500000  1
  Si  Si29  1  0.992244  0.842874  0.500000  1
  Ir  Ir30  1  0.741705  0.522069  0.000000  1
  Ir  Ir31  1  0.258295  0.477931  0.000000  1
  Ir  Ir32  1  0.246421  0.977288  0.000000  1
  Ir  Ir33  1  0.753579  0.022712  0.000000  1
  Ir  Ir34  1  0.477837  0.741571  0.000000  1
  Ir  Ir35  1  0.522163  0.258429  0.000000  1
  Ir  Ir36  1  0.022602  0.246576  0.000000  1
  Ir  Ir37  1  0.977398  0.753424  0.000000  1
