# generated using pymatgen
data_Ac3(HgPd)4
_symmetry_space_group_name_H-M   'P 1'
_cell_length_a   8.99737799
_cell_length_b   8.99737847
_cell_length_c   8.99737903
_cell_angle_alpha   152.15135629
_cell_angle_beta   124.16545762
_cell_angle_gamma   63.52742966
_symmetry_Int_Tables_number   1
_chemical_formula_structural   Ac3(HgPd)4
_chemical_formula_sum   'Ac3 Hg4 Pd4'
_cell_volume   279.08617429
_cell_formula_units_Z   1
loop_
 _symmetry_equiv_pos_site_id
 _symmetry_equiv_pos_as_xyz
  1  'x, y, z'
loop_
 _atom_site_type_symbol
 _atom_site_label
 _atom_site_symmetry_multiplicity
 _atom_site_fract_x
 _atom_site_fract_y
 _atom_site_fract_z
 _atom_site_occupancy
  Ac  Ac0  1  0.500000  0.000000  0.500000  1
  Ac  Ac1  1  0.868968  0.868968  0.000000  1
  Ac  Ac2  1  0.131032  0.131032  0.000000  1
  Hg  Hg3  1  0.472267  0.666987  0.805281  1
  Hg  Hg4  1  0.861706  0.666987  0.194719  1
  Hg  Hg5  1  0.138294  0.333013  0.805281  1
  Hg  Hg6  1  0.527733  0.333013  0.194719  1
  Pd  Pd7  1  0.278426  0.778426  0.500000  1
  Pd  Pd8  1  0.721574  0.221574  0.500000  1
  Pd  Pd9  1  0.829050  0.500000  0.329050  1
  Pd  Pd10  1  0.170950  0.500000  0.670950  1
