# generated using pymatgen
data_Ti6ZnGaO2
_symmetry_space_group_name_H-M   'P 1'
_cell_length_a   5.48303201
_cell_length_b   5.48303262
_cell_length_c   8.36874300
_cell_angle_alpha   90.00000000
_cell_angle_beta   90.00000000
_cell_angle_gamma   147.08725254
_symmetry_Int_Tables_number   1
_chemical_formula_structural   Ti6ZnGaO2
_chemical_formula_sum   'Ti6 Zn1 Ga1 O2'
_cell_volume   136.70691931
_cell_formula_units_Z   1
loop_
 _symmetry_equiv_pos_site_id
 _symmetry_equiv_pos_as_xyz
  1  'x, y, z'
loop_
 _atom_site_type_symbol
 _atom_site_label
 _atom_site_symmetry_multiplicity
 _atom_site_fract_x
 _atom_site_fract_y
 _atom_site_fract_z
 _atom_site_occupancy
  Ti  Ti0  1  0.629383  0.370618  0.037814  1
  Ti  Ti1  1  0.961815  0.038186  0.250000  1
  Ti  Ti2  1  0.629383  0.370618  0.462186  1
  Ti  Ti3  1  0.370519  0.629482  0.537828  1
  Ti  Ti4  1  0.038587  0.961414  0.750000  1
  Ti  Ti5  1  0.370519  0.629482  0.962173  1
  Zn  Zn6  1  0.748396  0.251605  0.750000  1
  Ga  Ga7  1  0.251938  0.748063  0.250000  1
  O  O8  1  0.999732  0.000268  0.999771  1
  O  O9  1  0.999732  0.000268  0.500229  1
