# generated using pymatgen
data_NdTh7(BeSi3)4
_symmetry_space_group_name_H-M   'P 1'
_cell_length_a   7.98594600
_cell_length_b   7.98594591
_cell_length_c   8.54164100
_cell_angle_alpha   90.00000000
_cell_angle_beta   90.00000000
_cell_angle_gamma   120.00000039
_symmetry_Int_Tables_number   1
_chemical_formula_structural   NdTh7(BeSi3)4
_chemical_formula_sum   'Nd1 Th7 Be4 Si12'
_cell_volume   471.76387022
_cell_formula_units_Z   1
loop_
 _symmetry_equiv_pos_site_id
 _symmetry_equiv_pos_as_xyz
  1  'x, y, z'
loop_
 _atom_site_type_symbol
 _atom_site_label
 _atom_site_symmetry_multiplicity
 _atom_site_fract_x
 _atom_site_fract_y
 _atom_site_fract_z
 _atom_site_occupancy
  Nd  Nd0  1  0.000000  0.000000  0.250000  1
  Th  Th1  1  0.499696  0.500304  0.750000  1
  Th  Th2  1  0.500288  0.499712  0.250000  1
  Th  Th3  1  0.000606  0.500304  0.750000  1
  Th  Th4  1  0.999424  0.499712  0.250000  1
  Th  Th5  1  0.499696  0.999394  0.750000  1
  Th  Th6  1  0.500288  0.000576  0.250000  1
  Th  Th7  1  0.000000  0.000000  0.750000  1
  Be  Be8  1  0.666667  0.333333  0.998392  1
  Be  Be9  1  0.333333  0.666667  0.001696  1
  Be  Be10  1  0.333333  0.666667  0.498304  1
  Be  Be11  1  0.666667  0.333333  0.501608  1
  Si  Si12  1  0.826591  0.173409  0.999748  1
  Si  Si13  1  0.173437  0.826563  0.000325  1
  Si  Si14  1  0.346819  0.173409  0.999748  1
  Si  Si15  1  0.173437  0.826563  0.499675  1
  Si  Si16  1  0.653125  0.826563  0.000325  1
  Si  Si17  1  0.826591  0.173409  0.500252  1
  Si  Si18  1  0.826591  0.653181  0.999748  1
  Si  Si19  1  0.653125  0.826563  0.499675  1
  Si  Si20  1  0.173437  0.346875  0.000325  1
  Si  Si21  1  0.346819  0.173409  0.500252  1
  Si  Si22  1  0.173437  0.346875  0.499675  1
  Si  Si23  1  0.826591  0.653181  0.500252  1
