# generated using pymatgen
data_Ta2Ti4Co16Si6P
_symmetry_space_group_name_H-M   'P 1'
_cell_length_a   7.87320939
_cell_length_b   7.85250569
_cell_length_c   7.85204793
_cell_angle_alpha   60.21776737
_cell_angle_beta   59.88643994
_cell_angle_gamma   59.90881216
_symmetry_Int_Tables_number   1
_chemical_formula_structural   Ta2Ti4Co16Si6P
_chemical_formula_sum   'Ta2 Ti4 Co16 Si6 P1'
_cell_volume   343.29038838
_cell_formula_units_Z   1
loop_
 _symmetry_equiv_pos_site_id
 _symmetry_equiv_pos_as_xyz
  1  'x, y, z'
loop_
 _atom_site_type_symbol
 _atom_site_label
 _atom_site_symmetry_multiplicity
 _atom_site_fract_x
 _atom_site_fract_y
 _atom_site_fract_z
 _atom_site_occupancy
  Ta  Ta0  1  0.200403  0.799974  0.799449  1
  Ta  Ta1  1  0.800232  0.798493  0.202053  1
  Ti  Ti2  1  0.797935  0.202783  0.201902  1
  Ti  Ti3  1  0.200853  0.203537  0.797289  1
  Ti  Ti4  1  0.799074  0.203523  0.797244  1
  Ti  Ti5  1  0.201355  0.797995  0.202739  1
  Co  Co6  1  0.619004  0.618842  0.143886  1
  Co  Co7  1  0.166243  0.500884  0.166315  1
  Co  Co8  1  0.858029  0.380172  0.379866  1
  Co  Co9  1  0.497785  0.836296  0.837340  1
  Co  Co10  1  0.501678  0.162593  0.162952  1
  Co  Co11  1  0.834010  0.832980  0.498572  1
  Co  Co12  1  0.166028  0.165588  0.501595  1
  Co  Co13  1  0.142013  0.620451  0.620075  1
  Co  Co14  1  0.172593  0.162353  0.163347  1
  Co  Co15  1  0.381354  0.381431  0.856045  1
  Co  Co16  1  0.617378  0.620099  0.619898  1
  Co  Co17  1  0.381691  0.855390  0.381818  1
  Co  Co18  1  0.381784  0.379946  0.379570  1
  Co  Co19  1  0.828015  0.836576  0.836770  1
  Co  Co20  1  0.618810  0.143186  0.619311  1
  Co  Co21  1  0.833574  0.498722  0.833375  1
  Si  Si22  1  0.499884  0.003198  0.500029  1
  Si  Si23  1  0.501253  0.498203  0.001728  1
  Si  Si24  1  0.500052  0.498804  0.499747  1
  Si  Si25  1  0.998343  0.001323  0.498503  1
  Si  Si26  1  0.000114  0.496547  0.999983  1
  Si  Si27  1  0.001959  0.498084  0.501229  1
  P  P28  1  0.498551  0.002025  0.997372  1
