# generated using pymatgen
data_Tb3DyFePt3O14
_symmetry_space_group_name_H-M   'P 1'
_cell_length_a   7.31226910
_cell_length_b   7.24349027
_cell_length_c   7.24349100
_cell_angle_alpha   59.99999211
_cell_angle_beta   60.31065374
_cell_angle_gamma   60.31065719
_symmetry_Int_Tables_number   1
_chemical_formula_structural   Tb3DyFePt3O14
_chemical_formula_sum   'Tb3 Dy1 Fe1 Pt3 O14'
_cell_volume   272.55636067
_cell_formula_units_Z   1
loop_
 _symmetry_equiv_pos_site_id
 _symmetry_equiv_pos_as_xyz
  1  'x, y, z'
loop_
 _atom_site_type_symbol
 _atom_site_label
 _atom_site_symmetry_multiplicity
 _atom_site_fract_x
 _atom_site_fract_y
 _atom_site_fract_z
 _atom_site_occupancy
  Tb  Tb0  1  0.125000  0.625000  0.125000  1
  Tb  Tb1  1  0.125000  0.125000  0.625000  1
  Tb  Tb2  1  0.125000  0.125000  0.125000  1
  Dy  Dy3  1  0.625000  0.125000  0.125000  1
  Fe  Fe4  1  0.125000  0.625000  0.625000  1
  Pt  Pt5  1  0.625000  0.625000  0.625000  1
  Pt  Pt6  1  0.625000  0.125000  0.625000  1
  Pt  Pt7  1  0.625000  0.625000  0.125000  1
  O  O8  1  0.289013  0.713224  0.713224  1
  O  O9  1  0.538657  0.963764  0.963764  1
  O  O10  1  0.711343  0.286236  0.716186  1
  O  O11  1  0.289013  0.284539  0.713224  1
  O  O12  1  0.711343  0.716186  0.286236  1
  O  O13  1  0.993762  0.002079  0.002079  1
  O  O14  1  0.289013  0.713224  0.284539  1
  O  O15  1  0.960987  0.536776  0.965461  1
  O  O16  1  0.960987  0.965461  0.536776  1
  O  O17  1  0.538657  0.533814  0.963764  1
  O  O18  1  0.256238  0.247921  0.247921  1
  O  O19  1  0.538657  0.963764  0.533814  1
  O  O20  1  0.711343  0.286236  0.286236  1
  O  O21  1  0.960987  0.536776  0.536776  1
