# generated using pymatgen
data_Yb2Y2HoIr2
_symmetry_space_group_name_H-M   'P 1'
_cell_length_a   6.52751478
_cell_length_b   7.26945948
_cell_length_c   8.50353575
_cell_angle_alpha   97.05319936
_cell_angle_beta   112.56999785
_cell_angle_gamma   90.00000024
_symmetry_Int_Tables_number   1
_chemical_formula_structural   Yb2Y2HoIr2
_chemical_formula_sum   'Yb4 Y4 Ho2 Ir4'
_cell_volume   369.29266186
_cell_formula_units_Z   2
loop_
 _symmetry_equiv_pos_site_id
 _symmetry_equiv_pos_as_xyz
  1  'x, y, z'
loop_
 _atom_site_type_symbol
 _atom_site_label
 _atom_site_symmetry_multiplicity
 _atom_site_fract_x
 _atom_site_fract_y
 _atom_site_fract_z
 _atom_site_occupancy
  Yb  Yb0  1  0.973755  0.920653  0.182659  1
  Yb  Yb1  1  0.791096  0.579347  0.817341  1
  Yb  Yb2  1  0.026245  0.079347  0.817341  1
  Yb  Yb3  1  0.208904  0.420653  0.182659  1
  Y  Y4  1  0.650899  0.817724  0.439810  1
  Y  Y5  1  0.211088  0.682276  0.560190  1
  Y  Y6  1  0.349101  0.182276  0.560190  1
  Y  Y7  1  0.788912  0.317724  0.439810  1
  Ho  Ho8  1  0.431422  0.750000  0.000000  1
  Ho  Ho9  1  0.568578  0.250000  0.000000  1
  Ir  Ir10  1  0.815027  0.572270  0.224705  1
  Ir  Ir11  1  0.590322  0.927730  0.775295  1
  Ir  Ir12  1  0.184973  0.427730  0.775295  1
  Ir  Ir13  1  0.409678  0.072270  0.224705  1
