# generated using pymatgen
data_La8Co3Si12Ag
_symmetry_space_group_name_H-M   'P 1'
_cell_length_a   8.19738700
_cell_length_b   8.19738728
_cell_length_c   8.73282600
_cell_angle_alpha   90.00000000
_cell_angle_beta   90.00000000
_cell_angle_gamma   119.99999483
_symmetry_Int_Tables_number   1
_chemical_formula_structural   La8Co3Si12Ag
_chemical_formula_sum   'La8 Co3 Si12 Ag1'
_cell_volume   508.20198097
_cell_formula_units_Z   1
loop_
 _symmetry_equiv_pos_site_id
 _symmetry_equiv_pos_as_xyz
  1  'x, y, z'
loop_
 _atom_site_type_symbol
 _atom_site_label
 _atom_site_symmetry_multiplicity
 _atom_site_fract_x
 _atom_site_fract_y
 _atom_site_fract_z
 _atom_site_occupancy
  La  La0  1  0.000000  0.000000  0.251468  1
  La  La1  1  0.000000  0.000000  0.748284  1
  La  La2  1  0.503653  0.496347  0.255894  1
  La  La3  1  0.503653  0.007307  0.255894  1
  La  La4  1  0.992693  0.496347  0.255894  1
  La  La5  1  0.503374  0.496626  0.744451  1
  La  La6  1  0.503374  0.006747  0.744451  1
  La  La7  1  0.993253  0.496626  0.744451  1
  Co  Co8  1  0.333333  0.666667  0.496767  1
  Co  Co9  1  0.666667  0.333333  0.502937  1
  Co  Co10  1  0.666667  0.333333  0.998013  1
  Si  Si11  1  0.171332  0.828668  0.501013  1
  Si  Si12  1  0.171332  0.342664  0.501013  1
  Si  Si13  1  0.657336  0.828668  0.501013  1
  Si  Si14  1  0.829660  0.170340  0.499105  1
  Si  Si15  1  0.829660  0.659320  0.499105  1
  Si  Si16  1  0.340680  0.170340  0.499105  1
  Si  Si17  1  0.827123  0.172877  0.001008  1
  Si  Si18  1  0.827123  0.654245  0.001008  1
  Si  Si19  1  0.345755  0.172877  0.001008  1
  Si  Si20  1  0.159375  0.840625  0.998834  1
  Si  Si21  1  0.159375  0.318749  0.998834  1
  Si  Si22  1  0.681251  0.840625  0.998834  1
  Ag  Ag23  1  0.333333  0.666667  0.001625  1
