# generated using pymatgen
data_Hf3Zr3(CuN)2
_symmetry_space_group_name_H-M   'P 1'
_cell_length_a   8.91177761
_cell_length_b   5.79761090
_cell_length_c   5.79761056
_cell_angle_alpha   33.14089250
_cell_angle_beta   89.72122205
_cell_angle_gamma   89.72122302
_symmetry_Int_Tables_number   1
_chemical_formula_structural   Hf3Zr3(CuN)2
_chemical_formula_sum   'Hf3 Zr3 Cu2 N2'
_cell_volume   163.75919361
_cell_formula_units_Z   1
loop_
 _symmetry_equiv_pos_site_id
 _symmetry_equiv_pos_as_xyz
  1  'x, y, z'
loop_
 _atom_site_type_symbol
 _atom_site_label
 _atom_site_symmetry_multiplicity
 _atom_site_fract_x
 _atom_site_fract_y
 _atom_site_fract_z
 _atom_site_occupancy
  Hf  Hf0  1  0.699104  0.371031  0.371031  1
  Hf  Hf1  1  0.196070  0.629132  0.629132  1
  Hf  Hf2  1  0.801566  0.628400  0.628400  1
  Zr  Zr3  1  0.499442  0.056694  0.056694  1
  Zr  Zr4  1  0.303331  0.370039  0.370039  1
  Zr  Zr5  1  0.000391  0.943296  0.943296  1
  Cu  Cu6  1  0.997063  0.244185  0.244185  1
  Cu  Cu7  1  0.504788  0.753684  0.753684  1
  N  N8  1  0.248367  0.003732  0.003732  1
  N  N9  1  0.749879  0.999686  0.999686  1
