# generated using pymatgen
data_Pa5Tc8P12Ir11
_symmetry_space_group_name_H-M   'P 1'
_cell_length_a   12.75211618
_cell_length_b   12.65950794
_cell_length_c   3.99257900
_cell_angle_alpha   90.00000000
_cell_angle_beta   90.00000000
_cell_angle_gamma   120.13106114
_symmetry_Int_Tables_number   1
_chemical_formula_structural   Pa5Tc8P12Ir11
_chemical_formula_sum   'Pa5 Tc8 P12 Ir11'
_cell_volume   557.45288191
_cell_formula_units_Z   1
loop_
 _symmetry_equiv_pos_site_id
 _symmetry_equiv_pos_as_xyz
  1  'x, y, z'
loop_
 _atom_site_type_symbol
 _atom_site_label
 _atom_site_symmetry_multiplicity
 _atom_site_fract_x
 _atom_site_fract_y
 _atom_site_fract_z
 _atom_site_occupancy
  Pa  Pa0  1  0.333617  0.666727  0.000000  1
  Pa  Pa1  1  0.671750  0.335760  0.000000  1
  Pa  Pa2  1  0.811387  0.999243  0.500000  1
  Pa  Pa3  1  0.997466  0.810550  0.500000  1
  Pa  Pa4  1  0.182634  0.185387  0.500000  1
  Tc  Tc5  1  0.450689  0.005178  0.000000  1
  Tc  Tc6  1  0.000835  0.450073  0.000000  1
  Tc  Tc7  1  0.551829  0.547260  0.000000  1
  Tc  Tc8  1  0.182664  0.377802  0.000000  1
  Tc  Tc9  1  0.619905  0.803328  0.000000  1
  Tc  Tc10  1  0.196541  0.820936  0.000000  1
  Tc  Tc11  1  0.805533  0.622209  0.000000  1
  Tc  Tc12  1  0.817594  0.194750  0.000000  1
  P  P13  1  0.175318  0.996053  0.000000  1
  P  P14  1  0.998382  0.180401  0.000000  1
  P  P15  1  0.817565  0.819069  0.000000  1
  P  P16  1  0.172385  0.477242  0.500000  1
  P  P17  1  0.522223  0.693765  0.500000  1
  P  P18  1  0.304947  0.829361  0.500000  1
  P  P19  1  0.695316  0.522757  0.500000  1
  P  P20  1  0.831402  0.306533  0.500000  1
  P  P21  1  0.481006  0.168372  0.500000  1
  P  P22  1  0.632670  0.999755  0.000000  1
  P  P23  1  0.001272  0.634221  0.000000  1
  P  P24  1  0.364610  0.370063  0.000000  1
  Ir  Ir25  1  0.368565  0.493644  0.500000  1
  Ir  Ir26  1  0.501167  0.870260  0.500000  1
  Ir  Ir27  1  0.131072  0.634046  0.500000  1
  Ir  Ir28  1  0.871546  0.503989  0.500000  1
  Ir  Ir29  1  0.635719  0.130188  0.500000  1
  Ir  Ir30  1  0.497910  0.361985  0.500000  1
  Ir  Ir31  1  0.373132  0.185242  0.000000  1
  Ir  Ir32  1  0.286069  0.004905  0.500000  1
  Ir  Ir33  1  0.000848  0.283652  0.500000  1
  Ir  Ir34  1  0.715081  0.715269  0.500000  1
  Ir  Ir35  1  0.999352  0.000024  0.000000  1
