# generated using pymatgen
data_Y3LuHf3GaIr4
_symmetry_space_group_name_H-M   'P 1'
_cell_length_a   4.41630300
_cell_length_b   7.07686568
_cell_length_c   8.23282469
_cell_angle_alpha   93.33845034
_cell_angle_beta   90.00000000
_cell_angle_gamma   90.00000000
_symmetry_Int_Tables_number   1
_chemical_formula_structural   Y3LuHf3GaIr4
_chemical_formula_sum   'Y3 Lu1 Hf3 Ga1 Ir4'
_cell_volume   256.86861392
_cell_formula_units_Z   1
loop_
 _symmetry_equiv_pos_site_id
 _symmetry_equiv_pos_as_xyz
  1  'x, y, z'
loop_
 _atom_site_type_symbol
 _atom_site_label
 _atom_site_symmetry_multiplicity
 _atom_site_fract_x
 _atom_site_fract_y
 _atom_site_fract_z
 _atom_site_occupancy
  Y  Y0  1  0.250000  0.984087  0.315781  1
  Y  Y1  1  0.250000  0.459252  0.165480  1
  Y  Y2  1  0.750000  0.504794  0.836292  1
  Lu  Lu3  1  0.750000  0.035294  0.686567  1
  Hf  Hf4  1  0.250000  0.367036  0.571749  1
  Hf  Hf5  1  0.250000  0.860673  0.937594  1
  Hf  Hf6  1  0.750000  0.641678  0.428904  1
  Ga  Ga7  1  0.750000  0.141554  0.070628  1
  Ir  Ir8  1  0.250000  0.223467  0.871491  1
  Ir  Ir9  1  0.250000  0.743431  0.603908  1
  Ir  Ir10  1  0.750000  0.769547  0.114710  1
  Ir  Ir11  1  0.750000  0.269187  0.396895  1
