# generated using pymatgen
data_La2Nd6Mg2OsPt
_symmetry_space_group_name_H-M   'P 1'
_cell_length_a   10.09428631
_cell_length_b   10.09428548
_cell_length_c   10.17076200
_cell_angle_alpha   59.74906261
_cell_angle_beta   59.74906538
_cell_angle_gamma   59.68437217
_symmetry_Int_Tables_number   1
_chemical_formula_structural   La2Nd6Mg2OsPt
_chemical_formula_sum   'La4 Nd12 Mg4 Os2 Pt2'
_cell_volume   728.27135582
_cell_formula_units_Z   2
loop_
 _symmetry_equiv_pos_site_id
 _symmetry_equiv_pos_as_xyz
  1  'x, y, z'
loop_
 _atom_site_type_symbol
 _atom_site_label
 _atom_site_symmetry_multiplicity
 _atom_site_fract_x
 _atom_site_fract_y
 _atom_site_fract_z
 _atom_site_occupancy
  La  La0  1  0.345666  0.345666  0.352142  1
  La  La1  1  0.345666  0.345666  0.956526  1
  La  La2  1  0.341755  0.962520  0.347863  1
  La  La3  1  0.962520  0.341755  0.347863  1
  Nd  Nd4  1  0.816797  0.187213  0.188947  1
  Nd  Nd5  1  0.187213  0.816797  0.807043  1
  Nd  Nd6  1  0.187213  0.816797  0.188947  1
  Nd  Nd7  1  0.816797  0.187213  0.807043  1
  Nd  Nd8  1  0.187121  0.187121  0.812879  1
  Nd  Nd9  1  0.809048  0.809048  0.190952  1
  Nd  Nd10  1  0.937315  0.557494  0.566621  1
  Nd  Nd11  1  0.557494  0.937315  0.938570  1
  Nd  Nd12  1  0.557494  0.937315  0.566621  1
  Nd  Nd13  1  0.937315  0.557494  0.938570  1
  Nd  Nd14  1  0.563765  0.563765  0.936235  1
  Nd  Nd15  1  0.938482  0.938482  0.561518  1
  Mg  Mg16  1  0.578720  0.578720  0.580055  1
  Mg  Mg17  1  0.578720  0.578720  0.262507  1
  Mg  Mg18  1  0.579061  0.261317  0.579812  1
  Mg  Mg19  1  0.261317  0.579061  0.579812  1
  Os  Os20  1  0.144497  0.144497  0.136877  1
  Os  Os21  1  0.144497  0.144497  0.574131  1
  Pt  Pt22  1  0.145132  0.576399  0.139235  1
  Pt  Pt23  1  0.576399  0.145132  0.139235  1
