# generated using pymatgen
data_LaAgBi2(Pt2O7)2
_symmetry_space_group_name_H-M   'P 1'
_cell_length_a   7.47369781
_cell_length_b   7.47369854
_cell_length_c   7.29770803
_cell_angle_alpha   59.61485444
_cell_angle_beta   59.61485727
_cell_angle_gamma   60.07931343
_symmetry_Int_Tables_number   1
_chemical_formula_structural   LaAgBi2(Pt2O7)2
_chemical_formula_sum   'La1 Ag1 Bi2 Pt4 O14'
_cell_volume   286.71225062
_cell_formula_units_Z   1
loop_
 _symmetry_equiv_pos_site_id
 _symmetry_equiv_pos_as_xyz
  1  'x, y, z'
loop_
 _atom_site_type_symbol
 _atom_site_label
 _atom_site_symmetry_multiplicity
 _atom_site_fract_x
 _atom_site_fract_y
 _atom_site_fract_z
 _atom_site_occupancy
  La  La0  1  0.125000  0.125000  0.125000  1
  Ag  Ag1  1  0.125000  0.125000  0.625000  1
  Bi  Bi2  1  0.125000  0.625000  0.125000  1
  Bi  Bi3  1  0.625000  0.125000  0.125000  1
  Pt  Pt4  1  0.625000  0.625000  0.125000  1
  Pt  Pt5  1  0.625000  0.125000  0.625000  1
  Pt  Pt6  1  0.125000  0.625000  0.625000  1
  Pt  Pt7  1  0.625000  0.625000  0.625000  1
  O  O8  1  0.248287  0.248287  0.267974  1
  O  O9  1  0.001713  0.001713  0.982026  1
  O  O10  1  0.550828  0.953620  0.541223  1
  O  O11  1  0.293076  0.708191  0.287397  1
  O  O12  1  0.541226  0.541226  0.960762  1
  O  O13  1  0.953620  0.550828  0.541223  1
  O  O14  1  0.541809  0.956924  0.962603  1
  O  O15  1  0.952309  0.952309  0.543476  1
  O  O16  1  0.956924  0.541809  0.962603  1
  O  O17  1  0.708191  0.293076  0.287397  1
  O  O18  1  0.296380  0.699172  0.708777  1
  O  O19  1  0.699172  0.296380  0.708777  1
  O  O20  1  0.297691  0.297691  0.706524  1
  O  O21  1  0.708774  0.708774  0.289238  1
