# generated using pymatgen
data_LuPa(ReN3)2
_symmetry_space_group_name_H-M   'P 1'
_cell_length_a   5.30915700
_cell_length_b   5.72997800
_cell_length_c   7.71491600
_cell_angle_alpha   90.00000000
_cell_angle_beta   90.00000000
_cell_angle_gamma   90.00000000
_symmetry_Int_Tables_number   1
_chemical_formula_structural   LuPa(ReN3)2
_chemical_formula_sum   'Lu2 Pa2 Re4 N12'
_cell_volume   234.69818152
_cell_formula_units_Z   2
loop_
 _symmetry_equiv_pos_site_id
 _symmetry_equiv_pos_as_xyz
  1  'x, y, z'
loop_
 _atom_site_type_symbol
 _atom_site_label
 _atom_site_symmetry_multiplicity
 _atom_site_fract_x
 _atom_site_fract_y
 _atom_site_fract_z
 _atom_site_occupancy
  Lu  Lu0  1  0.526134  0.571986  0.750000  1
  Lu  Lu1  1  0.973866  0.071986  0.750000  1
  Pa  Pa2  1  0.478750  0.423884  0.250000  1
  Pa  Pa3  1  0.021250  0.923884  0.250000  1
  Re  Re4  1  0.504054  0.996461  0.510462  1
  Re  Re5  1  0.995946  0.496461  0.989538  1
  Re  Re6  1  0.995946  0.496461  0.510462  1
  Re  Re7  1  0.504054  0.996461  0.989538  1
  N  N8  1  0.694448  0.295058  0.554615  1
  N  N9  1  0.312091  0.700060  0.062366  1
  N  N10  1  0.187909  0.200060  0.062366  1
  N  N11  1  0.391637  0.977372  0.750000  1
  N  N12  1  0.882232  0.543602  0.250000  1
  N  N13  1  0.312091  0.700060  0.437634  1
  N  N14  1  0.805552  0.795058  0.945385  1
  N  N15  1  0.694448  0.295058  0.945385  1
  N  N16  1  0.805552  0.795058  0.554615  1
  N  N17  1  0.108363  0.477372  0.750000  1
  N  N18  1  0.187909  0.200060  0.437634  1
  N  N19  1  0.617768  0.043602  0.250000  1
