# generated using pymatgen
data_Cs2CaTa6Cl18
_symmetry_space_group_name_H-M   'P 1'
_cell_length_a   10.39316810
_cell_length_b   10.39316904
_cell_length_c   10.39316836
_cell_angle_alpha   55.13202414
_cell_angle_beta   55.13201726
_cell_angle_gamma   55.13201746
_symmetry_Int_Tables_number   1
_chemical_formula_structural   Cs2CaTa6Cl18
_chemical_formula_sum   'Cs2 Ca1 Ta6 Cl18'
_cell_volume   703.96939794
_cell_formula_units_Z   1
loop_
 _symmetry_equiv_pos_site_id
 _symmetry_equiv_pos_as_xyz
  1  'x, y, z'
loop_
 _atom_site_type_symbol
 _atom_site_label
 _atom_site_symmetry_multiplicity
 _atom_site_fract_x
 _atom_site_fract_y
 _atom_site_fract_z
 _atom_site_occupancy
  Cs  Cs0  1  0.276409  0.276409  0.276409  1
  Cs  Cs1  1  0.723591  0.723591  0.723591  1
  Ca  Ca2  1  0.000000  0.000000  0.000000  1
  Ta  Ta3  1  0.416165  0.303668  0.645685  1
  Ta  Ta4  1  0.354315  0.583835  0.696332  1
  Ta  Ta5  1  0.696332  0.354315  0.583835  1
  Ta  Ta6  1  0.645685  0.416165  0.303668  1
  Ta  Ta7  1  0.583835  0.696332  0.354315  1
  Ta  Ta8  1  0.303668  0.645685  0.416165  1
  Cl  Cl9  1  0.634850  0.092845  0.771999  1
  Cl  Cl10  1  0.771999  0.634850  0.092845  1
  Cl  Cl11  1  0.092845  0.771999  0.634850  1
  Cl  Cl12  1  0.828761  0.308812  0.048960  1
  Cl  Cl13  1  0.165434  0.439278  0.574491  1
  Cl  Cl14  1  0.691188  0.951040  0.171239  1
  Cl  Cl15  1  0.907155  0.228001  0.365150  1
  Cl  Cl16  1  0.560722  0.425509  0.834566  1
  Cl  Cl17  1  0.425509  0.834566  0.560722  1
  Cl  Cl18  1  0.951040  0.171239  0.691188  1
  Cl  Cl19  1  0.171239  0.691188  0.951040  1
  Cl  Cl20  1  0.048960  0.828761  0.308812  1
  Cl  Cl21  1  0.308812  0.048960  0.828761  1
  Cl  Cl22  1  0.228001  0.365150  0.907155  1
  Cl  Cl23  1  0.574491  0.165434  0.439278  1
  Cl  Cl24  1  0.439278  0.574491  0.165434  1
  Cl  Cl25  1  0.365150  0.907155  0.228001  1
  Cl  Cl26  1  0.834566  0.560722  0.425509  1
