# generated using pymatgen
data_Ho2B4Ir4Os
_symmetry_space_group_name_H-M   'P 1'
_cell_length_a   7.50697640
_cell_length_b   6.37088384
_cell_length_c   5.56473084
_cell_angle_alpha   77.62151061
_cell_angle_beta   55.98927375
_cell_angle_gamma   46.38921356
_symmetry_Int_Tables_number   1
_chemical_formula_structural   Ho2B4Ir4Os
_chemical_formula_sum   'Ho2 B4 Ir4 Os1'
_cell_volume   153.07641235
_cell_formula_units_Z   1
loop_
 _symmetry_equiv_pos_site_id
 _symmetry_equiv_pos_as_xyz
  1  'x, y, z'
loop_
 _atom_site_type_symbol
 _atom_site_label
 _atom_site_symmetry_multiplicity
 _atom_site_fract_x
 _atom_site_fract_y
 _atom_site_fract_z
 _atom_site_occupancy
  Ho  Ho0  1  0.639621  0.639622  0.360379  1
  Ho  Ho1  1  0.360378  0.360379  0.639622  1
  B  B2  1  0.283902  0.984004  0.027873  1
  B  B3  1  0.027872  0.704222  0.283903  1
  B  B4  1  0.984003  0.283903  0.704222  1
  B  B5  1  0.704221  0.027873  0.984003  1
  Ir  Ir6  1  0.000000  0.000000  0.000000  1
  Ir  Ir7  1  0.500292  0.500290  0.999709  1
  Ir  Ir8  1  0.999709  0.999709  0.500291  1
  Ir  Ir9  1  0.750001  0.749999  0.750000  1
  Os  Os10  1  0.250001  0.249999  0.250000  1
