# generated using pymatgen
data_Li2Ho4Co18(SiP3)3
_symmetry_space_group_name_H-M   'P 1'
_cell_length_a   3.67167400
_cell_length_b   10.28821887
_cell_length_c   11.85666576
_cell_angle_alpha   90.18103281
_cell_angle_beta   90.00000000
_cell_angle_gamma   90.00000000
_symmetry_Int_Tables_number   1
_chemical_formula_structural   Li2Ho4Co18(SiP3)3
_chemical_formula_sum   'Li2 Ho4 Co18 Si3 P9'
_cell_volume   447.88314424
_cell_formula_units_Z   1
loop_
 _symmetry_equiv_pos_site_id
 _symmetry_equiv_pos_as_xyz
  1  'x, y, z'
loop_
 _atom_site_type_symbol
 _atom_site_label
 _atom_site_symmetry_multiplicity
 _atom_site_fract_x
 _atom_site_fract_y
 _atom_site_fract_z
 _atom_site_occupancy
  Li  Li0  1  0.250000  0.703201  0.991531  1
  Li  Li1  1  0.250000  0.797895  0.491446  1
  Ho  Ho2  1  0.250000  0.580825  0.702234  1
  Ho  Ho3  1  0.250000  0.918648  0.202610  1
  Ho  Ho4  1  0.750000  0.419662  0.298980  1
  Ho  Ho5  1  0.750000  0.077347  0.799281  1
  Co  Co6  1  0.750000  0.288009  0.009526  1
  Co  Co7  1  0.750000  0.211584  0.509047  1
  Co  Co8  1  0.250000  0.403080  0.486441  1
  Co  Co9  1  0.250000  0.092021  0.991155  1
  Co  Co10  1  0.750000  0.589033  0.514708  1
  Co  Co11  1  0.750000  0.908876  0.015962  1
  Co  Co12  1  0.250000  0.216077  0.176134  1
  Co  Co13  1  0.250000  0.284430  0.672681  1
  Co  Co14  1  0.750000  0.781486  0.826843  1
  Co  Co15  1  0.750000  0.719033  0.327315  1
  Co  Co16  1  0.250000  0.878184  0.699369  1
  Co  Co17  1  0.250000  0.621091  0.199987  1
  Co  Co18  1  0.750000  0.120849  0.300405  1
  Co  Co19  1  0.750000  0.382649  0.798278  1
  Co  Co20  1  0.250000  0.471257  0.927728  1
  Co  Co21  1  0.250000  0.035220  0.426621  1
  Co  Co22  1  0.750000  0.537452  0.064906  1
  Co  Co23  1  0.750000  0.962450  0.563888  1
  Si  Si24  1  0.250000  0.418109  0.108474  1
  Si  Si25  1  0.250000  0.081136  0.609770  1
  Si  Si26  1  0.250000  0.269442  0.870236  1
  P  P27  1  0.750000  0.578285  0.884171  1
  P  P28  1  0.750000  0.922842  0.383794  1
  P  P29  1  0.250000  0.231281  0.367178  1
  P  P30  1  0.750000  0.729265  0.139561  1
  P  P31  1  0.750000  0.770115  0.638971  1
  P  P32  1  0.250000  0.601277  0.392534  1
  P  P33  1  0.250000  0.898002  0.892794  1
  P  P34  1  0.750000  0.395812  0.607532  1
  P  P35  1  0.750000  0.104075  0.107906  1
