# generated using pymatgen
data_ThTlAgSe3
_symmetry_space_group_name_H-M   'P 1'
_cell_length_a   4.33553400
_cell_length_b   7.90713106
_cell_length_c   11.06209900
_cell_angle_alpha   90.00000000
_cell_angle_beta   90.00000000
_cell_angle_gamma   74.08843029
_symmetry_Int_Tables_number   1
_chemical_formula_structural   ThTlAgSe3
_chemical_formula_sum   'Th2 Tl2 Ag2 Se6'
_cell_volume   364.69713744
_cell_formula_units_Z   2
loop_
 _symmetry_equiv_pos_site_id
 _symmetry_equiv_pos_as_xyz
  1  'x, y, z'
loop_
 _atom_site_type_symbol
 _atom_site_label
 _atom_site_symmetry_multiplicity
 _atom_site_fract_x
 _atom_site_fract_y
 _atom_site_fract_z
 _atom_site_occupancy
  Th  Th0  1  0.000000  0.000000  0.000000  1
  Th  Th1  1  0.000000  0.000000  0.500000  1
  Tl  Tl2  1  0.737685  0.524633  0.250000  1
  Tl  Tl3  1  0.262317  0.475367  0.750000  1
  Ag  Ag4  1  0.456018  0.087968  0.250000  1
  Ag  Ag5  1  0.543984  0.912032  0.750000  1
  Se  Se6  1  0.371920  0.256161  0.042863  1
  Se  Se7  1  0.067218  0.865564  0.250000  1
  Se  Se8  1  0.371920  0.256161  0.457137  1
  Se  Se9  1  0.628082  0.743839  0.542863  1
  Se  Se10  1  0.932783  0.134437  0.750000  1
  Se  Se11  1  0.628082  0.743839  0.957137  1
