# generated using pymatgen
data_Li8YNp7N16
_symmetry_space_group_name_H-M   'P 1'
_cell_length_a   21.94670485
_cell_length_b   4.34175516
_cell_length_c   4.34185305
_cell_angle_alpha   90.01587393
_cell_angle_beta   89.98690431
_cell_angle_gamma   89.97332568
_symmetry_Int_Tables_number   1
_chemical_formula_structural   Li8YNp7N16
_chemical_formula_sum   'Li8 Y1 Np7 N16'
_cell_volume   413.72303111
_cell_formula_units_Z   1
loop_
 _symmetry_equiv_pos_site_id
 _symmetry_equiv_pos_as_xyz
  1  'x, y, z'
loop_
 _atom_site_type_symbol
 _atom_site_label
 _atom_site_symmetry_multiplicity
 _atom_site_fract_x
 _atom_site_fract_y
 _atom_site_fract_z
 _atom_site_occupancy
  Li  Li0  1  0.201813  0.999139  0.748346  1
  Li  Li1  1  0.811668  0.001734  0.251877  1
  Li  Li2  1  0.301400  0.998798  0.247956  1
  Li  Li3  1  0.673272  0.000428  0.751328  1
  Li  Li4  1  0.063363  0.499153  0.749069  1
  Li  Li5  1  0.937509  0.500670  0.250450  1
  Li  Li6  1  0.437427  0.499151  0.250087  1
  Li  Li7  1  0.573608  0.500691  0.751058  1
  Y  Y8  1  0.437465  0.999032  0.750261  1
  Np  Np9  1  0.562402  0.000525  0.250856  1
  Np  Np10  1  0.063147  0.998448  0.250291  1
  Np  Np11  1  0.937509  0.000017  0.751026  1
  Np  Np12  1  0.312544  0.498903  0.748246  1
  Np  Np13  1  0.687085  0.500065  0.251729  1
  Np  Np14  1  0.187928  0.498813  0.248833  1
  Np  Np15  1  0.811871  0.500619  0.752438  1
  N  N16  1  0.319152  0.998992  0.748152  1
  N  N17  1  0.665299  0.000786  0.251038  1
  N  N18  1  0.171624  0.999326  0.248690  1
  N  N19  1  0.833135  0.002079  0.751157  1
  N  N20  1  0.405523  0.499048  0.749589  1
  N  N21  1  0.585892  0.500577  0.251174  1
  N  N22  1  0.084873  0.500035  0.248988  1
  N  N23  1  0.917383  0.501741  0.749850  1
  N  N24  1  0.041869  0.999892  0.748885  1
  N  N25  1  0.957614  0.001217  0.249292  1
  N  N26  1  0.469372  0.999380  0.250314  1
  N  N27  1  0.555774  0.000594  0.750733  1
  N  N28  1  0.209741  0.499356  0.747994  1
  N  N29  1  0.790187  0.501593  0.250880  1
  N  N30  1  0.289124  0.498734  0.248143  1
  N  N31  1  0.703430  0.500465  0.751269  1
