# generated using pymatgen
data_Rb4ZrTiBr12
_symmetry_space_group_name_H-M   'P 1'
_cell_length_a   7.69209400
_cell_length_b   7.69209400
_cell_length_c   11.12696100
_cell_angle_alpha   90.00000000
_cell_angle_beta   90.00000000
_cell_angle_gamma   90.00000000
_symmetry_Int_Tables_number   1
_chemical_formula_structural   Rb4ZrTiBr12
_chemical_formula_sum   'Rb4 Zr1 Ti1 Br12'
_cell_volume   658.36347897
_cell_formula_units_Z   1
loop_
 _symmetry_equiv_pos_site_id
 _symmetry_equiv_pos_as_xyz
  1  'x, y, z'
loop_
 _atom_site_type_symbol
 _atom_site_label
 _atom_site_symmetry_multiplicity
 _atom_site_fract_x
 _atom_site_fract_y
 _atom_site_fract_z
 _atom_site_occupancy
  Rb  Rb0  1  0.500000  0.000000  0.757291  1
  Rb  Rb1  1  0.500000  0.000000  0.242709  1
  Rb  Rb2  1  0.000000  0.500000  0.242709  1
  Rb  Rb3  1  0.000000  0.500000  0.757291  1
  Zr  Zr4  1  0.500000  0.500000  0.500000  1
  Ti  Ti5  1  0.000000  0.000000  0.000000  1
  Br  Br6  1  0.779402  0.244627  0.000000  1
  Br  Br7  1  0.220598  0.755373  0.000000  1
  Br  Br8  1  0.500000  0.500000  0.260576  1
  Br  Br9  1  0.311353  0.212092  0.500000  1
  Br  Br10  1  0.244627  0.220598  0.000000  1
  Br  Br11  1  0.787908  0.311353  0.500000  1
  Br  Br12  1  0.000000  0.000000  0.227950  1
  Br  Br13  1  0.688647  0.787908  0.500000  1
  Br  Br14  1  0.212092  0.688647  0.500000  1
  Br  Br15  1  0.500000  0.500000  0.739424  1
  Br  Br16  1  0.755373  0.779402  0.000000  1
  Br  Br17  1  0.000000  0.000000  0.772050  1
