# generated using pymatgen
data_Ho(TmTe2)2
_symmetry_space_group_name_H-M   'P 1'
_cell_length_a   4.30634700
_cell_length_b   7.43305358
_cell_length_c   7.43412060
_cell_angle_alpha   71.50441827
_cell_angle_beta   90.00000000
_cell_angle_gamma   90.00000000
_symmetry_Int_Tables_number   1
_chemical_formula_structural   Ho(TmTe2)2
_chemical_formula_sum   'Ho1 Tm2 Te4'
_cell_volume   225.66992023
_cell_formula_units_Z   1
loop_
 _symmetry_equiv_pos_site_id
 _symmetry_equiv_pos_as_xyz
  1  'x, y, z'
loop_
 _atom_site_type_symbol
 _atom_site_label
 _atom_site_symmetry_multiplicity
 _atom_site_fract_x
 _atom_site_fract_y
 _atom_site_fract_z
 _atom_site_occupancy
  Ho  Ho0  1  0.000000  0.500000  0.500000  1
  Tm  Tm1  1  0.000000  0.000000  0.000000  1
  Tm  Tm2  1  0.500000  0.500000  0.000000  1
  Te  Te3  1  0.500000  0.758769  0.255337  1
  Te  Te4  1  0.000000  0.248170  0.250100  1
  Te  Te5  1  0.500000  0.241231  0.744663  1
  Te  Te6  1  0.000000  0.751830  0.749900  1
