# generated using pymatgen
data_Er2Fe3P7Ru9
_symmetry_space_group_name_H-M   'P 1'
_cell_length_a   9.29487200
_cell_length_b   9.29487126
_cell_length_c   3.84505400
_cell_angle_alpha   90.00000000
_cell_angle_beta   90.00000000
_cell_angle_gamma   119.99999552
_symmetry_Int_Tables_number   1
_chemical_formula_structural   Er2Fe3P7Ru9
_chemical_formula_sum   'Er2 Fe3 P7 Ru9'
_cell_volume   287.68676793
_cell_formula_units_Z   1
loop_
 _symmetry_equiv_pos_site_id
 _symmetry_equiv_pos_as_xyz
  1  'x, y, z'
loop_
 _atom_site_type_symbol
 _atom_site_label
 _atom_site_symmetry_multiplicity
 _atom_site_fract_x
 _atom_site_fract_y
 _atom_site_fract_z
 _atom_site_occupancy
  Er  Er0  1  0.000000  0.000000  0.000000  1
  Er  Er1  1  0.333333  0.666667  0.500000  1
  Fe  Fe2  1  0.824611  0.223247  0.000000  1
  Fe  Fe3  1  0.776753  0.601364  0.000000  1
  Fe  Fe4  1  0.398636  0.175389  0.000000  1
  P  P5  1  0.079752  0.442260  0.000000  1
  P  P6  1  0.557740  0.637492  0.000000  1
  P  P7  1  0.362508  0.920248  0.000000  1
  P  P8  1  0.782833  0.052772  0.500000  1
  P  P9  1  0.947228  0.730060  0.500000  1
  P  P10  1  0.269940  0.217167  0.500000  1
  P  P11  1  0.666667  0.333333  0.000000  1
  Ru  Ru12  1  0.088238  0.694240  0.000000  1
  Ru  Ru13  1  0.305760  0.393998  0.000000  1
  Ru  Ru14  1  0.606002  0.911762  0.000000  1
  Ru  Ru15  1  0.052503  0.280440  0.500000  1
  Ru  Ru16  1  0.719560  0.772063  0.500000  1
  Ru  Ru17  1  0.227937  0.947497  0.500000  1
  Ru  Ru18  1  0.871260  0.449874  0.500000  1
  Ru  Ru19  1  0.550126  0.421386  0.500000  1
  Ru  Ru20  1  0.578614  0.128740  0.500000  1
