# generated using pymatgen
data_Dy4Er8Co4BiIr
_symmetry_space_group_name_H-M   'P 1'
_cell_length_a   8.26943740
_cell_length_b   8.26943624
_cell_length_c   8.26943693
_cell_angle_alpha   110.67137213
_cell_angle_beta   111.08241428
_cell_angle_gamma   106.69531180
_symmetry_Int_Tables_number   1
_chemical_formula_structural   Dy4Er8Co4BiIr
_chemical_formula_sum   'Dy4 Er8 Co4 Bi1 Ir1'
_cell_volume   434.54973424
_cell_formula_units_Z   1
loop_
 _symmetry_equiv_pos_site_id
 _symmetry_equiv_pos_as_xyz
  1  'x, y, z'
loop_
 _atom_site_type_symbol
 _atom_site_label
 _atom_site_symmetry_multiplicity
 _atom_site_fract_x
 _atom_site_fract_y
 _atom_site_fract_z
 _atom_site_occupancy
  Dy  Dy0  1  0.284648  0.182868  0.467517  1
  Dy  Dy1  1  0.715352  0.817132  0.532483  1
  Dy  Dy2  1  0.284648  0.817132  0.101779  1
  Dy  Dy3  1  0.715352  0.182868  0.898221  1
  Er  Er4  1  0.621281  0.312139  0.309142  1
  Er  Er5  1  0.378719  0.687861  0.690858  1
  Er  Er6  1  0.002998  0.312139  0.690858  1
  Er  Er7  1  0.997002  0.687861  0.309142  1
  Er  Er8  1  0.212539  0.410310  0.197771  1
  Er  Er9  1  0.787461  0.589690  0.802229  1
  Er  Er10  1  0.212539  0.014769  0.802229  1
  Er  Er11  1  0.787461  0.985231  0.197771  1
  Co  Co12  1  0.000000  0.376282  0.376282  1
  Co  Co13  1  0.000000  0.623718  0.623718  1
  Co  Co14  1  0.388718  0.888718  0.500000  1
  Co  Co15  1  0.611282  0.111282  0.500000  1
  Bi  Bi16  1  0.500000  0.500000  0.000000  1
  Ir  Ir17  1  0.000000  0.000000  0.000000  1
