# generated using pymatgen
data_Er5ReRuC7
_symmetry_space_group_name_H-M   'P 1'
_cell_length_a   8.18487266
_cell_length_b   8.18487279
_cell_length_c   3.43958800
_cell_angle_alpha   90.00000000
_cell_angle_beta   90.00000000
_cell_angle_gamma   121.98272776
_symmetry_Int_Tables_number   1
_chemical_formula_structural   Er5ReRuC7
_chemical_formula_sum   'Er5 Re1 Ru1 C7'
_cell_volume   195.44859419
_cell_formula_units_Z   1
loop_
 _symmetry_equiv_pos_site_id
 _symmetry_equiv_pos_as_xyz
  1  'x, y, z'
loop_
 _atom_site_type_symbol
 _atom_site_label
 _atom_site_symmetry_multiplicity
 _atom_site_fract_x
 _atom_site_fract_y
 _atom_site_fract_z
 _atom_site_occupancy
  Er  Er0  1  0.500781  0.499219  0.000000  1
  Er  Er1  1  0.075826  0.336503  0.500000  1
  Er  Er2  1  0.921303  0.660443  0.500000  1
  Er  Er3  1  0.663497  0.924174  0.500000  1
  Er  Er4  1  0.339557  0.078697  0.500000  1
  Re  Re5  1  0.285144  0.714856  0.000000  1
  Ru  Ru6  1  0.713097  0.286903  0.000000  1
  C  C7  1  0.628011  0.371989  0.500000  1
  C  C8  1  0.374969  0.625031  0.500000  1
  C  C9  1  0.999213  0.000787  0.000000  1
  C  C10  1  0.170904  0.171162  0.000000  1
  C  C11  1  0.828838  0.829096  0.000000  1
  C  C12  1  0.001519  0.502657  0.000000  1
  C  C13  1  0.497343  0.998481  0.000000  1
