# generated using pymatgen
data_NdTh2Sn3Ir2Rh
_symmetry_space_group_name_H-M   'P 1'
_cell_length_a   7.57282900
_cell_length_b   7.61705843
_cell_length_c   4.09922600
_cell_angle_alpha   90.00000000
_cell_angle_beta   90.00000000
_cell_angle_gamma   119.80809909
_symmetry_Int_Tables_number   1
_chemical_formula_structural   NdTh2Sn3Ir2Rh
_chemical_formula_sum   'Nd1 Th2 Sn3 Ir2 Rh1'
_cell_volume   205.17029952
_cell_formula_units_Z   1
loop_
 _symmetry_equiv_pos_site_id
 _symmetry_equiv_pos_as_xyz
  1  'x, y, z'
loop_
 _atom_site_type_symbol
 _atom_site_label
 _atom_site_symmetry_multiplicity
 _atom_site_fract_x
 _atom_site_fract_y
 _atom_site_fract_z
 _atom_site_occupancy
  Nd  Nd0  1  0.589181  0.000000  0.000000  1
  Th  Th1  1  0.999725  0.585965  0.000000  1
  Th  Th2  1  0.413760  0.414035  0.000000  1
  Sn  Sn3  1  0.749361  0.756469  0.500000  1
  Sn  Sn4  1  0.992892  0.243531  0.500000  1
  Sn  Sn5  1  0.257720  0.000000  0.500000  1
  Ir  Ir6  1  0.668930  0.349627  0.500000  1
  Ir  Ir7  1  0.319303  0.650373  0.500000  1
  Rh  Rh8  1  0.009126  0.000000  0.000000  1
