# generated using pymatgen
data_Li3Pr4Si6Pd
_symmetry_space_group_name_H-M   'P 1'
_cell_length_a   9.52964054
_cell_length_b   9.52964108
_cell_length_c   6.88394693
_cell_angle_alpha   90.32986239
_cell_angle_beta   89.67013711
_cell_angle_gamma   153.27692788
_symmetry_Int_Tables_number   1
_chemical_formula_structural   Li3Pr4Si6Pd
_chemical_formula_sum   'Li3 Pr4 Si6 Pd1'
_cell_volume   281.11582753
_cell_formula_units_Z   1
loop_
 _symmetry_equiv_pos_site_id
 _symmetry_equiv_pos_as_xyz
  1  'x, y, z'
loop_
 _atom_site_type_symbol
 _atom_site_label
 _atom_site_symmetry_multiplicity
 _atom_site_fract_x
 _atom_site_fract_y
 _atom_site_fract_z
 _atom_site_occupancy
  Li  Li0  1  0.188526  0.811474  0.439393  1
  Li  Li1  1  0.188898  0.811102  0.060993  1
  Li  Li2  1  0.813815  0.186185  0.935185  1
  Pr  Pr3  1  0.550830  0.449170  0.253725  1
  Pr  Pr4  1  0.447043  0.552957  0.750709  1
  Pr  Pr5  1  0.342208  0.657792  0.248982  1
  Pr  Pr6  1  0.657897  0.342103  0.745634  1
  Si  Si7  1  0.942983  0.057017  0.079258  1
  Si  Si8  1  0.057778  0.942222  0.926195  1
  Si  Si9  1  0.055635  0.944365  0.577935  1
  Si  Si10  1  0.938282  0.061718  0.429551  1
  Si  Si11  1  0.721703  0.278297  0.259799  1
  Si  Si12  1  0.281773  0.718227  0.731577  1
  Pd  Pd13  1  0.812629  0.187371  0.561063  1
