# generated using pymatgen
data_Sr3Pr(ScSe2)8
_symmetry_space_group_name_H-M   'P 1'
_cell_length_a   3.96457600
_cell_length_b   12.23508824
_cell_length_c   14.36473408
_cell_angle_alpha   89.84150959
_cell_angle_beta   90.00000000
_cell_angle_gamma   90.00000000
_symmetry_Int_Tables_number   1
_chemical_formula_structural   Sr3Pr(ScSe2)8
_chemical_formula_sum   'Sr3 Pr1 Sc8 Se16'
_cell_volume   696.78658784
_cell_formula_units_Z   1
loop_
 _symmetry_equiv_pos_site_id
 _symmetry_equiv_pos_as_xyz
  1  'x, y, z'
loop_
 _atom_site_type_symbol
 _atom_site_label
 _atom_site_symmetry_multiplicity
 _atom_site_fract_x
 _atom_site_fract_y
 _atom_site_fract_z
 _atom_site_occupancy
  Sr  Sr0  1  0.250000  0.237807  0.330943  1
  Sr  Sr1  1  0.750000  0.260598  0.831819  1
  Sr  Sr2  1  0.250000  0.739257  0.169199  1
  Pr  Pr3  1  0.750000  0.761747  0.670839  1
  Sc  Sc4  1  0.250000  0.081070  0.596533  1
  Sc  Sc5  1  0.250000  0.058216  0.109839  1
  Sc  Sc6  1  0.750000  0.418743  0.096690  1
  Sc  Sc7  1  0.750000  0.940583  0.889720  1
  Sc  Sc8  1  0.750000  0.442556  0.610146  1
  Sc  Sc9  1  0.250000  0.559083  0.390098  1
  Sc  Sc10  1  0.750000  0.916702  0.404281  1
  Sc  Sc11  1  0.250000  0.581566  0.903777  1
  Se  Se12  1  0.250000  0.871933  0.533120  1
  Se  Se13  1  0.250000  0.795725  0.832632  1
  Se  Se14  1  0.250000  0.970297  0.285176  1
  Se  Se15  1  0.750000  0.411695  0.426743  1
  Se  Se16  1  0.250000  0.471104  0.215625  1
  Se  Se17  1  0.250000  0.088817  0.924248  1
  Se  Se18  1  0.750000  0.203651  0.159697  1
  Se  Se19  1  0.750000  0.022792  0.713885  1
  Se  Se20  1  0.250000  0.595057  0.577420  1
  Se  Se21  1  0.750000  0.703298  0.340649  1
  Se  Se22  1  0.250000  0.297235  0.660382  1
  Se  Se23  1  0.250000  0.375622  0.970057  1
  Se  Se24  1  0.750000  0.625923  0.027676  1
  Se  Se25  1  0.750000  0.535918  0.782153  1
  Se  Se26  1  0.750000  0.123346  0.472016  1
  Se  Se27  1  0.750000  0.909654  0.074642  1
