# generated using pymatgen
data_La4Yb5HoSi8
_symmetry_space_group_name_H-M   'P 1'
_cell_length_a   7.56895300
_cell_length_b   7.98384521
_cell_length_c   15.24486218
_cell_angle_alpha   89.91494735
_cell_angle_beta   90.00000000
_cell_angle_gamma   90.00000000
_symmetry_Int_Tables_number   1
_chemical_formula_structural   La4Yb5HoSi8
_chemical_formula_sum   'La8 Yb10 Ho2 Si16'
_cell_volume   921.23608437
_cell_formula_units_Z   2
loop_
 _symmetry_equiv_pos_site_id
 _symmetry_equiv_pos_as_xyz
  1  'x, y, z'
loop_
 _atom_site_type_symbol
 _atom_site_label
 _atom_site_symmetry_multiplicity
 _atom_site_fract_x
 _atom_site_fract_y
 _atom_site_fract_z
 _atom_site_occupancy
  La  La0  1  0.974127  0.816923  0.098951  1
  La  La1  1  0.474127  0.683077  0.401049  1
  La  La2  1  0.524728  0.316337  0.902662  1
  La  La3  1  0.024728  0.183663  0.597338  1
  La  La4  1  0.025235  0.182765  0.900305  1
  La  La5  1  0.525235  0.317235  0.599695  1
  La  La6  1  0.474422  0.683894  0.098977  1
  La  La7  1  0.974422  0.816106  0.401023  1
  Yb  Yb8  1  0.645515  0.001748  0.250095  1
  Yb  Yb9  1  0.145515  0.498252  0.249905  1
  Yb  Yb10  1  0.851487  0.496196  0.750300  1
  Yb  Yb11  1  0.351487  0.003804  0.749700  1
  Yb  Yb12  1  0.680046  0.818330  0.877520  1
  Yb  Yb13  1  0.180046  0.681670  0.622480  1
  Yb  Yb14  1  0.820437  0.319464  0.121651  1
  Yb  Yb15  1  0.320437  0.180536  0.378349  1
  Yb  Yb16  1  0.320501  0.180800  0.122662  1
  Yb  Yb17  1  0.820501  0.319200  0.377338  1
  Ho  Ho18  1  0.180499  0.680553  0.875953  1
  Ho  Ho19  1  0.680499  0.819447  0.624047  1
  Si  Si20  1  0.757194  0.622686  0.249753  1
  Si  Si21  1  0.257194  0.877314  0.250247  1
  Si  Si22  1  0.742138  0.116554  0.747992  1
  Si  Si23  1  0.242138  0.383446  0.752008  1
  Si  Si24  1  0.031375  0.094877  0.249700  1
  Si  Si25  1  0.531375  0.405123  0.250300  1
  Si  Si26  1  0.468233  0.602299  0.751259  1
  Si  Si27  1  0.968233  0.897701  0.748741  1
  Si  Si28  1  0.864319  0.529706  0.960115  1
  Si  Si29  1  0.364319  0.970294  0.539885  1
  Si  Si30  1  0.639702  0.027556  0.036095  1
  Si  Si31  1  0.139702  0.472444  0.463905  1
  Si  Si32  1  0.147219  0.474739  0.033557  1
  Si  Si33  1  0.647219  0.025261  0.466443  1
  Si  Si34  1  0.352821  0.965910  0.961556  1
  Si  Si35  1  0.852821  0.534090  0.538444  1
