# generated using pymatgen
data_TaNb(CoP)2
_symmetry_space_group_name_H-M   'P 1'
_cell_length_a   3.60498900
_cell_length_b   6.13703000
_cell_length_c   6.97128700
_cell_angle_alpha   90.00000000
_cell_angle_beta   90.00000000
_cell_angle_gamma   90.00000000
_symmetry_Int_Tables_number   1
_chemical_formula_structural   TaNb(CoP)2
_chemical_formula_sum   'Ta2 Nb2 Co4 P4'
_cell_volume   154.23223522
_cell_formula_units_Z   2
loop_
 _symmetry_equiv_pos_site_id
 _symmetry_equiv_pos_as_xyz
  1  'x, y, z'
loop_
 _atom_site_type_symbol
 _atom_site_label
 _atom_site_symmetry_multiplicity
 _atom_site_fract_x
 _atom_site_fract_y
 _atom_site_fract_z
 _atom_site_occupancy
  Ta  Ta0  1  0.750000  0.974106  0.172551  1
  Ta  Ta1  1  0.750000  0.474106  0.327449  1
  Nb  Nb2  1  0.250000  0.025561  0.827647  1
  Nb  Nb3  1  0.250000  0.525561  0.672353  1
  Co  Co4  1  0.250000  0.147297  0.434398  1
  Co  Co5  1  0.250000  0.647297  0.065602  1
  Co  Co6  1  0.750000  0.853634  0.558614  1
  Co  Co7  1  0.750000  0.353634  0.941386  1
  P  P8  1  0.250000  0.278127  0.120104  1
  P  P9  1  0.250000  0.778127  0.379896  1
  P  P10  1  0.750000  0.721275  0.878665  1
  P  P11  1  0.750000  0.221275  0.621335  1
