# generated using pymatgen
data_Tb9Th(FeBi2)2
_symmetry_space_group_name_H-M   'P 1'
_cell_length_a   8.13388471
_cell_length_b   8.83378801
_cell_length_c   12.52701967
_cell_angle_alpha   90.28988955
_cell_angle_beta   90.03601573
_cell_angle_gamma   90.31029494
_symmetry_Int_Tables_number   1
_chemical_formula_structural   Tb9Th(FeBi2)2
_chemical_formula_sum   'Tb18 Th2 Fe4 Bi8'
_cell_volume   900.07919611
_cell_formula_units_Z   2
loop_
 _symmetry_equiv_pos_site_id
 _symmetry_equiv_pos_as_xyz
  1  'x, y, z'
loop_
 _atom_site_type_symbol
 _atom_site_label
 _atom_site_symmetry_multiplicity
 _atom_site_fract_x
 _atom_site_fract_y
 _atom_site_fract_z
 _atom_site_occupancy
  Tb  Tb0  1  0.848326  0.750151  0.802767  1
  Tb  Tb1  1  0.151674  0.249849  0.197233  1
  Tb  Tb2  1  0.344151  0.250727  0.701266  1
  Tb  Tb3  1  0.655849  0.749273  0.298734  1
  Tb  Tb4  1  0.381089  0.747482  0.693228  1
  Tb  Tb5  1  0.618911  0.252518  0.306772  1
  Tb  Tb6  1  0.881512  0.248551  0.809058  1
  Tb  Tb7  1  0.118488  0.751449  0.190942  1
  Tb  Tb8  1  0.951187  0.750342  0.502864  1
  Tb  Tb9  1  0.048813  0.249658  0.497136  1
  Tb  Tb10  1  0.445908  0.251109  0.996537  1
  Tb  Tb11  1  0.554092  0.748891  0.003463  1
  Tb  Tb12  1  0.174109  0.963830  0.939305  1
  Tb  Tb13  1  0.326138  0.541067  0.437563  1
  Tb  Tb14  1  0.825891  0.036170  0.060695  1
  Tb  Tb15  1  0.673862  0.458933  0.562437  1
  Tb  Tb16  1  0.826679  0.463840  0.062138  1
  Tb  Tb17  1  0.173321  0.536160  0.937862  1
  Th  Th18  1  0.678129  0.032143  0.561433  1
  Th  Th19  1  0.321871  0.967857  0.438567  1
  Fe  Fe20  1  0.568958  0.771452  0.511878  1
  Fe  Fe21  1  0.431042  0.228548  0.488122  1
  Fe  Fe22  1  0.070898  0.250115  0.988498  1
  Fe  Fe23  1  0.929102  0.749885  0.011502  1
  Bi  Bi24  1  0.572308  0.490959  0.825738  1
  Bi  Bi25  1  0.427692  0.509041  0.174262  1
  Bi  Bi26  1  0.070049  0.507996  0.673766  1
  Bi  Bi27  1  0.430139  0.992153  0.172307  1
  Bi  Bi28  1  0.929951  0.492004  0.326234  1
  Bi  Bi29  1  0.569861  0.007847  0.827693  1
  Bi  Bi30  1  0.923153  0.010286  0.323282  1
  Bi  Bi31  1  0.076847  0.989714  0.676718  1
