# generated using pymatgen
data_Sr4AlCdPt4
_symmetry_space_group_name_H-M   'P 1'
_cell_length_a   5.91650091
_cell_length_b   5.91650136
_cell_length_c   8.31265752
_cell_angle_alpha   79.14989650
_cell_angle_beta   79.14989785
_cell_angle_gamma   61.50558726
_symmetry_Int_Tables_number   1
_chemical_formula_structural   Sr4AlCdPt4
_chemical_formula_sum   'Sr4 Al1 Cd1 Pt4'
_cell_volume   249.52525707
_cell_formula_units_Z   1
loop_
 _symmetry_equiv_pos_site_id
 _symmetry_equiv_pos_as_xyz
  1  'x, y, z'
loop_
 _atom_site_type_symbol
 _atom_site_label
 _atom_site_symmetry_multiplicity
 _atom_site_fract_x
 _atom_site_fract_y
 _atom_site_fract_z
 _atom_site_occupancy
  Sr  Sr0  1  0.788096  0.510846  0.853543  1
  Sr  Sr1  1  0.489154  0.211904  0.646457  1
  Sr  Sr2  1  0.214950  0.490576  0.147114  1
  Sr  Sr3  1  0.509424  0.785050  0.352886  1
  Al  Al4  1  0.898804  0.101196  0.250000  1
  Cd  Cd5  1  0.134505  0.865495  0.750000  1
  Pt  Pt6  1  0.989599  0.735692  0.489573  1
  Pt  Pt7  1  0.264308  0.010401  0.010427  1
  Pt  Pt8  1  0.984699  0.273538  0.477959  1
  Pt  Pt9  1  0.726462  0.015301  0.022041  1
