# generated using pymatgen
data_Y10InPb5S2
_symmetry_space_group_name_H-M   'P 1'
_cell_length_a   9.08184100
_cell_length_b   9.08184196
_cell_length_c   6.73619400
_cell_angle_alpha   90.00000000
_cell_angle_beta   90.00000000
_cell_angle_gamma   120.09405521
_symmetry_Int_Tables_number   1
_chemical_formula_structural   Y10InPb5S2
_chemical_formula_sum   'Y10 In1 Pb5 S2'
_cell_volume   480.70724018
_cell_formula_units_Z   1
loop_
 _symmetry_equiv_pos_site_id
 _symmetry_equiv_pos_as_xyz
  1  'x, y, z'
loop_
 _atom_site_type_symbol
 _atom_site_label
 _atom_site_symmetry_multiplicity
 _atom_site_fract_x
 _atom_site_fract_y
 _atom_site_fract_z
 _atom_site_occupancy
  Y  Y0  1  0.756669  0.756669  0.750000  1
  Y  Y1  1  0.244894  0.003675  0.750000  1
  Y  Y2  1  0.003675  0.244894  0.750000  1
  Y  Y3  1  0.241611  0.241611  0.250000  1
  Y  Y4  1  0.756858  0.000575  0.250000  1
  Y  Y5  1  0.000575  0.756858  0.250000  1
  Y  Y6  1  0.663628  0.334437  0.998534  1
  Y  Y7  1  0.334437  0.663628  0.998534  1
  Y  Y8  1  0.334437  0.663628  0.501466  1
  Y  Y9  1  0.663628  0.334437  0.501466  1
  In  In10  1  0.399495  0.399495  0.750000  1
  Pb  Pb11  1  0.603270  0.001253  0.750000  1
  Pb  Pb12  1  0.001253  0.603270  0.750000  1
  Pb  Pb13  1  0.601523  0.601523  0.250000  1
  Pb  Pb14  1  0.397781  0.998335  0.250000  1
  Pb  Pb15  1  0.998335  0.397781  0.250000  1
  S  S16  1  0.998965  0.998965  0.000519  1
  S  S17  1  0.998965  0.998965  0.499481  1
