# generated using pymatgen
data_ErTmSb5
_symmetry_space_group_name_H-M   'P 1'
_cell_length_a   4.20255100
_cell_length_b   13.14251034
_cell_length_c   14.57666495
_cell_angle_alpha   78.36300880
_cell_angle_beta   90.00000000
_cell_angle_gamma   90.00000000
_symmetry_Int_Tables_number   1
_chemical_formula_structural   ErTmSb5
_chemical_formula_sum   'Er4 Tm4 Sb20'
_cell_volume   788.55074301
_cell_formula_units_Z   4
loop_
 _symmetry_equiv_pos_site_id
 _symmetry_equiv_pos_as_xyz
  1  'x, y, z'
loop_
 _atom_site_type_symbol
 _atom_site_label
 _atom_site_symmetry_multiplicity
 _atom_site_fract_x
 _atom_site_fract_y
 _atom_site_fract_z
 _atom_site_occupancy
  Er  Er0  1  0.250000  0.668883  0.576367  1
  Er  Er1  1  0.750000  0.331117  0.423633  1
  Er  Er2  1  0.250000  0.953267  0.359001  1
  Er  Er3  1  0.750000  0.046733  0.640999  1
  Tm  Tm4  1  0.250000  0.395180  0.771081  1
  Tm  Tm5  1  0.750000  0.604820  0.228919  1
  Tm  Tm6  1  0.250000  0.661610  0.856406  1
  Tm  Tm7  1  0.750000  0.338390  0.143594  1
  Sb  Sb8  1  0.250000  0.144461  0.778644  1
  Sb  Sb9  1  0.750000  0.855539  0.221356  1
  Sb  Sb10  1  0.250000  0.143392  0.482805  1
  Sb  Sb11  1  0.750000  0.856608  0.517195  1
  Sb  Sb12  1  0.250000  0.153776  0.170485  1
  Sb  Sb13  1  0.750000  0.846224  0.829515  1
  Sb  Sb14  1  0.250000  0.420889  0.975474  1
  Sb  Sb15  1  0.750000  0.579111  0.024526  1
  Sb  Sb16  1  0.750000  0.028564  0.909887  1
  Sb  Sb17  1  0.250000  0.971436  0.090113  1
  Sb  Sb18  1  0.750000  0.139594  0.321837  1
  Sb  Sb19  1  0.250000  0.860406  0.678163  1
  Sb  Sb20  1  0.750000  0.279265  0.936847  1
  Sb  Sb21  1  0.250000  0.720735  0.063153  1
  Sb  Sb22  1  0.750000  0.285518  0.653406  1
  Sb  Sb23  1  0.250000  0.714482  0.346594  1
  Sb  Sb24  1  0.750000  0.575797  0.735633  1
  Sb  Sb25  1  0.250000  0.424203  0.264367  1
  Sb  Sb26  1  0.750000  0.571654  0.446796  1
  Sb  Sb27  1  0.250000  0.428346  0.553204  1
