# generated using pymatgen
data_Np4Ga11SiIr
_symmetry_space_group_name_H-M   'P 1'
_cell_length_a   7.46834288
_cell_length_b   7.46834311
_cell_length_c   7.46834400
_cell_angle_alpha   109.70466074
_cell_angle_beta   109.70466138
_cell_angle_gamma   109.00533397
_symmetry_Int_Tables_number   1
_chemical_formula_structural   Np4Ga11SiIr
_chemical_formula_sum   'Np4 Ga11 Si1 Ir1'
_cell_volume   320.64868350
_cell_formula_units_Z   1
loop_
 _symmetry_equiv_pos_site_id
 _symmetry_equiv_pos_as_xyz
  1  'x, y, z'
loop_
 _atom_site_type_symbol
 _atom_site_label
 _atom_site_symmetry_multiplicity
 _atom_site_fract_x
 _atom_site_fract_y
 _atom_site_fract_z
 _atom_site_occupancy
  Np  Np0  1  0.506557  0.493631  0.500054  1
  Np  Np1  1  0.993576  0.493631  0.987073  1
  Np  Np2  1  0.993366  0.006215  0.499820  1
  Np  Np3  1  0.506394  0.006215  0.012849  1
  Ga  Ga4  1  0.006019  0.713924  0.707906  1
  Ga  Ga5  1  0.285520  0.993769  0.291769  1
  Ga  Ga6  1  0.495325  0.245125  0.749800  1
  Ga  Ga7  1  0.754662  0.504173  0.250761  1
  Ga  Ga8  1  0.249766  0.749527  0.499761  1
  Ga  Ga9  1  0.253412  0.504173  0.749511  1
  Ga  Ga10  1  0.701999  0.993769  0.708249  1
  Ga  Ga11  1  0.496608  0.746756  0.250148  1
  Ga  Ga12  1  0.709455  0.710150  0.000695  1
  Ga  Ga13  1  0.290360  0.289949  0.999589  1
  Ga  Ga14  1  0.006388  0.298530  0.292141  1
  Si  Si15  1  0.750734  0.250783  0.500049  1
  Ir  Ir16  1  0.999856  0.999679  0.999823  1
