# generated using pymatgen
data_MnCo3(TcP)4
_symmetry_space_group_name_H-M   'P 1'
_cell_length_a   3.74609700
_cell_length_b   5.71907461
_cell_length_c   6.67511104
_cell_angle_alpha   90.23274163
_cell_angle_beta   90.00000000
_cell_angle_gamma   90.00000000
_symmetry_Int_Tables_number   1
_chemical_formula_structural   MnCo3(TcP)4
_chemical_formula_sum   'Mn1 Co3 Tc4 P4'
_cell_volume   143.00778904
_cell_formula_units_Z   1
loop_
 _symmetry_equiv_pos_site_id
 _symmetry_equiv_pos_as_xyz
  1  'x, y, z'
loop_
 _atom_site_type_symbol
 _atom_site_label
 _atom_site_symmetry_multiplicity
 _atom_site_fract_x
 _atom_site_fract_y
 _atom_site_fract_z
 _atom_site_occupancy
  Mn  Mn0  1  0.750000  0.637006  0.435180  1
  Co  Co1  1  0.250000  0.860677  0.929781  1
  Co  Co2  1  0.750000  0.141013  0.066088  1
  Co  Co3  1  0.250000  0.360126  0.569448  1
  Tc  Tc4  1  0.250000  0.474031  0.174628  1
  Tc  Tc5  1  0.250000  0.970212  0.331879  1
  Tc  Tc6  1  0.750000  0.029080  0.665618  1
  Tc  Tc7  1  0.750000  0.525898  0.828102  1
  P  P8  1  0.250000  0.739491  0.618021  1
  P  P9  1  0.250000  0.240946  0.883691  1
  P  P10  1  0.750000  0.260106  0.379515  1
  P  P11  1  0.750000  0.761414  0.118048  1
