# generated using pymatgen
data_Ho6ZrCo17(SiP2)4
_symmetry_space_group_name_H-M   'P 1'
_cell_length_a   3.72765400
_cell_length_b   10.68847000
_cell_length_c   12.36321000
_cell_angle_alpha   90.00000000
_cell_angle_beta   90.00000000
_cell_angle_gamma   90.00000000
_symmetry_Int_Tables_number   1
_chemical_formula_structural   Ho6ZrCo17(SiP2)4
_chemical_formula_sum   'Ho6 Zr1 Co17 Si4 P8'
_cell_volume   492.58636162
_cell_formula_units_Z   1
loop_
 _symmetry_equiv_pos_site_id
 _symmetry_equiv_pos_as_xyz
  1  'x, y, z'
loop_
 _atom_site_type_symbol
 _atom_site_label
 _atom_site_symmetry_multiplicity
 _atom_site_fract_x
 _atom_site_fract_y
 _atom_site_fract_z
 _atom_site_occupancy
  Ho  Ho0  1  0.000000  0.500000  0.529127  1
  Ho  Ho1  1  0.500000  0.000000  0.474924  1
  Ho  Ho2  1  0.500000  0.821179  0.206921  1
  Ho  Ho3  1  0.500000  0.178821  0.206921  1
  Ho  Ho4  1  0.000000  0.680727  0.798430  1
  Ho  Ho5  1  0.000000  0.319273  0.798430  1
  Zr  Zr6  1  0.500000  0.500000  0.153443  1
  Co  Co7  1  0.000000  0.500000  0.984071  1
  Co  Co8  1  0.500000  0.000000  0.023802  1
  Co  Co9  1  0.500000  0.293135  0.430675  1
  Co  Co10  1  0.500000  0.706865  0.430675  1
  Co  Co11  1  0.000000  0.195555  0.567437  1
  Co  Co12  1  0.000000  0.804445  0.567437  1
  Co  Co13  1  0.500000  0.884431  0.703333  1
  Co  Co14  1  0.500000  0.115569  0.703333  1
  Co  Co15  1  0.000000  0.622057  0.299006  1
  Co  Co16  1  0.000000  0.377943  0.299006  1
  Co  Co17  1  0.500000  0.326950  0.989728  1
  Co  Co18  1  0.500000  0.673050  0.989728  1
  Co  Co19  1  0.000000  0.160439  0.004965  1
  Co  Co20  1  0.000000  0.839561  0.004965  1
  Co  Co21  1  0.000000  0.000000  0.834260  1
  Co  Co22  1  0.500000  0.500000  0.704571  1
  Co  Co23  1  0.000000  0.000000  0.298638  1
  Si  Si24  1  0.500000  0.306637  0.616863  1
  Si  Si25  1  0.500000  0.693363  0.616863  1
  Si  Si26  1  0.500000  0.859559  0.888305  1
  Si  Si27  1  0.500000  0.140441  0.888305  1
  P  P28  1  0.000000  0.189671  0.385868  1
  P  P29  1  0.000000  0.810329  0.385868  1
  P  P30  1  0.500000  0.500000  0.883887  1
  P  P31  1  0.000000  0.000000  0.118571  1
  P  P32  1  0.000000  0.665123  0.098625  1
  P  P33  1  0.000000  0.334877  0.098625  1
  P  P34  1  0.500000  0.500000  0.360665  1
  P  P35  1  0.000000  0.000000  0.653728  1
