# generated using pymatgen
data_K3B2Pd7
_symmetry_space_group_name_H-M   'P 1'
_cell_length_a   8.37194140
_cell_length_b   8.37194055
_cell_length_c   8.37194148
_cell_angle_alpha   40.09602572
_cell_angle_beta   40.09603031
_cell_angle_gamma   40.09603064
_symmetry_Int_Tables_number   1
_chemical_formula_structural   K3B2Pd7
_chemical_formula_sum   'K3 B2 Pd7'
_cell_volume   219.36308440
_cell_formula_units_Z   1
loop_
 _symmetry_equiv_pos_site_id
 _symmetry_equiv_pos_as_xyz
  1  'x, y, z'
loop_
 _atom_site_type_symbol
 _atom_site_label
 _atom_site_symmetry_multiplicity
 _atom_site_fract_x
 _atom_site_fract_y
 _atom_site_fract_z
 _atom_site_occupancy
  K  K0  1  0.356189  0.356189  0.356189  1
  K  K1  1  0.500000  0.500000  0.500000  1
  K  K2  1  0.643811  0.643811  0.643811  1
  B  B3  1  0.168218  0.168218  0.168218  1
  B  B4  1  0.831782  0.831782  0.831782  1
  Pd  Pd5  1  0.000000  0.000000  0.000000  1
  Pd  Pd6  1  0.568917  0.058206  0.058206  1
  Pd  Pd7  1  0.058206  0.568917  0.058206  1
  Pd  Pd8  1  0.941794  0.941794  0.431083  1
  Pd  Pd9  1  0.058206  0.058206  0.568917  1
  Pd  Pd10  1  0.941794  0.431083  0.941794  1
  Pd  Pd11  1  0.431083  0.941794  0.941794  1
