# generated using pymatgen
data_TbY2Ho2Sn3
_symmetry_space_group_name_H-M   'P 1'
_cell_length_a   8.98120974
_cell_length_b   8.97489469
_cell_length_c   6.54512900
_cell_angle_alpha   90.00000000
_cell_angle_beta   90.00000000
_cell_angle_gamma   119.97674411
_symmetry_Int_Tables_number   1
_chemical_formula_structural   TbY2Ho2Sn3
_chemical_formula_sum   'Tb2 Y4 Ho4 Sn6'
_cell_volume   456.99849316
_cell_formula_units_Z   2
loop_
 _symmetry_equiv_pos_site_id
 _symmetry_equiv_pos_as_xyz
  1  'x, y, z'
loop_
 _atom_site_type_symbol
 _atom_site_label
 _atom_site_symmetry_multiplicity
 _atom_site_fract_x
 _atom_site_fract_y
 _atom_site_fract_z
 _atom_site_occupancy
  Tb  Tb0  1  0.000000  0.760424  0.750000  1
  Tb  Tb1  1  0.000000  0.239576  0.250000  1
  Y  Y2  1  0.760262  0.760233  0.250000  1
  Y  Y3  1  0.760262  0.000029  0.750000  1
  Y  Y4  1  0.239738  0.239767  0.750000  1
  Y  Y5  1  0.239738  0.999971  0.250000  1
  Ho  Ho6  1  0.333423  0.666712  0.500000  1
  Ho  Ho7  1  0.666577  0.333288  0.000000  1
  Ho  Ho8  1  0.666577  0.333288  0.500000  1
  Ho  Ho9  1  0.333423  0.666712  0.000000  1
  Sn  Sn10  1  0.395752  0.000096  0.750000  1
  Sn  Sn11  1  0.395752  0.395656  0.250000  1
  Sn  Sn12  1  0.000000  0.604590  0.250000  1
  Sn  Sn13  1  0.000000  0.395410  0.750000  1
  Sn  Sn14  1  0.604248  0.604344  0.750000  1
  Sn  Sn15  1  0.604248  0.999904  0.250000  1
