# generated using pymatgen
data_Yb2Zn3Si3PbO12
_symmetry_space_group_name_H-M   'P 1'
_cell_length_a   8.32040300
_cell_length_b   8.86778574
_cell_length_c   17.74062367
_cell_angle_alpha   60.05622404
_cell_angle_beta   90.00000000
_cell_angle_gamma   90.00000000
_symmetry_Int_Tables_number   1
_chemical_formula_structural   Yb2Zn3Si3PbO12
_chemical_formula_sum   'Yb8 Zn12 Si12 Pb4 O48'
_cell_volume   1134.23968841
_cell_formula_units_Z   4
loop_
 _symmetry_equiv_pos_site_id
 _symmetry_equiv_pos_as_xyz
  1  'x, y, z'
loop_
 _atom_site_type_symbol
 _atom_site_label
 _atom_site_symmetry_multiplicity
 _atom_site_fract_x
 _atom_site_fract_y
 _atom_site_fract_z
 _atom_site_occupancy
  Yb  Yb0  1  0.956875  0.334463  0.425191  1
  Yb  Yb1  1  0.543125  0.334463  0.925191  1
  Yb  Yb2  1  0.043125  0.665537  0.574809  1
  Yb  Yb3  1  0.456875  0.665537  0.074809  1
  Yb  Yb4  1  0.539920  0.329218  0.411650  1
  Yb  Yb5  1  0.960080  0.329218  0.911650  1
  Yb  Yb6  1  0.460080  0.670782  0.588350  1
  Yb  Yb7  1  0.039920  0.670782  0.088350  1
  Zn  Zn8  1  0.836353  0.666322  0.256081  1
  Zn  Zn9  1  0.663647  0.666322  0.756081  1
  Zn  Zn10  1  0.163647  0.333678  0.743919  1
  Zn  Zn11  1  0.336353  0.333678  0.243919  1
  Zn  Zn12  1  0.839579  0.014626  0.410659  1
  Zn  Zn13  1  0.660421  0.014626  0.910659  1
  Zn  Zn14  1  0.160421  0.985374  0.589341  1
  Zn  Zn15  1  0.339579  0.985374  0.089341  1
  Zn  Zn16  1  0.840056  0.325240  0.083379  1
  Zn  Zn17  1  0.659944  0.325240  0.583379  1
  Zn  Zn18  1  0.159944  0.674760  0.916621  1
  Zn  Zn19  1  0.340056  0.674760  0.416621  1
  Si  Si20  1  0.728568  0.355933  0.234515  1
  Si  Si21  1  0.771432  0.355933  0.734515  1
  Si  Si22  1  0.271432  0.644067  0.765485  1
  Si  Si23  1  0.228568  0.644067  0.265485  1
  Si  Si24  1  0.730281  0.972332  0.087291  1
  Si  Si25  1  0.769719  0.972332  0.587291  1
  Si  Si26  1  0.269719  0.027668  0.912709  1
  Si  Si27  1  0.230281  0.027668  0.412709  1
  Si  Si28  1  0.726651  0.677978  0.426342  1
  Si  Si29  1  0.773349  0.677978  0.926342  1
  Si  Si30  1  0.273349  0.322022  0.573658  1
  Si  Si31  1  0.226651  0.322022  0.073658  1
  Pb  Pb32  1  0.551085  0.005147  0.249195  1
  Pb  Pb33  1  0.948915  0.005147  0.749195  1
  Pb  Pb34  1  0.448915  0.994853  0.750805  1
  Pb  Pb35  1  0.051085  0.994853  0.250805  1
  O  O36  1  0.730270  0.771681  0.318575  1
  O  O37  1  0.769730  0.771681  0.818575  1
  O  O38  1  0.269730  0.228319  0.681425  1
  O  O39  1  0.230270  0.228319  0.181425  1
  O  O40  1  0.237468  0.859947  0.205466  1
  O  O41  1  0.262532  0.859947  0.705466  1
  O  O42  1  0.762532  0.140053  0.794534  1
  O  O43  1  0.737468  0.140053  0.294534  1
  O  O44  1  0.730744  0.095473  0.133677  1
  O  O45  1  0.769256  0.095473  0.633677  1
  O  O46  1  0.269256  0.904527  0.866323  1
  O  O47  1  0.230744  0.904527  0.366323  1
  O  O48  1  0.749687  0.427693  0.303920  1
  O  O49  1  0.750313  0.427693  0.803920  1
  O  O50  1  0.250313  0.572307  0.696080  1
  O  O51  1  0.249687  0.572307  0.196080  1
  O  O52  1  0.741553  0.107986  0.482138  1
  O  O53  1  0.758447  0.107986  0.982138  1
  O  O54  1  0.258447  0.892014  0.517862  1
  O  O55  1  0.241553  0.892014  0.017862  1
  O  O56  1  0.754407  0.467549  0.464450  1
  O  O57  1  0.745593  0.467549  0.964450  1
  O  O58  1  0.245593  0.532451  0.535550  1
  O  O59  1  0.254407  0.532451  0.035550  1
  O  O60  1  0.869886  0.820138  0.130530  1
  O  O61  1  0.630114  0.820138  0.630530  1
  O  O62  1  0.130114  0.179862  0.869470  1
  O  O63  1  0.369886  0.179862  0.369470  1
  O  O64  1  0.866020  0.761877  0.460643  1
  O  O65  1  0.633980  0.761877  0.960643  1
  O  O66  1  0.133980  0.238123  0.539357  1
  O  O67  1  0.366020  0.238123  0.039357  1
  O  O68  1  0.866993  0.430556  0.157638  1
  O  O69  1  0.633007  0.430556  0.657638  1
  O  O70  1  0.133007  0.569444  0.842362  1
  O  O71  1  0.366993  0.569444  0.342362  1
  O  O72  1  0.051983  0.593311  0.314038  1
  O  O73  1  0.448017  0.593311  0.814038  1
  O  O74  1  0.948017  0.406689  0.685962  1
  O  O75  1  0.551983  0.406689  0.185962  1
  O  O76  1  0.054974  0.126101  0.394577  1
  O  O77  1  0.445026  0.126101  0.894577  1
  O  O78  1  0.945026  0.873899  0.605423  1
  O  O79  1  0.554974  0.873899  0.105423  1
  O  O80  1  0.051143  0.282187  0.044431  1
  O  O81  1  0.448857  0.282187  0.544431  1
  O  O82  1  0.948857  0.717813  0.955569  1
  O  O83  1  0.551143  0.717813  0.455569  1
