# generated using pymatgen
data_Eu2Al9IrPt2
_symmetry_space_group_name_H-M   'P 1'
_cell_length_a   7.64837230
_cell_length_b   7.64837276
_cell_length_c   9.63982500
_cell_angle_alpha   90.00000000
_cell_angle_beta   90.00000000
_cell_angle_gamma   119.57481342
_symmetry_Int_Tables_number   1
_chemical_formula_structural   Eu2Al9IrPt2
_chemical_formula_sum   'Eu4 Al18 Ir2 Pt4'
_cell_volume   490.43636712
_cell_formula_units_Z   2
loop_
 _symmetry_equiv_pos_site_id
 _symmetry_equiv_pos_as_xyz
  1  'x, y, z'
loop_
 _atom_site_type_symbol
 _atom_site_label
 _atom_site_symmetry_multiplicity
 _atom_site_fract_x
 _atom_site_fract_y
 _atom_site_fract_z
 _atom_site_occupancy
  Eu  Eu0  1  0.995041  0.668527  0.250000  1
  Eu  Eu1  1  0.004959  0.331473  0.750000  1
  Eu  Eu2  1  0.668527  0.995041  0.250000  1
  Eu  Eu3  1  0.331473  0.004959  0.750000  1
  Al  Al4  1  0.127720  0.127720  0.250000  1
  Al  Al5  1  0.872280  0.872280  0.750000  1
  Al  Al6  1  0.000994  0.330676  0.073851  1
  Al  Al7  1  0.999006  0.669324  0.926149  1
  Al  Al8  1  0.999006  0.669324  0.573851  1
  Al  Al9  1  0.330676  0.000994  0.426149  1
  Al  Al10  1  0.000994  0.330676  0.426149  1
  Al  Al11  1  0.669324  0.999006  0.573851  1
  Al  Al12  1  0.669324  0.999006  0.926149  1
  Al  Al13  1  0.330676  0.000994  0.073851  1
  Al  Al14  1  0.330304  0.330304  0.551730  1
  Al  Al15  1  0.669696  0.669696  0.448270  1
  Al  Al16  1  0.669696  0.669696  0.051730  1
  Al  Al17  1  0.330304  0.330304  0.948270  1
  Al  Al18  1  0.339858  0.543671  0.250000  1
  Al  Al19  1  0.660142  0.456329  0.750000  1
  Al  Al20  1  0.543671  0.339858  0.250000  1
  Al  Al21  1  0.456329  0.660142  0.750000  1
  Ir  Ir22  1  0.000000  0.000000  0.000000  1
  Ir  Ir23  1  0.000000  0.000000  0.500000  1
  Pt  Pt24  1  0.670483  0.329517  0.000000  1
  Pt  Pt25  1  0.329517  0.670483  0.000000  1
  Pt  Pt26  1  0.329517  0.670483  0.500000  1
  Pt  Pt27  1  0.670483  0.329517  0.500000  1
