# generated using pymatgen
data_Li4Ca3ErPt4
_symmetry_space_group_name_H-M   'P 1'
_cell_length_a   3.98121600
_cell_length_b   7.06886013
_cell_length_c   8.43275800
_cell_angle_alpha   90.11456959
_cell_angle_beta   90.00000000
_cell_angle_gamma   90.00000000
_symmetry_Int_Tables_number   1
_chemical_formula_structural   Li4Ca3ErPt4
_chemical_formula_sum   'Li4 Ca3 Er1 Pt4'
_cell_volume   237.31975887
_cell_formula_units_Z   1
loop_
 _symmetry_equiv_pos_site_id
 _symmetry_equiv_pos_as_xyz
  1  'x, y, z'
loop_
 _atom_site_type_symbol
 _atom_site_label
 _atom_site_symmetry_multiplicity
 _atom_site_fract_x
 _atom_site_fract_y
 _atom_site_fract_z
 _atom_site_occupancy
  Li  Li0  1  0.250000  0.630187  0.556383  1
  Li  Li1  1  0.250000  0.126944  0.941208  1
  Li  Li2  1  0.750000  0.374820  0.442278  1
  Li  Li3  1  0.750000  0.869399  0.059135  1
  Ca  Ca4  1  0.250000  0.044904  0.320548  1
  Ca  Ca5  1  0.250000  0.543099  0.180808  1
  Ca  Ca6  1  0.750000  0.957101  0.681066  1
  Er  Er7  1  0.750000  0.454509  0.821820  1
  Pt  Pt8  1  0.250000  0.264485  0.633302  1
  Pt  Pt9  1  0.250000  0.738834  0.872320  1
  Pt  Pt10  1  0.750000  0.747610  0.377451  1
  Pt  Pt11  1  0.750000  0.248106  0.113681  1
