# generated using pymatgen
data_LiTm8Co2Hg
_symmetry_space_group_name_H-M   'P 1'
_cell_length_a   9.35853338
_cell_length_b   9.35853346
_cell_length_c   9.33849400
_cell_angle_alpha   60.07080852
_cell_angle_beta   60.07080821
_cell_angle_gamma   60.06828207
_symmetry_Int_Tables_number   1
_chemical_formula_structural   LiTm8Co2Hg
_chemical_formula_sum   'Li2 Tm16 Co4 Hg2'
_cell_volume   579.24929356
_cell_formula_units_Z   2
loop_
 _symmetry_equiv_pos_site_id
 _symmetry_equiv_pos_as_xyz
  1  'x, y, z'
loop_
 _atom_site_type_symbol
 _atom_site_label
 _atom_site_symmetry_multiplicity
 _atom_site_fract_x
 _atom_site_fract_y
 _atom_site_fract_z
 _atom_site_occupancy
  Li  Li0  1  0.576066  0.285032  0.569450  1
  Li  Li1  1  0.285032  0.576066  0.569450  1
  Tm  Tm2  1  0.344917  0.344917  0.342980  1
  Tm  Tm3  1  0.344917  0.344917  0.967185  1
  Tm  Tm4  1  0.350131  0.957350  0.346260  1
  Tm  Tm5  1  0.957350  0.350131  0.346260  1
  Tm  Tm6  1  0.811162  0.187216  0.187408  1
  Tm  Tm7  1  0.187216  0.811162  0.814214  1
  Tm  Tm8  1  0.187216  0.811162  0.187408  1
  Tm  Tm9  1  0.811162  0.187216  0.814214  1
  Tm  Tm10  1  0.183144  0.183144  0.816856  1
  Tm  Tm11  1  0.809945  0.809945  0.190055  1
  Tm  Tm12  1  0.936512  0.562313  0.562972  1
  Tm  Tm13  1  0.562313  0.936512  0.938203  1
  Tm  Tm14  1  0.562313  0.936512  0.562972  1
  Tm  Tm15  1  0.936512  0.562313  0.938203  1
  Tm  Tm16  1  0.563365  0.563365  0.936635  1
  Tm  Tm17  1  0.939307  0.939307  0.560693  1
  Co  Co18  1  0.139184  0.139184  0.144823  1
  Co  Co19  1  0.139184  0.139184  0.576810  1
  Co  Co20  1  0.137669  0.576103  0.143114  1
  Co  Co21  1  0.576103  0.137669  0.143114  1
  Hg  Hg22  1  0.579639  0.579639  0.589024  1
  Hg  Hg23  1  0.579639  0.579639  0.251695  1
