# generated using pymatgen
data_EuPd(SeO4)3
_symmetry_space_group_name_H-M   'P 1'
_cell_length_a   10.05541736
_cell_length_b   10.05541835
_cell_length_c   10.05541700
_cell_angle_alpha   58.23669232
_cell_angle_beta   58.23668882
_cell_angle_gamma   58.23669760
_symmetry_Int_Tables_number   1
_chemical_formula_structural   EuPd(SeO4)3
_chemical_formula_sum   'Eu2 Pd2 Se6 O24'
_cell_volume   689.88594572
_cell_formula_units_Z   2
loop_
 _symmetry_equiv_pos_site_id
 _symmetry_equiv_pos_as_xyz
  1  'x, y, z'
loop_
 _atom_site_type_symbol
 _atom_site_label
 _atom_site_symmetry_multiplicity
 _atom_site_fract_x
 _atom_site_fract_y
 _atom_site_fract_z
 _atom_site_occupancy
  Eu  Eu0  1  0.642647  0.642647  0.642647  1
  Eu  Eu1  1  0.357353  0.357353  0.357353  1
  Pd  Pd2  1  0.153295  0.153295  0.153295  1
  Pd  Pd3  1  0.846705  0.846705  0.846705  1
  Se  Se4  1  0.777776  0.026927  0.464344  1
  Se  Se5  1  0.973072  0.535657  0.222224  1
  Se  Se6  1  0.535657  0.222224  0.973073  1
  Se  Se7  1  0.464343  0.777776  0.026928  1
  Se  Se8  1  0.026928  0.464343  0.777776  1
  Se  Se9  1  0.222224  0.973072  0.535657  1
  O  O10  1  0.965062  0.030386  0.308966  1
  O  O11  1  0.750484  0.019827  0.653396  1
  O  O12  1  0.980173  0.346604  0.249516  1
  O  O13  1  0.691034  0.034938  0.969614  1
  O  O14  1  0.617617  0.196311  0.418088  1
  O  O15  1  0.856529  0.491081  0.762794  1
  O  O16  1  0.508919  0.237206  0.143471  1
  O  O17  1  0.803689  0.581912  0.382383  1
  O  O18  1  0.969614  0.691034  0.034938  1
  O  O19  1  0.581912  0.382383  0.803689  1
  O  O20  1  0.346604  0.249516  0.980173  1
  O  O21  1  0.237206  0.143471  0.508919  1
  O  O22  1  0.762794  0.856529  0.491081  1
  O  O23  1  0.653396  0.750484  0.019827  1
  O  O24  1  0.418088  0.617617  0.196311  1
  O  O25  1  0.030386  0.308966  0.965062  1
  O  O26  1  0.196311  0.418088  0.617617  1
  O  O27  1  0.491081  0.762794  0.856529  1
  O  O28  1  0.143471  0.508919  0.237206  1
  O  O29  1  0.382383  0.803689  0.581912  1
  O  O30  1  0.308966  0.965062  0.030386  1
  O  O31  1  0.019827  0.653396  0.750484  1
  O  O32  1  0.249516  0.980173  0.346604  1
  O  O33  1  0.034938  0.969614  0.691034  1
