# generated using pymatgen
data_Dy4Al24IrPd8
_symmetry_space_group_name_H-M   'P 1'
_cell_length_a   7.52496863
_cell_length_b   7.55444067
_cell_length_c   13.18035900
_cell_angle_alpha   84.62974580
_cell_angle_beta   79.14375465
_cell_angle_gamma   59.93895721
_symmetry_Int_Tables_number   1
_chemical_formula_structural   Dy4Al24IrPd8
_chemical_formula_sum   'Dy4 Al24 Ir1 Pd8'
_cell_volume   636.87500558
_cell_formula_units_Z   1
loop_
 _symmetry_equiv_pos_site_id
 _symmetry_equiv_pos_as_xyz
  1  'x, y, z'
loop_
 _atom_site_type_symbol
 _atom_site_label
 _atom_site_symmetry_multiplicity
 _atom_site_fract_x
 _atom_site_fract_y
 _atom_site_fract_z
 _atom_site_occupancy
  Dy  Dy0  1  0.393110  0.168769  0.809532  1
  Dy  Dy1  1  0.606890  0.831231  0.190468  1
  Dy  Dy2  1  0.733696  0.497869  0.809443  1
  Dy  Dy3  1  0.266304  0.502131  0.190557  1
  Al  Al4  1  0.686886  0.831076  0.945389  1
  Al  Al5  1  0.313114  0.168924  0.054611  1
  Al  Al6  1  0.146106  0.832650  0.561625  1
  Al  Al7  1  0.853894  0.167350  0.438375  1
  Al  Al8  1  0.479289  0.166687  0.559491  1
  Al  Al9  1  0.520711  0.833313  0.440509  1
  Al  Al10  1  0.217419  0.165037  0.328581  1
  Al  Al11  1  0.782581  0.834963  0.671419  1
  Al  Al12  1  0.436075  0.507283  0.671375  1
  Al  Al13  1  0.563925  0.492717  0.328625  1
  Al  Al14  1  0.108913  0.159549  0.669754  1
  Al  Al15  1  0.891087  0.840451  0.330246  1
  Al  Al16  1  0.349745  0.499775  0.945612  1
  Al  Al17  1  0.650255  0.500225  0.054388  1
  Al  Al18  1  0.015274  0.170519  0.954904  1
  Al  Al19  1  0.984726  0.829481  0.045096  1
  Al  Al20  1  0.186948  0.499509  0.440827  1
  Al  Al21  1  0.813052  0.500491  0.559173  1
  Al  Al22  1  0.733520  0.163183  0.183411  1
  Al  Al23  1  0.266480  0.836817  0.816589  1
  Al  Al24  1  0.061281  0.630336  0.817013  1
  Al  Al25  1  0.938719  0.369664  0.182987  1
  Al  Al26  1  0.855364  0.042494  0.816299  1
  Al  Al27  1  0.144636  0.957506  0.183701  1
  Ir  Ir28  1  0.000000  0.500000  0.000000  1
  Pd  Pd29  1  0.119593  0.492743  0.638662  1
  Pd  Pd30  1  0.880407  0.507257  0.361338  1
  Pd  Pd31  1  0.657130  0.171408  0.999758  1
  Pd  Pd32  1  0.342870  0.828592  0.000242  1
  Pd  Pd33  1  0.537908  0.166906  0.362262  1
  Pd  Pd34  1  0.462092  0.833094  0.637738  1
  Pd  Pd35  1  0.778373  0.174682  0.637011  1
  Pd  Pd36  1  0.221627  0.825318  0.362989  1
