# generated using pymatgen
data_Dy3Er2Bi2Ir
_symmetry_space_group_name_H-M   'P 1'
_cell_length_a   7.95776500
_cell_length_b   8.99576500
_cell_length_c   12.53747600
_cell_angle_alpha   90.00000000
_cell_angle_beta   90.00000000
_cell_angle_gamma   90.00000000
_symmetry_Int_Tables_number   1
_chemical_formula_structural   Dy3Er2Bi2Ir
_chemical_formula_sum   'Dy12 Er8 Bi8 Ir4'
_cell_volume   897.51006214
_cell_formula_units_Z   4
loop_
 _symmetry_equiv_pos_site_id
 _symmetry_equiv_pos_as_xyz
  1  'x, y, z'
loop_
 _atom_site_type_symbol
 _atom_site_label
 _atom_site_symmetry_multiplicity
 _atom_site_fract_x
 _atom_site_fract_y
 _atom_site_fract_z
 _atom_site_occupancy
  Dy  Dy0  1  0.661151  0.750000  0.706677  1
  Dy  Dy1  1  0.338849  0.250000  0.293323  1
  Dy  Dy2  1  0.161151  0.250000  0.793323  1
  Dy  Dy3  1  0.838849  0.750000  0.206677  1
  Dy  Dy4  1  0.128577  0.750000  0.811145  1
  Dy  Dy5  1  0.871423  0.250000  0.188855  1
  Dy  Dy6  1  0.628577  0.250000  0.688855  1
  Dy  Dy7  1  0.371423  0.750000  0.311145  1
  Dy  Dy8  1  0.555019  0.750000  0.997902  1
  Dy  Dy9  1  0.444981  0.250000  0.002098  1
  Dy  Dy10  1  0.055019  0.250000  0.502098  1
  Dy  Dy11  1  0.944981  0.750000  0.497902  1
  Er  Er12  1  0.826746  0.459226  0.932038  1
  Er  Er13  1  0.173254  0.540774  0.067962  1
  Er  Er14  1  0.326746  0.540774  0.567962  1
  Er  Er15  1  0.173254  0.959226  0.067962  1
  Er  Er16  1  0.673254  0.459226  0.432038  1
  Er  Er17  1  0.826746  0.040774  0.932038  1
  Er  Er18  1  0.673254  0.040774  0.432038  1
  Er  Er19  1  0.326746  0.959226  0.567962  1
  Bi  Bi20  1  0.936774  0.006947  0.672859  1
  Bi  Bi21  1  0.063226  0.993053  0.327141  1
  Bi  Bi22  1  0.436774  0.993053  0.827141  1
  Bi  Bi23  1  0.063226  0.506947  0.327141  1
  Bi  Bi24  1  0.563226  0.006947  0.172859  1
  Bi  Bi25  1  0.936774  0.493053  0.672859  1
  Bi  Bi26  1  0.563226  0.493053  0.172859  1
  Bi  Bi27  1  0.436774  0.506947  0.827141  1
  Ir  Ir28  1  0.930771  0.750000  0.992535  1
  Ir  Ir29  1  0.069229  0.250000  0.007465  1
  Ir  Ir30  1  0.430771  0.250000  0.507465  1
  Ir  Ir31  1  0.569229  0.750000  0.492535  1
