# generated using pymatgen
data_Ho16CdIn3(IrRh)2
_symmetry_space_group_name_H-M   'P 1'
_cell_length_a   9.61670157
_cell_length_b   9.61787718
_cell_length_c   9.59759200
_cell_angle_alpha   60.06974436
_cell_angle_beta   60.06571177
_cell_angle_gamma   60.18129178
_symmetry_Int_Tables_number   1
_chemical_formula_structural   Ho16CdIn3(IrRh)2
_chemical_formula_sum   'Ho16 Cd1 In3 Ir2 Rh2'
_cell_volume   629.20071142
_cell_formula_units_Z   1
loop_
 _symmetry_equiv_pos_site_id
 _symmetry_equiv_pos_as_xyz
  1  'x, y, z'
loop_
 _atom_site_type_symbol
 _atom_site_label
 _atom_site_symmetry_multiplicity
 _atom_site_fract_x
 _atom_site_fract_y
 _atom_site_fract_z
 _atom_site_occupancy
  Ho  Ho0  1  0.599989  0.598762  0.595643  1
  Ho  Ho1  1  0.599989  0.598762  0.205607  1
  Ho  Ho2  1  0.602275  0.201005  0.598360  1
  Ho  Ho3  1  0.199125  0.602186  0.599345  1
  Ho  Ho4  1  0.058647  0.440046  0.441487  1
  Ho  Ho5  1  0.439035  0.059992  0.061291  1
  Ho  Ho6  1  0.439035  0.059992  0.439682  1
  Ho  Ho7  1  0.058647  0.440046  0.059818  1
  Ho  Ho8  1  0.439783  0.439096  0.060561  1
  Ho  Ho9  1  0.058261  0.058306  0.441716  1
  Ho  Ho10  1  0.190448  0.813467  0.810777  1
  Ho  Ho11  1  0.815038  0.187500  0.186777  1
  Ho  Ho12  1  0.815038  0.187500  0.810686  1
  Ho  Ho13  1  0.190448  0.813467  0.185306  1
  Ho  Ho14  1  0.815084  0.811671  0.186623  1
  Ho  Ho15  1  0.190541  0.187306  0.811076  1
  Cd  Cd16  1  0.502554  0.832067  0.832689  1
  In  In17  1  0.830015  0.833110  0.834500  1
  In  In18  1  0.830015  0.833110  0.502376  1
  In  In19  1  0.829109  0.503224  0.833833  1
  Ir  Ir20  1  0.389702  0.825458  0.392421  1
  Ir  Ir21  1  0.826512  0.390341  0.391574  1
  Rh  Rh22  1  0.390356  0.391793  0.393792  1
  Rh  Rh23  1  0.390356  0.391793  0.824060  1
