# generated using pymatgen
data_RbAlTe3O8
_symmetry_space_group_name_H-M   'P 1'
_cell_length_a   5.48480961
_cell_length_b   7.69370459
_cell_length_c   10.85646370
_cell_angle_alpha   99.00876199
_cell_angle_beta   89.56971675
_cell_angle_gamma   108.01049693
_symmetry_Int_Tables_number   1
_chemical_formula_structural   RbAlTe3O8
_chemical_formula_sum   'Rb2 Al2 Te6 O16'
_cell_volume   429.89568375
_cell_formula_units_Z   2
loop_
 _symmetry_equiv_pos_site_id
 _symmetry_equiv_pos_as_xyz
  1  'x, y, z'
loop_
 _atom_site_type_symbol
 _atom_site_label
 _atom_site_symmetry_multiplicity
 _atom_site_fract_x
 _atom_site_fract_y
 _atom_site_fract_z
 _atom_site_occupancy
  Rb  Rb0  1  0.830580  0.113670  0.163900  1
  Rb  Rb1  1  0.169420  0.886330  0.836100  1
  Al  Al2  1  0.500000  0.500000  0.000000  1
  Al  Al3  1  0.000000  0.500000  0.500000  1
  Te  Te4  1  0.221637  0.969187  0.413073  1
  Te  Te5  1  0.778363  0.030813  0.586927  1
  Te  Te6  1  0.049473  0.651601  0.143452  1
  Te  Te7  1  0.950527  0.348399  0.856548  1
  Te  Te8  1  0.522003  0.533396  0.338382  1
  Te  Te9  1  0.477997  0.466604  0.661618  1
  O  O10  1  0.155387  0.714826  0.418936  1
  O  O11  1  0.844613  0.285174  0.581064  1
  O  O12  1  0.232293  0.908046  0.218619  1
  O  O13  1  0.767707  0.091954  0.781381  1
  O  O14  1  0.874816  0.972121  0.394025  1
  O  O15  1  0.125184  0.027879  0.605975  1
  O  O16  1  0.268702  0.649595  0.006155  1
  O  O17  1  0.731298  0.350405  0.993845  1
  O  O18  1  0.788722  0.714555  0.064448  1
  O  O19  1  0.211278  0.285445  0.935552  1
  O  O20  1  0.406630  0.439243  0.167891  1
  O  O21  1  0.593370  0.560757  0.832109  1
  O  O22  1  0.233531  0.382387  0.413863  1
  O  O23  1  0.766469  0.617613  0.586137  1
  O  O24  1  0.748112  0.394854  0.359779  1
  O  O25  1  0.251888  0.605146  0.640221  1
