# generated using pymatgen
data_Ho16Ga6FePt
_symmetry_space_group_name_H-M   'P 1'
_cell_length_a   10.00793200
_cell_length_b   10.00799661
_cell_length_c   6.95054500
_cell_angle_alpha   89.99989479
_cell_angle_beta   90.00015773
_cell_angle_gamma   119.99954551
_symmetry_Int_Tables_number   1
_chemical_formula_structural   Ho16Ga6FePt
_chemical_formula_sum   'Ho16 Ga6 Fe1 Pt1'
_cell_volume   602.89679564
_cell_formula_units_Z   1
loop_
 _symmetry_equiv_pos_site_id
 _symmetry_equiv_pos_as_xyz
  1  'x, y, z'
loop_
 _atom_site_type_symbol
 _atom_site_label
 _atom_site_symmetry_multiplicity
 _atom_site_fract_x
 _atom_site_fract_y
 _atom_site_fract_z
 _atom_site_occupancy
  Ho  Ho0  1  0.172686  0.827317  0.509213  1
  Ho  Ho1  1  0.654635  0.827315  0.509214  1
  Ho  Ho2  1  0.172682  0.345365  0.509207  1
  Ho  Ho3  1  0.830003  0.169995  0.012252  1
  Ho  Ho4  1  0.339989  0.169997  0.012241  1
  Ho  Ho5  1  0.830003  0.660013  0.012245  1
  Ho  Ho6  1  0.333332  0.666659  0.829154  1
  Ho  Ho7  1  0.666666  0.333333  0.339318  1
  Ho  Ho8  1  0.461848  0.538154  0.207914  1
  Ho  Ho9  1  0.076305  0.538159  0.207916  1
  Ho  Ho10  1  0.461846  0.923694  0.207919  1
  Ho  Ho11  1  0.532435  0.467560  0.703125  1
  Ho  Ho12  1  0.935124  0.467561  0.703132  1
  Ho  Ho13  1  0.532440  0.064875  0.703131  1
  Ho  Ho14  1  0.000001  0.999998  0.233786  1
  Ho  Ho15  1  0.000007  0.000005  0.732640  1
  Ga  Ga16  1  0.163582  0.836422  0.957975  1
  Ga  Ga17  1  0.672843  0.836428  0.957990  1
  Ga  Ga18  1  0.163573  0.327155  0.957988  1
  Ga  Ga19  1  0.836346  0.163646  0.458712  1
  Ga  Ga20  1  0.327304  0.163648  0.458714  1
  Ga  Ga21  1  0.836350  0.672697  0.458719  1
  Fe  Fe22  1  0.333334  0.666666  0.447279  1
  Pt  Pt23  1  0.666665  0.333337  0.944261  1
