# generated using pymatgen
data_Yb5RhAu
_symmetry_space_group_name_H-M   'P 1'
_cell_length_a   8.69207979
_cell_length_b   8.69207887
_cell_length_c   7.56153949
_cell_angle_alpha   83.44848653
_cell_angle_beta   83.44849289
_cell_angle_gamma   44.62178016
_symmetry_Int_Tables_number   1
_chemical_formula_structural   Yb5RhAu
_chemical_formula_sum   'Yb10 Rh2 Au2'
_cell_volume   398.22500175
_cell_formula_units_Z   2
loop_
 _symmetry_equiv_pos_site_id
 _symmetry_equiv_pos_as_xyz
  1  'x, y, z'
loop_
 _atom_site_type_symbol
 _atom_site_label
 _atom_site_symmetry_multiplicity
 _atom_site_fract_x
 _atom_site_fract_y
 _atom_site_fract_z
 _atom_site_occupancy
  Yb  Yb0  1  0.357638  0.203837  0.810026  1
  Yb  Yb1  1  0.796163  0.642362  0.689974  1
  Yb  Yb2  1  0.627400  0.801659  0.170820  1
  Yb  Yb3  1  0.198341  0.372600  0.329180  1
  Yb  Yb4  1  0.411767  0.588233  0.250000  1
  Yb  Yb5  1  0.565909  0.434091  0.750000  1
  Yb  Yb6  1  0.808517  0.008759  0.429440  1
  Yb  Yb7  1  0.991241  0.191483  0.070560  1
  Yb  Yb8  1  0.210043  0.967426  0.590049  1
  Yb  Yb9  1  0.032574  0.789957  0.909951  1
  Rh  Rh10  1  0.178933  0.600552  0.582881  1
  Rh  Rh11  1  0.399448  0.821067  0.917119  1
  Au  Au12  1  0.821425  0.399399  0.418401  1
  Au  Au13  1  0.600601  0.178575  0.081599  1
