# generated using pymatgen
data_Li8Si16IrRu11
_symmetry_space_group_name_H-M   'P 1'
_cell_length_a   6.41919683
_cell_length_b   6.41919625
_cell_length_c   12.18496200
_cell_angle_alpha   90.11894388
_cell_angle_beta   89.88105613
_cell_angle_gamma   90.43219119
_symmetry_Int_Tables_number   1
_chemical_formula_structural   Li8Si16IrRu11
_chemical_formula_sum   'Li8 Si16 Ir1 Ru11'
_cell_volume   502.07813844
_cell_formula_units_Z   1
loop_
 _symmetry_equiv_pos_site_id
 _symmetry_equiv_pos_as_xyz
  1  'x, y, z'
loop_
 _atom_site_type_symbol
 _atom_site_label
 _atom_site_symmetry_multiplicity
 _atom_site_fract_x
 _atom_site_fract_y
 _atom_site_fract_z
 _atom_site_occupancy
  Li  Li0  1  0.975660  0.671627  0.017861  1
  Li  Li1  1  0.023453  0.326304  0.519177  1
  Li  Li2  1  0.326304  0.023453  0.480823  1
  Li  Li3  1  0.176113  0.520473  0.770856  1
  Li  Li4  1  0.825234  0.479615  0.268255  1
  Li  Li5  1  0.520473  0.176113  0.229144  1
  Li  Li6  1  0.479615  0.825234  0.731745  1
  Li  Li7  1  0.671627  0.975660  0.982139  1
  Si  Si8  1  0.032269  0.702817  0.427339  1
  Si  Si9  1  0.638044  0.309665  0.437495  1
  Si  Si10  1  0.358281  0.686640  0.939529  1
  Si  Si11  1  0.190280  0.141214  0.689316  1
  Si  Si12  1  0.309665  0.638044  0.562505  1
  Si  Si13  1  0.686640  0.358281  0.060471  1
  Si  Si14  1  0.812106  0.857197  0.187993  1
  Si  Si15  1  0.141214  0.190280  0.310684  1
  Si  Si16  1  0.972163  0.298435  0.927894  1
  Si  Si17  1  0.702817  0.032269  0.572661  1
  Si  Si18  1  0.196719  0.473954  0.177038  1
  Si  Si19  1  0.805277  0.526084  0.679739  1
  Si  Si20  1  0.473954  0.196719  0.822962  1
  Si  Si21  1  0.526084  0.805277  0.320261  1
  Si  Si22  1  0.298435  0.972163  0.072106  1
  Si  Si23  1  0.857197  0.812106  0.812007  1
  Ir  Ir24  1  0.673918  0.673918  0.500000  1
  Ru  Ru25  1  0.171983  0.828513  0.250542  1
  Ru  Ru26  1  0.326215  0.326215  0.000000  1
  Ru  Ru27  1  0.022090  0.835900  0.623812  1
  Ru  Ru28  1  0.976798  0.164621  0.124762  1
  Ru  Ru29  1  0.835900  0.022090  0.376188  1
  Ru  Ru30  1  0.337958  0.480294  0.373431  1
  Ru  Ru31  1  0.662420  0.519670  0.872851  1
  Ru  Ru32  1  0.480294  0.337958  0.626569  1
  Ru  Ru33  1  0.519670  0.662420  0.127149  1
  Ru  Ru34  1  0.164621  0.976798  0.875238  1
  Ru  Ru35  1  0.828513  0.171983  0.749458  1
