# generated using pymatgen
data_Hf4ZnCoN
_symmetry_space_group_name_H-M   'P 1'
_cell_length_a   8.61879662
_cell_length_b   8.61879723
_cell_length_c   8.61879700
_cell_angle_alpha   60.00000470
_cell_angle_beta   60.00000237
_cell_angle_gamma   60.00000613
_symmetry_Int_Tables_number   1
_chemical_formula_structural   Hf4ZnCoN
_chemical_formula_sum   'Hf16 Zn4 Co4 N4'
_cell_volume   452.71511329
_cell_formula_units_Z   4
loop_
 _symmetry_equiv_pos_site_id
 _symmetry_equiv_pos_as_xyz
  1  'x, y, z'
loop_
 _atom_site_type_symbol
 _atom_site_label
 _atom_site_symmetry_multiplicity
 _atom_site_fract_x
 _atom_site_fract_y
 _atom_site_fract_z
 _atom_site_occupancy
  Hf  Hf0  1  0.075555  0.641482  0.641482  1
  Hf  Hf1  1  0.641482  0.075555  0.641482  1
  Hf  Hf2  1  0.641482  0.641482  0.075555  1
  Hf  Hf3  1  0.641482  0.641482  0.641482  1
  Hf  Hf4  1  0.817105  0.817105  0.182895  1
  Hf  Hf5  1  0.182895  0.182895  0.817105  1
  Hf  Hf6  1  0.817105  0.182895  0.817105  1
  Hf  Hf7  1  0.182895  0.817105  0.182895  1
  Hf  Hf8  1  0.182895  0.817105  0.817105  1
  Hf  Hf9  1  0.817105  0.182895  0.182895  1
  Hf  Hf10  1  0.432301  0.432301  0.067699  1
  Hf  Hf11  1  0.067699  0.067699  0.432301  1
  Hf  Hf12  1  0.432301  0.067699  0.432301  1
  Hf  Hf13  1  0.067699  0.432301  0.067699  1
  Hf  Hf14  1  0.067699  0.432301  0.432301  1
  Hf  Hf15  1  0.432301  0.067699  0.067699  1
  Zn  Zn16  1  0.746633  0.417788  0.417788  1
  Zn  Zn17  1  0.417788  0.746633  0.417788  1
  Zn  Zn18  1  0.417788  0.417788  0.746633  1
  Zn  Zn19  1  0.417788  0.417788  0.417788  1
  Co  Co20  1  0.448559  0.850480  0.850480  1
  Co  Co21  1  0.850480  0.448559  0.850480  1
  Co  Co22  1  0.850480  0.850480  0.448559  1
  Co  Co23  1  0.850480  0.850480  0.850480  1
  N  N24  1  0.622889  0.125704  0.125704  1
  N  N25  1  0.125704  0.622889  0.125704  1
  N  N26  1  0.125704  0.125704  0.622889  1
  N  N27  1  0.125704  0.125704  0.125704  1
