# generated using pymatgen
data_Ho4B16OsRu3
_symmetry_space_group_name_H-M   'P 1'
_cell_length_a   3.54966100
_cell_length_b   5.94202302
_cell_length_c   11.49685804
_cell_angle_alpha   90.00983149
_cell_angle_beta   90.00000000
_cell_angle_gamma   90.00000000
_symmetry_Int_Tables_number   1
_chemical_formula_structural   Ho4B16OsRu3
_chemical_formula_sum   'Ho4 B16 Os1 Ru3'
_cell_volume   242.49365062
_cell_formula_units_Z   1
loop_
 _symmetry_equiv_pos_site_id
 _symmetry_equiv_pos_as_xyz
  1  'x, y, z'
loop_
 _atom_site_type_symbol
 _atom_site_label
 _atom_site_symmetry_multiplicity
 _atom_site_fract_x
 _atom_site_fract_y
 _atom_site_fract_z
 _atom_site_occupancy
  Ho  Ho0  1  0.000000  0.628671  0.649593  1
  Ho  Ho1  1  0.000000  0.371328  0.350386  1
  Ho  Ho2  1  0.000000  0.128784  0.849736  1
  Ho  Ho3  1  0.000000  0.871110  0.150175  1
  B  B4  1  0.500000  0.976747  0.691882  1
  B  B5  1  0.500000  0.023657  0.308040  1
  B  B6  1  0.500000  0.475738  0.808075  1
  B  B7  1  0.500000  0.523934  0.191977  1
  B  B8  1  0.500000  0.789330  0.813964  1
  B  B9  1  0.500000  0.210734  0.185955  1
  B  B10  1  0.500000  0.289169  0.685700  1
  B  B11  1  0.500000  0.710722  0.314415  1
  B  B12  1  0.500000  0.864042  0.970227  1
  B  B13  1  0.500000  0.135933  0.030000  1
  B  B14  1  0.500000  0.364031  0.530098  1
  B  B15  1  0.500000  0.635884  0.469773  1
  B  B16  1  0.500000  0.887846  0.546724  1
  B  B17  1  0.500000  0.112211  0.453154  1
  B  B18  1  0.500000  0.387776  0.953092  1
  B  B19  1  0.500000  0.612200  0.046932  1
  Os  Os20  1  0.000000  0.641281  0.907080  1
  Ru  Ru21  1  0.000000  0.358710  0.092923  1
  Ru  Ru22  1  0.000000  0.140510  0.592930  1
  Ru  Ru23  1  0.000000  0.859652  0.407168  1
