# generated using pymatgen
data_EuCo(GeO3)2
_symmetry_space_group_name_H-M   'P 1'
_cell_length_a   5.60490932
_cell_length_b   7.04310925
_cell_length_c   7.04168781
_cell_angle_alpha   83.24673097
_cell_angle_beta   77.96506594
_cell_angle_gamma   77.91483698
_symmetry_Int_Tables_number   1
_chemical_formula_structural   EuCo(GeO3)2
_chemical_formula_sum   'Eu2 Co2 Ge4 O12'
_cell_volume   265.04680785
_cell_formula_units_Z   2
loop_
 _symmetry_equiv_pos_site_id
 _symmetry_equiv_pos_as_xyz
  1  'x, y, z'
loop_
 _atom_site_type_symbol
 _atom_site_label
 _atom_site_symmetry_multiplicity
 _atom_site_fract_x
 _atom_site_fract_y
 _atom_site_fract_z
 _atom_site_occupancy
  Eu  Eu0  1  0.250013  0.304277  0.695955  1
  Eu  Eu1  1  0.749773  0.695543  0.303773  1
  Co  Co2  1  0.749101  0.093010  0.905671  1
  Co  Co3  1  0.250624  0.906321  0.094595  1
  Ge  Ge4  1  0.213758  0.815909  0.622021  1
  Ge  Ge5  1  0.286206  0.377329  0.185162  1
  Ge  Ge6  1  0.786200  0.184082  0.378379  1
  Ge  Ge7  1  0.714156  0.622568  0.814516  1
  O  O8  1  0.129402  0.981046  0.804861  1
  O  O9  1  0.370669  0.194526  0.019956  1
  O  O10  1  0.870124  0.018835  0.195525  1
  O  O11  1  0.629716  0.805751  0.979609  1
  O  O12  1  0.325059  0.898916  0.382265  1
  O  O13  1  0.176037  0.617039  0.102424  1
  O  O14  1  0.675422  0.101929  0.618479  1
  O  O15  1  0.824248  0.382847  0.897031  1
  O  O16  1  0.980989  0.669037  0.620994  1
  O  O17  1  0.519010  0.377473  0.332237  1
  O  O18  1  0.018862  0.331227  0.378343  1
  O  O19  1  0.480629  0.622337  0.668202  1
