# generated using pymatgen
data_K2Rb4YErSb4
_symmetry_space_group_name_H-M   'P 1'
_cell_length_a   10.17257007
_cell_length_b   10.17257122
_cell_length_c   10.17257130
_cell_angle_alpha   131.42709911
_cell_angle_beta   67.68769078
_cell_angle_gamma   135.88865440
_symmetry_Int_Tables_number   1
_chemical_formula_structural   K2Rb4YErSb4
_chemical_formula_sum   'K2 Rb4 Y1 Er1 Sb4'
_cell_volume   540.12998374
_cell_formula_units_Z   1
loop_
 _symmetry_equiv_pos_site_id
 _symmetry_equiv_pos_as_xyz
  1  'x, y, z'
loop_
 _atom_site_type_symbol
 _atom_site_label
 _atom_site_symmetry_multiplicity
 _atom_site_fract_x
 _atom_site_fract_y
 _atom_site_fract_z
 _atom_site_occupancy
  K  K0  1  0.250001  0.250001  0.000000  1
  K  K1  1  0.750000  0.750000  0.000000  1
  Rb  Rb2  1  0.822344  0.281562  0.093991  1
  Rb  Rb3  1  0.677656  0.771646  0.459219  1
  Rb  Rb4  1  0.312428  0.218437  0.540781  1
  Rb  Rb5  1  0.187572  0.728353  0.906009  1
  Y  Y6  1  0.750001  0.250001  0.500000  1
  Er  Er7  1  0.250001  0.750001  0.500000  1
  Sb  Sb8  1  0.399154  0.797685  0.200246  1
  Sb  Sb9  1  0.100846  0.301092  0.398531  1
  Sb  Sb10  1  0.902561  0.702315  0.601469  1
  Sb  Sb11  1  0.597439  0.198908  0.799754  1
