# generated using pymatgen
data_Y3Tm(Lu4Bi3)4
_symmetry_space_group_name_H-M   'P 1'
_cell_length_a   8.16557234
_cell_length_b   9.39034700
_cell_length_c   11.87656700
_cell_angle_alpha   90.00000000
_cell_angle_beta   89.95658035
_cell_angle_gamma   90.00000000
_symmetry_Int_Tables_number   1
_chemical_formula_structural   Y3Tm(Lu4Bi3)4
_chemical_formula_sum   'Y3 Tm1 Lu16 Bi12'
_cell_volume   910.66589076
_cell_formula_units_Z   1
loop_
 _symmetry_equiv_pos_site_id
 _symmetry_equiv_pos_as_xyz
  1  'x, y, z'
loop_
 _atom_site_type_symbol
 _atom_site_label
 _atom_site_symmetry_multiplicity
 _atom_site_fract_x
 _atom_site_fract_y
 _atom_site_fract_z
 _atom_site_occupancy
  Y  Y0  1  0.314358  0.250000  0.217634  1
  Y  Y1  1  0.814342  0.250000  0.282358  1
  Y  Y2  1  0.685850  0.750000  0.782451  1
  Tm  Tm3  1  0.186007  0.750000  0.716964  1
  Lu  Lu4  1  0.353071  0.750000  0.218670  1
  Lu  Lu5  1  0.853383  0.750000  0.281560  1
  Lu  Lu6  1  0.646790  0.250000  0.781256  1
  Lu  Lu7  1  0.146727  0.250000  0.718645  1
  Lu  Lu8  1  0.691639  0.567357  0.060396  1
  Lu  Lu9  1  0.191941  0.932607  0.439716  1
  Lu  Lu10  1  0.308319  0.067355  0.939530  1
  Lu  Lu11  1  0.807972  0.432612  0.560451  1
  Lu  Lu12  1  0.308319  0.432645  0.939530  1
  Lu  Lu13  1  0.807972  0.067388  0.560451  1
  Lu  Lu14  1  0.691639  0.932643  0.060396  1
  Lu  Lu15  1  0.191941  0.567393  0.439716  1
  Lu  Lu16  1  0.477472  0.250000  0.489617  1
  Lu  Lu17  1  0.977590  0.250000  0.010385  1
  Lu  Lu18  1  0.522314  0.750000  0.510768  1
  Lu  Lu19  1  0.022592  0.750000  0.989202  1
  Bi  Bi20  1  0.401897  0.750000  0.959288  1
  Bi  Bi21  1  0.902980  0.750000  0.541211  1
  Bi  Bi22  1  0.597743  0.250000  0.040388  1
  Bi  Bi23  1  0.097513  0.250000  0.459669  1
  Bi  Bi24  1  0.566369  0.994526  0.326521  1
  Bi  Bi25  1  0.066197  0.505423  0.173636  1
  Bi  Bi26  1  0.432836  0.495208  0.673736  1
  Bi  Bi27  1  0.934413  0.004963  0.825980  1
  Bi  Bi28  1  0.432836  0.004792  0.673736  1
  Bi  Bi29  1  0.934413  0.495037  0.825980  1
  Bi  Bi30  1  0.566369  0.505474  0.326521  1
  Bi  Bi31  1  0.066197  0.994577  0.173636  1
