# generated using pymatgen
data_Tb6Ga8Si3Ge
_symmetry_space_group_name_H-M   'P 1'
_cell_length_a   4.11166685
_cell_length_b   4.18088503
_cell_length_c   21.74972043
_cell_angle_alpha   84.48458429
_cell_angle_beta   84.57617841
_cell_angle_gamma   89.99999314
_symmetry_Int_Tables_number   1
_chemical_formula_structural   Tb6Ga8Si3Ge
_chemical_formula_sum   'Tb6 Ga8 Si3 Ge1'
_cell_volume   370.47377439
_cell_formula_units_Z   1
loop_
 _symmetry_equiv_pos_site_id
 _symmetry_equiv_pos_as_xyz
  1  'x, y, z'
loop_
 _atom_site_type_symbol
 _atom_site_label
 _atom_site_symmetry_multiplicity
 _atom_site_fract_x
 _atom_site_fract_y
 _atom_site_fract_z
 _atom_site_occupancy
  Tb  Tb0  1  0.959097  0.709097  0.081805  1
  Tb  Tb1  1  0.290320  0.040320  0.419362  1
  Tb  Tb2  1  0.623585  0.373585  0.752829  1
  Tb  Tb3  1  0.376297  0.626297  0.247407  1
  Tb  Tb4  1  0.709320  0.959320  0.581358  1
  Tb  Tb5  1  0.041456  0.291456  0.917089  1
  Ga  Ga6  1  0.819552  0.569552  0.360897  1
  Ga  Ga7  1  0.152665  0.902665  0.694671  1
  Ga  Ga8  1  0.432345  0.182345  0.135309  1
  Ga  Ga9  1  0.764072  0.514072  0.471855  1
  Ga  Ga10  1  0.097134  0.847134  0.805733  1
  Ga  Ga11  1  0.846622  0.096622  0.306758  1
  Ga  Ga12  1  0.180538  0.430538  0.638923  1
  Ga  Ga13  1  0.513791  0.763791  0.972417  1
  Si  Si14  1  0.235308  0.485308  0.529383  1
  Si  Si15  1  0.568656  0.818656  0.862687  1
  Si  Si16  1  0.486912  0.236912  0.026174  1
  Ge  Ge17  1  0.902330  0.152330  0.195341  1
