# generated using pymatgen
data_Ho2Tm2B12IrRh
_symmetry_space_group_name_H-M   'P 1'
_cell_length_a   3.62104700
_cell_length_b   9.12581856
_cell_length_c   11.46211203
_cell_angle_alpha   90.09789327
_cell_angle_beta   90.00000000
_cell_angle_gamma   90.00000000
_symmetry_Int_Tables_number   1
_chemical_formula_structural   Ho2Tm2B12IrRh
_chemical_formula_sum   'Ho4 Tm4 B24 Ir2 Rh2'
_cell_volume   378.76514453
_cell_formula_units_Z   2
loop_
 _symmetry_equiv_pos_site_id
 _symmetry_equiv_pos_as_xyz
  1  'x, y, z'
loop_
 _atom_site_type_symbol
 _atom_site_label
 _atom_site_symmetry_multiplicity
 _atom_site_fract_x
 _atom_site_fract_y
 _atom_site_fract_z
 _atom_site_occupancy
  Ho  Ho0  1  0.500000  0.322874  0.414017  1
  Ho  Ho1  1  0.500000  0.677126  0.585983  1
  Ho  Ho2  1  0.500000  0.179287  0.912737  1
  Ho  Ho3  1  0.500000  0.820713  0.087263  1
  Tm  Tm4  1  0.500000  0.445269  0.126541  1
  Tm  Tm5  1  0.500000  0.554731  0.873459  1
  Tm  Tm6  1  0.500000  0.056483  0.625781  1
  Tm  Tm7  1  0.500000  0.943517  0.374219  1
  B  B8  1  0.000000  0.109129  0.470242  1
  B  B9  1  0.000000  0.890871  0.529758  1
  B  B10  1  0.000000  0.391464  0.970538  1
  B  B11  1  0.000000  0.608536  0.029462  1
  B  B12  1  0.000000  0.132326  0.316171  1
  B  B13  1  0.000000  0.867674  0.683829  1
  B  B14  1  0.000000  0.367071  0.816234  1
  B  B15  1  0.000000  0.632929  0.183766  1
  B  B16  1  0.000000  0.054155  0.065784  1
  B  B17  1  0.000000  0.945845  0.934216  1
  B  B18  1  0.000000  0.446442  0.565415  1
  B  B19  1  0.000000  0.553558  0.434585  1
  B  B20  1  0.000000  0.482516  0.286680  1
  B  B21  1  0.000000  0.517484  0.713320  1
  B  B22  1  0.000000  0.017715  0.786085  1
  B  B23  1  0.000000  0.982285  0.213915  1
  B  B24  1  0.000000  0.250494  0.079309  1
  B  B25  1  0.000000  0.749506  0.920691  1
  B  B26  1  0.000000  0.250621  0.579392  1
  B  B27  1  0.000000  0.749379  0.420608  1
  B  B28  1  0.000000  0.294273  0.235149  1
  B  B29  1  0.000000  0.705727  0.764851  1
  B  B30  1  0.000000  0.205760  0.735588  1
  B  B31  1  0.000000  0.794240  0.264412  1
  Ir  Ir32  1  0.500000  0.139031  0.178345  1
  Ir  Ir33  1  0.500000  0.860969  0.821655  1
  Rh  Rh34  1  0.500000  0.360125  0.680051  1
  Rh  Rh35  1  0.500000  0.639875  0.319949  1
