# generated using pymatgen
data_Lu6MnB14Os
_symmetry_space_group_name_H-M   'P 1'
_cell_length_a   7.87283308
_cell_length_b   7.87283226
_cell_length_c   9.16104200
_cell_angle_alpha   90.00000000
_cell_angle_beta   90.00000000
_cell_angle_gamma   154.87294656
_symmetry_Int_Tables_number   1
_chemical_formula_structural   Lu6MnB14Os
_chemical_formula_sum   'Lu6 Mn1 B14 Os1'
_cell_volume   241.10958747
_cell_formula_units_Z   1
loop_
 _symmetry_equiv_pos_site_id
 _symmetry_equiv_pos_as_xyz
  1  'x, y, z'
loop_
 _atom_site_type_symbol
 _atom_site_label
 _atom_site_symmetry_multiplicity
 _atom_site_fract_x
 _atom_site_fract_y
 _atom_site_fract_z
 _atom_site_occupancy
  Lu  Lu0  1  0.894225  0.105775  0.443473  1
  Lu  Lu1  1  0.105110  0.894890  0.563507  1
  Lu  Lu2  1  0.894225  0.105775  0.056527  1
  Lu  Lu3  1  0.105110  0.894890  0.936493  1
  Lu  Lu4  1  0.245003  0.754997  0.250000  1
  Lu  Lu5  1  0.758664  0.241336  0.750000  1
  Mn  Mn6  1  0.947526  0.052474  0.750000  1
  B  B7  1  0.727777  0.272223  0.466364  1
  B  B8  1  0.272000  0.728000  0.534533  1
  B  B9  1  0.727777  0.272223  0.033636  1
  B  B10  1  0.272000  0.728000  0.965467  1
  B  B11  1  0.632572  0.367428  0.149222  1
  B  B12  1  0.369324  0.630676  0.847070  1
  B  B13  1  0.632572  0.367428  0.350778  1
  B  B14  1  0.369324  0.630676  0.652930  1
  B  B15  1  0.519149  0.480851  0.093927  1
  B  B16  1  0.479373  0.520627  0.902730  1
  B  B17  1  0.519149  0.480851  0.406073  1
  B  B18  1  0.479373  0.520627  0.597270  1
  B  B19  1  0.452330  0.547670  0.250000  1
  B  B20  1  0.544139  0.455861  0.750000  1
  Os  Os21  1  0.053275  0.946725  0.250000  1
