# generated using pymatgen
data_Tb6Ho10MgAg3Rh4
_symmetry_space_group_name_H-M   'P 1'
_cell_length_a   9.55384572
_cell_length_b   9.55101757
_cell_length_c   9.55101700
_cell_angle_alpha   60.00000544
_cell_angle_beta   60.00979727
_cell_angle_gamma   60.00979953
_symmetry_Int_Tables_number   1
_chemical_formula_structural   Tb6Ho10MgAg3Rh4
_chemical_formula_sum   'Tb6 Ho10 Mg1 Ag3 Rh4'
_cell_volume   616.34916235
_cell_formula_units_Z   1
loop_
 _symmetry_equiv_pos_site_id
 _symmetry_equiv_pos_as_xyz
  1  'x, y, z'
loop_
 _atom_site_type_symbol
 _atom_site_label
 _atom_site_symmetry_multiplicity
 _atom_site_fract_x
 _atom_site_fract_y
 _atom_site_fract_z
 _atom_site_occupancy
  Tb  Tb0  1  0.933981  0.564348  0.564348  1
  Tb  Tb1  1  0.563056  0.935814  0.935814  1
  Tb  Tb2  1  0.563056  0.935814  0.565318  1
  Tb  Tb3  1  0.933981  0.564348  0.937323  1
  Tb  Tb4  1  0.563056  0.565318  0.935814  1
  Tb  Tb5  1  0.933981  0.937323  0.564348  1
  Ho  Ho6  1  0.351970  0.350476  0.350476  1
  Ho  Ho7  1  0.351970  0.350476  0.947076  1
  Ho  Ho8  1  0.351970  0.947076  0.350476  1
  Ho  Ho9  1  0.935049  0.354983  0.354983  1
  Ho  Ho10  1  0.812169  0.187492  0.187492  1
  Ho  Ho11  1  0.185831  0.813837  0.813837  1
  Ho  Ho12  1  0.185831  0.813837  0.186494  1
  Ho  Ho13  1  0.812169  0.187492  0.812847  1
  Ho  Ho14  1  0.185831  0.186494  0.813837  1
  Ho  Ho15  1  0.812169  0.812847  0.187492  1
  Mg  Mg16  1  0.284421  0.571860  0.571860  1
  Ag  Ag17  1  0.582058  0.583869  0.583869  1
  Ag  Ag18  1  0.582058  0.583869  0.250206  1
  Ag  Ag19  1  0.582058  0.250206  0.583869  1
  Rh  Rh20  1  0.141323  0.144727  0.144727  1
  Rh  Rh21  1  0.141323  0.144727  0.569220  1
  Rh  Rh22  1  0.141323  0.569220  0.144727  1
  Rh  Rh23  1  0.569365  0.143545  0.143545  1
