# generated using pymatgen
data_Ba2Ca2Sb2O
_symmetry_space_group_name_H-M   'P 1'
_cell_length_a   9.57166624
_cell_length_b   9.57166595
_cell_length_c   9.57166594
_cell_angle_alpha   150.15894122
_cell_angle_beta   150.15893977
_cell_angle_gamma   42.70814356
_symmetry_Int_Tables_number   1
_chemical_formula_structural   Ba2Ca2Sb2O
_chemical_formula_sum   'Ba2 Ca2 Sb2 O1'
_cell_volume   216.58000297
_cell_formula_units_Z   1
loop_
 _symmetry_equiv_pos_site_id
 _symmetry_equiv_pos_as_xyz
  1  'x, y, z'
loop_
 _atom_site_type_symbol
 _atom_site_label
 _atom_site_symmetry_multiplicity
 _atom_site_fract_x
 _atom_site_fract_y
 _atom_site_fract_z
 _atom_site_occupancy
  Ba  Ba0  1  0.665627  0.665627  0.000000  1
  Ba  Ba1  1  0.334373  0.334373  0.000000  1
  Ca  Ca2  1  0.500000  0.000000  0.500000  1
  Ca  Ca3  1  0.000000  0.500000  0.500000  1
  Sb  Sb4  1  0.873260  0.873260  0.000000  1
  Sb  Sb5  1  0.126740  0.126740  0.000000  1
  O  O6  1  0.500000  0.500000  0.000000  1
