# generated using pymatgen
data_CeDy5TcOs
_symmetry_space_group_name_H-M   'P 1'
_cell_length_a   6.37991600
_cell_length_b   7.28881000
_cell_length_c   9.29617500
_cell_angle_alpha   90.00000000
_cell_angle_beta   90.00000000
_cell_angle_gamma   90.00000000
_symmetry_Int_Tables_number   1
_chemical_formula_structural   CeDy5TcOs
_chemical_formula_sum   'Ce2 Dy10 Tc2 Os2'
_cell_volume   432.29068839
_cell_formula_units_Z   2
loop_
 _symmetry_equiv_pos_site_id
 _symmetry_equiv_pos_as_xyz
  1  'x, y, z'
loop_
 _atom_site_type_symbol
 _atom_site_label
 _atom_site_symmetry_multiplicity
 _atom_site_fract_x
 _atom_site_fract_y
 _atom_site_fract_z
 _atom_site_occupancy
  Ce  Ce0  1  0.868330  0.558237  0.250000  1
  Ce  Ce1  1  0.631670  0.058237  0.250000  1
  Dy  Dy2  1  0.334721  0.677537  0.060020  1
  Dy  Dy3  1  0.165279  0.177537  0.439980  1
  Dy  Dy4  1  0.673962  0.324240  0.568406  1
  Dy  Dy5  1  0.826038  0.824240  0.931594  1
  Dy  Dy6  1  0.673962  0.324240  0.931594  1
  Dy  Dy7  1  0.826038  0.824240  0.568406  1
  Dy  Dy8  1  0.334721  0.677537  0.439980  1
  Dy  Dy9  1  0.165279  0.177537  0.060020  1
  Dy  Dy10  1  0.133609  0.461684  0.750000  1
  Dy  Dy11  1  0.366391  0.961684  0.750000  1
  Tc  Tc12  1  0.001188  0.861503  0.250000  1
  Tc  Tc13  1  0.498812  0.361503  0.250000  1
  Os  Os14  1  0.960828  0.115020  0.750000  1
  Os  Os15  1  0.539172  0.615020  0.750000  1
