# generated using pymatgen
data_TbHo2Cd3Sn2Au
_symmetry_space_group_name_H-M   'P 1'
_cell_length_a   7.47655600
_cell_length_b   7.48245873
_cell_length_c   4.54496600
_cell_angle_alpha   90.00000000
_cell_angle_beta   90.00000000
_cell_angle_gamma   119.97389877
_symmetry_Int_Tables_number   1
_chemical_formula_structural   TbHo2Cd3Sn2Au
_chemical_formula_sum   'Tb1 Ho2 Cd3 Sn2 Au1'
_cell_volume   220.25275857
_cell_formula_units_Z   1
loop_
 _symmetry_equiv_pos_site_id
 _symmetry_equiv_pos_as_xyz
  1  'x, y, z'
loop_
 _atom_site_type_symbol
 _atom_site_label
 _atom_site_symmetry_multiplicity
 _atom_site_fract_x
 _atom_site_fract_y
 _atom_site_fract_z
 _atom_site_occupancy
  Tb  Tb0  1  0.593679  0.000000  0.000000  1
  Ho  Ho1  1  0.999978  0.594010  0.000000  1
  Ho  Ho2  1  0.405968  0.405990  0.000000  1
  Cd  Cd3  1  0.240219  0.000000  0.500000  1
  Cd  Cd4  1  0.000133  0.240399  0.500000  1
  Cd  Cd5  1  0.759735  0.759601  0.500000  1
  Sn  Sn6  1  0.332963  0.666135  0.500000  1
  Sn  Sn7  1  0.666829  0.333865  0.500000  1
  Au  Au8  1  0.000497  0.000000  0.000000  1
