# generated using pymatgen
data_Y2HoEr9In20
_symmetry_space_group_name_H-M   'P 1'
_cell_length_a   6.49256149
_cell_length_b   10.38547585
_cell_length_c   12.21208487
_cell_angle_alpha   90.06855444
_cell_angle_beta   89.98862756
_cell_angle_gamma   90.00929032
_symmetry_Int_Tables_number   1
_chemical_formula_structural   Y2HoEr9In20
_chemical_formula_sum   'Y2 Ho1 Er9 In20'
_cell_volume   823.44000081
_cell_formula_units_Z   1
loop_
 _symmetry_equiv_pos_site_id
 _symmetry_equiv_pos_as_xyz
  1  'x, y, z'
loop_
 _atom_site_type_symbol
 _atom_site_label
 _atom_site_symmetry_multiplicity
 _atom_site_fract_x
 _atom_site_fract_y
 _atom_site_fract_z
 _atom_site_occupancy
  Y  Y0  1  0.890170  0.007981  0.141631  1
  Y  Y1  1  0.609842  0.492088  0.641513  1
  Ho  Ho2  1  0.390055  0.992446  0.358417  1
  Er  Er3  1  0.350769  0.750693  0.054217  1
  Er  Er4  1  0.149195  0.749562  0.554316  1
  Er  Er5  1  0.650025  0.250689  0.945596  1
  Er  Er6  1  0.851027  0.249006  0.445563  1
  Er  Er7  1  0.890652  0.492251  0.140137  1
  Er  Er8  1  0.609373  0.007687  0.641052  1
  Er  Er9  1  0.109832  0.992031  0.858799  1
  Er  Er10  1  0.390453  0.507715  0.359121  1
  Er  Er11  1  0.109291  0.507959  0.859379  1
  In  In12  1  0.614732  0.750185  0.505449  1
  In  In13  1  0.885471  0.749684  0.005281  1
  In  In14  1  0.385148  0.250313  0.494728  1
  In  In15  1  0.115754  0.250327  0.993500  1
  In  In16  1  0.650845  0.748710  0.244398  1
  In  In17  1  0.848874  0.750692  0.744617  1
  In  In18  1  0.348662  0.249479  0.756024  1
  In  In19  1  0.151183  0.251312  0.255322  1
  In  In20  1  0.125916  0.748901  0.282667  1
  In  In21  1  0.372537  0.749821  0.782960  1
  In  In22  1  0.874311  0.248964  0.717408  1
  In  In23  1  0.625659  0.251456  0.217388  1
  In  In24  1  0.875134  0.542907  0.399748  1
  In  In25  1  0.625183  0.956665  0.899828  1
  In  In26  1  0.125310  0.043185  0.600101  1
  In  In27  1  0.374933  0.457055  0.099905  1
  In  In28  1  0.124013  0.456402  0.600010  1
  In  In29  1  0.375423  0.044152  0.098807  1
  In  In30  1  0.875306  0.955879  0.401216  1
  In  In31  1  0.624922  0.543803  0.900899  1
