# generated using pymatgen
data_YbNp(TcO4)6
_symmetry_space_group_name_H-M   'P 1'
_cell_length_a   10.07336900
_cell_length_b   10.07336972
_cell_length_c   6.15744800
_cell_angle_alpha   90.00000000
_cell_angle_beta   90.00000000
_cell_angle_gamma   120.00000091
_symmetry_Int_Tables_number   1
_chemical_formula_structural   YbNp(TcO4)6
_chemical_formula_sum   'Yb1 Np1 Tc6 O24'
_cell_volume   541.10419097
_cell_formula_units_Z   1
loop_
 _symmetry_equiv_pos_site_id
 _symmetry_equiv_pos_as_xyz
  1  'x, y, z'
loop_
 _atom_site_type_symbol
 _atom_site_label
 _atom_site_symmetry_multiplicity
 _atom_site_fract_x
 _atom_site_fract_y
 _atom_site_fract_z
 _atom_site_occupancy
  Yb  Yb0  1  0.333333  0.666667  0.250000  1
  Np  Np1  1  0.666667  0.333333  0.750000  1
  Tc  Tc2  1  0.086787  0.393061  0.750000  1
  Tc  Tc3  1  0.392566  0.298869  0.250000  1
  Tc  Tc4  1  0.606939  0.693724  0.750000  1
  Tc  Tc5  1  0.906302  0.607434  0.250000  1
  Tc  Tc6  1  0.306276  0.913213  0.750000  1
  Tc  Tc7  1  0.701131  0.093698  0.250000  1
  O  O8  1  0.490633  0.645620  0.521326  1
  O  O9  1  0.354380  0.845013  0.521326  1
  O  O10  1  0.835016  0.729737  0.250000  1
  O  O11  1  0.113290  0.848747  0.750000  1
  O  O12  1  0.270263  0.105279  0.250000  1
  O  O13  1  0.151253  0.264543  0.750000  1
  O  O14  1  0.512599  0.352806  0.018757  1
  O  O15  1  0.894721  0.164984  0.250000  1
  O  O16  1  0.103276  0.711263  0.250000  1
  O  O17  1  0.154987  0.509367  0.978674  1
  O  O18  1  0.154987  0.509367  0.521326  1
  O  O19  1  0.884077  0.297198  0.750000  1
  O  O20  1  0.288737  0.392013  0.250000  1
  O  O21  1  0.702802  0.586880  0.750000  1
  O  O22  1  0.840208  0.487401  0.481243  1
  O  O23  1  0.413120  0.115923  0.750000  1
  O  O24  1  0.647194  0.159792  0.018757  1
  O  O25  1  0.490633  0.645620  0.978674  1
  O  O26  1  0.354380  0.845013  0.978674  1
  O  O27  1  0.647194  0.159792  0.481243  1
  O  O28  1  0.512599  0.352806  0.481243  1
  O  O29  1  0.840208  0.487401  0.018757  1
  O  O30  1  0.735457  0.886710  0.750000  1
  O  O31  1  0.607987  0.896724  0.250000  1
