# generated using pymatgen
data_Tb2Hf11Zr6Si16Tc
_symmetry_space_group_name_H-M   'P 1'
_cell_length_a   7.11464957
_cell_length_b   7.12527621
_cell_length_c   12.98759780
_cell_angle_alpha   89.86842956
_cell_angle_beta   90.19521903
_cell_angle_gamma   90.15724993
_symmetry_Int_Tables_number   1
_chemical_formula_structural   Tb2Hf11Zr6Si16Tc
_chemical_formula_sum   'Tb2 Hf11 Zr6 Si16 Tc1'
_cell_volume   658.38322419
_cell_formula_units_Z   1
loop_
 _symmetry_equiv_pos_site_id
 _symmetry_equiv_pos_as_xyz
  1  'x, y, z'
loop_
 _atom_site_type_symbol
 _atom_site_label
 _atom_site_symmetry_multiplicity
 _atom_site_fract_x
 _atom_site_fract_y
 _atom_site_fract_z
 _atom_site_occupancy
  Tb  Tb0  1  0.344688  0.994936  0.784965  1
  Tb  Tb1  1  0.654230  0.007278  0.282076  1
  Hf  Hf2  1  0.825935  0.822440  0.500099  1
  Hf  Hf3  1  0.322275  0.674408  0.247341  1
  Hf  Hf4  1  0.677241  0.324764  0.751410  1
  Hf  Hf5  1  0.145330  0.999309  0.374335  1
  Hf  Hf6  1  0.855768  0.002789  0.879297  1
  Hf  Hf7  1  0.504057  0.646112  0.626728  1
  Hf  Hf8  1  0.353806  0.498568  0.875009  1
  Hf  Hf9  1  0.495729  0.353432  0.124796  1
  Hf  Hf10  1  0.646231  0.501680  0.373820  1
  Hf  Hf11  1  0.000649  0.147182  0.625690  1
  Hf  Hf12  1  0.001318  0.853095  0.120280  1
  Zr  Zr13  1  0.000396  0.349177  0.214075  1
  Zr  Zr14  1  0.002677  0.650905  0.717651  1
  Zr  Zr15  1  0.152426  0.499382  0.465474  1
  Zr  Zr16  1  0.501843  0.845133  0.034086  1
  Zr  Zr17  1  0.844572  0.500207  0.967391  1
  Zr  Zr18  1  0.499622  0.152268  0.536087  1
  Si  Si19  1  0.351735  0.298888  0.321307  1
  Si  Si20  1  0.649601  0.701052  0.821984  1
  Si  Si21  1  0.203180  0.854099  0.569666  1
  Si  Si22  1  0.139617  0.788788  0.929724  1
  Si  Si23  1  0.799582  0.147410  0.070697  1
  Si  Si24  1  0.861129  0.210029  0.431566  1
  Si  Si25  1  0.294183  0.359605  0.676806  1
  Si  Si26  1  0.705484  0.641861  0.176195  1
  Si  Si27  1  0.291432  0.055508  0.180571  1
  Si  Si28  1  0.705132  0.948371  0.686332  1
  Si  Si29  1  0.447552  0.798268  0.436920  1
  Si  Si30  1  0.197808  0.543170  0.063097  1
  Si  Si31  1  0.547332  0.201569  0.938107  1
  Si  Si32  1  0.801074  0.450580  0.564783  1
  Si  Si33  1  0.051062  0.299718  0.817992  1
  Si  Si34  1  0.951383  0.697838  0.312864  1
  Tc  Tc35  1  0.173921  0.180182  0.000783  1
