# generated using pymatgen
data_P4Pd23Pt
_symmetry_space_group_name_H-M   'P 1'
_cell_length_a   9.57811554
_cell_length_b   5.75605871
_cell_length_c   8.37917366
_cell_angle_alpha   69.80712727
_cell_angle_beta   90.15421864
_cell_angle_gamma   89.92541535
_symmetry_Int_Tables_number   1
_chemical_formula_structural   P4Pd23Pt
_chemical_formula_sum   'P4 Pd23 Pt1'
_cell_volume   433.56538235
_cell_formula_units_Z   1
loop_
 _symmetry_equiv_pos_site_id
 _symmetry_equiv_pos_as_xyz
  1  'x, y, z'
loop_
 _atom_site_type_symbol
 _atom_site_label
 _atom_site_symmetry_multiplicity
 _atom_site_fract_x
 _atom_site_fract_y
 _atom_site_fract_z
 _atom_site_occupancy
  P  P0  1  0.762159  0.875503  0.749325  1
  P  P1  1  0.261766  0.123497  0.750340  1
  P  P2  1  0.238564  0.122617  0.251364  1
  P  P3  1  0.737586  0.875181  0.251837  1
  Pd  Pd4  1  0.366630  0.471126  0.569314  1
  Pd  Pd5  1  0.132868  0.471106  0.069417  1
  Pd  Pd6  1  0.632206  0.527537  0.431550  1
  Pd  Pd7  1  0.134962  0.773200  0.430604  1
  Pd  Pd8  1  0.636164  0.227997  0.069010  1
  Pd  Pd9  1  0.864783  0.225674  0.568991  1
  Pd  Pd10  1  0.365192  0.772887  0.930729  1
  Pd  Pd11  1  0.865997  0.713307  0.561842  1
  Pd  Pd12  1  0.366143  0.286185  0.936200  1
  Pd  Pd13  1  0.133716  0.286283  0.436307  1
  Pd  Pd14  1  0.634347  0.713458  0.064865  1
  Pd  Pd15  1  0.420317  0.866618  0.248744  1
  Pd  Pd16  1  0.919202  0.134749  0.249651  1
  Pd  Pd17  1  0.580077  0.132401  0.751240  1
  Pd  Pd18  1  0.080567  0.866127  0.749360  1
  Pd  Pd19  1  0.580432  0.619560  0.748448  1
  Pd  Pd20  1  0.080713  0.380724  0.751563  1
  Pd  Pd21  1  0.418793  0.380865  0.250651  1
  Pd  Pd22  1  0.918640  0.619824  0.247641  1
  Pd  Pd23  1  0.364162  0.959581  0.564512  1
  Pd  Pd24  1  0.864197  0.044731  0.934859  1
  Pd  Pd25  1  0.635182  0.040523  0.435633  1
  Pd  Pd26  1  0.136445  0.958943  0.065160  1
  Pt  Pt27  1  0.868191  0.529798  0.930846  1
