# generated using pymatgen
data_Yb3Er3(CoSn6)2
_symmetry_space_group_name_H-M   'P 1'
_cell_length_a   8.36553150
_cell_length_b   8.36553161
_cell_length_c   13.21707935
_cell_angle_alpha   90.02558301
_cell_angle_beta   89.97441660
_cell_angle_gamma   147.86827853
_symmetry_Int_Tables_number   1
_chemical_formula_structural   Yb3Er3(CoSn6)2
_chemical_formula_sum   'Yb3 Er3 Co2 Sn12'
_cell_volume   491.95569066
_cell_formula_units_Z   1
loop_
 _symmetry_equiv_pos_site_id
 _symmetry_equiv_pos_as_xyz
  1  'x, y, z'
loop_
 _atom_site_type_symbol
 _atom_site_label
 _atom_site_symmetry_multiplicity
 _atom_site_fract_x
 _atom_site_fract_y
 _atom_site_fract_z
 _atom_site_occupancy
  Yb  Yb0  1  0.100110  0.899890  0.597807  1
  Yb  Yb1  1  0.100620  0.899380  0.902639  1
  Yb  Yb2  1  0.900159  0.099841  0.401550  1
  Er  Er3  1  0.898660  0.101340  0.095961  1
  Er  Er4  1  0.901452  0.098548  0.754002  1
  Er  Er5  1  0.098501  0.901499  0.247497  1
  Co  Co6  1  0.298653  0.701347  0.249408  1
  Co  Co7  1  0.703743  0.296257  0.750448  1
  Sn  Sn8  1  0.759077  0.240923  0.572083  1
  Sn  Sn9  1  0.424848  0.575152  0.578649  1
  Sn  Sn10  1  0.573501  0.426499  0.422001  1
  Sn  Sn11  1  0.732381  0.267619  0.248737  1
  Sn  Sn12  1  0.268523  0.731477  0.750228  1
  Sn  Sn13  1  0.241650  0.758350  0.071843  1
  Sn  Sn14  1  0.241983  0.758017  0.427514  1
  Sn  Sn15  1  0.572853  0.427147  0.075430  1
  Sn  Sn16  1  0.455152  0.544848  0.248063  1
  Sn  Sn17  1  0.545008  0.454992  0.750502  1
  Sn  Sn18  1  0.757383  0.242617  0.929884  1
  Sn  Sn19  1  0.425745  0.574255  0.925753  1
