# generated using pymatgen
data_Sc5Si3P4(Pt2Rh)3
_symmetry_space_group_name_H-M   'P 1'
_cell_length_a   9.90015000
_cell_length_b   9.90014865
_cell_length_c   3.88487700
_cell_angle_alpha   90.00000000
_cell_angle_beta   90.00000000
_cell_angle_gamma   119.99999114
_symmetry_Int_Tables_number   1
_chemical_formula_structural   Sc5Si3P4(Pt2Rh)3
_chemical_formula_sum   'Sc5 Si3 P4 Pt6 Rh3'
_cell_volume   329.75503385
_cell_formula_units_Z   1
loop_
 _symmetry_equiv_pos_site_id
 _symmetry_equiv_pos_as_xyz
  1  'x, y, z'
loop_
 _atom_site_type_symbol
 _atom_site_label
 _atom_site_symmetry_multiplicity
 _atom_site_fract_x
 _atom_site_fract_y
 _atom_site_fract_z
 _atom_site_occupancy
  Sc  Sc0  1  0.000000  0.000000  0.000000  1
  Sc  Sc1  1  0.333333  0.666667  0.500000  1
  Sc  Sc2  1  0.897942  0.458426  0.500000  1
  Sc  Sc3  1  0.560484  0.102058  0.500000  1
  Sc  Sc4  1  0.541574  0.439516  0.500000  1
  Si  Si5  1  0.231646  0.184628  0.500000  1
  Si  Si6  1  0.815372  0.047019  0.500000  1
  Si  Si7  1  0.952981  0.768354  0.500000  1
  P  P8  1  0.556987  0.647705  0.000000  1
  P  P9  1  0.352295  0.909281  0.000000  1
  P  P10  1  0.090719  0.443013  0.000000  1
  P  P11  1  0.666667  0.333333  0.000000  1
  Pt  Pt12  1  0.313670  0.417961  0.000000  1
  Pt  Pt13  1  0.582039  0.895709  0.000000  1
  Pt  Pt14  1  0.104291  0.686330  0.000000  1
  Pt  Pt15  1  0.380518  0.173178  0.000000  1
  Pt  Pt16  1  0.826822  0.207340  0.000000  1
  Pt  Pt17  1  0.792660  0.619482  0.000000  1
  Rh  Rh18  1  0.221539  0.935664  0.500000  1
  Rh  Rh19  1  0.064336  0.285876  0.500000  1
  Rh  Rh20  1  0.714124  0.778461  0.500000  1
