# generated using pymatgen
data_Ho12InFe2Co2Au
_symmetry_space_group_name_H-M   'P 1'
_cell_length_a   8.30260139
_cell_length_b   8.30260057
_cell_length_c   8.30260065
_cell_angle_alpha   110.68762048
_cell_angle_beta   110.18300678
_cell_angle_gamma   107.56019271
_symmetry_Int_Tables_number   1
_chemical_formula_structural   Ho12InFe2Co2Au
_chemical_formula_sum   'Ho12 In1 Fe2 Co2 Au1'
_cell_volume   440.20078212
_cell_formula_units_Z   1
loop_
 _symmetry_equiv_pos_site_id
 _symmetry_equiv_pos_as_xyz
  1  'x, y, z'
loop_
 _atom_site_type_symbol
 _atom_site_label
 _atom_site_symmetry_multiplicity
 _atom_site_fract_x
 _atom_site_fract_y
 _atom_site_fract_z
 _atom_site_occupancy
  Ho  Ho0  1  0.314928  0.617712  0.302784  1
  Ho  Ho1  1  0.685072  0.382288  0.697216  1
  Ho  Ho2  1  0.314928  0.012141  0.697216  1
  Ho  Ho3  1  0.685072  0.987859  0.302784  1
  Ho  Ho4  1  0.186318  0.291660  0.477977  1
  Ho  Ho5  1  0.813682  0.708340  0.522023  1
  Ho  Ho6  1  0.186318  0.708340  0.894658  1
  Ho  Ho7  1  0.813682  0.291660  0.105342  1
  Ho  Ho8  1  0.426161  0.220406  0.205755  1
  Ho  Ho9  1  0.573839  0.779594  0.794245  1
  Ho  Ho10  1  0.014649  0.220406  0.794245  1
  Ho  Ho11  1  0.985351  0.779594  0.205755  1
  In  In12  1  0.500000  0.500000  0.000000  1
  Fe  Fe13  1  0.108957  0.608957  0.500000  1
  Fe  Fe14  1  0.891043  0.391043  0.500000  1
  Co  Co15  1  0.381617  0.000000  0.381617  1
  Co  Co16  1  0.618383  0.000000  0.618383  1
  Au  Au17  1  0.000000  0.000000  0.000000  1
