# generated using pymatgen
data_NdPuAl20IrRu3
_symmetry_space_group_name_H-M   'P 1'
_cell_length_a   6.86562791
_cell_length_b   6.86393528
_cell_length_c   9.14215315
_cell_angle_alpha   90.05194573
_cell_angle_beta   90.03739496
_cell_angle_gamma   96.90169960
_symmetry_Int_Tables_number   1
_chemical_formula_structural   NdPuAl20IrRu3
_chemical_formula_sum   'Nd1 Pu1 Al20 Ir1 Ru3'
_cell_volume   427.70386701
_cell_formula_units_Z   1
loop_
 _symmetry_equiv_pos_site_id
 _symmetry_equiv_pos_as_xyz
  1  'x, y, z'
loop_
 _atom_site_type_symbol
 _atom_site_label
 _atom_site_symmetry_multiplicity
 _atom_site_fract_x
 _atom_site_fract_y
 _atom_site_fract_z
 _atom_site_occupancy
  Nd  Nd0  1  0.125813  0.875720  0.250013  1
  Pu  Pu1  1  0.879054  0.119440  0.749799  1
  Al  Al2  1  0.621329  0.375904  0.552940  1
  Al  Al3  1  0.380099  0.622884  0.447283  1
  Al  Al4  1  0.377913  0.622347  0.051757  1
  Al  Al5  1  0.623492  0.376140  0.947845  1
  Al  Al6  1  0.224847  0.224394  0.501653  1
  Al  Al7  1  0.772899  0.777806  0.504139  1
  Al  Al8  1  0.773621  0.776084  0.997876  1
  Al  Al9  1  0.224337  0.225858  0.996825  1
  Al  Al10  1  0.841271  0.159451  0.100190  1
  Al  Al11  1  0.158447  0.840764  0.898464  1
  Al  Al12  1  0.160243  0.842443  0.603088  1
  Al  Al13  1  0.839553  0.157958  0.398533  1
  Al  Al14  1  0.858157  0.585584  0.751377  1
  Al  Al15  1  0.139419  0.408976  0.248526  1
  Al  Al16  1  0.415354  0.140963  0.750271  1
  Al  Al17  1  0.590406  0.861351  0.249759  1
  Al  Al18  1  0.220434  0.480505  0.752100  1
  Al  Al19  1  0.776803  0.519354  0.247667  1
  Al  Al20  1  0.519236  0.779999  0.749761  1
  Al  Al21  1  0.480921  0.222248  0.250325  1
  Ir  Ir22  1  0.999442  0.501658  0.499401  1
  Ru  Ru23  1  0.999486  0.501260  0.000438  1
  Ru  Ru24  1  0.498770  0.000351  0.000464  1
  Ru  Ru25  1  0.498652  0.000560  0.499506  1
