# generated using pymatgen
data_DyTm5Co16(MoP6)2
_symmetry_space_group_name_H-M   'P 1'
_cell_length_a   3.69857800
_cell_length_b   10.51030500
_cell_length_c   12.18499200
_cell_angle_alpha   90.00000000
_cell_angle_beta   90.00000000
_cell_angle_gamma   90.00000000
_symmetry_Int_Tables_number   1
_chemical_formula_structural   DyTm5Co16(MoP6)2
_chemical_formula_sum   'Dy1 Tm5 Co16 Mo2 P12'
_cell_volume   473.66942200
_cell_formula_units_Z   1
loop_
 _symmetry_equiv_pos_site_id
 _symmetry_equiv_pos_as_xyz
  1  'x, y, z'
loop_
 _atom_site_type_symbol
 _atom_site_label
 _atom_site_symmetry_multiplicity
 _atom_site_fract_x
 _atom_site_fract_y
 _atom_site_fract_z
 _atom_site_occupancy
  Dy  Dy0  1  0.500000  0.000000  0.474934  1
  Tm  Tm1  1  0.000000  0.500000  0.524797  1
  Tm  Tm2  1  0.500000  0.819277  0.204749  1
  Tm  Tm3  1  0.500000  0.180723  0.204749  1
  Tm  Tm4  1  0.000000  0.680485  0.795034  1
  Tm  Tm5  1  0.000000  0.319515  0.795034  1
  Co  Co6  1  0.500000  0.500000  0.701323  1
  Co  Co7  1  0.000000  0.000000  0.297854  1
  Co  Co8  1  0.000000  0.500000  0.986201  1
  Co  Co9  1  0.500000  0.000000  0.013696  1
  Co  Co10  1  0.500000  0.332470  0.989906  1
  Co  Co11  1  0.500000  0.667530  0.989906  1
  Co  Co12  1  0.000000  0.167787  0.010140  1
  Co  Co13  1  0.000000  0.832213  0.010140  1
  Co  Co14  1  0.500000  0.296897  0.431511  1
  Co  Co15  1  0.500000  0.703103  0.431511  1
  Co  Co16  1  0.000000  0.204894  0.568510  1
  Co  Co17  1  0.000000  0.795106  0.568510  1
  Co  Co18  1  0.500000  0.877076  0.706840  1
  Co  Co19  1  0.500000  0.122924  0.706840  1
  Co  Co20  1  0.000000  0.622434  0.293518  1
  Co  Co21  1  0.000000  0.377566  0.293518  1
  Mo  Mo22  1  0.500000  0.500000  0.157039  1
  Mo  Mo23  1  0.000000  0.000000  0.843613  1
  P  P24  1  0.500000  0.500000  0.879878  1
  P  P25  1  0.000000  0.000000  0.119815  1
  P  P26  1  0.500000  0.500000  0.351035  1
  P  P27  1  0.000000  0.000000  0.650209  1
  P  P28  1  0.500000  0.312723  0.616361  1
  P  P29  1  0.500000  0.687277  0.616361  1
  P  P30  1  0.000000  0.188425  0.383116  1
  P  P31  1  0.000000  0.811575  0.383116  1
  P  P32  1  0.500000  0.843795  0.892159  1
  P  P33  1  0.500000  0.156205  0.892159  1
  P  P34  1  0.000000  0.656003  0.107958  1
  P  P35  1  0.000000  0.343997  0.107958  1
