# generated using pymatgen
data_Eu4Hf2MnRuO12
_symmetry_space_group_name_H-M   'P 1'
_cell_length_a   5.59807016
_cell_length_b   5.81860661
_cell_length_c   8.04169107
_cell_angle_alpha   88.86893448
_cell_angle_beta   90.15072075
_cell_angle_gamma   89.64712542
_symmetry_Int_Tables_number   1
_chemical_formula_structural   Eu4Hf2MnRuO12
_chemical_formula_sum   'Eu4 Hf2 Mn1 Ru1 O12'
_cell_volume   261.88474906
_cell_formula_units_Z   1
loop_
 _symmetry_equiv_pos_site_id
 _symmetry_equiv_pos_as_xyz
  1  'x, y, z'
loop_
 _atom_site_type_symbol
 _atom_site_label
 _atom_site_symmetry_multiplicity
 _atom_site_fract_x
 _atom_site_fract_y
 _atom_site_fract_z
 _atom_site_occupancy
  Eu  Eu0  1  0.011326  0.943583  0.768871  1
  Eu  Eu1  1  0.514184  0.557380  0.230987  1
  Eu  Eu2  1  0.485816  0.442620  0.769013  1
  Eu  Eu3  1  0.988674  0.056417  0.231129  1
  Hf  Hf4  1  0.500000  0.000000  0.500000  1
  Hf  Hf5  1  0.000000  0.500000  0.500000  1
  Mn  Mn6  1  0.500000  0.000000  0.000000  1
  Ru  Ru7  1  0.000000  0.500000  0.000000  1
  O  O8  1  0.700348  0.299814  0.445016  1
  O  O9  1  0.199104  0.202791  0.553427  1
  O  O10  1  0.813923  0.789037  0.048315  1
  O  O11  1  0.294470  0.692266  0.954633  1
  O  O12  1  0.299652  0.700186  0.554984  1
  O  O13  1  0.800896  0.797209  0.446573  1
  O  O14  1  0.186077  0.210963  0.951685  1
  O  O15  1  0.705530  0.307734  0.045367  1
  O  O16  1  0.093714  0.470617  0.249617  1
  O  O17  1  0.598449  0.031514  0.745314  1
  O  O18  1  0.401551  0.968486  0.254686  1
  O  O19  1  0.906286  0.529383  0.750383  1
