# generated using pymatgen
data_Tb11Ce5(InRu)4
_symmetry_space_group_name_H-M   'P 1'
_cell_length_a   9.56729353
_cell_length_b   9.66587509
_cell_length_c   9.66587600
_cell_angle_alpha   59.98797010
_cell_angle_beta   60.33680612
_cell_angle_gamma   60.33681074
_symmetry_Int_Tables_number   1
_chemical_formula_structural   Tb11Ce5(InRu)4
_chemical_formula_sum   'Tb11 Ce5 In4 Ru4'
_cell_volume   635.19763921
_cell_formula_units_Z   1
loop_
 _symmetry_equiv_pos_site_id
 _symmetry_equiv_pos_as_xyz
  1  'x, y, z'
loop_
 _atom_site_type_symbol
 _atom_site_label
 _atom_site_symmetry_multiplicity
 _atom_site_fract_x
 _atom_site_fract_y
 _atom_site_fract_z
 _atom_site_occupancy
  Tb  Tb0  1  0.561422  0.559651  0.938807  1
  Tb  Tb1  1  0.940104  0.559271  0.939267  1
  Tb  Tb2  1  0.563296  0.936704  0.936704  1
  Tb  Tb3  1  0.940120  0.938807  0.559651  1
  Tb  Tb4  1  0.561358  0.939267  0.559271  1
  Tb  Tb5  1  0.935573  0.564427  0.564427  1
  Tb  Tb6  1  0.192667  0.188439  0.807714  1
  Tb  Tb7  1  0.811070  0.188005  0.808042  1
  Tb  Tb8  1  0.189275  0.810725  0.810724  1
  Tb  Tb9  1  0.811180  0.807715  0.188439  1
  Tb  Tb10  1  0.192882  0.808042  0.188004  1
  Ce  Ce11  1  0.814251  0.185749  0.185749  1
  Ce  Ce12  1  0.346131  0.346717  0.961306  1
  Ce  Ce13  1  0.345846  0.961306  0.346717  1
  Ce  Ce14  1  0.960018  0.348324  0.348439  1
  Ce  Ce15  1  0.343221  0.348439  0.348324  1
  In  In16  1  0.580905  0.583589  0.254582  1
  In  In17  1  0.580923  0.254582  0.583589  1
  In  In18  1  0.255217  0.581638  0.581698  1
  In  In19  1  0.581447  0.581698  0.581638  1
  Ru  Ru20  1  0.147745  0.140649  0.563780  1
  Ru  Ru21  1  0.147827  0.563780  0.140649  1
  Ru  Ru22  1  0.582609  0.151322  0.151158  1
  Ru  Ru23  1  0.114914  0.151158  0.151322  1
