# generated using pymatgen
data_Li2Pr2Sn3
_symmetry_space_group_name_H-M   'P 1'
_cell_length_a   10.35282512
_cell_length_b   10.35282535
_cell_length_c   7.41014400
_cell_angle_alpha   90.00000000
_cell_angle_beta   90.00000000
_cell_angle_gamma   153.45281376
_symmetry_Int_Tables_number   1
_chemical_formula_structural   Li2Pr2Sn3
_chemical_formula_sum   'Li4 Pr4 Sn6'
_cell_volume   354.96740668
_cell_formula_units_Z   2
loop_
 _symmetry_equiv_pos_site_id
 _symmetry_equiv_pos_as_xyz
  1  'x, y, z'
loop_
 _atom_site_type_symbol
 _atom_site_label
 _atom_site_symmetry_multiplicity
 _atom_site_fract_x
 _atom_site_fract_y
 _atom_site_fract_z
 _atom_site_occupancy
  Li  Li0  1  0.805863  0.194137  0.437001  1
  Li  Li1  1  0.194137  0.805863  0.562999  1
  Li  Li2  1  0.805863  0.194137  0.062999  1
  Li  Li3  1  0.194137  0.805863  0.937001  1
  Pr  Pr4  1  0.549740  0.450260  0.750000  1
  Pr  Pr5  1  0.450260  0.549740  0.250000  1
  Pr  Pr6  1  0.342016  0.657984  0.750000  1
  Pr  Pr7  1  0.657984  0.342016  0.250000  1
  Sn  Sn8  1  0.932264  0.067736  0.944310  1
  Sn  Sn9  1  0.067736  0.932264  0.055690  1
  Sn  Sn10  1  0.932264  0.067736  0.555690  1
  Sn  Sn11  1  0.067736  0.932264  0.444310  1
  Sn  Sn12  1  0.720017  0.279983  0.750000  1
  Sn  Sn13  1  0.279983  0.720017  0.250000  1
