# generated using pymatgen
data_Lu6Al24Ni3Os5
_symmetry_space_group_name_H-M   'P 1'
_cell_length_a   8.77913600
_cell_length_b   8.72097686
_cell_length_c   9.43473863
_cell_angle_alpha   90.51528326
_cell_angle_beta   90.00000000
_cell_angle_gamma   120.22084344
_symmetry_Int_Tables_number   1
_chemical_formula_structural   Lu6Al24Ni3Os5
_chemical_formula_sum   'Lu6 Al24 Ni3 Os5'
_cell_volume   624.14158747
_cell_formula_units_Z   1
loop_
 _symmetry_equiv_pos_site_id
 _symmetry_equiv_pos_as_xyz
  1  'x, y, z'
loop_
 _atom_site_type_symbol
 _atom_site_label
 _atom_site_symmetry_multiplicity
 _atom_site_fract_x
 _atom_site_fract_y
 _atom_site_fract_z
 _atom_site_occupancy
  Lu  Lu0  1  0.198898  0.397797  0.248950  1
  Lu  Lu1  1  0.801102  0.602203  0.751050  1
  Lu  Lu2  1  0.606416  0.798607  0.251630  1
  Lu  Lu3  1  0.393584  0.201393  0.748370  1
  Lu  Lu4  1  0.192190  0.798607  0.251630  1
  Lu  Lu5  1  0.807810  0.201393  0.748370  1
  Al  Al6  1  0.335591  0.671184  0.022792  1
  Al  Al7  1  0.664409  0.328816  0.977208  1
  Al  Al8  1  0.666586  0.333171  0.520483  1
  Al  Al9  1  0.333414  0.666829  0.479517  1
  Al  Al10  1  0.161878  0.323755  0.576376  1
  Al  Al11  1  0.838122  0.676245  0.423624  1
  Al  Al12  1  0.676219  0.839604  0.578801  1
  Al  Al13  1  0.836993  0.673986  0.077671  1
  Al  Al14  1  0.323781  0.160396  0.421199  1
  Al  Al15  1  0.163007  0.326014  0.922329  1
  Al  Al16  1  0.163385  0.839604  0.578801  1
  Al  Al17  1  0.323617  0.161419  0.077837  1
  Al  Al18  1  0.836615  0.160396  0.421199  1
  Al  Al19  1  0.676383  0.838581  0.922163  1
  Al  Al20  1  0.837802  0.161419  0.077837  1
  Al  Al21  1  0.162198  0.838581  0.922163  1
  Al  Al22  1  0.558810  0.117620  0.246022  1
  Al  Al23  1  0.441190  0.882380  0.753978  1
  Al  Al24  1  0.875299  0.436257  0.249063  1
  Al  Al25  1  0.124701  0.563743  0.750937  1
  Al  Al26  1  0.560958  0.436257  0.249063  1
  Al  Al27  1  0.439042  0.563743  0.750937  1
  Al  Al28  1  0.999224  0.998449  0.250660  1
  Al  Al29  1  0.000776  0.001551  0.749340  1
  Ni  Ni30  1  0.500000  0.000000  0.000000  1
  Ni  Ni31  1  0.000000  0.000000  0.000000  1
  Ni  Ni32  1  0.000000  0.000000  0.500000  1
  Os  Os33  1  0.000000  0.500000  0.000000  1
  Os  Os34  1  0.500000  0.000000  0.500000  1
  Os  Os35  1  0.500000  0.500000  0.000000  1
  Os  Os36  1  0.000000  0.500000  0.500000  1
  Os  Os37  1  0.500000  0.500000  0.500000  1
