# generated using pymatgen
data_HfSc7Ti7Si16Mo5
_symmetry_space_group_name_H-M   'P 1'
_cell_length_a   6.60445497
_cell_length_b   6.77941269
_cell_length_c   12.90618561
_cell_angle_alpha   89.98527358
_cell_angle_beta   90.00911429
_cell_angle_gamma   90.00320659
_symmetry_Int_Tables_number   1
_chemical_formula_structural   HfSc7Ti7Si16Mo5
_chemical_formula_sum   'Hf1 Sc7 Ti7 Si16 Mo5'
_cell_volume   577.86573249
_cell_formula_units_Z   1
loop_
 _symmetry_equiv_pos_site_id
 _symmetry_equiv_pos_as_xyz
  1  'x, y, z'
loop_
 _atom_site_type_symbol
 _atom_site_label
 _atom_site_symmetry_multiplicity
 _atom_site_fract_x
 _atom_site_fract_y
 _atom_site_fract_z
 _atom_site_occupancy
  Hf  Hf0  1  0.500200  0.674081  0.596126  1
  Sc  Sc1  1  0.000274  0.175413  0.094218  1
  Sc  Sc2  1  0.000282  0.825806  0.906577  1
  Sc  Sc3  1  0.500914  0.672926  0.904768  1
  Sc  Sc4  1  0.000515  0.826788  0.595110  1
  Sc  Sc5  1  0.497701  0.328290  0.094446  1
  Sc  Sc6  1  0.000923  0.173163  0.404492  1
  Sc  Sc7  1  0.498689  0.327994  0.405798  1
  Ti  Ti8  1  0.335475  0.170232  0.625611  1
  Ti  Ti9  1  0.665949  0.828038  0.372625  1
  Ti  Ti10  1  0.166539  0.671401  0.373447  1
  Ti  Ti11  1  0.662869  0.828236  0.126217  1
  Ti  Ti12  1  0.833002  0.330526  0.626352  1
  Ti  Ti13  1  0.334262  0.171300  0.873858  1
  Ti  Ti14  1  0.833740  0.329442  0.874246  1
  Si  Si15  1  0.035337  0.116371  0.750082  1
  Si  Si16  1  0.965955  0.882722  0.247912  1
  Si  Si17  1  0.462495  0.615132  0.250096  1
  Si  Si18  1  0.536014  0.384087  0.750200  1
  Si  Si19  1  0.295405  0.862098  0.750910  1
  Si  Si20  1  0.703959  0.138801  0.249432  1
  Si  Si21  1  0.201492  0.361839  0.250391  1
  Si  Si22  1  0.798093  0.639071  0.750305  1
  Si  Si23  1  0.167541  0.463446  0.540696  1
  Si  Si24  1  0.830920  0.537074  0.459944  1
  Si  Si25  1  0.334096  0.963758  0.459104  1
  Si  Si26  1  0.835510  0.536033  0.041840  1
  Si  Si27  1  0.667447  0.035678  0.540696  1
  Si  Si28  1  0.168298  0.461530  0.959708  1
  Si  Si29  1  0.667048  0.035675  0.959236  1
  Si  Si30  1  0.330447  0.962571  0.041389  1
  Mo  Mo31  1  0.162843  0.494290  0.749674  1
  Mo  Mo32  1  0.836131  0.508198  0.250291  1
  Mo  Mo33  1  0.339807  0.993037  0.250410  1
  Mo  Mo34  1  0.660985  0.006374  0.749045  1
  Mo  Mo35  1  0.168838  0.668574  0.124748  1
