# generated using pymatgen
data_Dy3Ho(Ga8Pt3)3
_symmetry_space_group_name_H-M   'P 1'
_cell_length_a   7.51154247
_cell_length_b   7.59697616
_cell_length_c   13.36127639
_cell_angle_alpha   84.75216958
_cell_angle_beta   79.55681804
_cell_angle_gamma   60.21466007
_symmetry_Int_Tables_number   1
_chemical_formula_structural   Dy3Ho(Ga8Pt3)3
_chemical_formula_sum   'Dy3 Ho1 Ga24 Pt9'
_cell_volume   650.77211479
_cell_formula_units_Z   1
loop_
 _symmetry_equiv_pos_site_id
 _symmetry_equiv_pos_as_xyz
  1  'x, y, z'
loop_
 _atom_site_type_symbol
 _atom_site_label
 _atom_site_symmetry_multiplicity
 _atom_site_fract_x
 _atom_site_fract_y
 _atom_site_fract_z
 _atom_site_occupancy
  Dy  Dy0  1  0.607059  0.831162  0.188932  1
  Dy  Dy1  1  0.732463  0.497467  0.811428  1
  Dy  Dy2  1  0.267632  0.502470  0.188635  1
  Ho  Ho3  1  0.393119  0.168871  0.810562  1
  Ga  Ga4  1  0.684462  0.834402  0.938711  1
  Ga  Ga5  1  0.314962  0.166124  0.060898  1
  Ga  Ga6  1  0.146408  0.832649  0.559227  1
  Ga  Ga7  1  0.853630  0.167359  0.440686  1
  Ga  Ga8  1  0.478897  0.166688  0.556336  1
  Ga  Ga9  1  0.521217  0.833296  0.443624  1
  Ga  Ga10  1  0.219960  0.165496  0.324472  1
  Ga  Ga11  1  0.779719  0.834789  0.675625  1
  Ga  Ga12  1  0.437968  0.503869  0.674761  1
  Ga  Ga13  1  0.562081  0.495935  0.325188  1
  Ga  Ga14  1  0.107856  0.163073  0.674284  1
  Ga  Ga15  1  0.892469  0.836837  0.325704  1
  Ga  Ga16  1  0.357248  0.497333  0.938775  1
  Ga  Ga17  1  0.642595  0.502202  0.061228  1
  Ga  Ga18  1  0.019768  0.169577  0.944035  1
  Ga  Ga19  1  0.980556  0.830341  0.056009  1
  Ga  Ga20  1  0.186908  0.499257  0.442916  1
  Ga  Ga21  1  0.813158  0.500708  0.557053  1
  Ga  Ga22  1  0.734265  0.163619  0.182606  1
  Ga  Ga23  1  0.266278  0.836015  0.817507  1
  Ga  Ga24  1  0.060486  0.630815  0.816915  1
  Ga  Ga25  1  0.939177  0.369216  0.183234  1
  Ga  Ga26  1  0.855469  0.041283  0.816928  1
  Ga  Ga27  1  0.144545  0.959194  0.183197  1
  Pt  Pt28  1  0.118236  0.494352  0.639234  1
  Pt  Pt29  1  0.881776  0.505656  0.360851  1
  Pt  Pt30  1  0.659673  0.169967  0.999596  1
  Pt  Pt31  1  0.340129  0.829791  0.000569  1
  Pt  Pt32  1  0.539833  0.167000  0.360392  1
  Pt  Pt33  1  0.460148  0.832945  0.639711  1
  Pt  Pt34  1  0.778477  0.173205  0.637693  1
  Pt  Pt35  1  0.221693  0.826782  0.362354  1
  Pt  Pt36  1  0.999678  0.500258  0.000121  1
