# generated using pymatgen
data_Tb3In3Ag2Au
_symmetry_space_group_name_H-M   'P 1'
_cell_length_a   7.85453400
_cell_length_b   7.85453402
_cell_length_c   3.98806000
_cell_angle_alpha   90.00000000
_cell_angle_beta   90.00000000
_cell_angle_gamma   119.99999992
_symmetry_Int_Tables_number   1
_chemical_formula_structural   Tb3In3Ag2Au
_chemical_formula_sum   'Tb3 In3 Ag2 Au1'
_cell_volume   213.07532748
_cell_formula_units_Z   1
loop_
 _symmetry_equiv_pos_site_id
 _symmetry_equiv_pos_as_xyz
  1  'x, y, z'
loop_
 _atom_site_type_symbol
 _atom_site_label
 _atom_site_symmetry_multiplicity
 _atom_site_fract_x
 _atom_site_fract_y
 _atom_site_fract_z
 _atom_site_occupancy
  Tb  Tb0  1  0.596657  0.005450  0.500000  1
  Tb  Tb1  1  0.408793  0.403343  0.500000  1
  Tb  Tb2  1  0.994550  0.591207  0.500000  1
  In  In3  1  0.738435  0.741706  0.000000  1
  In  In4  1  0.003272  0.261565  0.000000  1
  In  In5  1  0.258294  0.996728  0.000000  1
  Ag  Ag6  1  0.333333  0.666667  0.000000  1
  Ag  Ag7  1  0.000000  0.000000  0.500000  1
  Au  Au8  1  0.666667  0.333333  0.000000  1
