# generated using pymatgen
data_Sr2PaAs3
_symmetry_space_group_name_H-M   'P 1'
_cell_length_a   7.59410184
_cell_length_b   7.59410132
_cell_length_c   7.59410215
_cell_angle_alpha   146.71555566
_cell_angle_beta   133.06557486
_cell_angle_gamma   58.74879415
_symmetry_Int_Tables_number   1
_chemical_formula_structural   Sr2PaAs3
_chemical_formula_sum   'Sr2 Pa1 As3'
_cell_volume   174.10674868
_cell_formula_units_Z   1
loop_
 _symmetry_equiv_pos_site_id
 _symmetry_equiv_pos_as_xyz
  1  'x, y, z'
loop_
 _atom_site_type_symbol
 _atom_site_label
 _atom_site_symmetry_multiplicity
 _atom_site_fract_x
 _atom_site_fract_y
 _atom_site_fract_z
 _atom_site_occupancy
  Sr  Sr0  1  0.670252  0.670252  0.000000  1
  Sr  Sr1  1  0.329748  0.329748  0.000000  1
  Pa  Pa2  1  0.000000  0.000000  0.000000  1
  As  As3  1  0.500000  0.000000  0.500000  1
  As  As4  1  0.141355  0.641355  0.500000  1
  As  As5  1  0.858645  0.358645  0.500000  1
