# generated using pymatgen
data_Yb7ErZn(Si4Pd)3
_symmetry_space_group_name_H-M   'P 1'
_cell_length_a   8.22693800
_cell_length_b   8.22693810
_cell_length_c   8.23927200
_cell_angle_alpha   90.00000000
_cell_angle_beta   90.00000000
_cell_angle_gamma   119.99999154
_symmetry_Int_Tables_number   1
_chemical_formula_structural   Yb7ErZn(Si4Pd)3
_chemical_formula_sum   'Yb7 Er1 Zn1 Si12 Pd3'
_cell_volume   482.94309745
_cell_formula_units_Z   1
loop_
 _symmetry_equiv_pos_site_id
 _symmetry_equiv_pos_as_xyz
  1  'x, y, z'
loop_
 _atom_site_type_symbol
 _atom_site_label
 _atom_site_symmetry_multiplicity
 _atom_site_fract_x
 _atom_site_fract_y
 _atom_site_fract_z
 _atom_site_occupancy
  Yb  Yb0  1  0.504143  0.008287  0.257070  1
  Yb  Yb1  1  0.500448  0.000895  0.743615  1
  Yb  Yb2  1  0.991713  0.495857  0.257070  1
  Yb  Yb3  1  0.999105  0.499552  0.743615  1
  Yb  Yb4  1  0.504143  0.495857  0.257070  1
  Yb  Yb5  1  0.500448  0.499552  0.743615  1
  Yb  Yb6  1  0.000000  0.000000  0.252051  1
  Er  Er7  1  0.000000  0.000000  0.747262  1
  Zn  Zn8  1  0.333333  0.666667  0.005252  1
  Si  Si9  1  0.161258  0.322516  0.997693  1
  Si  Si10  1  0.833824  0.667651  0.994528  1
  Si  Si11  1  0.677484  0.838742  0.997693  1
  Si  Si12  1  0.836700  0.673401  0.504415  1
  Si  Si13  1  0.332349  0.166176  0.994528  1
  Si  Si14  1  0.164303  0.328607  0.502880  1
  Si  Si15  1  0.161258  0.838742  0.997693  1
  Si  Si16  1  0.326599  0.163300  0.504415  1
  Si  Si17  1  0.833824  0.166176  0.994528  1
  Si  Si18  1  0.671393  0.835697  0.502880  1
  Si  Si19  1  0.836700  0.163300  0.504415  1
  Si  Si20  1  0.164303  0.835697  0.502880  1
  Pd  Pd21  1  0.666667  0.333333  0.996387  1
  Pd  Pd22  1  0.666667  0.333333  0.503639  1
  Pd  Pd23  1  0.333333  0.666667  0.494809  1
