# generated using pymatgen
data_Sc8Cr11Si16Ni
_symmetry_space_group_name_H-M   'P 1'
_cell_length_a   6.50793819
_cell_length_b   6.50793751
_cell_length_c   12.03872914
_cell_angle_alpha   90.09953139
_cell_angle_beta   89.90046619
_cell_angle_gamma   89.88070764
_symmetry_Int_Tables_number   1
_chemical_formula_structural   Sc8Cr11Si16Ni
_chemical_formula_sum   'Sc8 Cr11 Si16 Ni1'
_cell_volume   509.87671869
_cell_formula_units_Z   1
loop_
 _symmetry_equiv_pos_site_id
 _symmetry_equiv_pos_as_xyz
  1  'x, y, z'
loop_
 _atom_site_type_symbol
 _atom_site_label
 _atom_site_symmetry_multiplicity
 _atom_site_fract_x
 _atom_site_fract_y
 _atom_site_fract_z
 _atom_site_occupancy
  Sc  Sc0  1  0.000719  0.663895  0.029880  1
  Sc  Sc1  1  0.837812  0.500729  0.278893  1
  Sc  Sc2  1  0.161767  0.500475  0.778012  1
  Sc  Sc3  1  0.500729  0.837812  0.721107  1
  Sc  Sc4  1  0.500475  0.161767  0.221988  1
  Sc  Sc5  1  0.998707  0.337531  0.528972  1
  Sc  Sc6  1  0.663895  0.000719  0.970120  1
  Sc  Sc7  1  0.337531  0.998707  0.471028  1
  Cr  Cr8  1  0.167684  0.830587  0.249728  1
  Cr  Cr9  1  0.830587  0.167684  0.750272  1
  Cr  Cr10  1  0.668172  0.668172  0.500000  1
  Cr  Cr11  1  0.993852  0.166842  0.125750  1
  Cr  Cr12  1  0.333544  0.497280  0.374616  1
  Cr  Cr13  1  0.668826  0.502280  0.875072  1
  Cr  Cr14  1  0.497280  0.333544  0.625384  1
  Cr  Cr15  1  0.502280  0.668826  0.124928  1
  Cr  Cr16  1  0.003633  0.833602  0.626212  1
  Cr  Cr17  1  0.166842  0.993852  0.874250  1
  Cr  Cr18  1  0.833602  0.003633  0.373788  1
  Si  Si19  1  0.285656  0.964139  0.065342  1
  Si  Si20  1  0.534763  0.787576  0.316230  1
  Si  Si21  1  0.464698  0.213514  0.816830  1
  Si  Si22  1  0.787576  0.534763  0.683770  1
  Si  Si23  1  0.213514  0.464698  0.183170  1
  Si  Si24  1  0.712204  0.033766  0.565851  1
  Si  Si25  1  0.964139  0.285656  0.934658  1
  Si  Si26  1  0.033766  0.712204  0.434149  1
  Si  Si27  1  0.698098  0.379373  0.066471  1
  Si  Si28  1  0.124316  0.197419  0.315998  1
  Si  Si29  1  0.875584  0.802591  0.816712  1
  Si  Si30  1  0.197419  0.124316  0.684002  1
  Si  Si31  1  0.802591  0.875584  0.183288  1
  Si  Si32  1  0.302958  0.623306  0.566277  1
  Si  Si33  1  0.379373  0.698098  0.933529  1
  Si  Si34  1  0.623306  0.302958  0.433723  1
  Ni  Ni35  1  0.332106  0.332106  0.000000  1
