# generated using pymatgen
data_Y5Er3Sc12Tl15Sn
_symmetry_space_group_name_H-M   'P 1'
_cell_length_a   7.68424509
_cell_length_b   8.01293288
_cell_length_c   15.11943153
_cell_angle_alpha   90.13090037
_cell_angle_beta   89.97394764
_cell_angle_gamma   90.00456295
_symmetry_Int_Tables_number   1
_chemical_formula_structural   Y5Er3Sc12Tl15Sn
_chemical_formula_sum   'Y5 Er3 Sc12 Tl15 Sn1'
_cell_volume   930.95137173
_cell_formula_units_Z   1
loop_
 _symmetry_equiv_pos_site_id
 _symmetry_equiv_pos_as_xyz
  1  'x, y, z'
loop_
 _atom_site_type_symbol
 _atom_site_label
 _atom_site_symmetry_multiplicity
 _atom_site_fract_x
 _atom_site_fract_y
 _atom_site_fract_z
 _atom_site_occupancy
  Y  Y0  1  0.998468  0.183294  0.093870  1
  Y  Y1  1  0.002517  0.817220  0.905523  1
  Y  Y2  1  0.501852  0.682362  0.906837  1
  Y  Y3  1  0.002537  0.816995  0.591246  1
  Y  Y4  1  0.497745  0.317229  0.094199  1
  Er  Er5  1  0.998168  0.184448  0.407823  1
  Er  Er6  1  0.496204  0.314625  0.408621  1
  Er  Er7  1  0.499990  0.682915  0.591453  1
  Sc  Sc8  1  0.167881  0.496319  0.748459  1
  Sc  Sc9  1  0.834450  0.504212  0.249446  1
  Sc  Sc10  1  0.333262  0.996969  0.250873  1
  Sc  Sc11  1  0.667474  0.004799  0.749665  1
  Sc  Sc12  1  0.334664  0.159312  0.624454  1
  Sc  Sc13  1  0.665093  0.842750  0.375333  1
  Sc  Sc14  1  0.167662  0.658393  0.375333  1
  Sc  Sc15  1  0.663292  0.839833  0.126499  1
  Sc  Sc16  1  0.833499  0.340800  0.625287  1
  Sc  Sc17  1  0.335809  0.159204  0.873948  1
  Sc  Sc18  1  0.835322  0.341050  0.873724  1
  Sc  Sc19  1  0.167098  0.657621  0.126304  1
  Tl  Tl20  1  0.028550  0.124214  0.749274  1
  Tl  Tl21  1  0.972610  0.875453  0.250279  1
  Tl  Tl22  1  0.473542  0.622663  0.252438  1
  Tl  Tl23  1  0.528121  0.376061  0.749753  1
  Tl  Tl24  1  0.302151  0.853826  0.748553  1
  Tl  Tl25  1  0.699430  0.146447  0.251627  1
  Tl  Tl26  1  0.199485  0.353578  0.252146  1
  Tl  Tl27  1  0.800167  0.646758  0.748368  1
  Tl  Tl28  1  0.814830  0.540751  0.456372  1
  Tl  Tl29  1  0.316590  0.958837  0.457527  1
  Tl  Tl30  1  0.818010  0.543064  0.042001  1
  Tl  Tl31  1  0.682527  0.043146  0.542357  1
  Tl  Tl32  1  0.181435  0.457310  0.957399  1
  Tl  Tl33  1  0.682475  0.043174  0.958379  1
  Tl  Tl34  1  0.318434  0.956151  0.042497  1
  Sn  Sn35  1  0.178655  0.458222  0.542135  1
