# generated using pymatgen
data_AcLaO6
_symmetry_space_group_name_H-M   'P 1'
_cell_length_a   4.52091064
_cell_length_b   8.53596735
_cell_length_c   4.19367860
_cell_angle_alpha   66.71605942
_cell_angle_beta   122.08440179
_cell_angle_gamma   121.41650168
_symmetry_Int_Tables_number   1
_chemical_formula_structural   AcLaO6
_chemical_formula_sum   'Ac1 La1 O6'
_cell_volume   115.43658160
_cell_formula_units_Z   1
loop_
 _symmetry_equiv_pos_site_id
 _symmetry_equiv_pos_as_xyz
  1  'x, y, z'
loop_
 _atom_site_type_symbol
 _atom_site_label
 _atom_site_symmetry_multiplicity
 _atom_site_fract_x
 _atom_site_fract_y
 _atom_site_fract_z
 _atom_site_occupancy
  Ac  Ac0  1  0.519799  0.752665  0.540459  1
  La  La1  1  0.510715  0.267102  0.469537  1
  O  O2  1  0.359197  0.941369  0.836639  1
  O  O3  1  0.178932  0.296568  0.753158  1
  O  O4  1  0.909746  0.583454  0.655354  1
  O  O5  1  0.807588  0.681217  0.251943  1
  O  O6  1  0.638010  0.073219  0.123084  1
  O  O7  1  0.104778  0.413923  0.367829  1
