# generated using pymatgen
data_BaSrCa2(ReN3)4
_symmetry_space_group_name_H-M   'P 1'
_cell_length_a   7.52531489
_cell_length_b   7.52531416
_cell_length_c   6.20320739
_cell_angle_alpha   78.21296691
_cell_angle_beta   78.21297004
_cell_angle_gamma   87.41508865
_symmetry_Int_Tables_number   1
_chemical_formula_structural   BaSrCa2(ReN3)4
_chemical_formula_sum   'Ba1 Sr1 Ca2 Re4 N12'
_cell_volume   336.62912895
_cell_formula_units_Z   1
loop_
 _symmetry_equiv_pos_site_id
 _symmetry_equiv_pos_as_xyz
  1  'x, y, z'
loop_
 _atom_site_type_symbol
 _atom_site_label
 _atom_site_symmetry_multiplicity
 _atom_site_fract_x
 _atom_site_fract_y
 _atom_site_fract_z
 _atom_site_occupancy
  Ba  Ba0  1  0.312857  0.687143  0.250000  1
  Sr  Sr1  1  0.689100  0.310900  0.750000  1
  Ca  Ca2  1  0.906765  0.093235  0.250000  1
  Ca  Ca3  1  0.086405  0.913595  0.750000  1
  Re  Re4  1  0.800382  0.626831  0.231964  1
  Re  Re5  1  0.373169  0.199618  0.268036  1
  Re  Re6  1  0.628991  0.798851  0.729639  1
  Re  Re7  1  0.201149  0.371009  0.770361  1
  N  N8  1  0.781766  0.986583  0.647275  1
  N  N9  1  0.122568  0.594380  0.700006  1
  N  N10  1  0.335171  0.359568  0.002728  1
  N  N11  1  0.593304  0.113173  0.190782  1
  N  N12  1  0.886827  0.406696  0.309218  1
  N  N13  1  0.209794  0.022461  0.353944  1
  N  N14  1  0.977539  0.790206  0.146056  1
  N  N15  1  0.362416  0.327673  0.506942  1
  N  N16  1  0.640432  0.664829  0.497272  1
  N  N17  1  0.013417  0.218234  0.852725  1
  N  N18  1  0.405620  0.877432  0.799994  1
  N  N19  1  0.672327  0.637584  0.993058  1
