# generated using pymatgen
data_LiDy4Ga6Co
_symmetry_space_group_name_H-M   'P 1'
_cell_length_a   7.03781800
_cell_length_b   8.87894481
_cell_length_c   8.87894500
_cell_angle_alpha   119.99999698
_cell_angle_beta   90.00000000
_cell_angle_gamma   90.00000000
_symmetry_Int_Tables_number   1
_chemical_formula_structural   LiDy4Ga6Co
_chemical_formula_sum   'Li2 Dy8 Ga12 Co2'
_cell_volume   480.49779492
_cell_formula_units_Z   2
loop_
 _symmetry_equiv_pos_site_id
 _symmetry_equiv_pos_as_xyz
  1  'x, y, z'
loop_
 _atom_site_type_symbol
 _atom_site_label
 _atom_site_symmetry_multiplicity
 _atom_site_fract_x
 _atom_site_fract_y
 _atom_site_fract_z
 _atom_site_occupancy
  Li  Li0  1  0.909969  0.666667  0.333333  1
  Li  Li1  1  0.090031  0.333333  0.666667  1
  Dy  Dy2  1  0.746334  0.000000  0.000000  1
  Dy  Dy3  1  0.253666  0.000000  0.000000  1
  Dy  Dy4  1  0.741298  0.475817  0.524183  1
  Dy  Dy5  1  0.258702  0.524183  0.475817  1
  Dy  Dy6  1  0.741298  0.048367  0.524183  1
  Dy  Dy7  1  0.258702  0.951633  0.475817  1
  Dy  Dy8  1  0.741298  0.475817  0.951633  1
  Dy  Dy9  1  0.258702  0.524183  0.048367  1
  Ga  Ga10  1  0.962421  0.832333  0.167667  1
  Ga  Ga11  1  0.037579  0.167667  0.832333  1
  Ga  Ga12  1  0.962421  0.335335  0.167667  1
  Ga  Ga13  1  0.452237  0.174149  0.825851  1
  Ga  Ga14  1  0.037579  0.664665  0.832333  1
  Ga  Ga15  1  0.547763  0.825851  0.174149  1
  Ga  Ga16  1  0.962421  0.832333  0.664665  1
  Ga  Ga17  1  0.452237  0.651700  0.825851  1
  Ga  Ga18  1  0.037579  0.167667  0.335335  1
  Ga  Ga19  1  0.547763  0.348300  0.174149  1
  Ga  Ga20  1  0.452237  0.174149  0.348300  1
  Ga  Ga21  1  0.547763  0.825851  0.651700  1
  Co  Co22  1  0.495014  0.333333  0.666667  1
  Co  Co23  1  0.504986  0.666667  0.333333  1
