# generated using pymatgen
data_Th2CoSi(PIr)3
_symmetry_space_group_name_H-M   'P 1'
_cell_length_a   4.15946600
_cell_length_b   4.15946600
_cell_length_c   9.54731500
_cell_angle_alpha   90.00000000
_cell_angle_beta   90.00000000
_cell_angle_gamma   90.00000000
_symmetry_Int_Tables_number   1
_chemical_formula_structural   Th2CoSi(PIr)3
_chemical_formula_sum   'Th2 Co1 Si1 P3 Ir3'
_cell_volume   165.17959961
_cell_formula_units_Z   1
loop_
 _symmetry_equiv_pos_site_id
 _symmetry_equiv_pos_as_xyz
  1  'x, y, z'
loop_
 _atom_site_type_symbol
 _atom_site_label
 _atom_site_symmetry_multiplicity
 _atom_site_fract_x
 _atom_site_fract_y
 _atom_site_fract_z
 _atom_site_occupancy
  Th  Th0  1  0.000000  0.500000  0.258164  1
  Th  Th1  1  0.500000  0.000000  0.740731  1
  Co  Co2  1  0.000000  0.500000  0.611170  1
  Si  Si3  1  0.500000  0.000000  0.137204  1
  P  P4  1  0.000000  0.000000  0.510614  1
  P  P5  1  0.500000  0.500000  0.510614  1
  P  P6  1  0.000000  0.500000  0.850874  1
  Ir  Ir7  1  0.000000  0.000000  0.993767  1
  Ir  Ir8  1  0.500000  0.500000  0.993767  1
  Ir  Ir9  1  0.500000  0.000000  0.393095  1
