# generated using pymatgen
data_TbNd3Al24Pt8Au
_symmetry_space_group_name_H-M   'P 1'
_cell_length_a   7.58787133
_cell_length_b   7.60955175
_cell_length_c   13.26253744
_cell_angle_alpha   84.54128341
_cell_angle_beta   79.03234878
_cell_angle_gamma   59.90173889
_symmetry_Int_Tables_number   1
_chemical_formula_structural   TbNd3Al24Pt8Au
_chemical_formula_sum   'Tb1 Nd3 Al24 Pt8 Au1'
_cell_volume   650.42850127
_cell_formula_units_Z   1
loop_
 _symmetry_equiv_pos_site_id
 _symmetry_equiv_pos_as_xyz
  1  'x, y, z'
loop_
 _atom_site_type_symbol
 _atom_site_label
 _atom_site_symmetry_multiplicity
 _atom_site_fract_x
 _atom_site_fract_y
 _atom_site_fract_z
 _atom_site_occupancy
  Tb  Tb0  1  0.266494  0.501234  0.192292  1
  Nd  Nd1  1  0.392354  0.169432  0.809237  1
  Nd  Nd2  1  0.606076  0.832036  0.191782  1
  Nd  Nd3  1  0.734377  0.498495  0.809245  1
  Al  Al4  1  0.684521  0.834351  0.947224  1
  Al  Al5  1  0.313944  0.167665  0.055950  1
  Al  Al6  1  0.146987  0.839038  0.558622  1
  Al  Al7  1  0.854358  0.167002  0.436495  1
  Al  Al8  1  0.488789  0.159468  0.556686  1
  Al  Al9  1  0.519816  0.833568  0.439842  1
  Al  Al10  1  0.216356  0.166039  0.331085  1
  Al  Al11  1  0.779714  0.838807  0.669315  1
  Al  Al12  1  0.440929  0.507786  0.669551  1
  Al  Al13  1  0.562137  0.492868  0.330667  1
  Al  Al14  1  0.110225  0.153374  0.668310  1
  Al  Al15  1  0.890344  0.839769  0.332045  1
  Al  Al16  1  0.350483  0.500966  0.948211  1
  Al  Al17  1  0.647518  0.499116  0.056052  1
  Al  Al18  1  0.014066  0.165971  0.957770  1
  Al  Al19  1  0.985695  0.832700  0.046319  1
  Al  Al20  1  0.188104  0.499670  0.436162  1
  Al  Al21  1  0.806894  0.499658  0.556593  1
  Al  Al22  1  0.733489  0.166282  0.184247  1
  Al  Al23  1  0.265529  0.835439  0.816202  1
  Al  Al24  1  0.060895  0.634937  0.817906  1
  Al  Al25  1  0.940547  0.366902  0.185674  1
  Al  Al26  1  0.856345  0.040497  0.815687  1
  Al  Al27  1  0.142024  0.957968  0.184399  1
  Pt  Pt28  1  0.879844  0.506994  0.362252  1
  Pt  Pt29  1  0.657877  0.171093  0.000100  1
  Pt  Pt30  1  0.341867  0.828880  0.000289  1
  Pt  Pt31  1  0.537854  0.167416  0.362342  1
  Pt  Pt32  1  0.461817  0.833155  0.636015  1
  Pt  Pt33  1  0.781135  0.173633  0.634962  1
  Pt  Pt34  1  0.219806  0.825394  0.363047  1
  Pt  Pt35  1  0.999730  0.500250  0.000958  1
  Au  Au36  1  0.121066  0.492144  0.636472  1
