# generated using pymatgen
data_LaTb15Cd4FeNi3
_symmetry_space_group_name_H-M   'P 1'
_cell_length_a   9.61289353
_cell_length_b   9.61289318
_cell_length_c   9.61289391
_cell_angle_alpha   59.71139459
_cell_angle_beta   59.71139466
_cell_angle_gamma   59.71139168
_symmetry_Int_Tables_number   1
_chemical_formula_structural   LaTb15Cd4FeNi3
_chemical_formula_sum   'La1 Tb15 Cd4 Fe1 Ni3'
_cell_volume   624.00941086
_cell_formula_units_Z   1
loop_
 _symmetry_equiv_pos_site_id
 _symmetry_equiv_pos_as_xyz
  1  'x, y, z'
loop_
 _atom_site_type_symbol
 _atom_site_label
 _atom_site_symmetry_multiplicity
 _atom_site_fract_x
 _atom_site_fract_y
 _atom_site_fract_z
 _atom_site_occupancy
  La  La0  1  0.346341  0.346341  0.346341  1
  Tb  Tb1  1  0.347240  0.347240  0.952974  1
  Tb  Tb2  1  0.347240  0.952974  0.347240  1
  Tb  Tb3  1  0.952974  0.347240  0.347240  1
  Tb  Tb4  1  0.818207  0.187385  0.187385  1
  Tb  Tb5  1  0.188679  0.812200  0.812200  1
  Tb  Tb6  1  0.187385  0.818207  0.187385  1
  Tb  Tb7  1  0.812200  0.188679  0.812200  1
  Tb  Tb8  1  0.187385  0.187385  0.818207  1
  Tb  Tb9  1  0.812200  0.812200  0.188679  1
  Tb  Tb10  1  0.936104  0.565012  0.565012  1
  Tb  Tb11  1  0.560358  0.937841  0.937841  1
  Tb  Tb12  1  0.565012  0.936104  0.565012  1
  Tb  Tb13  1  0.937841  0.560358  0.937841  1
  Tb  Tb14  1  0.565012  0.565012  0.936104  1
  Tb  Tb15  1  0.937841  0.937841  0.560358  1
  Cd  Cd16  1  0.580247  0.580247  0.580247  1
  Cd  Cd17  1  0.582155  0.582155  0.255898  1
  Cd  Cd18  1  0.582155  0.255898  0.582155  1
  Cd  Cd19  1  0.255898  0.582155  0.582155  1
  Fe  Fe20  1  0.142603  0.142603  0.142603  1
  Ni  Ni21  1  0.139682  0.139682  0.575560  1
  Ni  Ni22  1  0.139682  0.575560  0.139682  1
  Ni  Ni23  1  0.575560  0.139682  0.139682  1
