# generated using pymatgen
data_HoCu3Ni
_symmetry_space_group_name_H-M   'P 1'
_cell_length_a   4.92296815
_cell_length_b   4.93879009
_cell_length_c   10.46342551
_cell_angle_alpha   94.77807470
_cell_angle_beta   94.52472767
_cell_angle_gamma   119.71696748
_symmetry_Int_Tables_number   1
_chemical_formula_structural   HoCu3Ni
_chemical_formula_sum   'Ho3 Cu9 Ni3'
_cell_volume   218.04377852
_cell_formula_units_Z   3
loop_
 _symmetry_equiv_pos_site_id
 _symmetry_equiv_pos_as_xyz
  1  'x, y, z'
loop_
 _atom_site_type_symbol
 _atom_site_label
 _atom_site_symmetry_multiplicity
 _atom_site_fract_x
 _atom_site_fract_y
 _atom_site_fract_z
 _atom_site_occupancy
  Ho  Ho0  1  0.000976  0.001177  0.003456  1
  Ho  Ho1  1  0.130579  0.129902  0.353278  1
  Ho  Ho2  1  0.869015  0.868435  0.643249  1
  Cu  Cu3  1  0.068061  0.569404  0.195015  1
  Cu  Cu4  1  0.571206  0.571440  0.199524  1
  Cu  Cu5  1  0.807601  0.470846  0.405840  1
  Cu  Cu6  1  0.472165  0.809115  0.405682  1
  Cu  Cu7  1  0.526082  0.191069  0.592923  1
  Cu  Cu8  1  0.192166  0.526745  0.592966  1
  Cu  Cu9  1  0.429232  0.429093  0.800674  1
  Cu  Cu10  1  0.932373  0.431017  0.805381  1
  Cu  Cu11  1  0.431062  0.932770  0.805613  1
  Ni  Ni12  1  0.662215  0.333906  0.001083  1
  Ni  Ni13  1  0.338225  0.666883  0.000864  1
  Ni  Ni14  1  0.569044  0.068199  0.194455  1
