# generated using pymatgen
data_Rb2Si(TeO4)3
_symmetry_space_group_name_H-M   'P 1'
_cell_length_a   6.95217418
_cell_length_b   6.95217402
_cell_length_c   6.95217346
_cell_angle_alpha   62.46352573
_cell_angle_beta   62.46352102
_cell_angle_gamma   62.46352954
_symmetry_Int_Tables_number   1
_chemical_formula_structural   Rb2Si(TeO4)3
_chemical_formula_sum   'Rb2 Si1 Te3 O12'
_cell_volume   250.64813458
_cell_formula_units_Z   1
loop_
 _symmetry_equiv_pos_site_id
 _symmetry_equiv_pos_as_xyz
  1  'x, y, z'
loop_
 _atom_site_type_symbol
 _atom_site_label
 _atom_site_symmetry_multiplicity
 _atom_site_fract_x
 _atom_site_fract_y
 _atom_site_fract_z
 _atom_site_occupancy
  Rb  Rb0  1  0.131018  0.131018  0.131018  1
  Rb  Rb1  1  0.868982  0.868982  0.868982  1
  Si  Si2  1  0.500000  0.500000  0.500000  1
  Te  Te3  1  0.000000  0.500000  0.500000  1
  Te  Te4  1  0.500000  0.500000  0.000000  1
  Te  Te5  1  0.500000  0.000000  0.500000  1
  O  O6  1  0.435624  0.802149  0.435624  1
  O  O7  1  0.831824  0.434995  0.831824  1
  O  O8  1  0.434995  0.831824  0.831824  1
  O  O9  1  0.802149  0.435624  0.435624  1
  O  O10  1  0.831824  0.831824  0.434995  1
  O  O11  1  0.435624  0.435624  0.802149  1
  O  O12  1  0.564376  0.197851  0.564376  1
  O  O13  1  0.168176  0.565005  0.168176  1
  O  O14  1  0.565005  0.168176  0.168176  1
  O  O15  1  0.197851  0.564376  0.564376  1
  O  O16  1  0.168176  0.168176  0.565005  1
  O  O17  1  0.564376  0.564376  0.197851  1
