# generated using pymatgen
data_Nd4MgNi2Ag
_symmetry_space_group_name_H-M   'P 1'
_cell_length_a   8.78348968
_cell_length_b   8.78349065
_cell_length_c   8.78349000
_cell_angle_alpha   128.71662651
_cell_angle_beta   128.71663158
_cell_angle_gamma   75.46696158
_symmetry_Int_Tables_number   1
_chemical_formula_structural   Nd4MgNi2Ag
_chemical_formula_sum   'Nd8 Mg2 Ni4 Ag2'
_cell_volume   401.44115386
_cell_formula_units_Z   2
loop_
 _symmetry_equiv_pos_site_id
 _symmetry_equiv_pos_as_xyz
  1  'x, y, z'
loop_
 _atom_site_type_symbol
 _atom_site_label
 _atom_site_symmetry_multiplicity
 _atom_site_fract_x
 _atom_site_fract_y
 _atom_site_fract_z
 _atom_site_occupancy
  Nd  Nd0  1  0.798459  0.298459  0.840498  1
  Nd  Nd1  1  0.201541  0.701541  0.159502  1
  Nd  Nd2  1  0.457963  0.957963  0.159502  1
  Nd  Nd3  1  0.298459  0.457963  0.500000  1
  Nd  Nd4  1  0.042037  0.201541  0.500000  1
  Nd  Nd5  1  0.542037  0.042037  0.840498  1
  Nd  Nd6  1  0.701541  0.542037  0.500000  1
  Nd  Nd7  1  0.957963  0.798459  0.500000  1
  Mg  Mg8  1  0.000000  0.000000  0.000000  1
  Mg  Mg9  1  0.500000  0.500000  0.000000  1
  Ni  Ni10  1  0.125956  0.625956  0.751913  1
  Ni  Ni11  1  0.874044  0.374044  0.248087  1
  Ni  Ni12  1  0.625956  0.874044  0.500000  1
  Ni  Ni13  1  0.374044  0.125956  0.500000  1
  Ag  Ag14  1  0.250000  0.250000  0.000000  1
  Ag  Ag15  1  0.750000  0.750000  0.000000  1
