# generated using pymatgen
data_Dy8Er8Cd4Co3Os
_symmetry_space_group_name_H-M   'P 1'
_cell_length_a   9.48001105
_cell_length_b   9.48503162
_cell_length_c   9.53802443
_cell_angle_alpha   59.93048524
_cell_angle_beta   59.97314614
_cell_angle_gamma   59.77205644
_symmetry_Int_Tables_number   1
_chemical_formula_structural   Dy8Er8Cd4Co3Os
_chemical_formula_sum   'Dy8 Er8 Cd4 Co3 Os1'
_cell_volume   604.95295295
_cell_formula_units_Z   1
loop_
 _symmetry_equiv_pos_site_id
 _symmetry_equiv_pos_as_xyz
  1  'x, y, z'
loop_
 _atom_site_type_symbol
 _atom_site_label
 _atom_site_symmetry_multiplicity
 _atom_site_fract_x
 _atom_site_fract_y
 _atom_site_fract_z
 _atom_site_occupancy
  Dy  Dy0  1  0.560115  0.943842  0.936022  1
  Dy  Dy1  1  0.562985  0.938480  0.561059  1
  Dy  Dy2  1  0.689240  0.688175  0.311556  1
  Dy  Dy3  1  0.559188  0.558623  0.938223  1
  Dy  Dy4  1  0.943701  0.559916  0.935658  1
  Dy  Dy5  1  0.312407  0.693391  0.684405  1
  Dy  Dy6  1  0.150623  0.150497  0.159480  1
  Dy  Dy7  1  0.311574  0.311916  0.684270  1
  Er  Er8  1  0.149775  0.539970  0.159871  1
  Er  Er9  1  0.693686  0.312244  0.684504  1
  Er  Er10  1  0.689217  0.312033  0.311228  1
  Er  Er11  1  0.938291  0.562268  0.561614  1
  Er  Er12  1  0.540598  0.150189  0.158183  1
  Er  Er13  1  0.152305  0.154511  0.536787  1
  Er  Er14  1  0.937833  0.937241  0.561495  1
  Er  Er15  1  0.311622  0.689053  0.310919  1
  Cd  Cd16  1  0.919372  0.241971  0.918576  1
  Cd  Cd17  1  0.920017  0.920577  0.919078  1
  Cd  Cd18  1  0.919629  0.919068  0.242503  1
  Cd  Cd19  1  0.241646  0.919300  0.919036  1
  Co  Co20  1  0.357745  0.921019  0.360957  1
  Co  Co21  1  0.920924  0.358053  0.361258  1
  Co  Co22  1  0.358473  0.359151  0.360836  1
  Os  Os23  1  0.359032  0.358509  0.922490  1
