# generated using pymatgen
data_Tb2Lu4TcTe2
_symmetry_space_group_name_H-M   'P 1'
_cell_length_a   8.21279489
_cell_length_b   8.13143451
_cell_length_c   4.07558400
_cell_angle_alpha   90.00000000
_cell_angle_beta   90.00000000
_cell_angle_gamma   119.67283766
_symmetry_Int_Tables_number   1
_chemical_formula_structural   Tb2Lu4TcTe2
_chemical_formula_sum   'Tb2 Lu4 Tc1 Te2'
_cell_volume   236.48355560
_cell_formula_units_Z   1
loop_
 _symmetry_equiv_pos_site_id
 _symmetry_equiv_pos_as_xyz
  1  'x, y, z'
loop_
 _atom_site_type_symbol
 _atom_site_label
 _atom_site_symmetry_multiplicity
 _atom_site_fract_x
 _atom_site_fract_y
 _atom_site_fract_z
 _atom_site_occupancy
  Tb  Tb0  1  0.608921  0.608722  0.500000  1
  Tb  Tb1  1  0.391079  0.999802  0.500000  1
  Lu  Lu2  1  0.000000  0.386109  0.500000  1
  Lu  Lu3  1  0.000000  0.765538  0.000000  1
  Lu  Lu4  1  0.233787  0.235222  0.000000  1
  Lu  Lu5  1  0.766213  0.001435  0.000000  1
  Tc  Tc6  1  0.000000  0.005556  0.500000  1
  Te  Te7  1  0.332557  0.665087  0.000000  1
  Te  Te8  1  0.667443  0.332529  0.000000  1
