# generated using pymatgen
data_SrTb2Nd(Ni12P5)2
_symmetry_space_group_name_H-M   'P 1'
_cell_length_a   3.65790700
_cell_length_b   10.77939945
_cell_length_c   13.18217643
_cell_angle_alpha   71.69469505
_cell_angle_beta   90.00000000
_cell_angle_gamma   90.00000000
_symmetry_Int_Tables_number   1
_chemical_formula_structural   SrTb2Nd(Ni12P5)2
_chemical_formula_sum   'Sr1 Tb2 Nd1 Ni24 P10'
_cell_volume   493.47133078
_cell_formula_units_Z   1
loop_
 _symmetry_equiv_pos_site_id
 _symmetry_equiv_pos_as_xyz
  1  'x, y, z'
loop_
 _atom_site_type_symbol
 _atom_site_label
 _atom_site_symmetry_multiplicity
 _atom_site_fract_x
 _atom_site_fract_y
 _atom_site_fract_z
 _atom_site_occupancy
  Sr  Sr0  1  0.250000  0.246580  0.187961  1
  Tb  Tb1  1  0.250000  0.280930  0.681834  1
  Tb  Tb2  1  0.750000  0.719050  0.318435  1
  Nd  Nd3  1  0.750000  0.755395  0.812236  1
  Ni  Ni4  1  0.250000  0.837341  0.138623  1
  Ni  Ni5  1  0.750000  0.162863  0.859715  1
  Ni  Ni6  1  0.250000  0.288093  0.440296  1
  Ni  Ni7  1  0.750000  0.711741  0.560936  1
  Ni  Ni8  1  0.250000  0.069516  0.014949  1
  Ni  Ni9  1  0.750000  0.929954  0.984129  1
  Ni  Ni10  1  0.250000  0.063824  0.448041  1
  Ni  Ni11  1  0.750000  0.935260  0.553250  1
  Ni  Ni12  1  0.250000  0.595791  0.696015  1
  Ni  Ni13  1  0.750000  0.406765  0.305479  1
  Ni  Ni14  1  0.250000  0.584226  0.007884  1
  Ni  Ni15  1  0.750000  0.419389  0.989220  1
  Ni  Ni16  1  0.250000  0.579177  0.509249  1
  Ni  Ni17  1  0.750000  0.420477  0.491690  1
  Ni  Ni18  1  0.250000  0.298077  0.915117  1
  Ni  Ni19  1  0.750000  0.702316  0.083316  1
  Ni  Ni20  1  0.250000  0.994969  0.659844  1
  Ni  Ni21  1  0.750000  0.001406  0.342263  1
  Ni  Ni22  1  0.250000  0.837205  0.437840  1
  Ni  Ni23  1  0.750000  0.162265  0.563462  1
  Ni  Ni24  1  0.250000  0.991776  0.847923  1
  Ni  Ni25  1  0.750000  0.005070  0.151601  1
  Ni  Ni26  1  0.250000  0.567272  0.204267  1
  Ni  Ni27  1  0.750000  0.433826  0.794900  1
  P  P28  1  0.250000  0.509327  0.870928  1
  P  P29  1  0.750000  0.492096  0.128638  1
  P  P30  1  0.250000  0.801410  0.983229  1
  P  P31  1  0.750000  0.198602  0.014235  1
  P  P32  1  0.250000  0.497548  0.377577  1
  P  P33  1  0.750000  0.502924  0.622400  1
  P  P34  1  0.250000  0.811986  0.611174  1
  P  P35  1  0.750000  0.187185  0.391045  1
  P  P36  1  0.250000  0.943495  0.261249  1
  P  P37  1  0.750000  0.054872  0.739047  1
