# generated using pymatgen
data_Tb3YGaS3
_symmetry_space_group_name_H-M   'P 1'
_cell_length_a   6.92865761
_cell_length_b   6.92865775
_cell_length_c   6.92865617
_cell_angle_alpha   131.85958351
_cell_angle_beta   131.82923153
_cell_angle_gamma   70.47488755
_symmetry_Int_Tables_number   1
_chemical_formula_structural   Tb3YGaS3
_chemical_formula_sum   'Tb3 Y1 Ga1 S3'
_cell_volume   180.87417702
_cell_formula_units_Z   1
loop_
 _symmetry_equiv_pos_site_id
 _symmetry_equiv_pos_as_xyz
  1  'x, y, z'
loop_
 _atom_site_type_symbol
 _atom_site_label
 _atom_site_symmetry_multiplicity
 _atom_site_fract_x
 _atom_site_fract_y
 _atom_site_fract_z
 _atom_site_occupancy
  Tb  Tb0  1  0.747570  0.747570  0.000000  1
  Tb  Tb1  1  0.252431  0.252431  0.000000  1
  Tb  Tb2  1  0.500000  0.000000  0.500000  1
  Y  Y3  1  0.000000  0.500000  0.500000  1
  Ga  Ga4  1  0.000000  0.000000  0.000000  1
  S  S5  1  0.500000  0.500000  0.000000  1
  S  S6  1  0.249993  0.749993  0.500000  1
  S  S7  1  0.750007  0.250007  0.500000  1
