# generated using pymatgen
data_Pr2ErTm7Bi6
_symmetry_space_group_name_H-M   'P 1'
_cell_length_a   8.20416200
_cell_length_b   9.44498400
_cell_length_c   11.94338600
_cell_angle_alpha   90.00000000
_cell_angle_beta   90.00000000
_cell_angle_gamma   90.00000000
_symmetry_Int_Tables_number   1
_chemical_formula_structural   Pr2ErTm7Bi6
_chemical_formula_sum   'Pr4 Er2 Tm14 Bi12'
_cell_volume   925.47123012
_cell_formula_units_Z   2
loop_
 _symmetry_equiv_pos_site_id
 _symmetry_equiv_pos_as_xyz
  1  'x, y, z'
loop_
 _atom_site_type_symbol
 _atom_site_label
 _atom_site_symmetry_multiplicity
 _atom_site_fract_x
 _atom_site_fract_y
 _atom_site_fract_z
 _atom_site_occupancy
  Pr  Pr0  1  0.315087  0.250000  0.219752  1
  Pr  Pr1  1  0.815087  0.250000  0.280248  1
  Pr  Pr2  1  0.685112  0.750000  0.780167  1
  Pr  Pr3  1  0.185112  0.750000  0.719833  1
  Er  Er4  1  0.351733  0.750000  0.217924  1
  Er  Er5  1  0.851733  0.750000  0.282076  1
  Tm  Tm6  1  0.647936  0.250000  0.781802  1
  Tm  Tm7  1  0.147936  0.250000  0.718198  1
  Tm  Tm8  1  0.691764  0.565968  0.060262  1
  Tm  Tm9  1  0.191764  0.934032  0.439738  1
  Tm  Tm10  1  0.308245  0.065993  0.939463  1
  Tm  Tm11  1  0.808245  0.434007  0.560537  1
  Tm  Tm12  1  0.308245  0.434007  0.939463  1
  Tm  Tm13  1  0.808245  0.065993  0.560537  1
  Tm  Tm14  1  0.691764  0.934032  0.060262  1
  Tm  Tm15  1  0.191764  0.565968  0.439738  1
  Tm  Tm16  1  0.476943  0.250000  0.488740  1
  Tm  Tm17  1  0.976943  0.250000  0.011260  1
  Tm  Tm18  1  0.523217  0.750000  0.511588  1
  Tm  Tm19  1  0.023217  0.750000  0.988412  1
  Bi  Bi20  1  0.403204  0.750000  0.962849  1
  Bi  Bi21  1  0.903204  0.750000  0.537151  1
  Bi  Bi22  1  0.597029  0.250000  0.036641  1
  Bi  Bi23  1  0.097029  0.250000  0.463359  1
  Bi  Bi24  1  0.564375  0.990226  0.327914  1
  Bi  Bi25  1  0.064375  0.509774  0.172086  1
  Bi  Bi26  1  0.435484  0.489896  0.672285  1
  Bi  Bi27  1  0.935484  0.010104  0.827715  1
  Bi  Bi28  1  0.435484  0.010104  0.672285  1
  Bi  Bi29  1  0.935484  0.489896  0.827715  1
  Bi  Bi30  1  0.564375  0.509774  0.327914  1
  Bi  Bi31  1  0.064375  0.990226  0.172086  1
