# generated using pymatgen
data_Y11Er5(CdRh)4
_symmetry_space_group_name_H-M   'P 1'
_cell_length_a   9.61555662
_cell_length_b   9.62253064
_cell_length_c   9.62253200
_cell_angle_alpha   60.01566328
_cell_angle_beta   60.02397077
_cell_angle_gamma   60.02397224
_symmetry_Int_Tables_number   1
_chemical_formula_structural   Y11Er5(CdRh)4
_chemical_formula_sum   'Y11 Er5 Cd4 Rh4'
_cell_volume   629.86399195
_cell_formula_units_Z   1
loop_
 _symmetry_equiv_pos_site_id
 _symmetry_equiv_pos_as_xyz
  1  'x, y, z'
loop_
 _atom_site_type_symbol
 _atom_site_label
 _atom_site_symmetry_multiplicity
 _atom_site_fract_x
 _atom_site_fract_y
 _atom_site_fract_z
 _atom_site_occupancy
  Y  Y0  1  0.439245  0.060755  0.060755  1
  Y  Y1  1  0.439064  0.060673  0.438839  1
  Y  Y2  1  0.061423  0.438839  0.060673  1
  Y  Y3  1  0.439064  0.438839  0.060673  1
  Y  Y4  1  0.061423  0.060673  0.438839  1
  Y  Y5  1  0.186754  0.813246  0.813246  1
  Y  Y6  1  0.813273  0.186727  0.186727  1
  Y  Y7  1  0.813492  0.187719  0.812449  1
  Y  Y8  1  0.186341  0.812449  0.187719  1
  Y  Y9  1  0.813492  0.812449  0.187719  1
  Y  Y10  1  0.186341  0.187719  0.812449  1
  Er  Er11  1  0.599219  0.599692  0.599692  1
  Er  Er12  1  0.599196  0.599599  0.202009  1
  Er  Er13  1  0.599196  0.202009  0.599599  1
  Er  Er14  1  0.201398  0.599692  0.599692  1
  Er  Er15  1  0.061067  0.438933  0.438933  1
  Cd  Cd16  1  0.831086  0.830663  0.830663  1
  Cd  Cd17  1  0.831364  0.830964  0.506306  1
  Cd  Cd18  1  0.831364  0.506306  0.830964  1
  Cd  Cd19  1  0.507586  0.830663  0.830663  1
  Rh  Rh20  1  0.391178  0.394963  0.394963  1
  Rh  Rh21  1  0.394269  0.394210  0.817253  1
  Rh  Rh22  1  0.394269  0.817253  0.394210  1
  Rh  Rh23  1  0.818896  0.394963  0.394963  1
