# generated using pymatgen
data_Tm10Lu2InFe3Hg
_symmetry_space_group_name_H-M   'P 1'
_cell_length_a   8.20728426
_cell_length_b   8.21688165
_cell_length_c   8.20728490
_cell_angle_alpha   107.72262512
_cell_angle_beta   109.11944652
_cell_angle_gamma   111.54715186
_symmetry_Int_Tables_number   1
_chemical_formula_structural   Tm10Lu2InFe3Hg
_chemical_formula_sum   'Tm10 Lu2 In1 Fe3 Hg1'
_cell_volume   425.83532722
_cell_formula_units_Z   1
loop_
 _symmetry_equiv_pos_site_id
 _symmetry_equiv_pos_as_xyz
  1  'x, y, z'
loop_
 _atom_site_type_symbol
 _atom_site_label
 _atom_site_symmetry_multiplicity
 _atom_site_fract_x
 _atom_site_fract_y
 _atom_site_fract_z
 _atom_site_occupancy
  Tm  Tm0  1  0.188905  0.956560  0.767655  1
  Tm  Tm1  1  0.947878  0.190640  0.758178  1
  Tm  Tm2  1  0.811095  0.043440  0.232345  1
  Tm  Tm3  1  0.052122  0.809360  0.241822  1
  Tm  Tm4  1  0.432462  0.190640  0.242763  1
  Tm  Tm5  1  0.567538  0.809360  0.757237  1
  Tm  Tm6  1  0.308396  0.308710  0.616286  1
  Tm  Tm7  1  0.691604  0.691290  0.383714  1
  Tm  Tm8  1  0.692424  0.308710  0.000314  1
  Tm  Tm9  1  0.307576  0.691290  0.999686  1
  Lu  Lu10  1  0.188858  0.420909  0.232051  1
  Lu  Lu11  1  0.811142  0.579091  0.767949  1
  In  In12  1  0.000000  0.500000  0.500000  1
  Fe  Fe13  1  0.383071  0.383281  0.000210  1
  Fe  Fe14  1  0.616929  0.616719  0.999790  1
  Fe  Fe15  1  0.000000  0.000000  0.000000  1
  Hg  Hg16  1  0.500000  0.000000  0.500000  1
