# generated using pymatgen
data_YAl2(Fe3Re2)2
_symmetry_space_group_name_H-M   'P 1'
_cell_length_a   6.57364578
_cell_length_b   6.57364484
_cell_length_c   6.57364400
_cell_angle_alpha   137.49984057
_cell_angle_beta   96.90363455
_cell_angle_gamma   98.19396950
_symmetry_Int_Tables_number   1
_chemical_formula_structural   YAl2(Fe3Re2)2
_chemical_formula_sum   'Y1 Al2 Fe6 Re4'
_cell_volume   178.84913981
_cell_formula_units_Z   1
loop_
 _symmetry_equiv_pos_site_id
 _symmetry_equiv_pos_as_xyz
  1  'x, y, z'
loop_
 _atom_site_type_symbol
 _atom_site_label
 _atom_site_symmetry_multiplicity
 _atom_site_fract_x
 _atom_site_fract_y
 _atom_site_fract_z
 _atom_site_occupancy
  Y  Y0  1  0.000000  0.000000  0.000000  1
  Al  Al1  1  0.792806  0.292806  0.500000  1
  Al  Al2  1  0.207194  0.707194  0.500000  1
  Fe  Fe3  1  0.500000  0.000000  0.000000  1
  Fe  Fe4  1  0.500000  0.500000  0.500000  1
  Fe  Fe5  1  0.000000  0.000000  0.500000  1
  Fe  Fe6  1  0.000000  0.500000  0.000000  1
  Fe  Fe7  1  0.228464  0.500000  0.728464  1
  Fe  Fe8  1  0.771536  0.500000  0.271536  1
  Re  Re9  1  0.357164  0.357164  0.000000  1
  Re  Re10  1  0.642836  0.642836  0.000000  1
  Re  Re11  1  0.640330  0.000000  0.640330  1
  Re  Re12  1  0.359670  0.000000  0.359670  1
