# generated using pymatgen
data_Ho7Er5InCo4Cu
_symmetry_space_group_name_H-M   'P 1'
_cell_length_a   8.25746597
_cell_length_b   8.25753758
_cell_length_c   8.25899559
_cell_angle_alpha   111.12925674
_cell_angle_beta   110.74382429
_cell_angle_gamma   106.57189236
_symmetry_Int_Tables_number   1
_chemical_formula_structural   Ho7Er5InCo4Cu
_chemical_formula_sum   'Ho7 Er5 In1 Co4 Cu1'
_cell_volume   432.72103859
_cell_formula_units_Z   1
loop_
 _symmetry_equiv_pos_site_id
 _symmetry_equiv_pos_as_xyz
  1  'x, y, z'
loop_
 _atom_site_type_symbol
 _atom_site_label
 _atom_site_symmetry_multiplicity
 _atom_site_fract_x
 _atom_site_fract_y
 _atom_site_fract_z
 _atom_site_occupancy
  Ho  Ho0  1  0.814116  0.709985  0.524102  1
  Ho  Ho1  1  0.185811  0.709834  0.895650  1
  Ho  Ho2  1  0.814348  0.290068  0.104418  1
  Ho  Ho3  1  0.417347  0.218524  0.199080  1
  Ho  Ho4  1  0.582405  0.781331  0.800869  1
  Ho  Ho5  1  0.019556  0.218502  0.800876  1
  Ho  Ho6  1  0.980593  0.781762  0.199101  1
  Er  Er7  1  0.315850  0.620821  0.305165  1
  Er  Er8  1  0.683936  0.379100  0.694946  1
  Er  Er9  1  0.315790  0.010853  0.694891  1
  Er  Er10  1  0.684264  0.989154  0.305073  1
  Er  Er11  1  0.185844  0.290163  0.475838  1
  In  In12  1  0.499934  0.499943  0.999896  1
  Co  Co13  1  0.113321  0.613043  0.499933  1
  Co  Co14  1  0.886873  0.386611  0.499912  1
  Co  Co15  1  0.376075  0.000118  0.376162  1
  Co  Co16  1  0.623890  0.000055  0.623923  1
  Cu  Cu17  1  0.000047  0.000131  0.000167  1
