# generated using pymatgen
data_Hf15Sc(Ir2N)4
_symmetry_space_group_name_H-M   'P 1'
_cell_length_a   8.72070217
_cell_length_b   8.72072393
_cell_length_c   8.71776700
_cell_angle_alpha   60.01115714
_cell_angle_beta   60.01116284
_cell_angle_gamma   60.12999985
_symmetry_Int_Tables_number   1
_chemical_formula_structural   Hf15Sc(Ir2N)4
_chemical_formula_sum   'Hf15 Sc1 Ir8 N4'
_cell_volume   469.34533039
_cell_formula_units_Z   1
loop_
 _symmetry_equiv_pos_site_id
 _symmetry_equiv_pos_as_xyz
  1  'x, y, z'
loop_
 _atom_site_type_symbol
 _atom_site_label
 _atom_site_symmetry_multiplicity
 _atom_site_fract_x
 _atom_site_fract_y
 _atom_site_fract_z
 _atom_site_occupancy
  Hf  Hf0  1  0.125217  0.624502  0.625142  1
  Hf  Hf1  1  0.624504  0.125215  0.625142  1
  Hf  Hf2  1  0.625113  0.625113  0.125237  1
  Hf  Hf3  1  0.625114  0.625113  0.624534  1
  Hf  Hf4  1  0.184310  0.184311  0.815690  1
  Hf  Hf5  1  0.815245  0.183249  0.816763  1
  Hf  Hf6  1  0.183248  0.815245  0.184742  1
  Hf  Hf7  1  0.183250  0.815248  0.816761  1
  Hf  Hf8  1  0.815246  0.183248  0.184743  1
  Hf  Hf9  1  0.435173  0.435173  0.064827  1
  Hf  Hf10  1  0.065569  0.065569  0.434430  1
  Hf  Hf11  1  0.435581  0.065125  0.433458  1
  Hf  Hf12  1  0.065126  0.435579  0.065839  1
  Hf  Hf13  1  0.065127  0.435579  0.433456  1
  Hf  Hf14  1  0.435578  0.065125  0.065839  1
  Sc  Sc15  1  0.815962  0.815971  0.184032  1
  Ir  Ir16  1  0.766784  0.409189  0.412011  1
  Ir  Ir17  1  0.409191  0.766785  0.412012  1
  Ir  Ir18  1  0.410862  0.410858  0.767173  1
  Ir  Ir19  1  0.410861  0.410860  0.411109  1
  Ir  Ir20  1  0.483242  0.839089  0.838834  1
  Ir  Ir21  1  0.839088  0.483240  0.838836  1
  Ir  Ir22  1  0.839261  0.839261  0.485488  1
  Ir  Ir23  1  0.839262  0.839262  0.835991  1
  N  N24  1  0.622455  0.129147  0.124199  1
  N  N25  1  0.129148  0.622457  0.124197  1
  N  N26  1  0.125243  0.125243  0.624637  1
  N  N27  1  0.125242  0.125242  0.124878  1
