# generated using pymatgen
data_Gd2Ho2Lu(SiB4)2
_symmetry_space_group_name_H-M   'P 1'
_cell_length_a   7.21710313
_cell_length_b   7.21735516
_cell_length_c   8.06189903
_cell_angle_alpha   90.00969416
_cell_angle_beta   90.00373008
_cell_angle_gamma   90.02175201
_symmetry_Int_Tables_number   1
_chemical_formula_structural   Gd2Ho2Lu(SiB4)2
_chemical_formula_sum   'Gd4 Ho4 Lu2 Si4 B16'
_cell_volume   419.93135632
_cell_formula_units_Z   2
loop_
 _symmetry_equiv_pos_site_id
 _symmetry_equiv_pos_as_xyz
  1  'x, y, z'
loop_
 _atom_site_type_symbol
 _atom_site_label
 _atom_site_symmetry_multiplicity
 _atom_site_fract_x
 _atom_site_fract_y
 _atom_site_fract_z
 _atom_site_occupancy
  Gd  Gd0  1  0.680551  0.180646  0.227134  1
  Gd  Gd1  1  0.319363  0.819419  0.772450  1
  Gd  Gd2  1  0.319457  0.819570  0.227394  1
  Gd  Gd3  1  0.819653  0.680275  0.226793  1
  Ho  Ho4  1  0.819676  0.680172  0.775956  1
  Ho  Ho5  1  0.680423  0.180447  0.775472  1
  Ho  Ho6  1  0.180227  0.319657  0.775943  1
  Ho  Ho7  1  0.180182  0.319800  0.223726  1
  Lu  Lu8  1  0.000018  0.000534  0.500530  1
  Lu  Lu9  1  0.499863  0.499501  0.500538  1
  Si  Si10  1  0.115721  0.614422  0.501343  1
  Si  Si11  1  0.884403  0.383213  0.501740  1
  Si  Si12  1  0.383717  0.117383  0.501290  1
  Si  Si13  1  0.616345  0.884883  0.501672  1
  B  B14  1  0.172591  0.039929  0.999264  1
  B  B15  1  0.827410  0.961097  0.999313  1
  B  B16  1  0.960937  0.173003  0.999266  1
  B  B17  1  0.327385  0.538515  0.999265  1
  B  B18  1  0.039001  0.827810  0.999304  1
  B  B19  1  0.672608  0.460449  0.999306  1
  B  B20  1  0.539379  0.672183  0.999324  1
  B  B21  1  0.460551  0.327030  0.999246  1
  B  B22  1  0.089802  0.589448  0.999196  1
  B  B23  1  0.910523  0.410173  0.999256  1
  B  B24  1  0.410236  0.090081  0.999169  1
  B  B25  1  0.590049  0.910276  0.999260  1
  B  B26  1  0.000459  0.000842  0.162181  1
  B  B27  1  0.999493  0.000443  0.836246  1
  B  B28  1  0.500479  0.499258  0.836240  1
  B  B29  1  0.499498  0.499540  0.162185  1
