# generated using pymatgen
data_Tb5Ho15(Bi2Te)4
_symmetry_space_group_name_H-M   'P 1'
_cell_length_a   8.18079103
_cell_length_b   9.47739701
_cell_length_c   11.92647200
_cell_angle_alpha   89.99955868
_cell_angle_beta   90.00518274
_cell_angle_gamma   89.99743674
_symmetry_Int_Tables_number   1
_chemical_formula_structural   Tb5Ho15(Bi2Te)4
_chemical_formula_sum   'Tb5 Ho15 Bi8 Te4'
_cell_volume   924.69043166
_cell_formula_units_Z   1
loop_
 _symmetry_equiv_pos_site_id
 _symmetry_equiv_pos_as_xyz
  1  'x, y, z'
loop_
 _atom_site_type_symbol
 _atom_site_label
 _atom_site_symmetry_multiplicity
 _atom_site_fract_x
 _atom_site_fract_y
 _atom_site_fract_z
 _atom_site_occupancy
  Tb  Tb0  1  0.189795  0.561641  0.442103  1
  Tb  Tb1  1  0.319810  0.249894  0.218040  1
  Tb  Tb2  1  0.819910  0.250088  0.281866  1
  Tb  Tb3  1  0.680233  0.750102  0.782057  1
  Tb  Tb4  1  0.180227  0.750281  0.718373  1
  Ho  Ho5  1  0.354422  0.750217  0.214111  1
  Ho  Ho6  1  0.853988  0.750055  0.285599  1
  Ho  Ho7  1  0.645888  0.250232  0.785696  1
  Ho  Ho8  1  0.145968  0.250245  0.714318  1
  Ho  Ho9  1  0.689479  0.562973  0.057628  1
  Ho  Ho10  1  0.189468  0.937087  0.442234  1
  Ho  Ho11  1  0.310539  0.063004  0.942384  1
  Ho  Ho12  1  0.810522  0.437113  0.557695  1
  Ho  Ho13  1  0.310566  0.437089  0.942329  1
  Ho  Ho14  1  0.810142  0.062874  0.557704  1
  Ho  Ho15  1  0.689490  0.937080  0.057678  1
  Ho  Ho16  1  0.477079  0.250014  0.488567  1
  Ho  Ho17  1  0.977126  0.250101  0.011429  1
  Ho  Ho18  1  0.523193  0.750228  0.511461  1
  Ho  Ho19  1  0.022880  0.750007  0.988613  1
  Bi  Bi20  1  0.568822  0.995052  0.325814  1
  Bi  Bi21  1  0.068651  0.505171  0.173950  1
  Bi  Bi22  1  0.431280  0.494985  0.674352  1
  Bi  Bi23  1  0.931195  0.005226  0.825857  1
  Bi  Bi24  1  0.431306  0.005211  0.674149  1
  Bi  Bi25  1  0.931156  0.494907  0.825861  1
  Bi  Bi26  1  0.568949  0.505180  0.325665  1
  Bi  Bi27  1  0.068681  0.994949  0.174086  1
  Te  Te28  1  0.406017  0.749955  0.958378  1
  Te  Te29  1  0.905802  0.750270  0.541779  1
  Te  Te30  1  0.593973  0.250065  0.041570  1
  Te  Te31  1  0.093443  0.248705  0.458656  1
