# generated using pymatgen
data_Ta4VSi3
_symmetry_space_group_name_H-M   'P 1'
_cell_length_a   7.53040357
_cell_length_b   7.53040328
_cell_length_c   7.53040432
_cell_angle_alpha   129.50013004
_cell_angle_beta   129.50012831
_cell_angle_gamma   74.20716318
_symmetry_Int_Tables_number   1
_chemical_formula_structural   Ta4VSi3
_chemical_formula_sum   'Ta8 V2 Si6'
_cell_volume   247.88292364
_cell_formula_units_Z   2
loop_
 _symmetry_equiv_pos_site_id
 _symmetry_equiv_pos_as_xyz
  1  'x, y, z'
loop_
 _atom_site_type_symbol
 _atom_site_label
 _atom_site_symmetry_multiplicity
 _atom_site_fract_x
 _atom_site_fract_y
 _atom_site_fract_z
 _atom_site_occupancy
  Ta  Ta0  1  0.015568  0.515568  0.831004  1
  Ta  Ta1  1  0.684564  0.184564  0.168996  1
  Ta  Ta2  1  0.515568  0.684564  0.500000  1
  Ta  Ta3  1  0.184564  0.015568  0.500000  1
  Ta  Ta4  1  0.984432  0.484432  0.168996  1
  Ta  Ta5  1  0.315436  0.815436  0.831004  1
  Ta  Ta6  1  0.484432  0.315436  0.500000  1
  Ta  Ta7  1  0.815436  0.984432  0.500000  1
  V  V8  1  0.000000  0.000000  0.000000  1
  V  V9  1  0.500000  0.500000  0.000000  1
  Si  Si10  1  0.750000  0.750000  0.000000  1
  Si  Si11  1  0.250000  0.250000  0.000000  1
  Si  Si12  1  0.633598  0.133598  0.767195  1
  Si  Si13  1  0.366402  0.866402  0.232805  1
  Si  Si14  1  0.133598  0.366402  0.500000  1
  Si  Si15  1  0.866402  0.633598  0.500000  1
