# generated using pymatgen
data_Tb12Co4IrPb
_symmetry_space_group_name_H-M   'P 1'
_cell_length_a   8.34993784
_cell_length_b   8.34993861
_cell_length_c   8.34993743
_cell_angle_alpha   111.27933803
_cell_angle_beta   110.31024523
_cell_angle_gamma   106.85684656
_symmetry_Int_Tables_number   1
_chemical_formula_structural   Tb12Co4IrPb
_chemical_formula_sum   'Tb12 Co4 Ir1 Pb1'
_cell_volume   447.42517854
_cell_formula_units_Z   1
loop_
 _symmetry_equiv_pos_site_id
 _symmetry_equiv_pos_as_xyz
  1  'x, y, z'
loop_
 _atom_site_type_symbol
 _atom_site_label
 _atom_site_symmetry_multiplicity
 _atom_site_fract_x
 _atom_site_fract_y
 _atom_site_fract_z
 _atom_site_occupancy
  Tb  Tb0  1  0.816439  0.710361  0.526800  1
  Tb  Tb1  1  0.183561  0.289639  0.473200  1
  Tb  Tb2  1  0.183561  0.710361  0.893924  1
  Tb  Tb3  1  0.816439  0.289639  0.106076  1
  Tb  Tb4  1  0.686653  0.379807  0.693153  1
  Tb  Tb5  1  0.313347  0.620193  0.306847  1
  Tb  Tb6  1  0.686653  0.993501  0.306847  1
  Tb  Tb7  1  0.313347  0.006499  0.693153  1
  Tb  Tb8  1  0.593613  0.789331  0.804283  1
  Tb  Tb9  1  0.406387  0.210669  0.195717  1
  Tb  Tb10  1  0.985047  0.789331  0.195717  1
  Tb  Tb11  1  0.014953  0.210669  0.804283  1
  Co  Co12  1  0.620279  0.000000  0.620279  1
  Co  Co13  1  0.379721  0.000000  0.379721  1
  Co  Co14  1  0.111245  0.611245  0.500000  1
  Co  Co15  1  0.888755  0.388755  0.500000  1
  Ir  Ir16  1  0.000000  0.000000  0.000000  1
  Pb  Pb17  1  0.500000  0.500000  0.000000  1
