# generated using pymatgen
data_Ho7ErTc2B24IrRu
_symmetry_space_group_name_H-M   'P 1'
_cell_length_a   3.64574700
_cell_length_b   9.13118022
_cell_length_c   11.47792000
_cell_angle_alpha   90.04812726
_cell_angle_beta   90.00000000
_cell_angle_gamma   90.00000000
_symmetry_Int_Tables_number   1
_chemical_formula_structural   Ho7ErTc2B24IrRu
_chemical_formula_sum   'Ho7 Er1 Tc2 B24 Ir1 Ru1'
_cell_volume   382.09951093
_cell_formula_units_Z   1
loop_
 _symmetry_equiv_pos_site_id
 _symmetry_equiv_pos_as_xyz
  1  'x, y, z'
loop_
 _atom_site_type_symbol
 _atom_site_label
 _atom_site_symmetry_multiplicity
 _atom_site_fract_x
 _atom_site_fract_y
 _atom_site_fract_z
 _atom_site_occupancy
  Ho  Ho0  1  0.000000  0.318190  0.415389  1
  Ho  Ho1  1  0.000000  0.676209  0.589563  1
  Ho  Ho2  1  0.000000  0.826699  0.083554  1
  Ho  Ho3  1  0.000000  0.179237  0.913258  1
  Ho  Ho4  1  0.000000  0.945218  0.371801  1
  Ho  Ho5  1  0.000000  0.056779  0.628415  1
  Ho  Ho6  1  0.000000  0.441090  0.126592  1
  Er  Er7  1  0.000000  0.556386  0.871789  1
  Tc  Tc8  1  0.000000  0.362819  0.678372  1
  Tc  Tc9  1  0.000000  0.137651  0.178939  1
  B  B10  1  0.500000  0.553653  0.433843  1
  B  B11  1  0.500000  0.447173  0.566347  1
  B  B12  1  0.500000  0.052825  0.066223  1
  B  B13  1  0.500000  0.946404  0.932393  1
  B  B14  1  0.500000  0.748903  0.421100  1
  B  B15  1  0.500000  0.251681  0.580553  1
  B  B16  1  0.500000  0.248193  0.080366  1
  B  B17  1  0.500000  0.751848  0.919545  1
  B  B18  1  0.500000  0.791510  0.266116  1
  B  B19  1  0.500000  0.209035  0.734278  1
  B  B20  1  0.500000  0.291344  0.234378  1
  B  B21  1  0.500000  0.708422  0.766773  1
  B  B22  1  0.500000  0.632206  0.183825  1
  B  B23  1  0.500000  0.369414  0.814463  1
  B  B24  1  0.500000  0.131153  0.314735  1
  B  B25  1  0.500000  0.867677  0.685761  1
  B  B26  1  0.500000  0.982355  0.212062  1
  B  B27  1  0.500000  0.016708  0.787209  1
  B  B28  1  0.500000  0.482659  0.286859  1
  B  B29  1  0.500000  0.518142  0.712547  1
  B  B30  1  0.500000  0.608057  0.029688  1
  B  B31  1  0.500000  0.394719  0.970347  1
  B  B32  1  0.500000  0.105694  0.470541  1
  B  B33  1  0.500000  0.891126  0.529928  1
  Ir  Ir34  1  0.000000  0.637230  0.321414  1
  Ru  Ru35  1  0.000000  0.861587  0.821039  1
