# generated using pymatgen
data_Li2AlMoRh4
_symmetry_space_group_name_H-M   'P 1'
_cell_length_a   4.26915001
_cell_length_b   6.00944101
_cell_length_c   12.71595100
_cell_angle_alpha   90.00084308
_cell_angle_beta   90.00088448
_cell_angle_gamma   89.99451626
_symmetry_Int_Tables_number   1
_chemical_formula_structural   Li2AlMoRh4
_chemical_formula_sum   'Li6 Al3 Mo3 Rh12'
_cell_volume   326.23032946
_cell_formula_units_Z   3
loop_
 _symmetry_equiv_pos_site_id
 _symmetry_equiv_pos_as_xyz
  1  'x, y, z'
loop_
 _atom_site_type_symbol
 _atom_site_label
 _atom_site_symmetry_multiplicity
 _atom_site_fract_x
 _atom_site_fract_y
 _atom_site_fract_z
 _atom_site_occupancy
  Li  Li0  1  0.000000  0.499995  0.997597  1
  Li  Li1  1  0.499849  0.000030  0.166683  1
  Li  Li2  1  0.999802  0.499989  0.335726  1
  Li  Li3  1  0.499960  0.000011  0.504052  1
  Li  Li4  1  0.000133  0.499998  0.666676  1
  Li  Li5  1  0.500195  0.000003  0.829245  1
  Al  Al6  1  0.499984  0.499996  0.506566  1
  Al  Al7  1  0.000224  0.999996  0.666675  1
  Al  Al8  1  0.500196  0.499995  0.826787  1
  Mo  Mo9  1  0.000052  0.999993  0.992707  1
  Mo  Mo10  1  0.499746  0.500011  0.166650  1
  Mo  Mo11  1  0.999846  0.999994  0.340650  1
  Rh  Rh12  1  0.500032  0.253394  0.998317  1
  Rh  Rh13  1  0.500028  0.746607  0.998320  1
  Rh  Rh14  1  0.999774  0.248744  0.166662  1
  Rh  Rh15  1  0.999779  0.751260  0.166664  1
  Rh  Rh16  1  0.499837  0.253439  0.335002  1
  Rh  Rh17  1  0.499834  0.746563  0.335001  1
  Rh  Rh18  1  0.999980  0.250280  0.500060  1
  Rh  Rh19  1  0.999983  0.749718  0.500057  1
  Rh  Rh20  1  0.500215  0.247843  0.666665  1
  Rh  Rh21  1  0.500172  0.752146  0.666671  1
  Rh  Rh22  1  0.000192  0.250269  0.833283  1
  Rh  Rh23  1  0.000190  0.749732  0.833282  1
