# generated using pymatgen
data_Ge2Mo12Ir3Rh3N4
_symmetry_space_group_name_H-M   'P 1'
_cell_length_a   6.86153702
_cell_length_b   6.85455562
_cell_length_c   6.85101382
_cell_angle_alpha   89.20741906
_cell_angle_beta   90.03088726
_cell_angle_gamma   90.10326126
_symmetry_Int_Tables_number   1
_chemical_formula_structural   Ge2Mo12Ir3Rh3N4
_chemical_formula_sum   'Ge2 Mo12 Ir3 Rh3 N4'
_cell_volume   322.19087970
_cell_formula_units_Z   1
loop_
 _symmetry_equiv_pos_site_id
 _symmetry_equiv_pos_as_xyz
  1  'x, y, z'
loop_
 _atom_site_type_symbol
 _atom_site_label
 _atom_site_symmetry_multiplicity
 _atom_site_fract_x
 _atom_site_fract_y
 _atom_site_fract_z
 _atom_site_occupancy
  Ge  Ge0  1  0.685141  0.177231  0.934667  1
  Ge  Ge1  1  0.185453  0.823715  0.063587  1
  Mo  Mo2  1  0.621426  0.044157  0.544935  1
  Mo  Mo3  1  0.120813  0.954789  0.455309  1
  Mo  Mo4  1  0.867172  0.539434  0.944587  1
  Mo  Mo5  1  0.367783  0.461001  0.055998  1
  Mo  Mo6  1  0.201004  0.622762  0.695479  1
  Mo  Mo7  1  0.299544  0.125458  0.784271  1
  Mo  Mo8  1  0.800179  0.875483  0.215062  1
  Mo  Mo9  1  0.701790  0.377089  0.303691  1
  Mo  Mo10  1  0.050401  0.211966  0.131883  1
  Mo  Mo11  1  0.962415  0.307440  0.620751  1
  Mo  Mo12  1  0.549107  0.788692  0.868610  1
  Mo  Mo13  1  0.462783  0.693729  0.379233  1
  Ir  Ir14  1  0.811904  0.687687  0.567884  1
  Ir  Ir15  1  0.312610  0.311555  0.432721  1
  Ir  Ir16  1  0.060411  0.569905  0.301836  1
  Rh  Rh17  1  0.436522  0.060904  0.173481  1
  Rh  Rh18  1  0.560529  0.428679  0.700581  1
  Rh  Rh19  1  0.936578  0.939315  0.826282  1
  N  N20  1  0.374980  0.872087  0.619932  1
  N  N21  1  0.874785  0.127507  0.380043  1
  N  N22  1  0.128618  0.375117  0.874626  1
  N  N23  1  0.628053  0.624298  0.124551  1
