# generated using pymatgen
data_Lu3Be(Ni4P3)2
_symmetry_space_group_name_H-M   'P 1'
_cell_length_a   3.68871400
_cell_length_b   10.39596100
_cell_length_c   12.23576300
_cell_angle_alpha   90.00000000
_cell_angle_beta   90.00000000
_cell_angle_gamma   90.00000000
_symmetry_Int_Tables_number   1
_chemical_formula_structural   Lu3Be(Ni4P3)2
_chemical_formula_sum   'Lu6 Be2 Ni16 P12'
_cell_volume   469.21369774
_cell_formula_units_Z   2
loop_
 _symmetry_equiv_pos_site_id
 _symmetry_equiv_pos_as_xyz
  1  'x, y, z'
loop_
 _atom_site_type_symbol
 _atom_site_label
 _atom_site_symmetry_multiplicity
 _atom_site_fract_x
 _atom_site_fract_y
 _atom_site_fract_z
 _atom_site_occupancy
  Lu  Lu0  1  0.752650  0.000000  0.477478  1
  Lu  Lu1  1  0.252650  0.500000  0.522522  1
  Lu  Lu2  1  0.252275  0.682879  0.795092  1
  Lu  Lu3  1  0.252275  0.317121  0.795092  1
  Lu  Lu4  1  0.752275  0.817121  0.204908  1
  Lu  Lu5  1  0.752275  0.182879  0.204908  1
  Be  Be6  1  0.750851  0.000000  0.014242  1
  Be  Be7  1  0.250851  0.500000  0.985758  1
  Ni  Ni8  1  0.252217  0.197836  0.569074  1
  Ni  Ni9  1  0.252217  0.802164  0.569074  1
  Ni  Ni10  1  0.752217  0.302164  0.430926  1
  Ni  Ni11  1  0.752217  0.697836  0.430926  1
  Ni  Ni12  1  0.251379  0.622807  0.291207  1
  Ni  Ni13  1  0.251379  0.377193  0.291207  1
  Ni  Ni14  1  0.751379  0.877193  0.708793  1
  Ni  Ni15  1  0.751379  0.122807  0.708793  1
  Ni  Ni16  1  0.250847  0.160094  0.004004  1
  Ni  Ni17  1  0.250847  0.839906  0.004004  1
  Ni  Ni18  1  0.750847  0.339906  0.995996  1
  Ni  Ni19  1  0.750847  0.660094  0.995996  1
  Ni  Ni20  1  0.250569  0.000000  0.841131  1
  Ni  Ni21  1  0.750569  0.500000  0.158869  1
  Ni  Ni22  1  0.254423  0.000000  0.300439  1
  Ni  Ni23  1  0.754423  0.500000  0.699561  1
  P  P24  1  0.252312  0.185241  0.384199  1
  P  P25  1  0.252312  0.814759  0.384199  1
  P  P26  1  0.752312  0.314759  0.615801  1
  P  P27  1  0.752312  0.685241  0.615801  1
  P  P28  1  0.252162  0.000000  0.124474  1
  P  P29  1  0.752162  0.500000  0.875526  1
  P  P30  1  0.251284  0.654022  0.108804  1
  P  P31  1  0.251284  0.345978  0.108804  1
  P  P32  1  0.751284  0.845978  0.891196  1
  P  P33  1  0.751284  0.154022  0.891196  1
  P  P34  1  0.251518  0.000000  0.652868  1
  P  P35  1  0.751518  0.500000  0.347132  1
