# generated using pymatgen
data_YTa7(NbN6)2
_symmetry_space_group_name_H-M   'P 1'
_cell_length_a   5.28768463
_cell_length_b   5.29177518
_cell_length_c   10.53295485
_cell_angle_alpha   89.95388418
_cell_angle_beta   90.02307021
_cell_angle_gamma   120.02560377
_symmetry_Int_Tables_number   1
_chemical_formula_structural   YTa7(NbN6)2
_chemical_formula_sum   'Y1 Ta7 Nb2 N12'
_cell_volume   255.17348062
_cell_formula_units_Z   1
loop_
 _symmetry_equiv_pos_site_id
 _symmetry_equiv_pos_as_xyz
  1  'x, y, z'
loop_
 _atom_site_type_symbol
 _atom_site_label
 _atom_site_symmetry_multiplicity
 _atom_site_fract_x
 _atom_site_fract_y
 _atom_site_fract_z
 _atom_site_occupancy
  Y  Y0  1  0.332362  0.666181  0.500000  1
  Ta  Ta1  1  0.663931  0.331965  0.000000  1
  Ta  Ta2  1  0.664098  0.332049  0.500000  1
  Ta  Ta3  1  0.333780  0.666890  0.000000  1
  Ta  Ta4  1  0.675902  0.998028  0.754889  1
  Ta  Ta5  1  0.675902  0.677875  0.245111  1
  Ta  Ta6  1  0.002343  0.324619  0.245166  1
  Ta  Ta7  1  0.002343  0.677724  0.754834  1
  Nb  Nb8  1  0.323945  0.325977  0.755868  1
  Nb  Nb9  1  0.323945  0.997969  0.244132  1
  N  N10  1  0.351397  0.336135  0.368884  1
  N  N11  1  0.671792  0.018672  0.369717  1
  N  N12  1  0.976683  0.642575  0.369012  1
  N  N13  1  0.996154  0.342599  0.882205  1
  N  N14  1  0.663604  0.000369  0.116896  1
  N  N15  1  0.663604  0.663236  0.883104  1
  N  N16  1  0.341094  0.996375  0.882475  1
  N  N17  1  0.671792  0.653118  0.630283  1
  N  N18  1  0.976683  0.334108  0.630988  1
  N  N19  1  0.996154  0.653556  0.117795  1
  N  N20  1  0.351397  0.015261  0.631116  1
  N  N21  1  0.341094  0.344720  0.117525  1
