# generated using pymatgen
data_Sb12OsPd3
_symmetry_space_group_name_H-M   'P 1'
_cell_length_a   8.21169525
_cell_length_b   8.29802826
_cell_length_c   8.21169536
_cell_angle_alpha   109.68432078
_cell_angle_beta   109.25727578
_cell_angle_gamma   109.68433747
_symmetry_Int_Tables_number   1
_chemical_formula_structural   Sb12OsPd3
_chemical_formula_sum   'Sb12 Os1 Pd3'
_cell_volume   429.60535199
_cell_formula_units_Z   1
loop_
 _symmetry_equiv_pos_site_id
 _symmetry_equiv_pos_as_xyz
  1  'x, y, z'
loop_
 _atom_site_type_symbol
 _atom_site_label
 _atom_site_symmetry_multiplicity
 _atom_site_fract_x
 _atom_site_fract_y
 _atom_site_fract_z
 _atom_site_occupancy
  Sb  Sb0  1  0.844777  0.654259  0.499236  1
  Sb  Sb1  1  0.850950  0.345936  0.188126  1
  Sb  Sb2  1  0.149050  0.654064  0.811874  1
  Sb  Sb3  1  0.337174  0.494985  0.149050  1
  Sb  Sb4  1  0.155223  0.345741  0.500764  1
  Sb  Sb5  1  0.654457  0.809481  0.155223  1
  Sb  Sb6  1  0.188126  0.842188  0.337174  1
  Sb  Sb7  1  0.662826  0.505015  0.850950  1
  Sb  Sb8  1  0.811874  0.157812  0.662826  1
  Sb  Sb9  1  0.345543  0.190519  0.844777  1
  Sb  Sb10  1  0.499236  0.844976  0.654457  1
  Sb  Sb11  1  0.500764  0.155024  0.345543  1
  Os  Os12  1  0.000000  0.500000  0.000000  1
  Pd  Pd13  1  0.000000  0.000000  0.500000  1
  Pd  Pd14  1  0.500000  0.000000  0.000000  1
  Pd  Pd15  1  0.500000  0.500000  0.500000  1
