# generated using pymatgen
data_KH9PbW
_symmetry_space_group_name_H-M   'P 1'
_cell_length_a   9.11922700
_cell_length_b   9.11922481
_cell_length_c   5.56447000
_cell_angle_alpha   90.00000000
_cell_angle_beta   90.00000000
_cell_angle_gamma   120.00000433
_symmetry_Int_Tables_number   1
_chemical_formula_structural   KH9PbW
_chemical_formula_sum   'K3 H27 Pb3 W3'
_cell_volume   400.74707998
_cell_formula_units_Z   3
loop_
 _symmetry_equiv_pos_site_id
 _symmetry_equiv_pos_as_xyz
  1  'x, y, z'
loop_
 _atom_site_type_symbol
 _atom_site_label
 _atom_site_symmetry_multiplicity
 _atom_site_fract_x
 _atom_site_fract_y
 _atom_site_fract_z
 _atom_site_occupancy
  K  K0  1  0.000000  0.591438  0.000000  1
  K  K1  1  0.408562  0.408562  0.000000  1
  K  K2  1  0.591438  0.000000  0.000000  1
  H  H3  1  0.786013  0.305723  0.733157  1
  H  H4  1  0.694277  0.480290  0.733157  1
  H  H5  1  0.519710  0.213987  0.733157  1
  H  H6  1  0.213987  0.519710  0.266843  1
  H  H7  1  0.519710  0.213987  0.266843  1
  H  H8  1  0.786013  0.305723  0.266843  1
  H  H9  1  0.694277  0.480290  0.266843  1
  H  H10  1  0.305723  0.786013  0.733157  1
  H  H11  1  0.480290  0.694277  0.733157  1
  H  H12  1  0.193133  0.000000  0.000000  1
  H  H13  1  0.806867  0.806867  0.000000  1
  H  H14  1  0.000000  0.193133  0.000000  1
  H  H15  1  0.862069  0.000000  0.228736  1
  H  H16  1  0.137931  0.137931  0.771264  1
  H  H17  1  0.000000  0.862069  0.771264  1
  H  H18  1  0.000000  0.862069  0.228736  1
  H  H19  1  0.137931  0.137931  0.228736  1
  H  H20  1  0.862069  0.000000  0.771264  1
  H  H21  1  0.127739  0.630997  0.500000  1
  H  H22  1  0.503257  0.872261  0.500000  1
  H  H23  1  0.369003  0.496743  0.500000  1
  H  H24  1  0.496743  0.369003  0.500000  1
  H  H25  1  0.872261  0.503257  0.500000  1
  H  H26  1  0.630997  0.127739  0.500000  1
  H  H27  1  0.213987  0.519710  0.733157  1
  H  H28  1  0.305723  0.786013  0.266843  1
  H  H29  1  0.480290  0.694277  0.266843  1
  Pb  Pb30  1  0.000000  0.272920  0.500000  1
  Pb  Pb31  1  0.727080  0.727080  0.500000  1
  Pb  Pb32  1  0.272920  0.000000  0.500000  1
  W  W33  1  0.666667  0.333333  0.500000  1
  W  W34  1  0.333333  0.666667  0.500000  1
  W  W35  1  0.000000  0.000000  0.000000  1
