# generated using pymatgen
data_Ho5Cr3(Co4As3)4
_symmetry_space_group_name_H-M   'P 1'
_cell_length_a   12.53701900
_cell_length_b   12.53701830
_cell_length_c   3.79486700
_cell_angle_alpha   90.00000000
_cell_angle_beta   90.00000000
_cell_angle_gamma   119.99999393
_symmetry_Int_Tables_number   1
_chemical_formula_structural   Ho5Cr3(Co4As3)4
_chemical_formula_sum   'Ho5 Cr3 Co16 As12'
_cell_volume   516.55403905
_cell_formula_units_Z   1
loop_
 _symmetry_equiv_pos_site_id
 _symmetry_equiv_pos_as_xyz
  1  'x, y, z'
loop_
 _atom_site_type_symbol
 _atom_site_label
 _atom_site_symmetry_multiplicity
 _atom_site_fract_x
 _atom_site_fract_y
 _atom_site_fract_z
 _atom_site_occupancy
  Ho  Ho0  1  0.666667  0.333333  0.000000  1
  Ho  Ho1  1  0.333333  0.666667  0.000000  1
  Ho  Ho2  1  0.185475  0.185475  0.500000  1
  Ho  Ho3  1  0.814525  0.000000  0.500000  1
  Ho  Ho4  1  0.000000  0.814525  0.500000  1
  Cr  Cr5  1  0.559407  0.559407  0.000000  1
  Cr  Cr6  1  0.440593  0.000000  0.000000  1
  Cr  Cr7  1  0.000000  0.440593  0.000000  1
  Co  Co8  1  0.822686  0.199168  0.000000  1
  Co  Co9  1  0.800832  0.623518  0.000000  1
  Co  Co10  1  0.376482  0.177314  0.000000  1
  Co  Co11  1  0.199168  0.822686  0.000000  1
  Co  Co12  1  0.623518  0.800832  0.000000  1
  Co  Co13  1  0.177314  0.376482  0.000000  1
  Co  Co14  1  0.644425  0.124429  0.500000  1
  Co  Co15  1  0.875571  0.519996  0.500000  1
  Co  Co16  1  0.480004  0.355575  0.500000  1
  Co  Co17  1  0.124429  0.644425  0.500000  1
  Co  Co18  1  0.519996  0.875571  0.500000  1
  Co  Co19  1  0.355575  0.480004  0.500000  1
  Co  Co20  1  0.715245  0.715245  0.500000  1
  Co  Co21  1  0.284755  0.000000  0.500000  1
  Co  Co22  1  0.000000  0.284755  0.500000  1
  Co  Co23  1  0.000000  0.000000  0.000000  1
  As  As24  1  0.361500  0.361500  0.000000  1
  As  As25  1  0.638500  0.000000  0.000000  1
  As  As26  1  0.000000  0.638500  0.000000  1
  As  As27  1  0.833736  0.316584  0.500000  1
  As  As28  1  0.683416  0.517153  0.500000  1
  As  As29  1  0.482847  0.166264  0.500000  1
  As  As30  1  0.316584  0.833736  0.500000  1
  As  As31  1  0.517153  0.683416  0.500000  1
  As  As32  1  0.166264  0.482847  0.500000  1
  As  As33  1  0.820953  0.820953  0.000000  1
  As  As34  1  0.179047  0.000000  0.000000  1
  As  As35  1  0.000000  0.179047  0.000000  1
