# generated using pymatgen
data_Hg5GeF18
_symmetry_space_group_name_H-M   'P 1'
_cell_length_a   8.21466474
_cell_length_b   8.24852888
_cell_length_c   8.40313719
_cell_angle_alpha   90.19920005
_cell_angle_beta   90.08230658
_cell_angle_gamma   119.58172603
_symmetry_Int_Tables_number   1
_chemical_formula_structural   Hg5GeF18
_chemical_formula_sum   'Hg5 Ge1 F18'
_cell_volume   495.16282279
_cell_formula_units_Z   1
loop_
 _symmetry_equiv_pos_site_id
 _symmetry_equiv_pos_as_xyz
  1  'x, y, z'
loop_
 _atom_site_type_symbol
 _atom_site_label
 _atom_site_symmetry_multiplicity
 _atom_site_fract_x
 _atom_site_fract_y
 _atom_site_fract_z
 _atom_site_occupancy
  Hg  Hg0  1  0.000000  0.500000  0.500000  1
  Hg  Hg1  1  0.000000  0.500000  0.000000  1
  Hg  Hg2  1  0.500000  0.000000  0.500000  1
  Hg  Hg3  1  0.500000  0.000000  0.000000  1
  Hg  Hg4  1  0.500000  0.500000  0.500000  1
  Ge  Ge5  1  0.500000  0.500000  0.000000  1
  F  F6  1  0.745241  0.562030  0.043301  1
  F  F7  1  0.254759  0.437970  0.956699  1
  F  F8  1  0.219812  0.420627  0.535346  1
  F  F9  1  0.780188  0.579373  0.464654  1
  F  F10  1  0.578452  0.744984  0.955048  1
  F  F11  1  0.421548  0.255016  0.044952  1
  F  F12  1  0.426251  0.222014  0.465278  1
  F  F13  1  0.573749  0.777986  0.534722  1
  F  F14  1  0.778729  0.214605  0.545269  1
  F  F15  1  0.221271  0.785395  0.454731  1
  F  F16  1  0.223693  0.793262  0.050714  1
  F  F17  1  0.776307  0.206738  0.949286  1
  F  F18  1  0.989077  0.430945  0.240508  1
  F  F19  1  0.010923  0.569055  0.759492  1
  F  F20  1  0.426976  0.985374  0.763991  1
  F  F21  1  0.573024  0.014626  0.236009  1
  F  F22  1  0.530713  0.457025  0.790522  1
  F  F23  1  0.469287  0.542975  0.209478  1
