# generated using pymatgen
data_Er9Tm(GePb3)2
_symmetry_space_group_name_H-M   'P 1'
_cell_length_a   9.25714900
_cell_length_b   9.25714871
_cell_length_c   6.49573200
_cell_angle_alpha   90.00000000
_cell_angle_beta   90.00000000
_cell_angle_gamma   120.00001176
_symmetry_Int_Tables_number   1
_chemical_formula_structural   Er9Tm(GePb3)2
_chemical_formula_sum   'Er9 Tm1 Ge2 Pb6'
_cell_volume   482.07340531
_cell_formula_units_Z   1
loop_
 _symmetry_equiv_pos_site_id
 _symmetry_equiv_pos_as_xyz
  1  'x, y, z'
loop_
 _atom_site_type_symbol
 _atom_site_label
 _atom_site_symmetry_multiplicity
 _atom_site_fract_x
 _atom_site_fract_y
 _atom_site_fract_z
 _atom_site_occupancy
  Er  Er0  1  0.251425  0.999972  0.250216  1
  Er  Er1  1  0.748546  0.999972  0.749784  1
  Er  Er2  1  0.000028  0.251454  0.250216  1
  Er  Er3  1  0.000028  0.748575  0.749784  1
  Er  Er4  1  0.748546  0.748575  0.250216  1
  Er  Er5  1  0.251425  0.251454  0.749784  1
  Er  Er6  1  0.666667  0.333333  0.000000  1
  Er  Er7  1  0.666667  0.333333  0.500000  1
  Er  Er8  1  0.333333  0.666667  0.500000  1
  Tm  Tm9  1  0.333333  0.666667  0.000000  1
  Ge  Ge10  1  0.000000  0.000000  0.000000  1
  Ge  Ge11  1  0.000000  0.000000  0.500000  1
  Pb  Pb12  1  0.606630  0.999894  0.250040  1
  Pb  Pb13  1  0.393264  0.999894  0.749960  1
  Pb  Pb14  1  0.000106  0.606736  0.250040  1
  Pb  Pb15  1  0.000106  0.393370  0.749960  1
  Pb  Pb16  1  0.393264  0.393370  0.250040  1
  Pb  Pb17  1  0.606630  0.606736  0.749960  1
