# generated using pymatgen
data_Li2HfSnRh4
_symmetry_space_group_name_H-M   'P 1'
_cell_length_a   4.38423800
_cell_length_b   6.24888300
_cell_length_c   13.19821000
_cell_angle_alpha   89.99980363
_cell_angle_beta   89.99973912
_cell_angle_gamma   89.99859998
_symmetry_Int_Tables_number   1
_chemical_formula_structural   Li2HfSnRh4
_chemical_formula_sum   'Li6 Hf3 Sn3 Rh12'
_cell_volume   361.58595209
_cell_formula_units_Z   3
loop_
 _symmetry_equiv_pos_site_id
 _symmetry_equiv_pos_as_xyz
  1  'x, y, z'
loop_
 _atom_site_type_symbol
 _atom_site_label
 _atom_site_symmetry_multiplicity
 _atom_site_fract_x
 _atom_site_fract_y
 _atom_site_fract_z
 _atom_site_occupancy
  Li  Li0  1  0.999954  0.999938  0.998832  1
  Li  Li1  1  0.499781  0.500040  0.166640  1
  Li  Li2  1  0.999694  0.999897  0.334461  1
  Li  Li3  1  0.499942  0.500068  0.500431  1
  Li  Li4  1  0.000235  0.999917  0.666647  1
  Li  Li5  1  0.500290  0.500080  0.832979  1
  Hf  Hf6  1  0.000011  0.499981  0.999729  1
  Hf  Hf7  1  0.499778  0.999998  0.166646  1
  Hf  Hf8  1  0.999766  0.499969  0.333596  1
  Sn  Sn9  1  0.500022  0.000016  0.502789  1
  Sn  Sn10  1  0.000339  0.500039  0.666664  1
  Sn  Sn11  1  0.500171  0.000031  0.830640  1
  Rh  Rh12  1  0.499957  0.247275  0.999840  1
  Rh  Rh13  1  0.500038  0.752710  0.999833  1
  Rh  Rh14  1  0.999840  0.249766  0.166663  1
  Rh  Rh15  1  0.999758  0.750210  0.166664  1
  Rh  Rh16  1  0.499728  0.247226  0.333477  1
  Rh  Rh17  1  0.499807  0.752766  0.333485  1
  Rh  Rh18  1  0.999990  0.252652  0.497957  1
  Rh  Rh19  1  0.999961  0.747337  0.497946  1
  Rh  Rh20  1  0.500222  0.252007  0.666700  1
  Rh  Rh21  1  0.500290  0.748028  0.666700  1
  Rh  Rh22  1  0.000222  0.252696  0.835341  1
  Rh  Rh23  1  0.000196  0.747343  0.835342  1
