# generated using pymatgen
data_TmLu7B24(MoRu)2
_symmetry_space_group_name_H-M   'P 1'
_cell_length_a   3.59424500
_cell_length_b   9.10068208
_cell_length_c   11.47207910
_cell_angle_alpha   89.75798996
_cell_angle_beta   90.00000000
_cell_angle_gamma   90.00000000
_symmetry_Int_Tables_number   1
_chemical_formula_structural   TmLu7B24(MoRu)2
_chemical_formula_sum   'Tm1 Lu7 B24 Mo2 Ru2'
_cell_volume   375.24928996
_cell_formula_units_Z   1
loop_
 _symmetry_equiv_pos_site_id
 _symmetry_equiv_pos_as_xyz
  1  'x, y, z'
loop_
 _atom_site_type_symbol
 _atom_site_label
 _atom_site_symmetry_multiplicity
 _atom_site_fract_x
 _atom_site_fract_y
 _atom_site_fract_z
 _atom_site_occupancy
  Tm  Tm0  1  0.000000  0.321740  0.414502  1
  Lu  Lu1  1  0.000000  0.678227  0.585426  1
  Lu  Lu2  1  0.000000  0.821245  0.085987  1
  Lu  Lu3  1  0.000000  0.178735  0.913998  1
  Lu  Lu4  1  0.000000  0.944761  0.371272  1
  Lu  Lu5  1  0.000000  0.055081  0.628828  1
  Lu  Lu6  1  0.000000  0.442110  0.127987  1
  Lu  Lu7  1  0.000000  0.557974  0.871968  1
  B  B8  1  0.500000  0.551808  0.434592  1
  B  B9  1  0.500000  0.448602  0.565623  1
  B  B10  1  0.500000  0.053788  0.066093  1
  B  B11  1  0.500000  0.946172  0.933875  1
  B  B12  1  0.500000  0.751653  0.421616  1
  B  B13  1  0.500000  0.248275  0.578782  1
  B  B14  1  0.500000  0.249322  0.080151  1
  B  B15  1  0.500000  0.750682  0.919794  1
  B  B16  1  0.500000  0.796077  0.263242  1
  B  B17  1  0.500000  0.203933  0.736783  1
  B  B18  1  0.500000  0.291058  0.233919  1
  B  B19  1  0.500000  0.708856  0.765849  1
  B  B20  1  0.500000  0.631426  0.181563  1
  B  B21  1  0.500000  0.368623  0.818435  1
  B  B22  1  0.500000  0.130113  0.314166  1
  B  B23  1  0.500000  0.869627  0.685665  1
  B  B24  1  0.500000  0.982467  0.211516  1
  B  B25  1  0.500000  0.017471  0.788472  1
  B  B26  1  0.500000  0.477539  0.286686  1
  B  B27  1  0.500000  0.522858  0.713116  1
  B  B28  1  0.500000  0.602290  0.027636  1
  B  B29  1  0.500000  0.397740  0.972335  1
  B  B30  1  0.500000  0.101869  0.470979  1
  B  B31  1  0.500000  0.897757  0.529154  1
  Mo  Mo32  1  0.000000  0.639509  0.318780  1
  Mo  Mo33  1  0.000000  0.360720  0.681328  1
  Ru  Ru34  1  0.000000  0.138107  0.178021  1
  Ru  Ru35  1  0.000000  0.861784  0.821861  1
