# generated using pymatgen
data_Pr5NdIn10
_symmetry_space_group_name_H-M   'P 1'
_cell_length_a   6.63635879
_cell_length_b   6.63635920
_cell_length_c   10.61864200
_cell_angle_alpha   90.00004789
_cell_angle_beta   90.00004751
_cell_angle_gamma   101.75144904
_symmetry_Int_Tables_number   1
_chemical_formula_structural   Pr5NdIn10
_chemical_formula_sum   'Pr5 Nd1 In10'
_cell_volume   457.85641158
_cell_formula_units_Z   1
loop_
 _symmetry_equiv_pos_site_id
 _symmetry_equiv_pos_as_xyz
  1  'x, y, z'
loop_
 _atom_site_type_symbol
 _atom_site_label
 _atom_site_symmetry_multiplicity
 _atom_site_fract_x
 _atom_site_fract_y
 _atom_site_fract_z
 _atom_site_occupancy
  Pr  Pr0  1  0.630273  0.630273  0.250000  1
  Pr  Pr1  1  0.203194  0.796520  0.500152  1
  Pr  Pr2  1  0.203194  0.796520  0.999848  1
  Pr  Pr3  1  0.796520  0.203194  0.500152  1
  Pr  Pr4  1  0.796520  0.203194  0.999848  1
  Nd  Nd5  1  0.369595  0.369595  0.750000  1
  In  In6  1  0.013516  0.013515  0.249999  1
  In  In7  1  0.987080  0.987079  0.750001  1
  In  In8  1  0.309066  0.309066  0.049451  1
  In  In9  1  0.690813  0.690813  0.949673  1
  In  In10  1  0.309066  0.309066  0.450549  1
  In  In11  1  0.690813  0.690813  0.550327  1
  In  In12  1  0.501511  0.075703  0.250000  1
  In  In13  1  0.925247  0.497890  0.750000  1
  In  In14  1  0.497890  0.925247  0.750000  1
  In  In15  1  0.075703  0.501511  0.250000  1
