# generated using pymatgen
data_Tb6Er3Tm7(In3Os)2
_symmetry_space_group_name_H-M   'P 1'
_cell_length_a   10.31789800
_cell_length_b   10.31778546
_cell_length_c   7.11886700
_cell_angle_alpha   89.99878052
_cell_angle_beta   90.00079925
_cell_angle_gamma   119.99970926
_symmetry_Int_Tables_number   1
_chemical_formula_structural   Tb6Er3Tm7(In3Os)2
_chemical_formula_sum   'Tb6 Er3 Tm7 In6 Os2'
_cell_volume   656.32735690
_cell_formula_units_Z   1
loop_
 _symmetry_equiv_pos_site_id
 _symmetry_equiv_pos_as_xyz
  1  'x, y, z'
loop_
 _atom_site_type_symbol
 _atom_site_label
 _atom_site_symmetry_multiplicity
 _atom_site_fract_x
 _atom_site_fract_y
 _atom_site_fract_z
 _atom_site_occupancy
  Tb  Tb0  1  0.532799  0.065587  0.793477  1
  Tb  Tb1  1  0.934417  0.467197  0.793500  1
  Tb  Tb2  1  0.532791  0.467198  0.793479  1
  Tb  Tb3  1  0.467373  0.934743  0.293099  1
  Tb  Tb4  1  0.065227  0.532614  0.293114  1
  Tb  Tb5  1  0.467380  0.532617  0.293101  1
  Er  Er6  1  0.333333  0.666667  0.672368  1
  Er  Er7  1  0.000003  0.000011  0.777819  1
  Er  Er8  1  0.999992  0.999992  0.278164  1
  Tm  Tm9  1  0.822538  0.645063  0.497360  1
  Tm  Tm10  1  0.354934  0.177465  0.497351  1
  Tm  Tm11  1  0.822533  0.177456  0.497368  1
  Tm  Tm12  1  0.177319  0.354629  0.997587  1
  Tm  Tm13  1  0.645360  0.822673  0.997591  1
  Tm  Tm14  1  0.177316  0.822682  0.997592  1
  Tm  Tm15  1  0.666664  0.333321  0.173363  1
  In  In16  1  0.837063  0.674169  0.043376  1
  In  In17  1  0.325871  0.162931  0.043419  1
  In  In18  1  0.837056  0.162883  0.043439  1
  In  In19  1  0.162628  0.325221  0.542960  1
  In  In20  1  0.674842  0.837443  0.543038  1
  In  In21  1  0.162564  0.837444  0.543138  1
  Os  Os22  1  0.666658  0.333309  0.565104  1
  Os  Os23  1  0.333339  0.666684  0.065098  1
