# generated using pymatgen
data_Gd9Ho(Sn3H)2
_symmetry_space_group_name_H-M   'P 1'
_cell_length_a   9.32946816
_cell_length_b   9.32946872
_cell_length_c   9.34742000
_cell_angle_alpha   128.44657303
_cell_angle_beta   128.44657578
_cell_angle_gamma   75.96377275
_symmetry_Int_Tables_number   1
_chemical_formula_structural   Gd9Ho(Sn3H)2
_chemical_formula_sum   'Gd9 Ho1 Sn6 H2'
_cell_volume   485.08010445
_cell_formula_units_Z   1
loop_
 _symmetry_equiv_pos_site_id
 _symmetry_equiv_pos_as_xyz
  1  'x, y, z'
loop_
 _atom_site_type_symbol
 _atom_site_label
 _atom_site_symmetry_multiplicity
 _atom_site_fract_x
 _atom_site_fract_y
 _atom_site_fract_z
 _atom_site_occupancy
  Gd  Gd0  1  0.500783  0.501999  0.001589  1
  Gd  Gd1  1  0.001999  0.000783  0.001589  1
  Gd  Gd2  1  0.186692  0.686692  0.173883  1
  Gd  Gd3  1  0.008608  0.188071  0.498892  1
  Gd  Gd4  1  0.688071  0.508608  0.498892  1
  Gd  Gd5  1  0.488118  0.988118  0.177937  1
  Gd  Gd6  1  0.812908  0.312908  0.824046  1
  Gd  Gd7  1  0.989172  0.809519  0.497703  1
  Gd  Gd8  1  0.309519  0.489172  0.497703  1
  Ho  Ho9  1  0.511918  0.011918  0.823641  1
  Sn  Sn10  1  0.251995  0.247478  0.997585  1
  Sn  Sn11  1  0.747478  0.751995  0.997585  1
  Sn  Sn12  1  0.862173  0.362173  0.225711  1
  Sn  Sn13  1  0.135080  0.635080  0.770147  1
  Sn  Sn14  1  0.366513  0.133621  0.503427  1
  Sn  Sn15  1  0.633621  0.866513  0.503427  1
  H  H16  1  0.256457  0.756457  0.505753  1
  H  H17  1  0.748891  0.248891  0.500493  1
