# generated using pymatgen
data_TcAgF6
_symmetry_space_group_name_H-M   'P 1'
_cell_length_a   5.35003781
_cell_length_b   5.37288353
_cell_length_c   10.65690048
_cell_angle_alpha   75.65986251
_cell_angle_beta   75.82779933
_cell_angle_gamma   60.11086090
_symmetry_Int_Tables_number   1
_chemical_formula_structural   TcAgF6
_chemical_formula_sum   'Tc2 Ag2 F12'
_cell_volume   254.61159160
_cell_formula_units_Z   2
loop_
 _symmetry_equiv_pos_site_id
 _symmetry_equiv_pos_as_xyz
  1  'x, y, z'
loop_
 _atom_site_type_symbol
 _atom_site_label
 _atom_site_symmetry_multiplicity
 _atom_site_fract_x
 _atom_site_fract_y
 _atom_site_fract_z
 _atom_site_occupancy
  Tc  Tc0  1  0.728842  0.764155  0.750074  1
  Tc  Tc1  1  0.271158  0.235845  0.249926  1
  Ag  Ag2  1  0.500000  0.500000  0.500000  1
  Ag  Ag3  1  0.000000  0.000000  0.000000  1
  F  F4  1  0.469408  0.805646  0.640864  1
  F  F5  1  0.530592  0.194354  0.359136  1
  F  F6  1  0.771894  0.089678  0.643054  1
  F  F7  1  0.228106  0.910322  0.356946  1
  F  F8  1  0.689973  0.440622  0.859207  1
  F  F9  1  0.310027  0.559378  0.140793  1
  F  F10  1  0.987864  0.722926  0.859380  1
  F  F11  1  0.012136  0.277074  0.140620  1
  F  F12  1  0.596853  0.974637  0.142570  1
  F  F13  1  0.403147  0.025363  0.857430  1
  F  F14  1  0.947885  0.487728  0.359978  1
  F  F15  1  0.052115  0.512272  0.640022  1
