# generated using pymatgen
data_Ho8ReB24IrRu2
_symmetry_space_group_name_H-M   'P 1'
_cell_length_a   3.65512200
_cell_length_b   9.13304348
_cell_length_c   11.51010199
_cell_angle_alpha   90.17414105
_cell_angle_beta   90.00000000
_cell_angle_gamma   90.00000000
_symmetry_Int_Tables_number   1
_chemical_formula_structural   Ho8ReB24IrRu2
_chemical_formula_sum   'Ho8 Re1 B24 Ir1 Ru2'
_cell_volume   384.23291739
_cell_formula_units_Z   1
loop_
 _symmetry_equiv_pos_site_id
 _symmetry_equiv_pos_as_xyz
  1  'x, y, z'
loop_
 _atom_site_type_symbol
 _atom_site_label
 _atom_site_symmetry_multiplicity
 _atom_site_fract_x
 _atom_site_fract_y
 _atom_site_fract_z
 _atom_site_occupancy
  Ho  Ho0  1  0.000000  0.320213  0.416260  1
  Ho  Ho1  1  0.000000  0.680745  0.591607  1
  Ho  Ho2  1  0.000000  0.824185  0.081105  1
  Ho  Ho3  1  0.000000  0.175952  0.912868  1
  Ho  Ho4  1  0.000000  0.945499  0.371529  1
  Ho  Ho5  1  0.000000  0.055858  0.627364  1
  Ho  Ho6  1  0.000000  0.440781  0.126845  1
  Ho  Ho7  1  0.000000  0.556045  0.872880  1
  Re  Re8  1  0.000000  0.862182  0.820933  1
  B  B9  1  0.500000  0.554421  0.434221  1
  B  B10  1  0.500000  0.446420  0.566810  1
  B  B11  1  0.500000  0.054058  0.067039  1
  B  B12  1  0.500000  0.946991  0.933324  1
  B  B13  1  0.500000  0.749499  0.421046  1
  B  B14  1  0.500000  0.252137  0.579993  1
  B  B15  1  0.500000  0.247422  0.080345  1
  B  B16  1  0.500000  0.751805  0.919604  1
  B  B17  1  0.500000  0.790910  0.265271  1
  B  B18  1  0.500000  0.209321  0.733320  1
  B  B19  1  0.500000  0.291007  0.234593  1
  B  B20  1  0.500000  0.707999  0.766056  1
  B  B21  1  0.500000  0.631231  0.183604  1
  B  B22  1  0.500000  0.368291  0.814378  1
  B  B23  1  0.500000  0.131807  0.315253  1
  B  B24  1  0.500000  0.868674  0.685433  1
  B  B25  1  0.500000  0.983387  0.212642  1
  B  B26  1  0.500000  0.017809  0.786939  1
  B  B27  1  0.500000  0.482287  0.287328  1
  B  B28  1  0.500000  0.517082  0.712675  1
  B  B29  1  0.500000  0.606261  0.030509  1
  B  B30  1  0.500000  0.391888  0.970691  1
  B  B31  1  0.500000  0.107784  0.469670  1
  B  B32  1  0.500000  0.892508  0.528593  1
  Ir  Ir33  1  0.000000  0.636718  0.321726  1
  Ru  Ru34  1  0.000000  0.362850  0.678037  1
  Ru  Ru35  1  0.000000  0.137969  0.179511  1
