# generated using pymatgen
data_Eu2PN3
_symmetry_space_group_name_H-M   'P 1'
_cell_length_a   6.03576475
_cell_length_b   6.03576401
_cell_length_c   11.76955400
_cell_angle_alpha   90.00000000
_cell_angle_beta   90.00000000
_cell_angle_gamma   127.64784497
_symmetry_Int_Tables_number   1
_chemical_formula_structural   Eu2PN3
_chemical_formula_sum   'Eu8 P4 N12'
_cell_volume   339.49158529
_cell_formula_units_Z   4
loop_
 _symmetry_equiv_pos_site_id
 _symmetry_equiv_pos_as_xyz
  1  'x, y, z'
loop_
 _atom_site_type_symbol
 _atom_site_label
 _atom_site_symmetry_multiplicity
 _atom_site_fract_x
 _atom_site_fract_y
 _atom_site_fract_z
 _atom_site_occupancy
  Eu  Eu0  1  0.362666  0.637334  0.072947  1
  Eu  Eu1  1  0.862666  0.137334  0.427053  1
  Eu  Eu2  1  0.137334  0.862666  0.572947  1
  Eu  Eu3  1  0.637334  0.362666  0.927053  1
  Eu  Eu4  1  0.446025  0.553975  0.639222  1
  Eu  Eu5  1  0.553975  0.446025  0.360778  1
  Eu  Eu6  1  0.053975  0.946025  0.139222  1
  Eu  Eu7  1  0.946025  0.053975  0.860778  1
  P  P8  1  0.756465  0.243535  0.668776  1
  P  P9  1  0.743535  0.256465  0.168776  1
  P  P10  1  0.243535  0.756465  0.331224  1
  P  P11  1  0.256465  0.743535  0.831224  1
  N  N12  1  0.963290  0.536710  0.750000  1
  N  N13  1  0.536710  0.963290  0.250000  1
  N  N14  1  0.036710  0.463290  0.250000  1
  N  N15  1  0.463290  0.036710  0.750000  1
  N  N16  1  0.405703  0.594297  0.855635  1
  N  N17  1  0.594297  0.405703  0.144365  1
  N  N18  1  0.094297  0.905703  0.355635  1
  N  N19  1  0.665244  0.334756  0.557690  1
  N  N20  1  0.165244  0.834756  0.942310  1
  N  N21  1  0.834756  0.165244  0.057690  1
  N  N22  1  0.334756  0.665244  0.442310  1
  N  N23  1  0.905703  0.094297  0.644365  1
