# generated using pymatgen
data_P5(IrO8)2
_symmetry_space_group_name_H-M   'P 1'
_cell_length_a   6.75765900
_cell_length_b   5.02525310
_cell_length_c   18.85229300
_cell_angle_alpha   89.38011870
_cell_angle_beta   90.00000000
_cell_angle_gamma   90.00000000
_symmetry_Int_Tables_number   1
_chemical_formula_structural   P5(IrO8)2
_chemical_formula_sum   'P10 Ir4 O32'
_cell_volume   640.16654820
_cell_formula_units_Z   2
loop_
 _symmetry_equiv_pos_site_id
 _symmetry_equiv_pos_as_xyz
  1  'x, y, z'
loop_
 _atom_site_type_symbol
 _atom_site_label
 _atom_site_symmetry_multiplicity
 _atom_site_fract_x
 _atom_site_fract_y
 _atom_site_fract_z
 _atom_site_occupancy
  P  P0  1  0.130337  0.240132  0.423385  1
  P  P1  1  0.130337  0.759868  0.076615  1
  P  P2  1  0.869663  0.759868  0.576615  1
  P  P3  1  0.748101  0.000000  0.250000  1
  P  P4  1  0.251899  0.000000  0.750000  1
  P  P5  1  0.540924  0.737029  0.130036  1
  P  P6  1  0.869663  0.240132  0.923385  1
  P  P7  1  0.459076  0.737029  0.630036  1
  P  P8  1  0.540924  0.262971  0.369964  1
  P  P9  1  0.459076  0.262971  0.869964  1
  Ir  Ir10  1  0.179664  0.247047  0.593861  1
  Ir  Ir11  1  0.820336  0.752953  0.406139  1
  Ir  Ir12  1  0.179664  0.752953  0.906139  1
  Ir  Ir13  1  0.820336  0.247047  0.093861  1
  O  O14  1  0.980597  0.581226  0.114384  1
  O  O15  1  0.777261  0.649751  0.508922  1
  O  O16  1  0.019403  0.418774  0.885616  1
  O  O17  1  0.597858  0.195326  0.289154  1
  O  O18  1  0.872007  0.843139  0.302128  1
  O  O19  1  0.933631  0.947827  0.931947  1
  O  O20  1  0.644377  0.920548  0.077909  1
  O  O21  1  0.066369  0.947827  0.431947  1
  O  O22  1  0.402142  0.195326  0.789154  1
  O  O23  1  0.222739  0.649751  0.008922  1
  O  O24  1  0.980597  0.418774  0.385616  1
  O  O25  1  0.567812  0.439609  0.119851  1
  O  O26  1  0.567812  0.560391  0.380149  1
  O  O27  1  0.355623  0.920548  0.577909  1
  O  O28  1  0.597858  0.804674  0.210846  1
  O  O29  1  0.310381  0.782562  0.134182  1
  O  O30  1  0.019403  0.581226  0.614384  1
  O  O31  1  0.933631  0.052173  0.568053  1
  O  O32  1  0.872007  0.156861  0.197872  1
  O  O33  1  0.310381  0.217438  0.365818  1
  O  O34  1  0.432188  0.439609  0.619851  1
  O  O35  1  0.402142  0.804674  0.710846  1
  O  O36  1  0.127993  0.156861  0.697872  1
  O  O37  1  0.644377  0.079452  0.422091  1
  O  O38  1  0.066369  0.052173  0.068053  1
  O  O39  1  0.432188  0.560391  0.880149  1
  O  O40  1  0.689619  0.217438  0.865818  1
  O  O41  1  0.777261  0.350249  0.991078  1
  O  O42  1  0.689619  0.782562  0.634182  1
  O  O43  1  0.127993  0.843139  0.802128  1
  O  O44  1  0.222739  0.350249  0.491078  1
  O  O45  1  0.355623  0.079452  0.922091  1
