# generated using pymatgen
data_Ga4Sn3B4PbO16
_symmetry_space_group_name_H-M   'P 1'
_cell_length_a   7.33461372
_cell_length_b   5.95019500
_cell_length_c   8.12262432
_cell_angle_alpha   90.00000000
_cell_angle_beta   89.83710373
_cell_angle_gamma   90.00000000
_symmetry_Int_Tables_number   1
_chemical_formula_structural   Ga4Sn3B4PbO16
_chemical_formula_sum   'Ga4 Sn3 B4 Pb1 O16'
_cell_volume   354.48923984
_cell_formula_units_Z   1
loop_
 _symmetry_equiv_pos_site_id
 _symmetry_equiv_pos_as_xyz
  1  'x, y, z'
loop_
 _atom_site_type_symbol
 _atom_site_label
 _atom_site_symmetry_multiplicity
 _atom_site_fract_x
 _atom_site_fract_y
 _atom_site_fract_z
 _atom_site_occupancy
  Ga  Ga0  1  0.998938  0.999779  0.998046  1
  Ga  Ga1  1  0.498819  0.000554  0.501295  1
  Ga  Ga2  1  0.498819  0.499446  0.501295  1
  Ga  Ga3  1  0.998938  0.500221  0.998046  1
  Sn  Sn4  1  0.093178  0.249999  0.352638  1
  Sn  Sn5  1  0.414062  0.749999  0.855967  1
  Sn  Sn6  1  0.593555  0.249999  0.144081  1
  B  B7  1  0.778382  0.249999  0.733255  1
  B  B8  1  0.719674  0.749999  0.229597  1
  B  B9  1  0.277652  0.249999  0.770062  1
  B  B10  1  0.219148  0.749999  0.269795  1
  Pb  Pb11  1  0.923522  0.749999  0.631253  1
  O  O12  1  0.162964  0.952570  0.199890  1
  O  O13  1  0.332868  0.047265  0.699562  1
  O  O14  1  0.664017  0.547740  0.300826  1
  O  O15  1  0.834615  0.451767  0.802831  1
  O  O16  1  0.834615  0.048233  0.802831  1
  O  O17  1  0.664017  0.952261  0.300826  1
  O  O18  1  0.332868  0.452735  0.699562  1
  O  O19  1  0.162964  0.547431  0.199890  1
  O  O20  1  0.103971  0.749999  0.880728  1
  O  O21  1  0.403087  0.249999  0.376384  1
  O  O22  1  0.593074  0.749999  0.621365  1
  O  O23  1  0.903884  0.249999  0.125042  1
  O  O24  1  0.829238  0.749999  0.091252  1
  O  O25  1  0.669192  0.249999  0.593808  1
  O  O26  1  0.324255  0.749999  0.410328  1
  O  O27  1  0.169687  0.249999  0.909546  1
