# generated using pymatgen
data_Y5Lu5(TlSn2)2
_symmetry_space_group_name_H-M   'P 1'
_cell_length_a   6.50349604
_cell_length_b   8.91752023
_cell_length_c   8.91666100
_cell_angle_alpha   120.05146355
_cell_angle_beta   89.99379776
_cell_angle_gamma   90.00877286
_symmetry_Int_Tables_number   1
_chemical_formula_structural   Y5Lu5(TlSn2)2
_chemical_formula_sum   'Y5 Lu5 Tl2 Sn4'
_cell_volume   447.60859255
_cell_formula_units_Z   1
loop_
 _symmetry_equiv_pos_site_id
 _symmetry_equiv_pos_as_xyz
  1  'x, y, z'
loop_
 _atom_site_type_symbol
 _atom_site_label
 _atom_site_symmetry_multiplicity
 _atom_site_fract_x
 _atom_site_fract_y
 _atom_site_fract_z
 _atom_site_occupancy
  Y  Y0  1  0.750042  0.238471  0.998410  1
  Y  Y1  1  0.749972  0.762403  0.760673  1
  Y  Y2  1  0.750023  0.000213  0.241304  1
  Y  Y3  1  0.249941  0.761175  0.001051  1
  Y  Y4  1  0.250000  0.237783  0.239057  1
  Lu  Lu5  1  0.499675  0.333718  0.666497  1
  Lu  Lu6  1  0.499609  0.666316  0.333541  1
  Lu  Lu7  1  0.000421  0.665908  0.332837  1
  Lu  Lu8  1  0.000411  0.334237  0.667108  1
  Lu  Lu9  1  0.250108  0.999824  0.760794  1
  Tl  Tl10  1  0.750324  0.000024  0.598838  1
  Tl  Tl11  1  0.249763  0.000025  0.401624  1
  Sn  Sn12  1  0.749625  0.602656  0.998735  1
  Sn  Sn13  1  0.750062  0.397718  0.396322  1
  Sn  Sn14  1  0.250190  0.394830  0.999218  1
  Sn  Sn15  1  0.249838  0.604708  0.603989  1
