# generated using pymatgen
data_Tb15NdCd4(OsPt)2
_symmetry_space_group_name_H-M   'P 1'
_cell_length_a   9.72837339
_cell_length_b   9.72837293
_cell_length_c   9.79311200
_cell_angle_alpha   59.77962018
_cell_angle_beta   59.77962175
_cell_angle_gamma   59.43266958
_symmetry_Int_Tables_number   1
_chemical_formula_structural   Tb15NdCd4(OsPt)2
_chemical_formula_sum   'Tb15 Nd1 Cd4 Os2 Pt2'
_cell_volume   650.34992270
_cell_formula_units_Z   1
loop_
 _symmetry_equiv_pos_site_id
 _symmetry_equiv_pos_as_xyz
  1  'x, y, z'
loop_
 _atom_site_type_symbol
 _atom_site_label
 _atom_site_symmetry_multiplicity
 _atom_site_fract_x
 _atom_site_fract_y
 _atom_site_fract_z
 _atom_site_occupancy
  Tb  Tb0  1  0.350081  0.350081  0.351414  1
  Tb  Tb1  1  0.350081  0.350081  0.948425  1
  Tb  Tb2  1  0.346206  0.955932  0.348932  1
  Tb  Tb3  1  0.955932  0.346206  0.348932  1
  Tb  Tb4  1  0.814486  0.188446  0.189934  1
  Tb  Tb5  1  0.188446  0.814486  0.807134  1
  Tb  Tb6  1  0.188446  0.814486  0.189934  1
  Tb  Tb7  1  0.814486  0.188446  0.807134  1
  Tb  Tb8  1  0.188628  0.188628  0.811372  1
  Tb  Tb9  1  0.807939  0.807939  0.192061  1
  Tb  Tb10  1  0.938403  0.553986  0.566711  1
  Tb  Tb11  1  0.553986  0.938403  0.940900  1
  Tb  Tb12  1  0.553986  0.938403  0.566711  1
  Tb  Tb13  1  0.938403  0.553986  0.940900  1
  Tb  Tb14  1  0.563689  0.563689  0.936311  1
  Nd  Nd15  1  0.937935  0.937935  0.562065  1
  Cd  Cd16  1  0.580765  0.580765  0.581429  1
  Cd  Cd17  1  0.580765  0.580765  0.257041  1
  Cd  Cd18  1  0.579227  0.256898  0.581939  1
  Cd  Cd19  1  0.256898  0.579227  0.581939  1
  Os  Os20  1  0.145627  0.145627  0.134039  1
  Os  Os21  1  0.145627  0.145627  0.574706  1
  Pt  Pt22  1  0.145293  0.574666  0.140020  1
  Pt  Pt23  1  0.574666  0.145293  0.140020  1
