# generated using pymatgen
data_Zr10Ga4SnSb3
_symmetry_space_group_name_H-M   'P 1'
_cell_length_a   8.61840908
_cell_length_b   8.61092669
_cell_length_c   5.84187900
_cell_angle_alpha   90.00000000
_cell_angle_beta   90.00000000
_cell_angle_gamma   119.97128244
_symmetry_Int_Tables_number   1
_chemical_formula_structural   Zr10Ga4SnSb3
_chemical_formula_sum   'Zr10 Ga4 Sn1 Sb3'
_cell_volume   375.56558401
_cell_formula_units_Z   1
loop_
 _symmetry_equiv_pos_site_id
 _symmetry_equiv_pos_as_xyz
  1  'x, y, z'
loop_
 _atom_site_type_symbol
 _atom_site_label
 _atom_site_symmetry_multiplicity
 _atom_site_fract_x
 _atom_site_fract_y
 _atom_site_fract_z
 _atom_site_occupancy
  Zr  Zr0  1  0.283640  0.271270  0.750000  1
  Zr  Zr1  1  0.734822  0.736477  0.250000  1
  Zr  Zr2  1  0.716360  0.987631  0.750000  1
  Zr  Zr3  1  0.000000  0.265317  0.250000  1
  Zr  Zr4  1  0.337491  0.669982  0.505226  1
  Zr  Zr5  1  0.662509  0.332492  0.505226  1
  Zr  Zr6  1  0.000000  0.730840  0.750000  1
  Zr  Zr7  1  0.337491  0.669982  0.994774  1
  Zr  Zr8  1  0.265178  0.001655  0.250000  1
  Zr  Zr9  1  0.662509  0.332492  0.994774  1
  Ga  Ga10  1  0.000000  0.002433  0.513381  1
  Ga  Ga11  1  0.616767  0.614502  0.750000  1
  Ga  Ga12  1  0.383233  0.997735  0.750000  1
  Ga  Ga13  1  0.000000  0.002433  0.986619  1
  Sn  Sn14  1  0.000000  0.380469  0.750000  1
  Sb  Sb15  1  0.607975  0.000834  0.250000  1
  Sb  Sb16  1  0.392025  0.392859  0.250000  1
  Sb  Sb17  1  0.000000  0.610596  0.250000  1
