# generated using pymatgen
data_HoLu15(ZnNi)4
_symmetry_space_group_name_H-M   'P 1'
_cell_length_a   9.19883644
_cell_length_b   9.19883552
_cell_length_c   9.19883618
_cell_angle_alpha   59.98169026
_cell_angle_beta   59.98169512
_cell_angle_gamma   59.98168981
_symmetry_Int_Tables_number   1
_chemical_formula_structural   HoLu15(ZnNi)4
_chemical_formula_sum   'Ho1 Lu15 Zn4 Ni4'
_cell_volume   550.17810821
_cell_formula_units_Z   1
loop_
 _symmetry_equiv_pos_site_id
 _symmetry_equiv_pos_as_xyz
  1  'x, y, z'
loop_
 _atom_site_type_symbol
 _atom_site_label
 _atom_site_symmetry_multiplicity
 _atom_site_fract_x
 _atom_site_fract_y
 _atom_site_fract_z
 _atom_site_occupancy
  Ho  Ho0  1  0.353901  0.353901  0.353901  1
  Lu  Lu1  1  0.353689  0.353689  0.938748  1
  Lu  Lu2  1  0.353689  0.938748  0.353689  1
  Lu  Lu3  1  0.938748  0.353689  0.353689  1
  Lu  Lu4  1  0.810265  0.189901  0.189901  1
  Lu  Lu5  1  0.190282  0.809757  0.809757  1
  Lu  Lu6  1  0.189901  0.810265  0.189901  1
  Lu  Lu7  1  0.809757  0.190282  0.809757  1
  Lu  Lu8  1  0.189901  0.189901  0.810265  1
  Lu  Lu9  1  0.809757  0.809757  0.190282  1
  Lu  Lu10  1  0.935605  0.564355  0.564355  1
  Lu  Lu11  1  0.564280  0.935817  0.935817  1
  Lu  Lu12  1  0.564355  0.935605  0.564355  1
  Lu  Lu13  1  0.935817  0.564280  0.935817  1
  Lu  Lu14  1  0.564355  0.564355  0.935605  1
  Lu  Lu15  1  0.935817  0.935817  0.564280  1
  Zn  Zn16  1  0.579268  0.579268  0.579268  1
  Zn  Zn17  1  0.579571  0.579571  0.262198  1
  Zn  Zn18  1  0.579571  0.262198  0.579571  1
  Zn  Zn19  1  0.262198  0.579571  0.579571  1
  Ni  Ni20  1  0.143955  0.143955  0.143955  1
  Ni  Ni21  1  0.143112  0.143112  0.569099  1
  Ni  Ni22  1  0.143112  0.569099  0.143112  1
  Ni  Ni23  1  0.569099  0.143112  0.143112  1
