# generated using pymatgen
data_Sm5ThSi10
_symmetry_space_group_name_H-M   'P 1'
_cell_length_a   6.84511632
_cell_length_b   6.84511661
_cell_length_c   8.39868907
_cell_angle_alpha   90.02817067
_cell_angle_beta   89.97183513
_cell_angle_gamma   119.91134477
_symmetry_Int_Tables_number   1
_chemical_formula_structural   Sm5ThSi10
_chemical_formula_sum   'Sm5 Th1 Si10'
_cell_volume   341.10731427
_cell_formula_units_Z   1
loop_
 _symmetry_equiv_pos_site_id
 _symmetry_equiv_pos_as_xyz
  1  'x, y, z'
loop_
 _atom_site_type_symbol
 _atom_site_label
 _atom_site_symmetry_multiplicity
 _atom_site_fract_x
 _atom_site_fract_y
 _atom_site_fract_z
 _atom_site_occupancy
  Sm  Sm0  1  0.331433  0.999781  0.999913  1
  Sm  Sm1  1  0.330972  0.000821  0.500120  1
  Sm  Sm2  1  0.000821  0.330972  0.499880  1
  Sm  Sm3  1  0.999781  0.331433  0.000087  1
  Sm  Sm4  1  0.668752  0.668752  0.000000  1
  Th  Th5  1  0.667179  0.667179  0.500000  1
  Si  Si6  1  0.364904  0.329274  0.247892  1
  Si  Si7  1  0.670316  0.034383  0.248519  1
  Si  Si8  1  0.965488  0.635521  0.247505  1
  Si  Si9  1  0.635521  0.965488  0.752495  1
  Si  Si10  1  0.000849  0.000468  0.247829  1
  Si  Si11  1  0.666641  0.333216  0.750391  1
  Si  Si12  1  0.034383  0.670316  0.751481  1
  Si  Si13  1  0.329274  0.364904  0.752108  1
  Si  Si14  1  0.333216  0.666641  0.249609  1
  Si  Si15  1  0.000468  0.000849  0.752171  1
