# generated using pymatgen
data_Co5Hg(AsO4)4
_symmetry_space_group_name_H-M   'P 1'
_cell_length_a   8.91402583
_cell_length_b   5.30204383
_cell_length_c   9.18327402
_cell_angle_alpha   61.17508639
_cell_angle_beta   90.35510605
_cell_angle_gamma   90.81894364
_symmetry_Int_Tables_number   1
_chemical_formula_structural   Co5Hg(AsO4)4
_chemical_formula_sum   'Co5 Hg1 As4 O16'
_cell_volume   380.20909098
_cell_formula_units_Z   1
loop_
 _symmetry_equiv_pos_site_id
 _symmetry_equiv_pos_as_xyz
  1  'x, y, z'
loop_
 _atom_site_type_symbol
 _atom_site_label
 _atom_site_symmetry_multiplicity
 _atom_site_fract_x
 _atom_site_fract_y
 _atom_site_fract_z
 _atom_site_occupancy
  Co  Co0  1  0.142134  0.470596  0.103994  1
  Co  Co1  1  0.631071  0.499714  0.394399  1
  Co  Co2  1  0.857866  0.529404  0.896006  1
  Co  Co3  1  0.368929  0.500286  0.605601  1
  Co  Co4  1  0.500000  0.500000  0.000000  1
  Hg  Hg5  1  0.000000  0.500000  0.500000  1
  As  As6  1  0.314771  0.844069  0.189801  1
  As  As7  1  0.791953  0.160577  0.291595  1
  As  As8  1  0.685229  0.155931  0.810199  1
  As  As9  1  0.208047  0.839423  0.708405  1
  O  O10  1  0.075079  0.676817  0.865138  1
  O  O11  1  0.569939  0.312329  0.637219  1
  O  O12  1  0.924921  0.323183  0.134862  1
  O  O13  1  0.430061  0.687671  0.362781  1
  O  O14  1  0.213130  0.199142  0.649744  1
  O  O15  1  0.691042  0.791373  0.877993  1
  O  O16  1  0.786870  0.800858  0.350256  1
  O  O17  1  0.308958  0.208627  0.122007  1
  O  O18  1  0.168992  0.793166  0.537767  1
  O  O19  1  0.632890  0.223906  0.967823  1
  O  O20  1  0.139947  0.674534  0.238926  1
  O  O21  1  0.622699  0.340709  0.233662  1
  O  O22  1  0.860053  0.325466  0.761074  1
  O  O23  1  0.377301  0.659291  0.766338  1
  O  O24  1  0.367110  0.776094  0.032177  1
  O  O25  1  0.831008  0.206834  0.462233  1
