# generated using pymatgen
data_Tb4Lu4Mn(B8Ru)3
_symmetry_space_group_name_H-M   'P 1'
_cell_length_a   3.60777800
_cell_length_b   9.06813705
_cell_length_c   11.46162807
_cell_angle_alpha   89.98758171
_cell_angle_beta   90.00000000
_cell_angle_gamma   90.00000000
_symmetry_Int_Tables_number   1
_chemical_formula_structural   Tb4Lu4Mn(B8Ru)3
_chemical_formula_sum   'Tb4 Lu4 Mn1 B24 Ru3'
_cell_volume   374.97661340
_cell_formula_units_Z   1
loop_
 _symmetry_equiv_pos_site_id
 _symmetry_equiv_pos_as_xyz
  1  'x, y, z'
loop_
 _atom_site_type_symbol
 _atom_site_label
 _atom_site_symmetry_multiplicity
 _atom_site_fract_x
 _atom_site_fract_y
 _atom_site_fract_z
 _atom_site_occupancy
  Tb  Tb0  1  0.000000  0.325231  0.412934  1
  Tb  Tb1  1  0.000000  0.677135  0.582292  1
  Tb  Tb2  1  0.000000  0.820111  0.088153  1
  Tb  Tb3  1  0.000000  0.177863  0.915119  1
  Lu  Lu4  1  0.000000  0.940679  0.371495  1
  Lu  Lu5  1  0.000000  0.056587  0.627692  1
  Lu  Lu6  1  0.000000  0.446195  0.130303  1
  Lu  Lu7  1  0.000000  0.556422  0.871816  1
  Mn  Mn8  1  0.000000  0.638954  0.319707  1
  B  B9  1  0.500000  0.555088  0.430902  1
  B  B10  1  0.500000  0.445816  0.567234  1
  B  B11  1  0.500000  0.054468  0.067872  1
  B  B12  1  0.500000  0.945391  0.932604  1
  B  B13  1  0.500000  0.747999  0.416918  1
  B  B14  1  0.500000  0.250215  0.580983  1
  B  B15  1  0.500000  0.250529  0.081667  1
  B  B16  1  0.500000  0.750015  0.918921  1
  B  B17  1  0.500000  0.790062  0.266362  1
  B  B18  1  0.500000  0.208156  0.734290  1
  B  B19  1  0.500000  0.292365  0.234355  1
  B  B20  1  0.500000  0.708240  0.765480  1
  B  B21  1  0.500000  0.630806  0.186260  1
  B  B22  1  0.500000  0.369380  0.815717  1
  B  B23  1  0.500000  0.130344  0.315405  1
  B  B24  1  0.500000  0.869307  0.684134  1
  B  B25  1  0.500000  0.982527  0.213610  1
  B  B26  1  0.500000  0.016905  0.786745  1
  B  B27  1  0.500000  0.485431  0.287444  1
  B  B28  1  0.500000  0.516945  0.713181  1
  B  B29  1  0.500000  0.602967  0.028393  1
  B  B30  1  0.500000  0.397331  0.972163  1
  B  B31  1  0.500000  0.102834  0.471569  1
  B  B32  1  0.500000  0.896965  0.527941  1
  Ru  Ru33  1  0.000000  0.360658  0.680715  1
  Ru  Ru34  1  0.000000  0.138987  0.179917  1
  Ru  Ru35  1  0.000000  0.861090  0.819710  1
