# generated using pymatgen
data_LaGa3CoHg
_symmetry_space_group_name_H-M   'P 1'
_cell_length_a   4.21745935
_cell_length_b   6.71965400
_cell_length_c   8.48611962
_cell_angle_alpha   90.00000000
_cell_angle_beta   104.38827899
_cell_angle_gamma   90.00000000
_symmetry_Int_Tables_number   1
_chemical_formula_structural   LaGa3CoHg
_chemical_formula_sum   'La2 Ga6 Co2 Hg2'
_cell_volume   232.95212801
_cell_formula_units_Z   2
loop_
 _symmetry_equiv_pos_site_id
 _symmetry_equiv_pos_as_xyz
  1  'x, y, z'
loop_
 _atom_site_type_symbol
 _atom_site_label
 _atom_site_symmetry_multiplicity
 _atom_site_fract_x
 _atom_site_fract_y
 _atom_site_fract_z
 _atom_site_occupancy
  La  La0  1  0.877053  0.750000  0.754105  1
  La  La1  1  0.122947  0.250000  0.245895  1
  Ga  Ga2  1  0.082066  0.750000  0.164133  1
  Ga  Ga3  1  0.917934  0.250000  0.835867  1
  Ga  Ga4  1  0.694126  0.553769  0.388253  1
  Ga  Ga5  1  0.305874  0.446231  0.611747  1
  Ga  Ga6  1  0.694126  0.946231  0.388253  1
  Ga  Ga7  1  0.305874  0.053769  0.611747  1
  Co  Co8  1  0.225228  0.750000  0.450456  1
  Co  Co9  1  0.774772  0.250000  0.549544  1
  Hg  Hg10  1  0.500000  0.500000  0.000000  1
  Hg  Hg11  1  0.500000  0.000000  0.000000  1
