# generated using pymatgen
data_Sr4LuIn(BiO6)2
_symmetry_space_group_name_H-M   'P 1'
_cell_length_a   5.91470043
_cell_length_b   5.99963446
_cell_length_c   8.39410318
_cell_angle_alpha   90.36411920
_cell_angle_beta   89.91469245
_cell_angle_gamma   90.03454994
_symmetry_Int_Tables_number   1
_chemical_formula_structural   Sr4LuIn(BiO6)2
_chemical_formula_sum   'Sr4 Lu1 In1 Bi2 O12'
_cell_volume   297.86708822
_cell_formula_units_Z   1
loop_
 _symmetry_equiv_pos_site_id
 _symmetry_equiv_pos_as_xyz
  1  'x, y, z'
loop_
 _atom_site_type_symbol
 _atom_site_label
 _atom_site_symmetry_multiplicity
 _atom_site_fract_x
 _atom_site_fract_y
 _atom_site_fract_z
 _atom_site_occupancy
  Sr  Sr0  1  0.988534  0.459787  0.247690  1
  Sr  Sr1  1  0.509271  0.957267  0.247378  1
  Sr  Sr2  1  0.490712  0.042736  0.752642  1
  Sr  Sr3  1  0.011507  0.540188  0.752337  1
  Lu  Lu4  1  0.999914  0.999974  0.500016  1
  In  In5  1  0.500012  0.500006  0.999994  1
  Bi  Bi6  1  0.000005  0.000000  0.000004  1
  Bi  Bi7  1  0.499986  0.500000  0.499999  1
  O  O8  1  0.710214  0.206615  0.048977  1
  O  O9  1  0.796442  0.711345  0.050219  1
  O  O10  1  0.086178  0.027773  0.246313  1
  O  O11  1  0.407535  0.530561  0.252128  1
  O  O12  1  0.704956  0.212597  0.453730  1
  O  O13  1  0.787015  0.707186  0.454123  1
  O  O14  1  0.212984  0.292790  0.545868  1
  O  O15  1  0.295047  0.787415  0.546258  1
  O  O16  1  0.592495  0.469470  0.747855  1
  O  O17  1  0.913826  0.972215  0.753683  1
  O  O18  1  0.203561  0.288672  0.949780  1
  O  O19  1  0.289807  0.793402  0.951006  1
