# generated using pymatgen
data_Ba6MgTa2O12
_symmetry_space_group_name_H-M   'P 1'
_cell_length_a   9.23156767
_cell_length_b   9.23156813
_cell_length_c   7.40200006
_cell_angle_alpha   68.10098129
_cell_angle_beta   68.10097434
_cell_angle_gamma   36.90193549
_symmetry_Int_Tables_number   1
_chemical_formula_structural   Ba6MgTa2O12
_chemical_formula_sum   'Ba6 Mg1 Ta2 O12'
_cell_volume   348.26329321
_cell_formula_units_Z   1
loop_
 _symmetry_equiv_pos_site_id
 _symmetry_equiv_pos_as_xyz
  1  'x, y, z'
loop_
 _atom_site_type_symbol
 _atom_site_label
 _atom_site_symmetry_multiplicity
 _atom_site_fract_x
 _atom_site_fract_y
 _atom_site_fract_z
 _atom_site_occupancy
  Ba  Ba0  1  0.207807  0.207807  0.708307  1
  Ba  Ba1  1  0.888385  0.888385  0.704996  1
  Ba  Ba2  1  0.548558  0.548558  0.711196  1
  Ba  Ba3  1  0.792193  0.792193  0.291693  1
  Ba  Ba4  1  0.451442  0.451442  0.288804  1
  Ba  Ba5  1  0.111615  0.111615  0.295004  1
  Mg  Mg6  1  0.000000  0.000000  0.000000  1
  Ta  Ta7  1  0.665193  0.665193  0.000912  1
  Ta  Ta8  1  0.334807  0.334807  0.999088  1
  O  O9  1  0.281198  0.281198  0.298352  1
  O  O10  1  0.945713  0.945713  0.320678  1
  O  O11  1  0.619618  0.619618  0.298552  1
  O  O12  1  0.718802  0.718802  0.701648  1
  O  O13  1  0.380382  0.380382  0.701448  1
  O  O14  1  0.054287  0.054287  0.679322  1
  O  O15  1  0.000000  0.500000  0.000000  1
  O  O16  1  0.651806  0.173474  0.000964  1
  O  O17  1  0.348194  0.826526  0.999036  1
  O  O18  1  0.500000  0.000000  0.000000  1
  O  O19  1  0.173474  0.651806  0.000964  1
  O  O20  1  0.826526  0.348194  0.999036  1
