# generated using pymatgen
data_TbDyHo2(B6Ru)2
_symmetry_space_group_name_H-M   'P 1'
_cell_length_a   3.65973400
_cell_length_b   9.14040200
_cell_length_c   11.52110700
_cell_angle_alpha   90.00012236
_cell_angle_beta   90.00000000
_cell_angle_gamma   90.00000000
_symmetry_Int_Tables_number   1
_chemical_formula_structural   TbDyHo2(B6Ru)2
_chemical_formula_sum   'Tb2 Dy2 Ho4 B24 Ru4'
_cell_volume   385.39761923
_cell_formula_units_Z   2
loop_
 _symmetry_equiv_pos_site_id
 _symmetry_equiv_pos_as_xyz
  1  'x, y, z'
loop_
 _atom_site_type_symbol
 _atom_site_label
 _atom_site_symmetry_multiplicity
 _atom_site_fract_x
 _atom_site_fract_y
 _atom_site_fract_z
 _atom_site_occupancy
  Tb  Tb0  1  0.000000  0.322766  0.414023  1
  Tb  Tb1  1  0.000000  0.677234  0.585977  1
  Dy  Dy2  1  0.000000  0.822733  0.085814  1
  Dy  Dy3  1  0.000000  0.177267  0.914186  1
  Ho  Ho4  1  0.000000  0.943678  0.372088  1
  Ho  Ho5  1  0.000000  0.056322  0.627912  1
  Ho  Ho6  1  0.000000  0.443686  0.127646  1
  Ho  Ho7  1  0.000000  0.556314  0.872354  1
  B  B8  1  0.500000  0.554405  0.432663  1
  B  B9  1  0.500000  0.445595  0.567337  1
  B  B10  1  0.500000  0.054171  0.066982  1
  B  B11  1  0.500000  0.945829  0.933018  1
  B  B12  1  0.500000  0.748307  0.419351  1
  B  B13  1  0.500000  0.251693  0.580649  1
  B  B14  1  0.500000  0.248077  0.080255  1
  B  B15  1  0.500000  0.751923  0.919745  1
  B  B16  1  0.500000  0.791197  0.265991  1
  B  B17  1  0.500000  0.208803  0.734009  1
  B  B18  1  0.500000  0.290939  0.233545  1
  B  B19  1  0.500000  0.709061  0.766455  1
  B  B20  1  0.500000  0.631953  0.184938  1
  B  B21  1  0.500000  0.368047  0.815062  1
  B  B22  1  0.500000  0.131676  0.314720  1
  B  B23  1  0.500000  0.868324  0.685280  1
  B  B24  1  0.500000  0.983574  0.212837  1
  B  B25  1  0.500000  0.016426  0.787163  1
  B  B26  1  0.500000  0.483895  0.286782  1
  B  B27  1  0.500000  0.516105  0.713218  1
  B  B28  1  0.500000  0.607661  0.029692  1
  B  B29  1  0.500000  0.392339  0.970308  1
  B  B30  1  0.500000  0.106950  0.470469  1
  B  B31  1  0.500000  0.893050  0.529531  1
  Ru  Ru32  1  0.000000  0.638091  0.320733  1
  Ru  Ru33  1  0.000000  0.361909  0.679267  1
  Ru  Ru34  1  0.000000  0.137679  0.178761  1
  Ru  Ru35  1  0.000000  0.862321  0.821239  1
