# generated using pymatgen
data_Yb2Sc2BeB7Ru10
_symmetry_space_group_name_H-M   'P 1'
_cell_length_a   3.01508400
_cell_length_b   8.59061709
_cell_length_c   10.18201910
_cell_angle_alpha   90.43879645
_cell_angle_beta   90.00000000
_cell_angle_gamma   90.00000000
_symmetry_Int_Tables_number   1
_chemical_formula_structural   Yb2Sc2BeB7Ru10
_chemical_formula_sum   'Yb2 Sc2 Be1 B7 Ru10'
_cell_volume   263.72114278
_cell_formula_units_Z   1
loop_
 _symmetry_equiv_pos_site_id
 _symmetry_equiv_pos_as_xyz
  1  'x, y, z'
loop_
 _atom_site_type_symbol
 _atom_site_label
 _atom_site_symmetry_multiplicity
 _atom_site_fract_x
 _atom_site_fract_y
 _atom_site_fract_z
 _atom_site_occupancy
  Yb  Yb0  1  0.500000  0.840368  0.183251  1
  Yb  Yb1  1  0.500000  0.158251  0.817830  1
  Sc  Sc2  1  0.500000  0.655100  0.683837  1
  Sc  Sc3  1  0.500000  0.344167  0.319574  1
  Be  Be4  1  0.500000  0.963772  0.590944  1
  B  B5  1  0.500000  0.037818  0.407460  1
  B  B6  1  0.500000  0.850858  0.899157  1
  B  B7  1  0.500000  0.148536  0.100091  1
  B  B8  1  0.500000  0.650261  0.400385  1
  B  B9  1  0.500000  0.351932  0.597698  1
  B  B10  1  0.500000  0.465341  0.910492  1
  B  B11  1  0.500000  0.533744  0.089724  1
  Ru  Ru12  1  0.000000  0.654292  0.956414  1
  Ru  Ru13  1  0.000000  0.342097  0.045572  1
  Ru  Ru14  1  0.000000  0.840877  0.448009  1
  Ru  Ru15  1  0.000000  0.166356  0.540589  1
  Ru  Ru16  1  0.000000  0.000227  0.002025  1
  Ru  Ru17  1  0.000000  0.409869  0.758746  1
  Ru  Ru18  1  0.000000  0.588069  0.240433  1
  Ru  Ru19  1  0.000000  0.503376  0.500006  1
  Ru  Ru20  1  0.000000  0.891745  0.747747  1
  Ru  Ru21  1  0.000000  0.102944  0.260015  1
