# generated using pymatgen
data_SrNdMn2O6
_symmetry_space_group_name_H-M   'P 1'
_cell_length_a   5.51576900
_cell_length_b   5.53707800
_cell_length_c   7.77295500
_cell_angle_alpha   90.00000000
_cell_angle_beta   90.00000000
_cell_angle_gamma   90.00000000
_symmetry_Int_Tables_number   1
_chemical_formula_structural   SrNdMn2O6
_chemical_formula_sum   'Sr2 Nd2 Mn4 O12'
_cell_volume   237.39570891
_cell_formula_units_Z   2
loop_
 _symmetry_equiv_pos_site_id
 _symmetry_equiv_pos_as_xyz
  1  'x, y, z'
loop_
 _atom_site_type_symbol
 _atom_site_label
 _atom_site_symmetry_multiplicity
 _atom_site_fract_x
 _atom_site_fract_y
 _atom_site_fract_z
 _atom_site_occupancy
  Sr  Sr0  1  0.015888  0.242967  0.500000  1
  Sr  Sr1  1  0.515888  0.757033  0.500000  1
  Nd  Nd2  1  0.970673  0.252025  0.000000  1
  Nd  Nd3  1  0.470673  0.747975  0.000000  1
  Mn  Mn4  1  0.498762  0.248799  0.749151  1
  Mn  Mn5  1  0.998762  0.751201  0.250849  1
  Mn  Mn6  1  0.498762  0.248799  0.250849  1
  Mn  Mn7  1  0.998762  0.751201  0.749151  1
  O  O8  1  0.229106  0.480117  0.795076  1
  O  O9  1  0.729106  0.519883  0.204924  1
  O  O10  1  0.775266  0.025248  0.267478  1
  O  O11  1  0.275266  0.974752  0.732522  1
  O  O12  1  0.775266  0.025248  0.732522  1
  O  O13  1  0.275266  0.974752  0.267478  1
  O  O14  1  0.229106  0.480117  0.204924  1
  O  O15  1  0.729106  0.519883  0.795076  1
  O  O16  1  0.512724  0.184206  0.000000  1
  O  O17  1  0.012724  0.815794  0.000000  1
  O  O18  1  0.494451  0.302882  0.500000  1
  O  O19  1  0.994451  0.697118  0.500000  1
