# generated using pymatgen
data_Ba3TmRu2O9
_symmetry_space_group_name_H-M   'P 1'
_cell_length_a   5.93126300
_cell_length_b   5.93126201
_cell_length_c   14.52514400
_cell_angle_alpha   90.00000000
_cell_angle_beta   90.00000000
_cell_angle_gamma   120.00001111
_symmetry_Int_Tables_number   1
_chemical_formula_structural   Ba3TmRu2O9
_chemical_formula_sum   'Ba6 Tm2 Ru4 O18'
_cell_volume   442.53265195
_cell_formula_units_Z   2
loop_
 _symmetry_equiv_pos_site_id
 _symmetry_equiv_pos_as_xyz
  1  'x, y, z'
loop_
 _atom_site_type_symbol
 _atom_site_label
 _atom_site_symmetry_multiplicity
 _atom_site_fract_x
 _atom_site_fract_y
 _atom_site_fract_z
 _atom_site_occupancy
  Ba  Ba0  1  0.333333  0.666667  0.591620  1
  Ba  Ba1  1  0.666667  0.333333  0.091620  1
  Ba  Ba2  1  0.666667  0.333333  0.408380  1
  Ba  Ba3  1  0.333333  0.666667  0.908380  1
  Ba  Ba4  1  0.000000  0.000000  0.750000  1
  Ba  Ba5  1  0.000000  0.000000  0.250000  1
  Tm  Tm6  1  0.000000  0.000000  0.500000  1
  Tm  Tm7  1  0.000000  0.000000  0.000000  1
  Ru  Ru8  1  0.333333  0.666667  0.336440  1
  Ru  Ru9  1  0.666667  0.333333  0.836440  1
  Ru  Ru10  1  0.666667  0.333333  0.663560  1
  Ru  Ru11  1  0.333333  0.666667  0.163560  1
  O  O12  1  0.175125  0.824875  0.086515  1
  O  O13  1  0.175125  0.350249  0.086515  1
  O  O14  1  0.649751  0.824875  0.086515  1
  O  O15  1  0.350249  0.175125  0.586515  1
  O  O16  1  0.824875  0.649751  0.913485  1
  O  O17  1  0.824875  0.175125  0.586515  1
  O  O18  1  0.824875  0.649751  0.586515  1
  O  O19  1  0.175125  0.824875  0.413485  1
  O  O20  1  0.649751  0.824875  0.413485  1
  O  O21  1  0.350249  0.175125  0.913485  1
  O  O22  1  0.824875  0.175125  0.913485  1
  O  O23  1  0.175125  0.350249  0.413485  1
  O  O24  1  0.489843  0.979686  0.250000  1
  O  O25  1  0.510157  0.489843  0.750000  1
  O  O26  1  0.979686  0.489843  0.750000  1
  O  O27  1  0.020314  0.510157  0.250000  1
  O  O28  1  0.489843  0.510157  0.250000  1
  O  O29  1  0.510157  0.020314  0.750000  1
