# generated using pymatgen
data_Pr8Ta(OsO8)3
_symmetry_space_group_name_H-M   'P 1'
_cell_length_a   5.47751692
_cell_length_b   9.45943187
_cell_length_c   10.32761486
_cell_angle_alpha   89.58889542
_cell_angle_beta   89.85705841
_cell_angle_gamma   90.09030772
_symmetry_Int_Tables_number   1
_chemical_formula_structural   Pr8Ta(OsO8)3
_chemical_formula_sum   'Pr8 Ta1 Os3 O24'
_cell_volume   535.10096231
_cell_formula_units_Z   1
loop_
 _symmetry_equiv_pos_site_id
 _symmetry_equiv_pos_as_xyz
  1  'x, y, z'
loop_
 _atom_site_type_symbol
 _atom_site_label
 _atom_site_symmetry_multiplicity
 _atom_site_fract_x
 _atom_site_fract_y
 _atom_site_fract_z
 _atom_site_occupancy
  Pr  Pr0  1  0.034481  0.216952  0.130725  1
  Pr  Pr1  1  0.466118  0.773795  0.632758  1
  Pr  Pr2  1  0.966665  0.716114  0.371275  1
  Pr  Pr3  1  0.530650  0.287870  0.861786  1
  Pr  Pr4  1  0.026006  0.106503  0.536585  1
  Pr  Pr5  1  0.474339  0.898827  0.038217  1
  Pr  Pr6  1  0.978887  0.603254  0.960393  1
  Pr  Pr7  1  0.524557  0.400182  0.463578  1
  Ta  Ta8  1  0.040689  0.493996  0.648180  1
  Os  Os9  1  0.544209  0.001636  0.354725  1
  Os  Os10  1  0.957329  0.997135  0.854515  1
  Os  Os11  1  0.458297  0.503045  0.145229  1
  O  O12  1  0.435300  0.148446  0.471653  1
  O  O13  1  0.062781  0.853846  0.979529  1
  O  O14  1  0.564157  0.649584  0.024588  1
  O  O15  1  0.922648  0.345191  0.522357  1
  O  O16  1  0.720189  0.390481  0.070912  1
  O  O17  1  0.771367  0.610725  0.560801  1
  O  O18  1  0.282186  0.889950  0.432781  1
  O  O19  1  0.218854  0.108935  0.934182  1
  O  O20  1  0.249936  0.410102  0.009253  1
  O  O21  1  0.251212  0.593134  0.507557  1
  O  O22  1  0.754443  0.912270  0.491269  1
  O  O23  1  0.747454  0.090228  0.989933  1
  O  O24  1  0.194897  0.631734  0.179465  1
  O  O25  1  0.314174  0.357798  0.673553  1
  O  O26  1  0.808017  0.129126  0.317702  1
  O  O27  1  0.695124  0.868176  0.824260  1
  O  O28  1  0.334882  0.054874  0.214736  1
  O  O29  1  0.167423  0.949104  0.717620  1
  O  O30  1  0.666242  0.556506  0.281785  1
  O  O31  1  0.826984  0.451025  0.793849  1
  O  O32  1  0.320382  0.364180  0.256703  1
  O  O33  1  0.190710  0.637019  0.762832  1
  O  O34  1  0.675642  0.862451  0.242341  1
  O  O35  1  0.822768  0.135801  0.742371  1
