# generated using pymatgen
data_LaPrTm2(AsPt)4
_symmetry_space_group_name_H-M   'P 1'
_cell_length_a   4.29812300
_cell_length_b   4.29812127
_cell_length_c   15.93957200
_cell_angle_alpha   90.00000000
_cell_angle_beta   90.00000000
_cell_angle_gamma   120.00000560
_symmetry_Int_Tables_number   1
_chemical_formula_structural   LaPrTm2(AsPt)4
_chemical_formula_sum   'La1 Pr1 Tm2 As4 Pt4'
_cell_volume   255.01443698
_cell_formula_units_Z   1
loop_
 _symmetry_equiv_pos_site_id
 _symmetry_equiv_pos_as_xyz
  1  'x, y, z'
loop_
 _atom_site_type_symbol
 _atom_site_label
 _atom_site_symmetry_multiplicity
 _atom_site_fract_x
 _atom_site_fract_y
 _atom_site_fract_z
 _atom_site_occupancy
  La  La0  1  0.000000  0.000000  0.500000  1
  Pr  Pr1  1  0.000000  0.000000  0.000000  1
  Tm  Tm2  1  0.000000  0.000000  0.249798  1
  Tm  Tm3  1  0.000000  0.000000  0.750202  1
  As  As4  1  0.333333  0.666667  0.879343  1
  As  As5  1  0.666667  0.333333  0.120657  1
  As  As6  1  0.666667  0.333333  0.378477  1
  As  As7  1  0.333333  0.666667  0.621523  1
  Pt  Pt8  1  0.333333  0.666667  0.354430  1
  Pt  Pt9  1  0.666667  0.333333  0.645570  1
  Pt  Pt10  1  0.666667  0.333333  0.855447  1
  Pt  Pt11  1  0.333333  0.666667  0.144553  1
