# generated using pymatgen
data_Fe3CoSi2(Mo2P)2
_symmetry_space_group_name_H-M   'P 1'
_cell_length_a   3.61266200
_cell_length_b   6.04251008
_cell_length_c   6.85930552
_cell_angle_alpha   90.28367782
_cell_angle_beta   90.00000000
_cell_angle_gamma   90.00000000
_symmetry_Int_Tables_number   1
_chemical_formula_structural   Fe3CoSi2(Mo2P)2
_chemical_formula_sum   'Fe3 Co1 Si2 Mo4 P2'
_cell_volume   149.73369385
_cell_formula_units_Z   1
loop_
 _symmetry_equiv_pos_site_id
 _symmetry_equiv_pos_as_xyz
  1  'x, y, z'
loop_
 _atom_site_type_symbol
 _atom_site_label
 _atom_site_symmetry_multiplicity
 _atom_site_fract_x
 _atom_site_fract_y
 _atom_site_fract_z
 _atom_site_occupancy
  Fe  Fe0  1  0.750000  0.640080  0.431457  1
  Fe  Fe1  1  0.250000  0.857308  0.949696  1
  Fe  Fe2  1  0.250000  0.354251  0.551394  1
  Co  Co3  1  0.750000  0.142784  0.067545  1
  Si  Si4  1  0.250000  0.726569  0.623793  1
  Si  Si5  1  0.250000  0.228761  0.876576  1
  Mo  Mo6  1  0.250000  0.477829  0.176634  1
  Mo  Mo7  1  0.250000  0.972026  0.327319  1
  Mo  Mo8  1  0.750000  0.027985  0.670077  1
  Mo  Mo9  1  0.750000  0.527558  0.825735  1
  P  P10  1  0.750000  0.273338  0.379510  1
  P  P11  1  0.750000  0.771510  0.120265  1
