# generated using pymatgen
data_Nd2Zn2IrPd
_symmetry_space_group_name_H-M   'P 1'
_cell_length_a   4.06765300
_cell_length_b   7.38060034
_cell_length_c   16.76194277
_cell_angle_alpha   90.02158780
_cell_angle_beta   90.00000000
_cell_angle_gamma   90.00000000
_symmetry_Int_Tables_number   1
_chemical_formula_structural   Nd2Zn2IrPd
_chemical_formula_sum   'Nd8 Zn8 Ir4 Pd4'
_cell_volume   503.22233542
_cell_formula_units_Z   4
loop_
 _symmetry_equiv_pos_site_id
 _symmetry_equiv_pos_as_xyz
  1  'x, y, z'
loop_
 _atom_site_type_symbol
 _atom_site_label
 _atom_site_symmetry_multiplicity
 _atom_site_fract_x
 _atom_site_fract_y
 _atom_site_fract_z
 _atom_site_occupancy
  Nd  Nd0  1  0.250000  0.172870  0.934785  1
  Nd  Nd1  1  0.250000  0.673201  0.559791  1
  Nd  Nd2  1  0.750000  0.333592  0.436756  1
  Nd  Nd3  1  0.750000  0.953807  0.288672  1
  Nd  Nd4  1  0.750000  0.829959  0.060177  1
  Nd  Nd5  1  0.750000  0.444866  0.218741  1
  Nd  Nd6  1  0.250000  0.045688  0.716124  1
  Nd  Nd7  1  0.250000  0.549146  0.782285  1
  Zn  Zn8  1  0.750000  0.998074  0.560639  1
  Zn  Zn9  1  0.250000  0.619320  0.351762  1
  Zn  Zn10  1  0.750000  0.381196  0.653430  1
  Zn  Zn11  1  0.250000  0.498118  0.061192  1
  Zn  Zn12  1  0.750000  0.500656  0.936896  1
  Zn  Zn13  1  0.250000  0.996372  0.437961  1
  Zn  Zn14  1  0.250000  0.122536  0.154007  1
  Zn  Zn15  1  0.750000  0.882503  0.845994  1
  Ir  Ir16  1  0.750000  0.757656  0.435030  1
  Ir  Ir17  1  0.250000  0.250603  0.314505  1
  Ir  Ir18  1  0.750000  0.251869  0.814998  1
  Ir  Ir19  1  0.750000  0.748081  0.685838  1
  Pd  Pd20  1  0.250000  0.242193  0.565334  1
  Pd  Pd21  1  0.250000  0.746598  0.185240  1
  Pd  Pd22  1  0.750000  0.256348  0.065218  1
  Pd  Pd23  1  0.250000  0.744745  0.934623  1
