# generated using pymatgen
data_Sr2TbGaO5
_symmetry_space_group_name_H-M   'P 1'
_cell_length_a   5.99014400
_cell_length_b   7.65438340
_cell_length_c   12.53371117
_cell_angle_alpha   91.37335775
_cell_angle_beta   90.00000000
_cell_angle_gamma   90.00000000
_symmetry_Int_Tables_number   1
_chemical_formula_structural   Sr2TbGaO5
_chemical_formula_sum   'Sr8 Tb4 Ga4 O20'
_cell_volume   574.51633989
_cell_formula_units_Z   4
loop_
 _symmetry_equiv_pos_site_id
 _symmetry_equiv_pos_as_xyz
  1  'x, y, z'
loop_
 _atom_site_type_symbol
 _atom_site_label
 _atom_site_symmetry_multiplicity
 _atom_site_fract_x
 _atom_site_fract_y
 _atom_site_fract_z
 _atom_site_occupancy
  Sr  Sr0  1  0.772923  0.487011  0.330221  1
  Sr  Sr1  1  0.727077  0.987011  0.830221  1
  Sr  Sr2  1  0.227077  0.512989  0.669779  1
  Sr  Sr3  1  0.272923  0.012989  0.169779  1
  Sr  Sr4  1  0.772356  0.985470  0.367189  1
  Sr  Sr5  1  0.727644  0.485470  0.867189  1
  Sr  Sr6  1  0.227644  0.014530  0.632811  1
  Sr  Sr7  1  0.272356  0.514530  0.132811  1
  Tb  Tb8  1  0.754754  0.271023  0.619609  1
  Tb  Tb9  1  0.745246  0.771023  0.119609  1
  Tb  Tb10  1  0.245246  0.728977  0.380391  1
  Tb  Tb11  1  0.254754  0.228977  0.880391  1
  Ga  Ga12  1  0.719796  0.742312  0.580137  1
  Ga  Ga13  1  0.780204  0.242312  0.080137  1
  Ga  Ga14  1  0.280204  0.257688  0.419863  1
  Ga  Ga15  1  0.219796  0.757688  0.919863  1
  O  O16  1  0.790029  0.970259  0.628930  1
  O  O17  1  0.709971  0.470259  0.128930  1
  O  O18  1  0.209971  0.029741  0.371070  1
  O  O19  1  0.290029  0.529741  0.871070  1
  O  O20  1  0.716553  0.067873  0.176979  1
  O  O21  1  0.783447  0.567873  0.676979  1
  O  O22  1  0.283447  0.932127  0.823021  1
  O  O23  1  0.216553  0.432127  0.323021  1
  O  O24  1  0.541920  0.747519  0.275684  1
  O  O25  1  0.958080  0.247519  0.775684  1
  O  O26  1  0.458080  0.252481  0.724316  1
  O  O27  1  0.041920  0.752481  0.224316  1
  O  O28  1  0.597997  0.213104  0.960116  1
  O  O29  1  0.902003  0.713104  0.460116  1
  O  O30  1  0.402003  0.786896  0.039884  1
  O  O31  1  0.097997  0.286896  0.539884  1
  O  O32  1  0.089029  0.237319  0.047304  1
  O  O33  1  0.410971  0.737319  0.547304  1
  O  O34  1  0.910971  0.762681  0.952696  1
  O  O35  1  0.589029  0.262681  0.452696  1
