# generated using pymatgen
data_Sr3Dy(Ni12P5)2
_symmetry_space_group_name_H-M   'P 1'
_cell_length_a   3.62902200
_cell_length_b   10.95033445
_cell_length_c   13.26476285
_cell_angle_alpha   71.91685851
_cell_angle_beta   90.00000000
_cell_angle_gamma   90.00000000
_symmetry_Int_Tables_number   1
_chemical_formula_structural   Sr3Dy(Ni12P5)2
_chemical_formula_sum   'Sr3 Dy1 Ni24 P10'
_cell_volume   501.09207000
_cell_formula_units_Z   1
loop_
 _symmetry_equiv_pos_site_id
 _symmetry_equiv_pos_as_xyz
  1  'x, y, z'
loop_
 _atom_site_type_symbol
 _atom_site_label
 _atom_site_symmetry_multiplicity
 _atom_site_fract_x
 _atom_site_fract_y
 _atom_site_fract_z
 _atom_site_occupancy
  Sr  Sr0  1  0.250000  0.746518  0.188023  1
  Sr  Sr1  1  0.750000  0.251396  0.812980  1
  Sr  Sr2  1  0.250000  0.781840  0.682379  1
  Dy  Dy3  1  0.750000  0.221501  0.317797  1
  Ni  Ni4  1  0.250000  0.570255  0.014176  1
  Ni  Ni5  1  0.250000  0.567261  0.447673  1
  Ni  Ni6  1  0.750000  0.504688  0.341557  1
  Ni  Ni7  1  0.250000  0.492214  0.658696  1
  Ni  Ni8  1  0.750000  0.507124  0.151790  1
  Ni  Ni9  1  0.250000  0.486555  0.850530  1
  Ni  Ni10  1  0.750000  0.433990  0.550000  1
  Ni  Ni11  1  0.250000  0.338905  0.140317  1
  Ni  Ni12  1  0.750000  0.653312  0.560676  1
  Ni  Ni13  1  0.250000  0.341624  0.436111  1
  Ni  Ni14  1  0.750000  0.908109  0.303743  1
  Ni  Ni15  1  0.250000  0.095387  0.693256  1
  Ni  Ni16  1  0.750000  0.917286  0.991211  1
  Ni  Ni17  1  0.250000  0.080083  0.011071  1
  Ni  Ni18  1  0.750000  0.929161  0.486727  1
  Ni  Ni19  1  0.250000  0.085916  0.504375  1
  Ni  Ni20  1  0.750000  0.943156  0.795641  1
  Ni  Ni21  1  0.250000  0.068971  0.205618  1
  Ni  Ni22  1  0.250000  0.790124  0.438058  1
  Ni  Ni23  1  0.750000  0.214659  0.557182  1
  Ni  Ni24  1  0.250000  0.797244  0.917324  1
  Ni  Ni25  1  0.750000  0.200678  0.087193  1
  Ni  Ni26  1  0.750000  0.647955  0.867724  1
  Ni  Ni27  1  0.750000  0.424707  0.989153  1
  P  P28  1  0.250000  0.007057  0.871654  1
  P  P29  1  0.750000  0.992547  0.128613  1
  P  P30  1  0.250000  0.297431  0.987703  1
  P  P31  1  0.750000  0.699009  0.014828  1
  P  P32  1  0.250000  0.445053  0.261235  1
  P  P33  1  0.750000  0.548518  0.739634  1
  P  P34  1  0.250000  0.997823  0.377334  1
  P  P35  1  0.750000  0.009749  0.620150  1
  P  P36  1  0.250000  0.310876  0.609619  1
  P  P37  1  0.750000  0.691319  0.388250  1
