# generated using pymatgen
data_NdDy7(InPt)2
_symmetry_space_group_name_H-M   'P 1'
_cell_length_a   9.77380546
_cell_length_b   9.77380515
_cell_length_c   9.76614000
_cell_angle_alpha   60.02593955
_cell_angle_beta   60.02594059
_cell_angle_gamma   59.94811987
_symmetry_Int_Tables_number   1
_chemical_formula_structural   NdDy7(InPt)2
_chemical_formula_sum   'Nd2 Dy14 In4 Pt4'
_cell_volume   659.68222362
_cell_formula_units_Z   2
loop_
 _symmetry_equiv_pos_site_id
 _symmetry_equiv_pos_as_xyz
  1  'x, y, z'
loop_
 _atom_site_type_symbol
 _atom_site_label
 _atom_site_symmetry_multiplicity
 _atom_site_fract_x
 _atom_site_fract_y
 _atom_site_fract_z
 _atom_site_occupancy
  Nd  Nd0  1  0.566622  0.566622  0.933378  1
  Nd  Nd1  1  0.933378  0.933378  0.566622  1
  Dy  Dy2  1  0.350854  0.350854  0.350074  1
  Dy  Dy3  1  0.350854  0.350854  0.948216  1
  Dy  Dy4  1  0.350074  0.948216  0.350854  1
  Dy  Dy5  1  0.948216  0.350074  0.350854  1
  Dy  Dy6  1  0.810238  0.189762  0.189762  1
  Dy  Dy7  1  0.189762  0.810238  0.810238  1
  Dy  Dy8  1  0.189762  0.810238  0.189762  1
  Dy  Dy9  1  0.810238  0.189762  0.810238  1
  Dy  Dy10  1  0.189924  0.189924  0.810076  1
  Dy  Dy11  1  0.810076  0.810076  0.189924  1
  Dy  Dy12  1  0.939130  0.560870  0.560870  1
  Dy  Dy13  1  0.560870  0.939130  0.939130  1
  Dy  Dy14  1  0.560870  0.939130  0.560870  1
  Dy  Dy15  1  0.939130  0.560870  0.939130  1
  In  In16  1  0.583009  0.583009  0.579887  1
  In  In17  1  0.583009  0.583009  0.254095  1
  In  In18  1  0.579887  0.254095  0.583009  1
  In  In19  1  0.254095  0.579887  0.583009  1
  Pt  Pt20  1  0.144000  0.144000  0.140441  1
  Pt  Pt21  1  0.144000  0.144000  0.571559  1
  Pt  Pt22  1  0.140441  0.571559  0.144000  1
  Pt  Pt23  1  0.571559  0.140441  0.144000  1
