# generated using pymatgen
data_LiHo2CoNi19P6
_symmetry_space_group_name_H-M   'P 1'
_cell_length_a   7.88347695
_cell_length_b   7.90678227
_cell_length_c   7.88347600
_cell_angle_alpha   60.09745067
_cell_angle_beta   59.99999557
_cell_angle_gamma   60.09745696
_symmetry_Int_Tables_number   1
_chemical_formula_structural   LiHo2CoNi19P6
_chemical_formula_sum   'Li1 Ho2 Co1 Ni19 P6'
_cell_volume   347.98335663
_cell_formula_units_Z   1
loop_
 _symmetry_equiv_pos_site_id
 _symmetry_equiv_pos_as_xyz
  1  'x, y, z'
loop_
 _atom_site_type_symbol
 _atom_site_label
 _atom_site_symmetry_multiplicity
 _atom_site_fract_x
 _atom_site_fract_y
 _atom_site_fract_z
 _atom_site_occupancy
  Li  Li0  1  0.999372  0.001884  0.999372  1
  Ho  Ho1  1  0.748923  0.753232  0.748923  1
  Ho  Ho2  1  0.252657  0.242029  0.252657  1
  Co  Co3  1  0.388189  0.835430  0.388189  1
  Ni  Ni4  1  0.385942  0.386969  0.841144  1
  Ni  Ni5  1  0.349242  0.000373  0.650722  1
  Ni  Ni6  1  0.998911  0.352495  0.649683  1
  Ni  Ni7  1  0.158464  0.610834  0.615352  1
  Ni  Ni8  1  0.650722  0.000373  0.999664  1
  Ni  Ni9  1  0.841144  0.386969  0.385942  1
  Ni  Ni10  1  0.649683  0.352495  0.998911  1
  Ni  Ni11  1  0.998911  0.352495  0.998911  1
  Ni  Ni12  1  0.347678  0.651271  0.000525  1
  Ni  Ni13  1  0.999664  0.000373  0.349242  1
  Ni  Ni14  1  0.612539  0.162384  0.612539  1
  Ni  Ni15  1  0.650722  0.000373  0.349242  1
  Ni  Ni16  1  0.000525  0.651271  0.000525  1
  Ni  Ni17  1  0.615352  0.610834  0.158464  1
  Ni  Ni18  1  0.000525  0.651271  0.347678  1
  Ni  Ni19  1  0.349242  0.000373  0.999664  1
  Ni  Ni20  1  0.999664  0.000373  0.650722  1
  Ni  Ni21  1  0.385942  0.386969  0.385942  1
  Ni  Ni22  1  0.615352  0.610834  0.615352  1
  P  P23  1  0.260819  0.260400  0.739390  1
  P  P24  1  0.263134  0.738965  0.263134  1
  P  P25  1  0.739390  0.260400  0.260819  1
  P  P26  1  0.263134  0.738965  0.734767  1
  P  P27  1  0.739390  0.260400  0.739390  1
  P  P28  1  0.734767  0.738965  0.263134  1
