# generated using pymatgen
data_HoThMoC2
_symmetry_space_group_name_H-M   'P 1'
_cell_length_a   5.23996700
_cell_length_b   6.77983600
_cell_length_c   9.98419800
_cell_angle_alpha   90.00000000
_cell_angle_beta   90.00000000
_cell_angle_gamma   90.00000000
_symmetry_Int_Tables_number   1
_chemical_formula_structural   HoThMoC2
_chemical_formula_sum   'Ho4 Th4 Mo4 C8'
_cell_volume   354.69978535
_cell_formula_units_Z   4
loop_
 _symmetry_equiv_pos_site_id
 _symmetry_equiv_pos_as_xyz
  1  'x, y, z'
loop_
 _atom_site_type_symbol
 _atom_site_label
 _atom_site_symmetry_multiplicity
 _atom_site_fract_x
 _atom_site_fract_y
 _atom_site_fract_z
 _atom_site_occupancy
  Ho  Ho0  1  0.250000  0.829464  0.056512  1
  Ho  Ho1  1  0.750000  0.670536  0.556512  1
  Ho  Ho2  1  0.250000  0.329464  0.443488  1
  Ho  Ho3  1  0.750000  0.170536  0.943488  1
  Th  Th4  1  0.250000  0.464679  0.786574  1
  Th  Th5  1  0.750000  0.035321  0.286574  1
  Th  Th6  1  0.250000  0.964679  0.713426  1
  Th  Th7  1  0.750000  0.535321  0.213426  1
  Mo  Mo8  1  0.250000  0.279342  0.132124  1
  Mo  Mo9  1  0.750000  0.220658  0.632124  1
  Mo  Mo10  1  0.250000  0.779342  0.367876  1
  Mo  Mo11  1  0.750000  0.720658  0.867876  1
  C  C12  1  0.250000  0.169312  0.945875  1
  C  C13  1  0.750000  0.830688  0.054125  1
  C  C14  1  0.250000  0.669312  0.554125  1
  C  C15  1  0.750000  0.330688  0.445875  1
  C  C16  1  0.250000  0.049482  0.260556  1
  C  C17  1  0.750000  0.450518  0.760556  1
  C  C18  1  0.250000  0.549482  0.239444  1
  C  C19  1  0.750000  0.950518  0.739444  1
