# generated using pymatgen
data_Ho2Er4PdRh
_symmetry_space_group_name_H-M   'P 1'
_cell_length_a   6.36967700
_cell_length_b   7.07080500
_cell_length_c   9.42740500
_cell_angle_alpha   90.00000000
_cell_angle_beta   90.00000000
_cell_angle_gamma   90.00000000
_symmetry_Int_Tables_number   1
_chemical_formula_structural   Ho2Er4PdRh
_chemical_formula_sum   'Ho4 Er8 Pd2 Rh2'
_cell_volume   424.59848019
_cell_formula_units_Z   2
loop_
 _symmetry_equiv_pos_site_id
 _symmetry_equiv_pos_as_xyz
  1  'x, y, z'
loop_
 _atom_site_type_symbol
 _atom_site_label
 _atom_site_symmetry_multiplicity
 _atom_site_fract_x
 _atom_site_fract_y
 _atom_site_fract_z
 _atom_site_occupancy
  Ho  Ho0  1  0.862239  0.974321  0.750000  1
  Ho  Ho1  1  0.362239  0.525679  0.250000  1
  Ho  Ho2  1  0.627100  0.466712  0.750000  1
  Ho  Ho3  1  0.127100  0.033288  0.250000  1
  Er  Er4  1  0.675575  0.184970  0.060134  1
  Er  Er5  1  0.175575  0.315030  0.939866  1
  Er  Er6  1  0.829353  0.677111  0.437924  1
  Er  Er7  1  0.329353  0.822889  0.562076  1
  Er  Er8  1  0.329353  0.822889  0.937924  1
  Er  Er9  1  0.829353  0.677111  0.062076  1
  Er  Er10  1  0.175575  0.315030  0.560134  1
  Er  Er11  1  0.675575  0.184970  0.439866  1
  Pd  Pd12  1  0.054689  0.611237  0.750000  1
  Pd  Pd13  1  0.554689  0.888763  0.250000  1
  Rh  Rh14  1  0.446115  0.114254  0.750000  1
  Rh  Rh15  1  0.946115  0.385746  0.250000  1
