# generated using pymatgen
data_CaAc3(InPt)4
_symmetry_space_group_name_H-M   'P 1'
_cell_length_a   4.66381900
_cell_length_b   7.52306930
_cell_length_c   8.64001348
_cell_angle_alpha   91.04484250
_cell_angle_beta   90.00000000
_cell_angle_gamma   90.00000000
_symmetry_Int_Tables_number   1
_chemical_formula_structural   CaAc3(InPt)4
_chemical_formula_sum   'Ca1 Ac3 In4 Pt4'
_cell_volume   303.09512698
_cell_formula_units_Z   1
loop_
 _symmetry_equiv_pos_site_id
 _symmetry_equiv_pos_as_xyz
  1  'x, y, z'
loop_
 _atom_site_type_symbol
 _atom_site_label
 _atom_site_symmetry_multiplicity
 _atom_site_fract_x
 _atom_site_fract_y
 _atom_site_fract_z
 _atom_site_occupancy
  Ca  Ca0  1  0.750000  0.465140  0.816650  1
  Ac  Ac1  1  0.250000  0.034287  0.317425  1
  Ac  Ac2  1  0.250000  0.532294  0.174954  1
  Ac  Ac3  1  0.750000  0.963301  0.682106  1
  In  In4  1  0.750000  0.360737  0.445507  1
  In  In5  1  0.250000  0.155099  0.933085  1
  In  In6  1  0.750000  0.851254  0.057681  1
  In  In7  1  0.250000  0.635885  0.569900  1
  Pt  Pt8  1  0.750000  0.234924  0.124787  1
  Pt  Pt9  1  0.750000  0.735442  0.374164  1
  Pt  Pt10  1  0.250000  0.768546  0.880427  1
  Pt  Pt11  1  0.250000  0.263091  0.623315  1
