# generated using pymatgen
data_Yb2DyEr(Ga2Ag)4
_symmetry_space_group_name_H-M   'P 1'
_cell_length_a   4.35571100
_cell_length_b   6.97581957
_cell_length_c   10.35362059
_cell_angle_alpha   90.71452459
_cell_angle_beta   90.00000000
_cell_angle_gamma   90.00000000
_symmetry_Int_Tables_number   1
_chemical_formula_structural   Yb2DyEr(Ga2Ag)4
_chemical_formula_sum   'Yb2 Dy1 Er1 Ga8 Ag4'
_cell_volume   314.56671726
_cell_formula_units_Z   1
loop_
 _symmetry_equiv_pos_site_id
 _symmetry_equiv_pos_as_xyz
  1  'x, y, z'
loop_
 _atom_site_type_symbol
 _atom_site_label
 _atom_site_symmetry_multiplicity
 _atom_site_fract_x
 _atom_site_fract_y
 _atom_site_fract_z
 _atom_site_occupancy
  Yb  Yb0  1  0.750000  0.724093  0.328031  1
  Yb  Yb1  1  0.250000  0.275927  0.671835  1
  Dy  Dy2  1  0.250000  0.776952  0.828306  1
  Er  Er3  1  0.750000  0.223095  0.171570  1
  Ga  Ga4  1  0.250000  0.701957  0.535026  1
  Ga  Ga5  1  0.750000  0.297772  0.464660  1
  Ga  Ga6  1  0.750000  0.797161  0.035675  1
  Ga  Ga7  1  0.250000  0.203146  0.964672  1
  Ga  Ga8  1  0.250000  0.928471  0.151241  1
  Ga  Ga9  1  0.750000  0.072277  0.848889  1
  Ga  Ga10  1  0.750000  0.572368  0.652311  1
  Ga  Ga11  1  0.250000  0.427425  0.347451  1
  Ag  Ag12  1  0.250000  0.542670  0.099154  1
  Ag  Ag13  1  0.750000  0.456635  0.901285  1
  Ag  Ag14  1  0.750000  0.959417  0.598667  1
  Ag  Ag15  1  0.250000  0.040633  0.401228  1
