# generated using pymatgen
data_CuPtRhSe4
_symmetry_space_group_name_H-M   'P 1'
_cell_length_a   7.42885820
_cell_length_b   7.45665745
_cell_length_c   7.42885753
_cell_angle_alpha   59.87613445
_cell_angle_beta   59.69205490
_cell_angle_gamma   59.87613315
_symmetry_Int_Tables_number   1
_chemical_formula_structural   CuPtRhSe4
_chemical_formula_sum   'Cu2 Pt2 Rh2 Se8'
_cell_volume   289.76137525
_cell_formula_units_Z   2
loop_
 _symmetry_equiv_pos_site_id
 _symmetry_equiv_pos_as_xyz
  1  'x, y, z'
loop_
 _atom_site_type_symbol
 _atom_site_label
 _atom_site_symmetry_multiplicity
 _atom_site_fract_x
 _atom_site_fract_y
 _atom_site_fract_z
 _atom_site_occupancy
  Cu  Cu0  1  0.496488  0.503512  0.496488  1
  Cu  Cu1  1  0.753512  0.746488  0.753512  1
  Pt  Pt2  1  0.125000  0.125000  0.125000  1
  Pt  Pt3  1  0.125000  0.625000  0.125000  1
  Rh  Rh4  1  0.125000  0.125000  0.625000  1
  Rh  Rh5  1  0.625000  0.125000  0.125000  1
  Se  Se6  1  0.343429  0.887290  0.881992  1
  Se  Se7  1  0.366458  0.360558  0.366458  1
  Se  Se8  1  0.906571  0.362710  0.368008  1
  Se  Se9  1  0.881992  0.887290  0.343429  1
  Se  Se10  1  0.883542  0.889442  0.883542  1
  Se  Se11  1  0.366458  0.906525  0.366458  1
  Se  Se12  1  0.368008  0.362710  0.906571  1
  Se  Se13  1  0.883542  0.343475  0.883542  1
