# generated using pymatgen
data_Sc5Ti2P12Ir12Ru5
_symmetry_space_group_name_H-M   'P 1'
_cell_length_a   12.66002302
_cell_length_b   12.67563281
_cell_length_c   3.88332500
_cell_angle_alpha   90.00000000
_cell_angle_beta   90.00000000
_cell_angle_gamma   120.72881304
_symmetry_Int_Tables_number   1
_chemical_formula_structural   Sc5Ti2P12Ir12Ru5
_chemical_formula_sum   'Sc5 Ti2 P12 Ir12 Ru5'
_cell_volume   535.67573801
_cell_formula_units_Z   1
loop_
 _symmetry_equiv_pos_site_id
 _symmetry_equiv_pos_as_xyz
  1  'x, y, z'
loop_
 _atom_site_type_symbol
 _atom_site_label
 _atom_site_symmetry_multiplicity
 _atom_site_fract_x
 _atom_site_fract_y
 _atom_site_fract_z
 _atom_site_occupancy
  Sc  Sc0  1  0.329102  0.665766  0.000000  1
  Sc  Sc1  1  0.667074  0.332006  0.000000  1
  Sc  Sc2  1  0.811184  0.997004  0.500000  1
  Sc  Sc3  1  0.998863  0.809513  0.500000  1
  Sc  Sc4  1  0.192729  0.193975  0.500000  1
  Ti  Ti5  1  0.447526  0.006713  0.000000  1
  Ti  Ti6  1  0.001686  0.444768  0.000000  1
  P  P7  1  0.173101  0.996816  0.000000  1
  P  P8  1  0.004709  0.176681  0.000000  1
  P  P9  1  0.817833  0.817236  0.000000  1
  P  P10  1  0.171674  0.482232  0.500000  1
  P  P11  1  0.516262  0.692223  0.500000  1
  P  P12  1  0.311541  0.833811  0.500000  1
  P  P13  1  0.694184  0.518031  0.500000  1
  P  P14  1  0.832546  0.312884  0.500000  1
  P  P15  1  0.484211  0.173578  0.500000  1
  P  P16  1  0.638261  0.991942  0.000000  1
  P  P17  1  0.000052  0.642846  0.000000  1
  P  P18  1  0.359212  0.364528  0.000000  1
  Ir  Ir19  1  0.363155  0.494805  0.500000  1
  Ir  Ir20  1  0.511299  0.875283  0.500000  1
  Ir  Ir21  1  0.134091  0.639653  0.500000  1
  Ir  Ir22  1  0.873548  0.509388  0.500000  1
  Ir  Ir23  1  0.640112  0.138081  0.500000  1
  Ir  Ir24  1  0.497708  0.363040  0.500000  1
  Ir  Ir25  1  0.817935  0.183983  0.000000  1
  Ir  Ir26  1  0.373064  0.186541  0.000000  1
  Ir  Ir27  1  0.278757  0.005632  0.500000  1
  Ir  Ir28  1  0.999289  0.276417  0.500000  1
  Ir  Ir29  1  0.714362  0.713676  0.500000  1
  Ir  Ir30  1  0.996278  0.996179  0.000000  1
  Ru  Ru31  1  0.547581  0.544355  0.000000  1
  Ru  Ru32  1  0.182156  0.376025  0.000000  1
  Ru  Ru33  1  0.620302  0.798837  0.000000  1
  Ru  Ru34  1  0.194433  0.822006  0.000000  1
  Ru  Ru35  1  0.804182  0.623549  0.000000  1
