# generated using pymatgen
data_Nb7Fe4Co4Si14W
_symmetry_space_group_name_H-M   'P 1'
_cell_length_a   9.18434268
_cell_length_b   9.18703514
_cell_length_c   9.18434335
_cell_angle_alpha   94.37298882
_cell_angle_beta   94.12738048
_cell_angle_gamma   148.37573307
_symmetry_Int_Tables_number   1
_chemical_formula_structural   Nb7Fe4Co4Si14W
_chemical_formula_sum   'Nb7 Fe4 Co4 Si14 W1'
_cell_volume   391.02095996
_cell_formula_units_Z   1
loop_
 _symmetry_equiv_pos_site_id
 _symmetry_equiv_pos_as_xyz
  1  'x, y, z'
loop_
 _atom_site_type_symbol
 _atom_site_label
 _atom_site_symmetry_multiplicity
 _atom_site_fract_x
 _atom_site_fract_y
 _atom_site_fract_z
 _atom_site_occupancy
  Nb  Nb0  1  0.690696  0.500000  0.190696  1
  Nb  Nb1  1  0.500231  0.691966  0.192375  1
  Nb  Nb2  1  0.500410  0.308034  0.808265  1
  Nb  Nb3  1  0.134916  0.134508  0.268546  1
  Nb  Nb4  1  0.864824  0.865911  0.730714  1
  Nb  Nb5  1  0.134040  0.865492  0.000408  1
  Nb  Nb6  1  0.864802  0.134089  0.998913  1
  Fe  Fe7  1  0.399752  0.897784  0.798669  1
  Fe  Fe8  1  0.100732  0.600167  0.200445  1
  Fe  Fe9  1  0.900886  0.102216  0.501968  1
  Fe  Fe10  1  0.600277  0.399833  0.500564  1
  Co  Co11  1  0.599927  0.099200  0.199599  1
  Co  Co12  1  0.901416  0.399870  0.799411  1
  Co  Co13  1  0.100397  0.900800  0.500726  1
  Co  Co14  1  0.399542  0.600130  0.501545  1
  Si  Si15  1  0.292457  0.293487  0.586131  1
  Si  Si16  1  0.708373  0.708275  0.416379  1
  Si  Si17  1  0.292646  0.706513  0.998970  1
  Si  Si18  1  0.708104  0.291725  0.000098  1
  Si  Si19  1  0.094944  0.500000  0.594944  1
  Si  Si20  1  0.905171  0.500000  0.405171  1
  Si  Si21  1  0.499727  0.905631  0.405407  1
  Si  Si22  1  0.499776  0.094369  0.594096  1
  Si  Si23  1  0.248303  0.249768  0.998508  1
  Si  Si24  1  0.748740  0.750232  0.998535  1
  Si  Si25  1  0.297400  0.000000  0.297400  1
  Si  Si26  1  0.702856  0.000000  0.702856  1
  Si  Si27  1  0.999893  0.702661  0.702587  1
  Si  Si28  1  0.999927  0.297339  0.297233  1
  W  W29  1  0.308836  0.500000  0.808836  1
