# generated using pymatgen
data_Tb2ErCoSn3Pt2
_symmetry_space_group_name_H-M   'P 1'
_cell_length_a   7.62639139
_cell_length_b   7.64597064
_cell_length_c   3.76014900
_cell_angle_alpha   90.00000000
_cell_angle_beta   90.00000000
_cell_angle_gamma   120.08496735
_symmetry_Int_Tables_number   1
_chemical_formula_structural   Tb2ErCoSn3Pt2
_chemical_formula_sum   'Tb2 Er1 Co1 Sn3 Pt2'
_cell_volume   189.72079139
_cell_formula_units_Z   1
loop_
 _symmetry_equiv_pos_site_id
 _symmetry_equiv_pos_as_xyz
  1  'x, y, z'
loop_
 _atom_site_type_symbol
 _atom_site_label
 _atom_site_symmetry_multiplicity
 _atom_site_fract_x
 _atom_site_fract_y
 _atom_site_fract_z
 _atom_site_occupancy
  Tb  Tb0  1  0.402496  0.402552  0.500000  1
  Tb  Tb1  1  0.597504  0.000056  0.500000  1
  Er  Er2  1  0.000000  0.597905  0.500000  1
  Co  Co3  1  0.000000  0.999306  0.500000  1
  Sn  Sn4  1  0.751240  0.749577  0.000000  1
  Sn  Sn5  1  0.248760  0.998338  0.000000  1
  Sn  Sn6  1  0.000000  0.250741  0.000000  1
  Pt  Pt7  1  0.669339  0.335431  0.000000  1
  Pt  Pt8  1  0.330661  0.666093  0.000000  1
