# generated using pymatgen
data_Ta3Cr2SiN
_symmetry_space_group_name_H-M   'P 1'
_cell_length_a   8.08448500
_cell_length_b   8.08450924
_cell_length_c   8.08460600
_cell_angle_alpha   120.00047518
_cell_angle_beta   89.99954643
_cell_angle_gamma   120.00009114
_symmetry_Int_Tables_number   1
_chemical_formula_structural   Ta3Cr2SiN
_chemical_formula_sum   'Ta12 Cr8 Si4 N4'
_cell_volume   373.63528638
_cell_formula_units_Z   4
loop_
 _symmetry_equiv_pos_site_id
 _symmetry_equiv_pos_as_xyz
  1  'x, y, z'
loop_
 _atom_site_type_symbol
 _atom_site_label
 _atom_site_symmetry_multiplicity
 _atom_site_fract_x
 _atom_site_fract_y
 _atom_site_fract_z
 _atom_site_occupancy
  Ta  Ta0  1  0.320955  0.749966  0.179040  1
  Ta  Ta1  1  0.929017  0.358047  0.179029  1
  Ta  Ta2  1  0.928990  0.749967  0.179031  1
  Ta  Ta3  1  0.679043  0.250010  0.429049  1
  Ta  Ta4  1  0.679009  0.858042  0.429036  1
  Ta  Ta5  1  0.070943  0.250001  0.429036  1
  Ta  Ta6  1  0.320957  0.141932  0.570998  1
  Ta  Ta7  1  0.320962  0.749993  0.570970  1
  Ta  Ta8  1  0.929011  0.749995  0.570980  1
  Ta  Ta9  1  0.070951  0.249984  0.820986  1
  Ta  Ta10  1  0.679017  0.249993  0.820983  1
  Ta  Ta11  1  0.070937  0.641914  0.820956  1
  Cr  Cr12  1  0.702864  0.905713  0.108542  1
  Cr  Cr13  1  0.297221  0.094332  0.202880  1
  Cr  Cr14  1  0.297212  0.405785  0.202879  1
  Cr  Cr15  1  0.608641  0.405762  0.202866  1
  Cr  Cr16  1  0.391414  0.594261  0.797087  1
  Cr  Cr17  1  0.702862  0.594268  0.797089  1
  Cr  Cr18  1  0.702862  0.905721  0.797093  1
  Cr  Cr19  1  0.297220  0.094333  0.891434  1
  Si  Si20  1  0.999976  0.999999  0.999988  1
  Si  Si21  1  0.500012  0.000013  0.999995  1
  Si  Si22  1  0.499988  0.499982  0.000019  1
  Si  Si23  1  0.500011  0.500029  0.500011  1
  N  N24  1  0.999975  0.500000  0.000011  1
  N  N25  1  0.999984  0.999976  0.499993  1
  N  N26  1  0.499992  0.000004  0.500010  1
  N  N27  1  0.999972  0.499986  0.500007  1
