# generated using pymatgen
data_Lu10InBiPb4
_symmetry_space_group_name_H-M   'P 1'
_cell_length_a   6.48100205
_cell_length_b   8.85759143
_cell_length_c   8.89441848
_cell_angle_alpha   119.89945889
_cell_angle_beta   89.98940299
_cell_angle_gamma   90.00535145
_symmetry_Int_Tables_number   1
_chemical_formula_structural   Lu10InBiPb4
_chemical_formula_sum   'Lu10 In1 Bi1 Pb4'
_cell_volume   442.63432271
_cell_formula_units_Z   1
loop_
 _symmetry_equiv_pos_site_id
 _symmetry_equiv_pos_as_xyz
  1  'x, y, z'
loop_
 _atom_site_type_symbol
 _atom_site_label
 _atom_site_symmetry_multiplicity
 _atom_site_fract_x
 _atom_site_fract_y
 _atom_site_fract_z
 _atom_site_occupancy
  Lu  Lu0  1  0.750026  0.233451  0.995944  1
  Lu  Lu1  1  0.750157  0.765596  0.772370  1
  Lu  Lu2  1  0.750168  0.989447  0.229941  1
  Lu  Lu3  1  0.250064  0.766178  0.999603  1
  Lu  Lu4  1  0.250142  0.234859  0.233571  1
  Lu  Lu5  1  0.250100  0.001079  0.766019  1
  Lu  Lu6  1  0.500276  0.336411  0.673655  1
  Lu  Lu7  1  0.500252  0.669599  0.328265  1
  Lu  Lu8  1  0.999753  0.669932  0.328513  1
  Lu  Lu9  1  0.999634  0.336237  0.673470  1
  In  In10  1  0.749773  0.599720  0.998487  1
  Bi  Bi11  1  0.750095  0.390348  0.391021  1
  Pb  Pb12  1  0.749585  0.998113  0.604882  1
  Pb  Pb13  1  0.249622  0.396512  0.002516  1
  Pb  Pb14  1  0.250027  0.606795  0.604374  1
  Pb  Pb15  1  0.250325  0.005724  0.397368  1
