# generated using pymatgen
data_Dy4Y12MgCd3Pt4
_symmetry_space_group_name_H-M   'P 1'
_cell_length_a   9.72879984
_cell_length_b   9.72879977
_cell_length_c   9.72880011
_cell_angle_alpha   60.01394753
_cell_angle_beta   60.01394895
_cell_angle_gamma   60.01394446
_symmetry_Int_Tables_number   1
_chemical_formula_structural   Dy4Y12MgCd3Pt4
_chemical_formula_sum   'Dy4 Y12 Mg1 Cd3 Pt4'
_cell_volume   651.32854488
_cell_formula_units_Z   1
loop_
 _symmetry_equiv_pos_site_id
 _symmetry_equiv_pos_as_xyz
  1  'x, y, z'
loop_
 _atom_site_type_symbol
 _atom_site_label
 _atom_site_symmetry_multiplicity
 _atom_site_fract_x
 _atom_site_fract_y
 _atom_site_fract_z
 _atom_site_occupancy
  Dy  Dy0  1  0.349750  0.349750  0.349750  1
  Dy  Dy1  1  0.353538  0.353538  0.943880  1
  Dy  Dy2  1  0.353538  0.943880  0.353538  1
  Dy  Dy3  1  0.943880  0.353538  0.353538  1
  Y  Y4  1  0.809273  0.191828  0.191828  1
  Y  Y5  1  0.188391  0.811546  0.811546  1
  Y  Y6  1  0.191828  0.809273  0.191828  1
  Y  Y7  1  0.811546  0.188391  0.811546  1
  Y  Y8  1  0.191828  0.191828  0.809273  1
  Y  Y9  1  0.811546  0.811546  0.188391  1
  Y  Y10  1  0.936330  0.565068  0.565068  1
  Y  Y11  1  0.562433  0.937377  0.937377  1
  Y  Y12  1  0.565068  0.936330  0.565068  1
  Y  Y13  1  0.937377  0.562433  0.937377  1
  Y  Y14  1  0.565068  0.565068  0.936330  1
  Y  Y15  1  0.937377  0.937377  0.562433  1
  Mg  Mg16  1  0.575998  0.575998  0.575998  1
  Cd  Cd17  1  0.581316  0.581316  0.254080  1
  Cd  Cd18  1  0.581316  0.254080  0.581316  1
  Cd  Cd19  1  0.254080  0.581316  0.581316  1
  Pt  Pt20  1  0.144458  0.144458  0.144458  1
  Pt  Pt21  1  0.142454  0.142454  0.569152  1
  Pt  Pt22  1  0.142454  0.569152  0.142454  1
  Pt  Pt23  1  0.569152  0.142454  0.142454  1
