# generated using pymatgen
data_Cs3V4Cr3O16
_symmetry_space_group_name_H-M   'P 1'
_cell_length_a   5.17831393
_cell_length_b   7.52103579
_cell_length_c   11.73385914
_cell_angle_alpha   102.83785195
_cell_angle_beta   90.36464532
_cell_angle_gamma   94.99597782
_symmetry_Int_Tables_number   1
_chemical_formula_structural   Cs3V4Cr3O16
_chemical_formula_sum   'Cs3 V4 Cr3 O16'
_cell_volume   443.71836260
_cell_formula_units_Z   1
loop_
 _symmetry_equiv_pos_site_id
 _symmetry_equiv_pos_as_xyz
  1  'x, y, z'
loop_
 _atom_site_type_symbol
 _atom_site_label
 _atom_site_symmetry_multiplicity
 _atom_site_fract_x
 _atom_site_fract_y
 _atom_site_fract_z
 _atom_site_occupancy
  Cs  Cs0  1  0.881211  0.261026  0.515434  1
  Cs  Cs1  1  0.000000  0.000000  0.000000  1
  Cs  Cs2  1  0.118789  0.738974  0.484566  1
  V  V3  1  0.481711  0.671384  0.761598  1
  V  V4  1  0.529761  0.862212  0.231830  1
  V  V5  1  0.518289  0.328616  0.238402  1
  V  V6  1  0.470239  0.137788  0.768170  1
  Cr  Cr7  1  0.009382  0.555842  0.131337  1
  Cr  Cr8  1  0.990618  0.444158  0.868663  1
  Cr  Cr9  1  0.500000  0.500000  0.000000  1
  O  O10  1  0.677566  0.594474  0.866524  1
  O  O11  1  0.786544  0.225716  0.760675  1
  O  O12  1  0.322434  0.405526  0.133476  1
  O  O13  1  0.379342  0.360795  0.367207  1
  O  O14  1  0.302778  0.295314  0.875734  1
  O  O15  1  0.620658  0.639205  0.632793  1
  O  O16  1  0.821697  0.448560  0.257866  1
  O  O17  1  0.336393  0.105664  0.635269  1
  O  O18  1  0.697222  0.704686  0.124266  1
  O  O19  1  0.454514  0.918821  0.813327  1
  O  O20  1  0.184894  0.626370  0.994720  1
  O  O21  1  0.663607  0.894336  0.364731  1
  O  O22  1  0.213456  0.774284  0.239325  1
  O  O23  1  0.545486  0.081179  0.186673  1
  O  O24  1  0.815106  0.373630  0.005280  1
  O  O25  1  0.178303  0.551440  0.742134  1
