# generated using pymatgen
data_BaSrSb4F24
_symmetry_space_group_name_H-M   'P 1'
_cell_length_a   10.64757981
_cell_length_b   10.64757985
_cell_length_c   10.64757900
_cell_angle_alpha   131.67727046
_cell_angle_beta   131.67727785
_cell_angle_gamma   70.73922001
_symmetry_Int_Tables_number   1
_chemical_formula_structural   BaSrSb4F24
_chemical_formula_sum   'Ba1 Sr1 Sb4 F24'
_cell_volume   659.63265978
_cell_formula_units_Z   1
loop_
 _symmetry_equiv_pos_site_id
 _symmetry_equiv_pos_as_xyz
  1  'x, y, z'
loop_
 _atom_site_type_symbol
 _atom_site_label
 _atom_site_symmetry_multiplicity
 _atom_site_fract_x
 _atom_site_fract_y
 _atom_site_fract_z
 _atom_site_occupancy
  Ba  Ba0  1  0.000192  0.999972  0.000147  1
  Sr  Sr1  1  0.749890  0.250173  0.500080  1
  Sb  Sb2  1  0.772582  0.772824  0.000283  1
  Sb  Sb3  1  0.227237  0.227310  0.999626  1
  Sb  Sb4  1  0.965820  0.465826  0.499815  1
  Sb  Sb5  1  0.534254  0.034101  0.500247  1
  F  F6  1  0.855066  0.735180  0.191671  1
  F  F7  1  0.543501  0.663782  0.808716  1
  F  F8  1  0.410968  0.808718  0.297108  1
  F  F9  1  0.336259  0.144868  0.879617  1
  F  F10  1  0.264902  0.456410  0.119855  1
  F  F11  1  0.191149  0.487897  0.601705  1
  F  F12  1  0.661091  0.258149  0.681564  1
  F  F13  1  0.741812  0.423282  0.402807  1
  F  F14  1  0.020321  0.338998  0.597042  1
  F  F15  1  0.111350  0.286588  0.110912  1
  F  F16  1  0.175525  0.000232  0.888761  1
  F  F17  1  0.576738  0.979646  0.318694  1
  F  F18  1  0.713371  0.824571  0.824893  1
  F  F19  1  0.999712  0.888744  0.175426  1
  F  F20  1  0.324599  0.102428  0.352786  1
  F  F21  1  0.897393  0.249833  0.221745  1
  F  F22  1  0.028040  0.675475  0.777824  1
  F  F23  1  0.443036  0.269790  0.264812  1
  F  F24  1  0.004692  0.178013  0.734782  1
  F  F25  1  0.750244  0.971917  0.647657  1
  F  F26  1  0.730125  0.995351  0.173397  1
  F  F27  1  0.821880  0.557030  0.826886  1
  F  F28  1  0.512189  0.113813  0.703423  1
  F  F29  1  0.886064  0.589076  0.397719  1
