# generated using pymatgen
data_Y2Ho14CdIn3Rh4
_symmetry_space_group_name_H-M   'P 1'
_cell_length_a   9.62563242
_cell_length_b   9.62286301
_cell_length_c   9.62417700
_cell_angle_alpha   59.99547946
_cell_angle_beta   60.00499817
_cell_angle_gamma   59.98875304
_symmetry_Int_Tables_number   1
_chemical_formula_structural   Y2Ho14CdIn3Rh4
_chemical_formula_sum   'Y2 Ho14 Cd1 In3 Rh4'
_cell_volume   630.29928304
_cell_formula_units_Z   1
loop_
 _symmetry_equiv_pos_site_id
 _symmetry_equiv_pos_as_xyz
  1  'x, y, z'
loop_
 _atom_site_type_symbol
 _atom_site_label
 _atom_site_symmetry_multiplicity
 _atom_site_fract_x
 _atom_site_fract_y
 _atom_site_fract_z
 _atom_site_occupancy
  Y  Y0  1  0.936635  0.934349  0.564508  1
  Y  Y1  1  0.563590  0.560617  0.937896  1
  Ho  Ho2  1  0.690014  0.690251  0.309868  1
  Ho  Ho3  1  0.148718  0.550035  0.150624  1
  Ho  Ho4  1  0.688977  0.312290  0.688124  1
  Ho  Ho5  1  0.150825  0.150023  0.152602  1
  Ho  Ho6  1  0.549333  0.148647  0.151009  1
  Ho  Ho7  1  0.688977  0.312290  0.310609  1
  Ho  Ho8  1  0.150825  0.150023  0.546548  1
  Ho  Ho9  1  0.310872  0.690497  0.309144  1
  Ho  Ho10  1  0.310872  0.690497  0.689487  1
  Ho  Ho11  1  0.937472  0.560223  0.564530  1
  Ho  Ho12  1  0.937472  0.560223  0.937775  1
  Ho  Ho13  1  0.562339  0.936776  0.562715  1
  Ho  Ho14  1  0.562339  0.936776  0.938170  1
  Ho  Ho15  1  0.311527  0.311054  0.688709  1
  Cd  Cd16  1  0.918567  0.246653  0.917390  1
  In  In17  1  0.916987  0.919052  0.247347  1
  In  In18  1  0.247135  0.920152  0.916357  1
  In  In19  1  0.916987  0.919052  0.916615  1
  Rh  Rh20  1  0.357122  0.357681  0.927524  1
  Rh  Rh21  1  0.358536  0.926437  0.357514  1
  Rh  Rh22  1  0.926757  0.358718  0.357262  1
  Rh  Rh23  1  0.357122  0.357681  0.357673  1
