# generated using pymatgen
data_CaEu2Ho(SiPd2)4
_symmetry_space_group_name_H-M   'P 1'
_cell_length_a   5.62740056
_cell_length_b   6.97112900
_cell_length_c   7.48852271
_cell_angle_alpha   90.00000000
_cell_angle_beta   90.05046040
_cell_angle_gamma   90.00000000
_symmetry_Int_Tables_number   1
_chemical_formula_structural   CaEu2Ho(SiPd2)4
_chemical_formula_sum   'Ca1 Eu2 Ho1 Si4 Pd8'
_cell_volume   293.76965378
_cell_formula_units_Z   1
loop_
 _symmetry_equiv_pos_site_id
 _symmetry_equiv_pos_as_xyz
  1  'x, y, z'
loop_
 _atom_site_type_symbol
 _atom_site_label
 _atom_site_symmetry_multiplicity
 _atom_site_fract_x
 _atom_site_fract_y
 _atom_site_fract_z
 _atom_site_occupancy
  Ca  Ca0  1  0.361526  0.750000  0.026994  1
  Eu  Eu1  1  0.137027  0.750000  0.527633  1
  Eu  Eu2  1  0.635427  0.250000  0.972043  1
  Ho  Ho3  1  0.857270  0.250000  0.474144  1
  Si  Si4  1  0.639486  0.750000  0.374102  1
  Si  Si5  1  0.860813  0.750000  0.878882  1
  Si  Si6  1  0.357655  0.250000  0.621307  1
  Si  Si7  1  0.139136  0.250000  0.127324  1
  Pd  Pd8  1  0.904227  0.551280  0.174883  1
  Pd  Pd9  1  0.604126  0.948285  0.669878  1
  Pd  Pd10  1  0.090942  0.054383  0.825301  1
  Pd  Pd11  1  0.406533  0.445637  0.328724  1
  Pd  Pd12  1  0.090942  0.445617  0.825301  1
  Pd  Pd13  1  0.406533  0.054363  0.328724  1
  Pd  Pd14  1  0.904227  0.948720  0.174883  1
  Pd  Pd15  1  0.604126  0.551715  0.669878  1
