# generated using pymatgen
data_Li2Ta4Se4O19
_symmetry_space_group_name_H-M   'P 1'
_cell_length_a   3.93338560
_cell_length_b   10.13899124
_cell_length_c   11.02965950
_cell_angle_alpha   109.77766495
_cell_angle_beta   91.23605950
_cell_angle_gamma   97.28319201
_symmetry_Int_Tables_number   1
_chemical_formula_structural   Li2Ta4Se4O19
_chemical_formula_sum   'Li2 Ta4 Se4 O19'
_cell_volume   409.60224424
_cell_formula_units_Z   1
loop_
 _symmetry_equiv_pos_site_id
 _symmetry_equiv_pos_as_xyz
  1  'x, y, z'
loop_
 _atom_site_type_symbol
 _atom_site_label
 _atom_site_symmetry_multiplicity
 _atom_site_fract_x
 _atom_site_fract_y
 _atom_site_fract_z
 _atom_site_occupancy
  Li  Li0  1  0.633326  0.928491  0.876058  1
  Li  Li1  1  0.366674  0.071509  0.123942  1
  Ta  Ta2  1  0.350579  0.197090  0.698956  1
  Ta  Ta3  1  0.649421  0.802910  0.301044  1
  Ta  Ta4  1  0.569110  0.567511  0.684748  1
  Ta  Ta5  1  0.430890  0.432489  0.315252  1
  Se  Se6  1  0.348695  0.830824  0.590247  1
  Se  Se7  1  0.651305  0.169176  0.409753  1
  Se  Se8  1  0.277138  0.719378  0.986726  1
  Se  Se9  1  0.722862  0.280622  0.013274  1
  O  O10  1  0.662560  0.878397  0.497255  1
  O  O11  1  0.337440  0.121603  0.502745  1
  O  O12  1  0.312667  0.991863  0.703474  1
  O  O13  1  0.687333  0.008137  0.296526  1
  O  O14  1  0.617680  0.783882  0.690364  1
  O  O15  1  0.382320  0.216118  0.309636  1
  O  O16  1  0.592152  0.674260  0.877984  1
  O  O17  1  0.407848  0.325740  0.122016  1
  O  O18  1  0.589519  0.747698  0.112861  1
  O  O19  1  0.410481  0.252302  0.887139  1
  O  O20  1  0.253637  0.884930  0.988016  1
  O  O21  1  0.746363  0.115070  0.011984  1
  O  O22  1  0.874840  0.189908  0.695317  1
  O  O23  1  0.125160  0.810092  0.304683  1
  O  O24  1  0.467000  0.387701  0.702399  1
  O  O25  1  0.533000  0.612299  0.297601  1
  O  O26  1  0.500000  0.500000  0.500000  1
  O  O27  1  0.052281  0.589844  0.696424  1
  O  O28  1  0.947719  0.410156  0.303576  1
