# generated using pymatgen
data_Ti9NbSn6Se
_symmetry_space_group_name_H-M   'P 1'
_cell_length_a   8.18909000
_cell_length_b   8.18908952
_cell_length_c   5.52844400
_cell_angle_alpha   90.00000000
_cell_angle_beta   90.00000000
_cell_angle_gamma   119.99999385
_symmetry_Int_Tables_number   1
_chemical_formula_structural   Ti9NbSn6Se
_chemical_formula_sum   'Ti9 Nb1 Sn6 Se1'
_cell_volume   321.07377656
_cell_formula_units_Z   1
loop_
 _symmetry_equiv_pos_site_id
 _symmetry_equiv_pos_as_xyz
  1  'x, y, z'
loop_
 _atom_site_type_symbol
 _atom_site_label
 _atom_site_symmetry_multiplicity
 _atom_site_fract_x
 _atom_site_fract_y
 _atom_site_fract_z
 _atom_site_occupancy
  Ti  Ti0  1  0.333333  0.666667  0.500000  1
  Ti  Ti1  1  0.333333  0.666667  0.000000  1
  Ti  Ti2  1  0.666667  0.333333  0.000000  1
  Ti  Ti3  1  0.744473  0.744076  0.237671  1
  Ti  Ti4  1  0.255924  0.000397  0.237671  1
  Ti  Ti5  1  0.999603  0.255527  0.237671  1
  Ti  Ti6  1  0.255924  0.255527  0.762329  1
  Ti  Ti7  1  0.744473  0.000397  0.762329  1
  Ti  Ti8  1  0.999603  0.744076  0.762329  1
  Nb  Nb9  1  0.666667  0.333333  0.500000  1
  Sn  Sn10  1  0.391450  0.393160  0.248708  1
  Sn  Sn11  1  0.606840  0.998290  0.248708  1
  Sn  Sn12  1  0.001710  0.608550  0.248708  1
  Sn  Sn13  1  0.606840  0.608550  0.751292  1
  Sn  Sn14  1  0.391450  0.998290  0.751292  1
  Sn  Sn15  1  0.001710  0.393160  0.751292  1
  Se  Se16  1  0.000000  0.000000  0.500000  1
