# generated using pymatgen
data_La3Pr(Si5Pt3)2
_symmetry_space_group_name_H-M   'P 1'
_cell_length_a   8.33271360
_cell_length_b   8.33372026
_cell_length_c   8.33372058
_cell_angle_alpha   136.56133724
_cell_angle_beta   105.78187566
_cell_angle_gamma   90.11152037
_symmetry_Int_Tables_number   1
_chemical_formula_structural   La3Pr(Si5Pt3)2
_chemical_formula_sum   'La3 Pr1 Si10 Pt6'
_cell_volume   365.10395164
_cell_formula_units_Z   1
loop_
 _symmetry_equiv_pos_site_id
 _symmetry_equiv_pos_as_xyz
  1  'x, y, z'
loop_
 _atom_site_type_symbol
 _atom_site_label
 _atom_site_symmetry_multiplicity
 _atom_site_fract_x
 _atom_site_fract_y
 _atom_site_fract_z
 _atom_site_occupancy
  La  La0  1  0.861501  0.628539  0.232961  1
  La  La1  1  0.138450  0.371298  0.767152  1
  La  La2  1  0.395879  0.128802  0.267077  1
  Pr  Pr3  1  0.604337  0.871822  0.732515  1
  Si  Si4  1  0.499891  0.749730  0.249972  1
  Si  Si5  1  0.499891  0.249918  0.750161  1
  Si  Si6  1  0.229923  0.980017  0.750343  1
  Si  Si7  1  0.770379  0.521041  0.750376  1
  Si  Si8  1  0.770379  0.020002  0.249338  1
  Si  Si9  1  0.229923  0.479580  0.249905  1
  Si  Si10  1  0.034373  0.886378  0.147995  1
  Si  Si11  1  0.964664  0.112822  0.851842  1
  Si  Si12  1  0.738471  0.386321  0.352150  1
  Si  Si13  1  0.261824  0.613913  0.647911  1
  Pt  Pt14  1  0.999610  0.749874  0.749855  1
  Pt  Pt15  1  0.999610  0.249755  0.249737  1
  Pt  Pt16  1  0.254838  0.863798  0.391041  1
  Pt  Pt17  1  0.745310  0.135873  0.609436  1
  Pt  Pt18  1  0.473794  0.363902  0.109892  1
  Pt  Pt19  1  0.526955  0.636616  0.890339  1
