# generated using pymatgen
data_InCuSb2(SeO3)8
_symmetry_space_group_name_H-M   'P 1'
_cell_length_a   8.33467975
_cell_length_b   8.19189572
_cell_length_c   8.32012800
_cell_angle_alpha   89.29398031
_cell_angle_beta   89.68777773
_cell_angle_gamma   90.11889233
_symmetry_Int_Tables_number   1
_chemical_formula_structural   InCuSb2(SeO3)8
_chemical_formula_sum   'In1 Cu1 Sb2 Se8 O24'
_cell_volume   568.01907821
_cell_formula_units_Z   1
loop_
 _symmetry_equiv_pos_site_id
 _symmetry_equiv_pos_as_xyz
  1  'x, y, z'
loop_
 _atom_site_type_symbol
 _atom_site_label
 _atom_site_symmetry_multiplicity
 _atom_site_fract_x
 _atom_site_fract_y
 _atom_site_fract_z
 _atom_site_occupancy
  In  In0  1  0.000000  0.500000  0.000000  1
  Cu  Cu1  1  0.500000  0.500000  0.500000  1
  Sb  Sb2  1  0.000000  0.000000  0.500000  1
  Sb  Sb3  1  0.500000  0.000000  0.000000  1
  Se  Se4  1  0.344554  0.659205  0.181528  1
  Se  Se5  1  0.820262  0.339609  0.346742  1
  Se  Se6  1  0.666118  0.813978  0.664935  1
  Se  Se7  1  0.173086  0.160567  0.829694  1
  Se  Se8  1  0.655446  0.340795  0.818472  1
  Se  Se9  1  0.179738  0.660391  0.653258  1
  Se  Se10  1  0.333882  0.186022  0.335065  1
  Se  Se11  1  0.826914  0.839433  0.170306  1
  O  O12  1  0.254026  0.541720  0.041106  1
  O  O13  1  0.739106  0.467960  0.486939  1
  O  O14  1  0.761816  0.963419  0.539956  1
  O  O15  1  0.262333  0.008373  0.954956  1
  O  O16  1  0.540320  0.956892  0.762148  1
  O  O17  1  0.479206  0.521413  0.260043  1
  O  O18  1  0.954565  0.468010  0.255018  1
  O  O19  1  0.038482  0.021176  0.738660  1
  O  O20  1  0.962751  0.240172  0.480859  1
  O  O21  1  0.533301  0.744978  0.527252  1
  O  O22  1  0.488527  0.761124  0.047536  1
  O  O23  1  0.047120  0.239927  0.966567  1
  O  O24  1  0.745974  0.458280  0.958894  1
  O  O25  1  0.260894  0.532040  0.513061  1
  O  O26  1  0.238184  0.036581  0.460044  1
  O  O27  1  0.737667  0.991627  0.045044  1
  O  O28  1  0.459680  0.043108  0.237852  1
  O  O29  1  0.520794  0.478587  0.739957  1
  O  O30  1  0.045435  0.531990  0.744982  1
  O  O31  1  0.961518  0.978824  0.261340  1
  O  O32  1  0.037249  0.759828  0.519141  1
  O  O33  1  0.466699  0.255022  0.472748  1
  O  O34  1  0.511473  0.238876  0.952464  1
  O  O35  1  0.952880  0.760073  0.033433  1
