# generated using pymatgen
data_Y7Er3(In2Au)4
_symmetry_space_group_name_H-M   'P 1'
_cell_length_a   3.66418800
_cell_length_b   8.25700822
_cell_length_c   18.40676764
_cell_angle_alpha   90.11656458
_cell_angle_beta   90.00000000
_cell_angle_gamma   90.00000000
_symmetry_Int_Tables_number   1
_chemical_formula_structural   Y7Er3(In2Au)4
_chemical_formula_sum   'Y7 Er3 In8 Au4'
_cell_volume   556.89984402
_cell_formula_units_Z   1
loop_
 _symmetry_equiv_pos_site_id
 _symmetry_equiv_pos_as_xyz
  1  'x, y, z'
loop_
 _atom_site_type_symbol
 _atom_site_label
 _atom_site_symmetry_multiplicity
 _atom_site_fract_x
 _atom_site_fract_y
 _atom_site_fract_z
 _atom_site_occupancy
  Y  Y0  1  0.000000  0.499704  0.500203  1
  Y  Y1  1  0.000000  0.000783  0.999576  1
  Y  Y2  1  0.000000  0.733914  0.284980  1
  Y  Y3  1  0.000000  0.266229  0.715140  1
  Y  Y4  1  0.000000  0.766064  0.784184  1
  Y  Y5  1  0.000000  0.234415  0.215914  1
  Y  Y6  1  0.000000  0.621267  0.079365  1
  Er  Er7  1  0.000000  0.379314  0.919109  1
  Er  Er8  1  0.000000  0.879826  0.580313  1
  Er  Er9  1  0.000000  0.119855  0.419877  1
  In  In10  1  0.500000  0.706966  0.933942  1
  In  In11  1  0.500000  0.292351  0.065095  1
  In  In12  1  0.500000  0.792381  0.435410  1
  In  In13  1  0.500000  0.206209  0.565091  1
  In  In14  1  0.500000  0.584347  0.647426  1
  In  In15  1  0.500000  0.416192  0.352779  1
  In  In16  1  0.500000  0.918396  0.148113  1
  In  In17  1  0.500000  0.083007  0.852310  1
  Au  Au18  1  0.500000  0.526440  0.197041  1
  Au  Au19  1  0.500000  0.472549  0.803867  1
  Au  Au20  1  0.500000  0.972523  0.695472  1
  Au  Au21  1  0.500000  0.027267  0.304795  1
