# generated using pymatgen
data_Ho3Zn2Pt3Au
_symmetry_space_group_name_H-M   'P 1'
_cell_length_a   7.29557960
_cell_length_b   7.29557921
_cell_length_c   3.86873900
_cell_angle_alpha   90.00000000
_cell_angle_beta   90.00000000
_cell_angle_gamma   118.96176537
_symmetry_Int_Tables_number   1
_chemical_formula_structural   Ho3Zn2Pt3Au
_chemical_formula_sum   'Ho3 Zn2 Pt3 Au1'
_cell_volume   180.16432017
_cell_formula_units_Z   1
loop_
 _symmetry_equiv_pos_site_id
 _symmetry_equiv_pos_as_xyz
  1  'x, y, z'
loop_
 _atom_site_type_symbol
 _atom_site_label
 _atom_site_symmetry_multiplicity
 _atom_site_fract_x
 _atom_site_fract_y
 _atom_site_fract_z
 _atom_site_occupancy
  Ho  Ho0  1  0.408563  0.408563  0.000000  1
  Ho  Ho1  1  0.600438  0.991527  0.000000  1
  Ho  Ho2  1  0.991527  0.600438  0.000000  1
  Zn  Zn3  1  0.256279  0.000386  0.500000  1
  Zn  Zn4  1  0.000386  0.256279  0.500000  1
  Pt  Pt5  1  0.026740  0.026740  0.000000  1
  Pt  Pt6  1  0.661277  0.314190  0.500000  1
  Pt  Pt7  1  0.314190  0.661277  0.500000  1
  Au  Au8  1  0.740599  0.740599  0.500000  1
