# generated using pymatgen
data_Ba4GaTcN6
_symmetry_space_group_name_H-M   'P 1'
_cell_length_a   6.67950214
_cell_length_b   6.67950068
_cell_length_c   13.17297800
_cell_angle_alpha   90.00000000
_cell_angle_beta   90.00000000
_cell_angle_gamma   126.61182355
_symmetry_Int_Tables_number   1
_chemical_formula_structural   Ba4GaTcN6
_chemical_formula_sum   'Ba8 Ga2 Tc2 N12'
_cell_volume   471.76129075
_cell_formula_units_Z   2
loop_
 _symmetry_equiv_pos_site_id
 _symmetry_equiv_pos_as_xyz
  1  'x, y, z'
loop_
 _atom_site_type_symbol
 _atom_site_label
 _atom_site_symmetry_multiplicity
 _atom_site_fract_x
 _atom_site_fract_y
 _atom_site_fract_z
 _atom_site_occupancy
  Ba  Ba0  1  0.860926  0.139074  0.427733  1
  Ba  Ba1  1  0.359643  0.640357  0.084542  1
  Ba  Ba2  1  0.639074  0.360926  0.927733  1
  Ba  Ba3  1  0.140357  0.859643  0.584542  1
  Ba  Ba4  1  0.452981  0.547019  0.637069  1
  Ba  Ba5  1  0.567493  0.432507  0.352192  1
  Ba  Ba6  1  0.047019  0.952981  0.137069  1
  Ba  Ba7  1  0.932507  0.067493  0.852192  1
  Ga  Ga8  1  0.761851  0.238149  0.652883  1
  Ga  Ga9  1  0.738149  0.261851  0.152883  1
  Tc  Tc10  1  0.244254  0.755746  0.334036  1
  Tc  Tc11  1  0.255746  0.744254  0.834036  1
  N  N12  1  0.976305  0.525465  0.758485  1
  N  N13  1  0.523695  0.974535  0.258485  1
  N  N14  1  0.025465  0.476305  0.258485  1
  N  N15  1  0.474535  0.023695  0.758485  1
  N  N16  1  0.404667  0.595333  0.868290  1
  N  N17  1  0.578365  0.421635  0.133793  1
  N  N18  1  0.095333  0.904667  0.368290  1
  N  N19  1  0.654677  0.345323  0.545272  1
  N  N20  1  0.166306  0.833694  0.947220  1
  N  N21  1  0.845323  0.154677  0.045272  1
  N  N22  1  0.333694  0.666306  0.447220  1
  N  N23  1  0.921635  0.078365  0.633793  1
