# generated using pymatgen
data_Tb10SiAgSn6
_symmetry_space_group_name_H-M   'P 1'
_cell_length_a   9.22118200
_cell_length_b   9.22118298
_cell_length_c   6.69569500
_cell_angle_alpha   90.00000000
_cell_angle_beta   90.00000000
_cell_angle_gamma   119.99999647
_symmetry_Int_Tables_number   1
_chemical_formula_structural   Tb10SiAgSn6
_chemical_formula_sum   'Tb10 Si1 Ag1 Sn6'
_cell_volume   493.05974155
_cell_formula_units_Z   1
loop_
 _symmetry_equiv_pos_site_id
 _symmetry_equiv_pos_as_xyz
  1  'x, y, z'
loop_
 _atom_site_type_symbol
 _atom_site_label
 _atom_site_symmetry_multiplicity
 _atom_site_fract_x
 _atom_site_fract_y
 _atom_site_fract_z
 _atom_site_occupancy
  Tb  Tb0  1  0.666667  0.333333  0.000000  1
  Tb  Tb1  1  0.333333  0.666667  0.000000  1
  Tb  Tb2  1  0.333333  0.666667  0.500000  1
  Tb  Tb3  1  0.666667  0.333333  0.500000  1
  Tb  Tb4  1  0.742314  0.742314  0.730922  1
  Tb  Tb5  1  0.257686  0.000000  0.730922  1
  Tb  Tb6  1  0.000000  0.257686  0.730922  1
  Tb  Tb7  1  0.257686  0.257686  0.269078  1
  Tb  Tb8  1  0.742314  0.000000  0.269078  1
  Tb  Tb9  1  0.000000  0.742314  0.269078  1
  Si  Si10  1  0.000000  0.000000  0.500000  1
  Ag  Ag11  1  0.000000  0.000000  0.000000  1
  Sn  Sn12  1  0.390328  0.390328  0.753548  1
  Sn  Sn13  1  0.609672  0.000000  0.753548  1
  Sn  Sn14  1  0.000000  0.609672  0.753548  1
  Sn  Sn15  1  0.609672  0.609672  0.246452  1
  Sn  Sn16  1  0.390328  0.000000  0.246452  1
  Sn  Sn17  1  0.000000  0.390328  0.246452  1
