# generated using pymatgen
data_Ta4BeSb2
_symmetry_space_group_name_H-M   'P 1'
_cell_length_a   7.71535237
_cell_length_b   7.71535285
_cell_length_c   7.71535263
_cell_angle_alpha   96.07241700
_cell_angle_beta   95.36998407
_cell_angle_gamma   143.19009694
_symmetry_Int_Tables_number   1
_chemical_formula_structural   Ta4BeSb2
_chemical_formula_sum   'Ta8 Be2 Sb4'
_cell_volume   261.09503925
_cell_formula_units_Z   2
loop_
 _symmetry_equiv_pos_site_id
 _symmetry_equiv_pos_as_xyz
  1  'x, y, z'
loop_
 _atom_site_type_symbol
 _atom_site_label
 _atom_site_symmetry_multiplicity
 _atom_site_fract_x
 _atom_site_fract_y
 _atom_site_fract_z
 _atom_site_occupancy
  Ta  Ta0  1  0.918932  0.802382  0.721310  1
  Ta  Ta1  1  0.803137  0.081201  0.884340  1
  Ta  Ta2  1  0.418928  0.697618  0.116550  1
  Ta  Ta3  1  0.581072  0.302382  0.883450  1
  Ta  Ta4  1  0.696862  0.581201  0.278065  1
  Ta  Ta5  1  0.303138  0.418799  0.721935  1
  Ta  Ta6  1  0.196863  0.918799  0.115660  1
  Ta  Ta7  1  0.081068  0.197618  0.278690  1
  Be  Be8  1  0.250000  0.250000  0.000000  1
  Be  Be9  1  0.750000  0.750000  0.000000  1
  Sb  Sb10  1  0.640031  0.860102  0.500136  1
  Sb  Sb11  1  0.140034  0.639898  0.779928  1
  Sb  Sb12  1  0.859966  0.360102  0.220071  1
  Sb  Sb13  1  0.359969  0.139898  0.499864  1
