# generated using pymatgen
data_Er2GaCoIr
_symmetry_space_group_name_H-M   'P 1'
_cell_length_a   4.09026475
_cell_length_b   5.58465154
_cell_length_c   5.41344705
_cell_angle_alpha   121.05180746
_cell_angle_beta   112.19670540
_cell_angle_gamma   89.99999798
_symmetry_Int_Tables_number   1
_chemical_formula_structural   Er2GaCoIr
_chemical_formula_sum   'Er2 Ga1 Co1 Ir1'
_cell_volume   95.08097022
_cell_formula_units_Z   1
loop_
 _symmetry_equiv_pos_site_id
 _symmetry_equiv_pos_as_xyz
  1  'x, y, z'
loop_
 _atom_site_type_symbol
 _atom_site_label
 _atom_site_symmetry_multiplicity
 _atom_site_fract_x
 _atom_site_fract_y
 _atom_site_fract_z
 _atom_site_occupancy
  Er  Er0  1  0.796003  0.294717  0.592005  1
  Er  Er1  1  0.203997  0.702712  0.407995  1
  Ga  Ga2  1  0.000000  0.984092  0.000000  1
  Co  Co3  1  0.500000  0.735669  0.000000  1
  Ir  Ir4  1  0.500000  0.282811  0.000000  1
