# generated using pymatgen
data_Zr3Sc5(V3Si4)4
_symmetry_space_group_name_H-M   'P 1'
_cell_length_a   6.63331510
_cell_length_b   6.63404345
_cell_length_c   12.27560099
_cell_angle_alpha   90.04198157
_cell_angle_beta   89.98087846
_cell_angle_gamma   90.00433933
_symmetry_Int_Tables_number   1
_chemical_formula_structural   Zr3Sc5(V3Si4)4
_chemical_formula_sum   'Zr3 Sc5 V12 Si16'
_cell_volume   540.19624507
_cell_formula_units_Z   1
loop_
 _symmetry_equiv_pos_site_id
 _symmetry_equiv_pos_as_xyz
  1  'x, y, z'
loop_
 _atom_site_type_symbol
 _atom_site_label
 _atom_site_symmetry_multiplicity
 _atom_site_fract_x
 _atom_site_fract_y
 _atom_site_fract_z
 _atom_site_occupancy
  Zr  Zr0  1  0.002529  0.661197  0.030006  1
  Zr  Zr1  1  0.838681  0.502744  0.280428  1
  Zr  Zr2  1  0.160673  0.497202  0.779964  1
  Sc  Sc3  1  0.501233  0.837705  0.720075  1
  Sc  Sc4  1  0.498560  0.161933  0.220413  1
  Sc  Sc5  1  0.998278  0.338087  0.529400  1
  Sc  Sc6  1  0.662392  0.001185  0.970138  1
  Sc  Sc7  1  0.338150  0.998272  0.470078  1
  V  V8  1  0.330553  0.333428  0.999988  1
  V  V9  1  0.166619  0.830852  0.250050  1
  V  V10  1  0.833627  0.169411  0.750006  1
  V  V11  1  0.668522  0.667769  0.500219  1
  V  V12  1  0.005910  0.157848  0.126076  1
  V  V13  1  0.342984  0.506330  0.375900  1
  V  V14  1  0.657835  0.494106  0.876160  1
  V  V15  1  0.506155  0.344318  0.623940  1
  V  V16  1  0.493841  0.656974  0.123350  1
  V  V17  1  0.993147  0.842845  0.626792  1
  V  V18  1  0.157070  0.005759  0.873444  1
  V  V19  1  0.843163  0.992989  0.373069  1
  Si  Si20  1  0.294659  0.961357  0.064635  1
  Si  Si21  1  0.538286  0.795025  0.314911  1
  Si  Si22  1  0.461264  0.205043  0.814409  1
  Si  Si23  1  0.792048  0.540813  0.684469  1
  Si  Si24  1  0.209872  0.457814  0.185970  1
  Si  Si25  1  0.706314  0.039772  0.564442  1
  Si  Si26  1  0.957590  0.289906  0.935673  1
  Si  Si27  1  0.041319  0.707860  0.436549  1
  Si  Si28  1  0.702433  0.368843  0.070623  1
  Si  Si29  1  0.130497  0.202778  0.320419  1
  Si  Si30  1  0.868466  0.797238  0.820347  1
  Si  Si31  1  0.204690  0.127961  0.678938  1
  Si  Si32  1  0.793979  0.873371  0.179575  1
  Si  Si33  1  0.297080  0.630517  0.570302  1
  Si  Si34  1  0.373540  0.705872  0.929270  1
  Si  Si35  1  0.628041  0.294876  0.429973  1
