# generated using pymatgen
data_Y11In5(HgRh)4
_symmetry_space_group_name_H-M   'P 1'
_cell_length_a   13.05799307
_cell_length_b   13.05799321
_cell_length_c   3.75265300
_cell_angle_alpha   90.00000000
_cell_angle_beta   90.00000000
_cell_angle_gamma   113.11811527
_symmetry_Int_Tables_number   1
_chemical_formula_structural   Y11In5(HgRh)4
_chemical_formula_sum   'Y11 In5 Hg4 Rh4'
_cell_volume   588.48614381
_cell_formula_units_Z   1
loop_
 _symmetry_equiv_pos_site_id
 _symmetry_equiv_pos_as_xyz
  1  'x, y, z'
loop_
 _atom_site_type_symbol
 _atom_site_label
 _atom_site_symmetry_multiplicity
 _atom_site_fract_x
 _atom_site_fract_y
 _atom_site_fract_z
 _atom_site_occupancy
  Y  Y0  1  0.082813  0.420720  0.000000  1
  Y  Y1  1  0.917187  0.579280  0.000000  1
  Y  Y2  1  0.420720  0.082813  0.000000  1
  Y  Y3  1  0.579280  0.917187  0.000000  1
  Y  Y4  1  0.627792  0.372208  0.000000  1
  Y  Y5  1  0.372208  0.627792  0.000000  1
  Y  Y6  1  0.833815  0.166185  0.000000  1
  Y  Y7  1  0.166185  0.833815  0.000000  1
  Y  Y8  1  0.000000  0.000000  0.000000  1
  Y  Y9  1  0.311211  0.311211  0.000000  1
  Y  Y10  1  0.688789  0.688789  0.000000  1
  In  In11  1  0.074112  0.217251  0.500000  1
  In  In12  1  0.925888  0.782749  0.500000  1
  In  In13  1  0.217251  0.074112  0.500000  1
  In  In14  1  0.782749  0.925888  0.500000  1
  In  In15  1  0.500000  0.500000  0.500000  1
  Hg  Hg16  1  0.845471  0.367546  0.500000  1
  Hg  Hg17  1  0.154529  0.632454  0.500000  1
  Hg  Hg18  1  0.367546  0.845471  0.500000  1
  Hg  Hg19  1  0.632454  0.154529  0.500000  1
  Rh  Rh20  1  0.249086  0.446679  0.500000  1
  Rh  Rh21  1  0.750914  0.553321  0.500000  1
  Rh  Rh22  1  0.446679  0.249086  0.500000  1
  Rh  Rh23  1  0.553321  0.750914  0.500000  1
