# generated using pymatgen
data_Ca3Pr17(Ga2Bi)4
_symmetry_space_group_name_H-M   'P 1'
_cell_length_a   8.24267300
_cell_length_b   8.24267300
_cell_length_c   14.27150800
_cell_angle_alpha   90.00000000
_cell_angle_beta   90.00000000
_cell_angle_gamma   90.00000000
_symmetry_Int_Tables_number   1
_chemical_formula_structural   Ca3Pr17(Ga2Bi)4
_chemical_formula_sum   'Ca3 Pr17 Ga8 Bi4'
_cell_volume   969.62991832
_cell_formula_units_Z   1
loop_
 _symmetry_equiv_pos_site_id
 _symmetry_equiv_pos_as_xyz
  1  'x, y, z'
loop_
 _atom_site_type_symbol
 _atom_site_label
 _atom_site_symmetry_multiplicity
 _atom_site_fract_x
 _atom_site_fract_y
 _atom_site_fract_z
 _atom_site_occupancy
  Ca  Ca0  1  0.000000  0.500000  0.745346  1
  Ca  Ca1  1  0.000000  0.500000  0.248784  1
  Ca  Ca2  1  0.500000  0.000000  0.250712  1
  Pr  Pr3  1  0.834001  0.837992  0.605803  1
  Pr  Pr4  1  0.162912  0.835833  0.106840  1
  Pr  Pr5  1  0.162447  0.836295  0.393127  1
  Pr  Pr6  1  0.837553  0.163705  0.393127  1
  Pr  Pr7  1  0.663705  0.662447  0.393127  1
  Pr  Pr8  1  0.662008  0.334001  0.605803  1
  Pr  Pr9  1  0.337992  0.665999  0.605803  1
  Pr  Pr10  1  0.664167  0.662912  0.106840  1
  Pr  Pr11  1  0.664126  0.339658  0.893460  1
  Pr  Pr12  1  0.839658  0.835874  0.893460  1
  Pr  Pr13  1  0.336295  0.337553  0.393127  1
  Pr  Pr14  1  0.165999  0.162008  0.605803  1
  Pr  Pr15  1  0.837088  0.164167  0.106840  1
  Pr  Pr16  1  0.335874  0.660342  0.893460  1
  Pr  Pr17  1  0.335833  0.337088  0.106840  1
  Pr  Pr18  1  0.160342  0.164126  0.893460  1
  Pr  Pr19  1  0.500000  0.000000  0.764017  1
  Ga  Ga20  1  0.626515  0.373151  0.250314  1
  Ga  Ga21  1  0.128504  0.873543  0.747929  1
  Ga  Ga22  1  0.373543  0.371496  0.747929  1
  Ga  Ga23  1  0.373485  0.626849  0.250314  1
  Ga  Ga24  1  0.873151  0.873485  0.250314  1
  Ga  Ga25  1  0.626457  0.628504  0.747929  1
  Ga  Ga26  1  0.871496  0.126457  0.747929  1
  Ga  Ga27  1  0.126849  0.126515  0.250314  1
  Bi  Bi28  1  0.000000  0.500000  0.499311  1
  Bi  Bi29  1  0.500000  0.000000  0.499571  1
  Bi  Bi30  1  0.500000  0.000000  0.002865  1
  Bi  Bi31  1  0.000000  0.500000  0.999509  1
