# generated using pymatgen
data_Sr6TaV3S16
_symmetry_space_group_name_H-M   'P 1'
_cell_length_a   10.95481381
_cell_length_b   10.95481293
_cell_length_c   10.95481400
_cell_angle_alpha   51.64257105
_cell_angle_beta   51.64256802
_cell_angle_gamma   51.64257234
_symmetry_Int_Tables_number   1
_chemical_formula_structural   Sr6TaV3S16
_chemical_formula_sum   'Sr6 Ta1 V3 S16'
_cell_volume   746.76778635
_cell_formula_units_Z   1
loop_
 _symmetry_equiv_pos_site_id
 _symmetry_equiv_pos_as_xyz
  1  'x, y, z'
loop_
 _atom_site_type_symbol
 _atom_site_label
 _atom_site_symmetry_multiplicity
 _atom_site_fract_x
 _atom_site_fract_y
 _atom_site_fract_z
 _atom_site_occupancy
  Sr  Sr0  1  0.743173  0.437646  0.066954  1
  Sr  Sr1  1  0.573408  0.929942  0.249068  1
  Sr  Sr2  1  0.066954  0.743173  0.437647  1
  Sr  Sr3  1  0.929943  0.249068  0.573408  1
  Sr  Sr4  1  0.437647  0.066955  0.743172  1
  Sr  Sr5  1  0.249068  0.573408  0.929943  1
  Ta  Ta6  1  0.159570  0.159570  0.159570  1
  V  V7  1  0.340347  0.340347  0.340347  1
  V  V8  1  0.659822  0.659822  0.659822  1
  V  V9  1  0.840019  0.840019  0.840019  1
  S  S10  1  0.617559  0.785155  0.040513  1
  S  S11  1  0.078843  0.078843  0.078843  1
  S  S12  1  0.544175  0.279197  0.121838  1
  S  S13  1  0.942996  0.388013  0.228331  1
  S  S14  1  0.121838  0.544174  0.279197  1
  S  S15  1  0.228330  0.942997  0.388013  1
  S  S16  1  0.416974  0.416974  0.416974  1
  S  S17  1  0.719569  0.879500  0.457004  1
  S  S18  1  0.279197  0.121838  0.544175  1
  S  S19  1  0.583505  0.583505  0.583505  1
  S  S20  1  0.785155  0.040513  0.617559  1
  S  S21  1  0.879500  0.457005  0.719569  1
  S  S22  1  0.040513  0.617559  0.785155  1
  S  S23  1  0.457005  0.719569  0.879500  1
  S  S24  1  0.916875  0.916875  0.916875  1
  S  S25  1  0.388014  0.228330  0.942996  1
