# generated using pymatgen
data_Tb3Lu(HfPt)4
_symmetry_space_group_name_H-M   'P 1'
_cell_length_a   4.65852700
_cell_length_b   7.10685310
_cell_length_c   8.21978463
_cell_angle_alpha   89.91990903
_cell_angle_beta   90.00000000
_cell_angle_gamma   90.00000000
_symmetry_Int_Tables_number   1
_chemical_formula_structural   Tb3Lu(HfPt)4
_chemical_formula_sum   'Tb3 Lu1 Hf4 Pt4'
_cell_volume   272.13598280
_cell_formula_units_Z   1
loop_
 _symmetry_equiv_pos_site_id
 _symmetry_equiv_pos_as_xyz
  1  'x, y, z'
loop_
 _atom_site_type_symbol
 _atom_site_label
 _atom_site_symmetry_multiplicity
 _atom_site_fract_x
 _atom_site_fract_y
 _atom_site_fract_z
 _atom_site_occupancy
  Tb  Tb0  1  0.250000  0.484409  0.177126  1
  Tb  Tb1  1  0.750000  0.015982  0.679483  1
  Tb  Tb2  1  0.250000  0.984445  0.321658  1
  Lu  Lu3  1  0.750000  0.517330  0.821964  1
  Hf  Hf4  1  0.750000  0.644858  0.423765  1
  Hf  Hf5  1  0.250000  0.354880  0.579949  1
  Hf  Hf6  1  0.750000  0.146735  0.076382  1
  Hf  Hf7  1  0.250000  0.853392  0.921845  1
  Pt  Pt8  1  0.750000  0.271580  0.405454  1
  Pt  Pt9  1  0.250000  0.726240  0.596600  1
  Pt  Pt10  1  0.750000  0.770564  0.091678  1
  Pt  Pt11  1  0.250000  0.229585  0.904096  1
