# generated using pymatgen
data_NaPbIO6
_symmetry_space_group_name_H-M   'P 1'
_cell_length_a   5.49238500
_cell_length_b   5.49238444
_cell_length_c   10.76321000
_cell_angle_alpha   90.00000000
_cell_angle_beta   90.00000000
_cell_angle_gamma   120.00000941
_symmetry_Int_Tables_number   1
_chemical_formula_structural   NaPbIO6
_chemical_formula_sum   'Na2 Pb2 I2 O12'
_cell_volume   281.18639559
_cell_formula_units_Z   2
loop_
 _symmetry_equiv_pos_site_id
 _symmetry_equiv_pos_as_xyz
  1  'x, y, z'
loop_
 _atom_site_type_symbol
 _atom_site_label
 _atom_site_symmetry_multiplicity
 _atom_site_fract_x
 _atom_site_fract_y
 _atom_site_fract_z
 _atom_site_occupancy
  Na  Na0  1  0.000000  0.000000  0.000000  1
  Na  Na1  1  0.000000  0.000000  0.500000  1
  Pb  Pb2  1  0.666667  0.333333  0.250000  1
  Pb  Pb3  1  0.333333  0.666667  0.750000  1
  I  I4  1  0.333333  0.666667  0.250000  1
  I  I5  1  0.666667  0.333333  0.750000  1
  O  O6  1  0.649003  0.609209  0.646270  1
  O  O7  1  0.649003  0.039794  0.853730  1
  O  O8  1  0.960206  0.609209  0.853730  1
  O  O9  1  0.390791  0.350997  0.853730  1
  O  O10  1  0.039794  0.390791  0.353730  1
  O  O11  1  0.390791  0.039794  0.646270  1
  O  O12  1  0.350997  0.960206  0.353730  1
  O  O13  1  0.350997  0.390791  0.146270  1
  O  O14  1  0.960206  0.350997  0.646270  1
  O  O15  1  0.609209  0.960206  0.146270  1
  O  O16  1  0.039794  0.649003  0.146270  1
  O  O17  1  0.609209  0.649003  0.353730  1
