# generated using pymatgen
data_TbHo4Lu(Si3Ru)8
_symmetry_space_group_name_H-M   'P 1'
_cell_length_a   10.11236797
_cell_length_b   10.11229143
_cell_length_c   8.13347035
_cell_angle_alpha   90.09027369
_cell_angle_beta   89.93533325
_cell_angle_gamma   132.58469919
_symmetry_Int_Tables_number   1
_chemical_formula_structural   TbHo4Lu(Si3Ru)8
_chemical_formula_sum   'Tb1 Ho4 Lu1 Si24 Ru8'
_cell_volume   612.37789673
_cell_formula_units_Z   1
loop_
 _symmetry_equiv_pos_site_id
 _symmetry_equiv_pos_as_xyz
  1  'x, y, z'
loop_
 _atom_site_type_symbol
 _atom_site_label
 _atom_site_symmetry_multiplicity
 _atom_site_fract_x
 _atom_site_fract_y
 _atom_site_fract_z
 _atom_site_occupancy
  Tb  Tb0  1  0.502425  0.002363  0.749871  1
  Ho  Ho1  1  0.000049  0.999992  0.000027  1
  Ho  Ho2  1  0.997917  0.497893  0.250101  1
  Ho  Ho3  1  0.497508  0.997537  0.250129  1
  Ho  Ho4  1  0.002553  0.502594  0.749887  1
  Lu  Lu5  1  0.500015  0.500066  0.499974  1
  Si  Si6  1  0.794013  0.204898  0.499762  1
  Si  Si7  1  0.295183  0.705906  0.000545  1
  Si  Si8  1  0.205974  0.795178  0.499380  1
  Si  Si9  1  0.704903  0.294098  0.000321  1
  Si  Si10  1  0.332584  0.332209  0.832818  1
  Si  Si11  1  0.667508  0.667740  0.167062  1
  Si  Si12  1  0.167999  0.167815  0.333353  1
  Si  Si13  1  0.831933  0.832262  0.666770  1
  Si  Si14  1  0.122219  0.887543  0.728113  1
  Si  Si15  1  0.113996  0.879697  0.271776  1
  Si  Si16  1  0.610931  0.376742  0.228192  1
  Si  Si17  1  0.621505  0.387243  0.770931  1
  Si  Si18  1  0.876927  0.111305  0.272107  1
  Si  Si19  1  0.886957  0.121481  0.728716  1
  Si  Si20  1  0.387927  0.622400  0.771572  1
  Si  Si21  1  0.379680  0.613722  0.228550  1
  Si  Si22  1  0.346693  0.112672  0.504097  1
  Si  Si23  1  0.888867  0.656302  0.496200  1
  Si  Si24  1  0.387523  0.153111  0.005499  1
  Si  Si25  1  0.843687  0.610956  0.995393  1
  Si  Si26  1  0.652997  0.887287  0.494498  1
  Si  Si27  1  0.111173  0.343780  0.504630  1
  Si  Si28  1  0.612442  0.846575  0.995934  1
  Si  Si29  1  0.156378  0.389085  0.003797  1
  Ru  Ru30  1  0.671392  0.334261  0.498958  1
  Ru  Ru31  1  0.166214  0.827962  0.000170  1
  Ru  Ru32  1  0.328496  0.665636  0.499879  1
  Ru  Ru33  1  0.833681  0.171929  0.000971  1
  Ru  Ru34  1  0.127028  0.126529  0.626668  1
  Ru  Ru35  1  0.873099  0.873098  0.373546  1
  Ru  Ru36  1  0.374266  0.374204  0.128094  1
  Ru  Ru37  1  0.625360  0.625926  0.871711  1
