# generated using pymatgen
data_Li4Nd3Ho(Si2Sn)2
_symmetry_space_group_name_H-M   'P 1'
_cell_length_a   9.70549557
_cell_length_b   9.70549515
_cell_length_c   6.85762800
_cell_angle_alpha   90.00000000
_cell_angle_beta   90.00000000
_cell_angle_gamma   153.25488973
_symmetry_Int_Tables_number   1
_chemical_formula_structural   Li4Nd3Ho(Si2Sn)2
_chemical_formula_sum   'Li4 Nd3 Ho1 Si4 Sn2'
_cell_volume   290.69884338
_cell_formula_units_Z   1
loop_
 _symmetry_equiv_pos_site_id
 _symmetry_equiv_pos_as_xyz
  1  'x, y, z'
loop_
 _atom_site_type_symbol
 _atom_site_label
 _atom_site_symmetry_multiplicity
 _atom_site_fract_x
 _atom_site_fract_y
 _atom_site_fract_z
 _atom_site_occupancy
  Li  Li0  1  0.184735  0.815265  0.055955  1
  Li  Li1  1  0.184735  0.815265  0.444045  1
  Li  Li2  1  0.816209  0.183791  0.946506  1
  Li  Li3  1  0.816209  0.183791  0.553494  1
  Nd  Nd4  1  0.650051  0.349949  0.750000  1
  Nd  Nd5  1  0.548172  0.451828  0.250000  1
  Nd  Nd6  1  0.450267  0.549733  0.750000  1
  Ho  Ho7  1  0.351471  0.648529  0.250000  1
  Si  Si8  1  0.056632  0.943368  0.926131  1
  Si  Si9  1  0.941247  0.058753  0.075330  1
  Si  Si10  1  0.941247  0.058753  0.424670  1
  Si  Si11  1  0.056632  0.943368  0.573869  1
  Sn  Sn12  1  0.721517  0.278483  0.250000  1
  Sn  Sn13  1  0.280876  0.719124  0.750000  1
