# generated using pymatgen
data_Zr4In2Co2CuNi
_symmetry_space_group_name_H-M   'P 1'
_cell_length_a   7.25607433
_cell_length_b   7.28922202
_cell_length_c   3.32116700
_cell_angle_alpha   90.00000000
_cell_angle_beta   90.00000000
_cell_angle_gamma   89.34840611
_symmetry_Int_Tables_number   1
_chemical_formula_structural   Zr4In2Co2CuNi
_chemical_formula_sum   'Zr4 In2 Co2 Cu1 Ni1'
_cell_volume   175.64893868
_cell_formula_units_Z   1
loop_
 _symmetry_equiv_pos_site_id
 _symmetry_equiv_pos_as_xyz
  1  'x, y, z'
loop_
 _atom_site_type_symbol
 _atom_site_label
 _atom_site_symmetry_multiplicity
 _atom_site_fract_x
 _atom_site_fract_y
 _atom_site_fract_z
 _atom_site_occupancy
  Zr  Zr0  1  0.678916  0.169270  0.500000  1
  Zr  Zr1  1  0.155258  0.319617  0.500000  1
  Zr  Zr2  1  0.813530  0.664602  0.500000  1
  Zr  Zr3  1  0.351159  0.838777  0.500000  1
  In  In4  1  0.001497  0.992825  0.000000  1
  In  In5  1  0.493908  0.494876  0.000000  1
  Co  Co6  1  0.623849  0.879400  0.000000  1
  Co  Co7  1  0.880422  0.381557  0.000000  1
  Cu  Cu8  1  0.124686  0.628352  0.000000  1
  Ni  Ni9  1  0.376773  0.130724  0.000000  1
