# generated using pymatgen
data_Tb13YTh2(CdNi)4
_symmetry_space_group_name_H-M   'P 1'
_cell_length_a   9.66015890
_cell_length_b   9.66016029
_cell_length_c   9.67079700
_cell_angle_alpha   59.96356612
_cell_angle_beta   59.96356132
_cell_angle_gamma   59.89169812
_symmetry_Int_Tables_number   1
_chemical_formula_structural   Tb13YTh2(CdNi)4
_chemical_formula_sum   'Tb13 Y1 Th2 Cd4 Ni4'
_cell_volume   637.26510080
_cell_formula_units_Z   1
loop_
 _symmetry_equiv_pos_site_id
 _symmetry_equiv_pos_as_xyz
  1  'x, y, z'
loop_
 _atom_site_type_symbol
 _atom_site_label
 _atom_site_symmetry_multiplicity
 _atom_site_fract_x
 _atom_site_fract_y
 _atom_site_fract_z
 _atom_site_occupancy
  Tb  Tb0  1  0.598513  0.200820  0.600333  1
  Tb  Tb1  1  0.200820  0.598513  0.600333  1
  Tb  Tb2  1  0.061564  0.439878  0.438084  1
  Tb  Tb3  1  0.439878  0.061564  0.060473  1
  Tb  Tb4  1  0.439878  0.061564  0.438084  1
  Tb  Tb5  1  0.061564  0.439878  0.060473  1
  Tb  Tb6  1  0.439484  0.439484  0.060516  1
  Tb  Tb7  1  0.061743  0.061743  0.438257  1
  Tb  Tb8  1  0.187178  0.814182  0.815806  1
  Tb  Tb9  1  0.814182  0.187178  0.182833  1
  Tb  Tb10  1  0.814182  0.187178  0.815806  1
  Tb  Tb11  1  0.187178  0.814182  0.182833  1
  Tb  Tb12  1  0.813998  0.813998  0.186002  1
  Y  Y13  1  0.185629  0.185629  0.814371  1
  Th  Th14  1  0.593475  0.593475  0.600234  1
  Th  Th15  1  0.593475  0.593475  0.212817  1
  Cd  Cd16  1  0.832062  0.832062  0.830299  1
  Cd  Cd17  1  0.832062  0.832062  0.505575  1
  Cd  Cd18  1  0.832725  0.505634  0.830820  1
  Cd  Cd19  1  0.505634  0.832725  0.830820  1
  Ni  Ni20  1  0.394159  0.394159  0.390540  1
  Ni  Ni21  1  0.394159  0.394159  0.821143  1
  Ni  Ni22  1  0.397588  0.818868  0.391772  1
  Ni  Ni23  1  0.818868  0.397588  0.391772  1
