# generated using pymatgen
data_Ho13Tm3(Ga3Fe)2
_symmetry_space_group_name_H-M   'P 1'
_cell_length_a   9.92887800
_cell_length_b   9.92887700
_cell_length_c   6.92307500
_cell_angle_alpha   90.00000000
_cell_angle_beta   90.00000000
_cell_angle_gamma   119.99999667
_symmetry_Int_Tables_number   1
_chemical_formula_structural   Ho13Tm3(Ga3Fe)2
_chemical_formula_sum   'Ho13 Tm3 Ga6 Fe2'
_cell_volume   591.05784730
_cell_formula_units_Z   1
loop_
 _symmetry_equiv_pos_site_id
 _symmetry_equiv_pos_as_xyz
  1  'x, y, z'
loop_
 _atom_site_type_symbol
 _atom_site_label
 _atom_site_symmetry_multiplicity
 _atom_site_fract_x
 _atom_site_fract_y
 _atom_site_fract_z
 _atom_site_occupancy
  Ho  Ho0  1  0.826575  0.173425  0.010727  1
  Ho  Ho1  1  0.346851  0.173425  0.010727  1
  Ho  Ho2  1  0.826575  0.653149  0.010727  1
  Ho  Ho3  1  0.333333  0.666667  0.828209  1
  Ho  Ho4  1  0.666667  0.333333  0.330261  1
  Ho  Ho5  1  0.463122  0.536878  0.208194  1
  Ho  Ho6  1  0.073754  0.536878  0.208194  1
  Ho  Ho7  1  0.463122  0.926246  0.208194  1
  Ho  Ho8  1  0.536334  0.463666  0.706418  1
  Ho  Ho9  1  0.927333  0.463666  0.706418  1
  Ho  Ho10  1  0.536334  0.072667  0.706418  1
  Ho  Ho11  1  0.000000  0.000000  0.231724  1
  Ho  Ho12  1  0.000000  0.000000  0.730077  1
  Tm  Tm13  1  0.173437  0.826563  0.510775  1
  Tm  Tm14  1  0.653126  0.826563  0.510775  1
  Tm  Tm15  1  0.173437  0.346874  0.510775  1
  Ga  Ga16  1  0.163839  0.836161  0.957932  1
  Ga  Ga17  1  0.672322  0.836161  0.957932  1
  Ga  Ga18  1  0.163839  0.327678  0.957932  1
  Ga  Ga19  1  0.836850  0.163150  0.459462  1
  Ga  Ga20  1  0.326300  0.163150  0.459462  1
  Ga  Ga21  1  0.836850  0.673700  0.459462  1
  Fe  Fe22  1  0.333333  0.666667  0.447160  1
  Fe  Fe23  1  0.666667  0.333333  0.946080  1
