# generated using pymatgen
data_Re6IrRh
_symmetry_space_group_name_H-M   'P 1'
_cell_length_a   5.58587500
_cell_length_b   5.58587555
_cell_length_c   4.39685600
_cell_angle_alpha   90.00000000
_cell_angle_beta   90.00000000
_cell_angle_gamma   120.00000266
_symmetry_Int_Tables_number   1
_chemical_formula_structural   Re6IrRh
_chemical_formula_sum   'Re6 Ir1 Rh1'
_cell_volume   118.81063885
_cell_formula_units_Z   1
loop_
 _symmetry_equiv_pos_site_id
 _symmetry_equiv_pos_as_xyz
  1  'x, y, z'
loop_
 _atom_site_type_symbol
 _atom_site_label
 _atom_site_symmetry_multiplicity
 _atom_site_fract_x
 _atom_site_fract_y
 _atom_site_fract_z
 _atom_site_occupancy
  Re  Re0  1  0.322029  0.161014  0.250000  1
  Re  Re1  1  0.838986  0.161014  0.250000  1
  Re  Re2  1  0.838985  0.677971  0.250000  1
  Re  Re3  1  0.161864  0.323727  0.750001  1
  Re  Re4  1  0.161863  0.838136  0.750001  1
  Re  Re5  1  0.676273  0.838136  0.750001  1
  Ir  Ir6  1  0.666666  0.333333  0.750001  1
  Rh  Rh7  1  0.333333  0.666666  0.250000  1
