# generated using pymatgen
data_Pr2Mn3PtO10
_symmetry_space_group_name_H-M   'P 1'
_cell_length_a   5.94215000
_cell_length_b   7.65337800
_cell_length_c   8.82980900
_cell_angle_alpha   90.00000000
_cell_angle_beta   90.00000000
_cell_angle_gamma   90.00000000
_symmetry_Int_Tables_number   1
_chemical_formula_structural   Pr2Mn3PtO10
_chemical_formula_sum   'Pr4 Mn6 Pt2 O20'
_cell_volume   401.55781612
_cell_formula_units_Z   2
loop_
 _symmetry_equiv_pos_site_id
 _symmetry_equiv_pos_as_xyz
  1  'x, y, z'
loop_
 _atom_site_type_symbol
 _atom_site_label
 _atom_site_symmetry_multiplicity
 _atom_site_fract_x
 _atom_site_fract_y
 _atom_site_fract_z
 _atom_site_occupancy
  Pr  Pr0  1  0.002518  0.359713  0.671387  1
  Pr  Pr1  1  0.002518  0.640287  0.328613  1
  Pr  Pr2  1  0.997482  0.859713  0.828613  1
  Pr  Pr3  1  0.997482  0.140287  0.171387  1
  Mn  Mn4  1  0.495982  0.086667  0.851357  1
  Mn  Mn5  1  0.495982  0.913333  0.148643  1
  Mn  Mn6  1  0.504018  0.586667  0.648643  1
  Mn  Mn7  1  0.504018  0.413333  0.351357  1
  Mn  Mn8  1  0.740886  0.500000  0.000000  1
  Mn  Mn9  1  0.259114  0.000000  0.500000  1
  Pt  Pt10  1  0.254769  0.500000  0.000000  1
  Pt  Pt11  1  0.745231  0.000000  0.500000  1
  O  O12  1  0.247804  0.901907  0.292447  1
  O  O13  1  0.247804  0.098093  0.707553  1
  O  O14  1  0.752196  0.401907  0.207553  1
  O  O15  1  0.752196  0.598093  0.792447  1
  O  O16  1  0.752824  0.100656  0.713921  1
  O  O17  1  0.752824  0.899344  0.286079  1
  O  O18  1  0.247176  0.600656  0.786079  1
  O  O19  1  0.247176  0.399344  0.213921  1
  O  O20  1  0.511399  0.343755  0.935461  1
  O  O21  1  0.511399  0.656245  0.064539  1
  O  O22  1  0.488601  0.843755  0.564539  1
  O  O23  1  0.488601  0.156245  0.435461  1
  O  O24  1  0.274823  0.000000  0.000000  1
  O  O25  1  0.725177  0.500000  0.500000  1
  O  O26  1  0.716744  0.000000  0.000000  1
  O  O27  1  0.283256  0.500000  0.500000  1
  O  O28  1  0.012261  0.161131  0.445902  1
  O  O29  1  0.012261  0.838869  0.554098  1
  O  O30  1  0.987739  0.661131  0.054098  1
  O  O31  1  0.987739  0.338869  0.945902  1
