# generated using pymatgen
data_YHf2Al7Cu2
_symmetry_space_group_name_H-M   'P 1'
_cell_length_a   8.88990080
_cell_length_b   8.88990032
_cell_length_c   8.88990130
_cell_angle_alpha   34.68149235
_cell_angle_beta   34.68149624
_cell_angle_gamma   34.68148834
_symmetry_Int_Tables_number   1
_chemical_formula_structural   YHf2Al7Cu2
_chemical_formula_sum   'Y1 Hf2 Al7 Cu2'
_cell_volume   202.99932284
_cell_formula_units_Z   1
loop_
 _symmetry_equiv_pos_site_id
 _symmetry_equiv_pos_as_xyz
  1  'x, y, z'
loop_
 _atom_site_type_symbol
 _atom_site_label
 _atom_site_symmetry_multiplicity
 _atom_site_fract_x
 _atom_site_fract_y
 _atom_site_fract_z
 _atom_site_occupancy
  Y  Y0  1  0.000000  0.000000  0.000000  1
  Hf  Hf1  1  0.855249  0.855249  0.855249  1
  Hf  Hf2  1  0.144751  0.144751  0.144751  1
  Al  Al3  1  0.415152  0.415152  0.923777  1
  Al  Al4  1  0.923777  0.415152  0.415152  1
  Al  Al5  1  0.415152  0.923777  0.415152  1
  Al  Al6  1  0.500000  0.500000  0.500000  1
  Al  Al7  1  0.584848  0.076223  0.584848  1
  Al  Al8  1  0.076223  0.584848  0.584848  1
  Al  Al9  1  0.584848  0.584848  0.076223  1
  Cu  Cu10  1  0.665547  0.665547  0.665547  1
  Cu  Cu11  1  0.334453  0.334453  0.334453  1
