# generated using pymatgen
data_Ti7Ga(TcIr)4
_symmetry_space_group_name_H-M   'P 1'
_cell_length_a   6.19446501
_cell_length_b   4.37225100
_cell_length_c   8.74966701
_cell_angle_alpha   90.00000000
_cell_angle_beta   89.99501696
_cell_angle_gamma   90.00000000
_symmetry_Int_Tables_number   1
_chemical_formula_structural   Ti7Ga(TcIr)4
_chemical_formula_sum   'Ti7 Ga1 Tc4 Ir4'
_cell_volume   236.97384383
_cell_formula_units_Z   1
loop_
 _symmetry_equiv_pos_site_id
 _symmetry_equiv_pos_as_xyz
  1  'x, y, z'
loop_
 _atom_site_type_symbol
 _atom_site_label
 _atom_site_symmetry_multiplicity
 _atom_site_fract_x
 _atom_site_fract_y
 _atom_site_fract_z
 _atom_site_occupancy
  Ti  Ti0  1  0.498643  0.749999  0.125005  1
  Ti  Ti1  1  0.999897  0.249999  0.369127  1
  Ti  Ti2  1  0.500281  0.249999  0.374959  1
  Ti  Ti3  1  0.501125  0.749999  0.625002  1
  Ti  Ti4  1  0.002187  0.749999  0.625002  1
  Ti  Ti5  1  0.500240  0.249999  0.875040  1
  Ti  Ti6  1  0.999841  0.249999  0.880882  1
  Ga  Ga7  1  0.998933  0.749999  0.124996  1
  Tc  Tc8  1  0.744151  0.249999  0.124998  1
  Tc  Tc9  1  0.251599  0.749999  0.377724  1
  Tc  Tc10  1  0.751692  0.249999  0.625003  1
  Tc  Tc11  1  0.251553  0.749999  0.872278  1
  Ir  Ir12  1  0.250568  0.249999  0.124991  1
  Ir  Ir13  1  0.749712  0.749999  0.376674  1
  Ir  Ir14  1  0.249904  0.249999  0.624996  1
  Ir  Ir15  1  0.749672  0.749999  0.873324  1
