# generated using pymatgen
data_Hf6Zr12FeCuRe8
_symmetry_space_group_name_H-M   'P 1'
_cell_length_a   8.53593754
_cell_length_b   8.64620864
_cell_length_c   8.67459328
_cell_angle_alpha   120.02229881
_cell_angle_beta   90.07701544
_cell_angle_gamma   89.92440449
_symmetry_Int_Tables_number   1
_chemical_formula_structural   Hf6Zr12FeCuRe8
_chemical_formula_sum   'Hf6 Zr12 Fe1 Cu1 Re8'
_cell_volume   554.31744983
_cell_formula_units_Z   1
loop_
 _symmetry_equiv_pos_site_id
 _symmetry_equiv_pos_as_xyz
  1  'x, y, z'
loop_
 _atom_site_type_symbol
 _atom_site_label
 _atom_site_symmetry_multiplicity
 _atom_site_fract_x
 _atom_site_fract_y
 _atom_site_fract_z
 _atom_site_occupancy
  Hf  Hf0  1  0.058990  0.199403  0.398874  1
  Hf  Hf1  1  0.059001  0.199366  0.800518  1
  Hf  Hf2  1  0.059066  0.601236  0.800596  1
  Hf  Hf3  1  0.944829  0.806549  0.613005  1
  Hf  Hf4  1  0.944832  0.806603  0.193574  1
  Hf  Hf5  1  0.944804  0.386937  0.193510  1
  Zr  Zr6  1  0.554690  0.805100  0.610116  1
  Zr  Zr7  1  0.554627  0.805141  0.195005  1
  Zr  Zr8  1  0.554488  0.389843  0.194951  1
  Zr  Zr9  1  0.441056  0.201324  0.402702  1
  Zr  Zr10  1  0.441047  0.201284  0.798587  1
  Zr  Zr11  1  0.441084  0.597288  0.798607  1
  Zr  Zr12  1  0.754217  0.458116  0.916125  1
  Zr  Zr13  1  0.754214  0.458169  0.542020  1
  Zr  Zr14  1  0.754199  0.083792  0.541946  1
  Zr  Zr15  1  0.245396  0.541331  0.082671  1
  Zr  Zr16  1  0.245412  0.541323  0.458646  1
  Zr  Zr17  1  0.245451  0.917374  0.458672  1
  Fe  Fe18  1  0.247462  0.333396  0.666719  1
  Cu  Cu19  1  0.755371  0.666239  0.333002  1
  Re  Re20  1  0.751406  0.109352  0.218668  1
  Re  Re21  1  0.751456  0.109320  0.890745  1
  Re  Re22  1  0.751443  0.781520  0.890777  1
  Re  Re23  1  0.248456  0.891355  0.782707  1
  Re  Re24  1  0.248433  0.891374  0.108614  1
  Re  Re25  1  0.248420  0.217217  0.108604  1
  Re  Re26  1  0.500148  0.000005  0.000008  1
  Re  Re27  1  0.000003  0.000041  0.000030  1
