# generated using pymatgen
data_Y14Ho2In4PtRh3
_symmetry_space_group_name_H-M   'P 1'
_cell_length_a   9.69578259
_cell_length_b   9.72432502
_cell_length_c   9.69578336
_cell_angle_alpha   59.97096134
_cell_angle_beta   59.95647893
_cell_angle_gamma   59.97096322
_symmetry_Int_Tables_number   1
_chemical_formula_structural   Y14Ho2In4PtRh3
_chemical_formula_sum   'Y14 Ho2 In4 Pt1 Rh3'
_cell_volume   645.91677612
_cell_formula_units_Z   1
loop_
 _symmetry_equiv_pos_site_id
 _symmetry_equiv_pos_as_xyz
  1  'x, y, z'
loop_
 _atom_site_type_symbol
 _atom_site_label
 _atom_site_symmetry_multiplicity
 _atom_site_fract_x
 _atom_site_fract_y
 _atom_site_fract_z
 _atom_site_occupancy
  Y  Y0  1  0.189125  0.188143  0.811823  1
  Y  Y1  1  0.602779  0.599022  0.197737  1
  Y  Y2  1  0.440666  0.061462  0.440666  1
  Y  Y3  1  0.439986  0.439843  0.059296  1
  Y  Y4  1  0.811685  0.187871  0.811685  1
  Y  Y5  1  0.188453  0.811676  0.188453  1
  Y  Y6  1  0.440486  0.062661  0.056205  1
  Y  Y7  1  0.188013  0.811378  0.812322  1
  Y  Y8  1  0.060429  0.439426  0.060429  1
  Y  Y9  1  0.812322  0.811378  0.188013  1
  Y  Y10  1  0.197737  0.599022  0.602779  1
  Y  Y11  1  0.059296  0.439843  0.439986  1
  Y  Y12  1  0.056205  0.062661  0.440486  1
  Y  Y13  1  0.811823  0.188143  0.189125  1
  Ho  Ho14  1  0.599945  0.202813  0.599945  1
  Ho  Ho15  1  0.599891  0.596882  0.599891  1
  In  In16  1  0.833813  0.833682  0.833813  1
  In  In17  1  0.832274  0.833067  0.501262  1
  In  In18  1  0.501262  0.833067  0.832274  1
  In  In19  1  0.832675  0.500898  0.832675  1
  Pt  Pt20  1  0.392829  0.822000  0.392829  1
  Rh  Rh21  1  0.393069  0.391274  0.393069  1
  Rh  Rh22  1  0.821240  0.391894  0.393995  1
  Rh  Rh23  1  0.393995  0.391894  0.821240  1
