# generated using pymatgen
data_La7ThTe12
_symmetry_space_group_name_H-M   'P 1'
_cell_length_a   4.52677600
_cell_length_b   12.14702985
_cell_length_c   12.43772940
_cell_angle_alpha   89.88988625
_cell_angle_beta   90.00000000
_cell_angle_gamma   90.00000000
_symmetry_Int_Tables_number   1
_chemical_formula_structural   La7ThTe12
_chemical_formula_sum   'La7 Th1 Te12'
_cell_volume   683.91071073
_cell_formula_units_Z   1
loop_
 _symmetry_equiv_pos_site_id
 _symmetry_equiv_pos_as_xyz
  1  'x, y, z'
loop_
 _atom_site_type_symbol
 _atom_site_label
 _atom_site_symmetry_multiplicity
 _atom_site_fract_x
 _atom_site_fract_y
 _atom_site_fract_z
 _atom_site_occupancy
  La  La0  1  0.250000  0.004598  0.307648  1
  La  La1  1  0.750000  0.996242  0.694024  1
  La  La2  1  0.750000  0.503203  0.192111  1
  La  La3  1  0.250000  0.496131  0.807825  1
  La  La4  1  0.250000  0.686592  0.488598  1
  La  La5  1  0.750000  0.313274  0.511788  1
  La  La6  1  0.750000  0.187899  0.011704  1
  Th  Th7  1  0.250000  0.812955  0.988050  1
  Te  Te8  1  0.250000  0.052360  0.880258  1
  Te  Te9  1  0.750000  0.941924  0.119827  1
  Te  Te10  1  0.750000  0.555841  0.622636  1
  Te  Te11  1  0.250000  0.445813  0.376811  1
  Te  Te12  1  0.250000  0.125663  0.547301  1
  Te  Te13  1  0.750000  0.873136  0.453150  1
  Te  Te14  1  0.750000  0.631105  0.952667  1
  Te  Te15  1  0.250000  0.375660  0.046365  1
  Te  Te16  1  0.250000  0.703430  0.223227  1
  Te  Te17  1  0.750000  0.296590  0.772393  1
  Te  Te18  1  0.750000  0.201640  0.271308  1
  Te  Te19  1  0.250000  0.795944  0.732307  1
