# generated using pymatgen
data_Dy18Er2(Ir3Rh)3
_symmetry_space_group_name_H-M   'P 1'
_cell_length_a   10.88467100
_cell_length_b   10.88582100
_cell_length_c   6.39276500
_cell_angle_alpha   90.00000000
_cell_angle_beta   90.00000000
_cell_angle_gamma   90.00167383
_symmetry_Int_Tables_number   1
_chemical_formula_structural   Dy18Er2(Ir3Rh)3
_chemical_formula_sum   'Dy18 Er2 Ir9 Rh3'
_cell_volume   757.46964792
_cell_formula_units_Z   1
loop_
 _symmetry_equiv_pos_site_id
 _symmetry_equiv_pos_as_xyz
  1  'x, y, z'
loop_
 _atom_site_type_symbol
 _atom_site_label
 _atom_site_symmetry_multiplicity
 _atom_site_fract_x
 _atom_site_fract_y
 _atom_site_fract_z
 _atom_site_occupancy
  Dy  Dy0  1  0.290283  0.088640  0.379983  1
  Dy  Dy1  1  0.290156  0.910913  0.879775  1
  Dy  Dy2  1  0.709844  0.089087  0.879775  1
  Dy  Dy3  1  0.709717  0.911360  0.379983  1
  Dy  Dy4  1  0.589182  0.790495  0.879742  1
  Dy  Dy5  1  0.588744  0.209378  0.379936  1
  Dy  Dy6  1  0.411256  0.790622  0.379936  1
  Dy  Dy7  1  0.410818  0.209505  0.879742  1
  Dy  Dy8  1  0.208704  0.411198  0.619021  1
  Dy  Dy9  1  0.209107  0.589110  0.121401  1
  Dy  Dy10  1  0.790893  0.410890  0.121401  1
  Dy  Dy11  1  0.791296  0.588802  0.619021  1
  Dy  Dy12  1  0.910978  0.709449  0.121372  1
  Dy  Dy13  1  0.911292  0.290977  0.618988  1
  Dy  Dy14  1  0.088708  0.709023  0.618988  1
  Dy  Dy15  1  0.089022  0.290551  0.121372  1
  Dy  Dy16  1  0.500000  0.500000  0.000054  1
  Dy  Dy17  1  0.500000  0.500000  0.500277  1
  Er  Er18  1  0.000000  0.000000  0.500295  1
  Er  Er19  1  0.000000  0.000000  0.000068  1
  Ir  Ir20  1  0.846265  0.152509  0.249823  1
  Ir  Ir21  1  0.846510  0.847055  0.749829  1
  Ir  Ir22  1  0.153490  0.152945  0.749829  1
  Ir  Ir23  1  0.153735  0.847491  0.249823  1
  Ir  Ir24  1  0.653647  0.345803  0.749816  1
  Ir  Ir25  1  0.653205  0.654421  0.249851  1
  Ir  Ir26  1  0.346795  0.345579  0.249851  1
  Ir  Ir27  1  0.346353  0.654197  0.749816  1
  Ir  Ir28  1  0.000000  0.500000  0.374999  1
  Rh  Rh29  1  0.500000  0.000000  0.124485  1
  Rh  Rh30  1  0.500000  0.000000  0.624790  1
  Rh  Rh31  1  0.000000  0.500000  0.875956  1
