# generated using pymatgen
data_Hf4In2CoCu2Ni
_symmetry_space_group_name_H-M   'P 1'
_cell_length_a   7.19716291
_cell_length_b   7.19716373
_cell_length_c   6.69705819
_cell_angle_alpha   90.05666941
_cell_angle_beta   90.05666786
_cell_angle_gamma   90.70005057
_symmetry_Int_Tables_number   1
_chemical_formula_structural   Hf4In2CoCu2Ni
_chemical_formula_sum   'Hf8 In4 Co2 Cu4 Ni2'
_cell_volume   346.87575122
_cell_formula_units_Z   2
loop_
 _symmetry_equiv_pos_site_id
 _symmetry_equiv_pos_as_xyz
  1  'x, y, z'
loop_
 _atom_site_type_symbol
 _atom_site_label
 _atom_site_symmetry_multiplicity
 _atom_site_fract_x
 _atom_site_fract_y
 _atom_site_fract_z
 _atom_site_occupancy
  Hf  Hf0  1  0.167815  0.832185  0.500000  1
  Hf  Hf1  1  0.307512  0.307512  0.003836  1
  Hf  Hf2  1  0.663925  0.663925  0.505054  1
  Hf  Hf3  1  0.832185  0.167815  0.500000  1
  Hf  Hf4  1  0.149315  0.850685  0.000000  1
  Hf  Hf5  1  0.336075  0.336075  0.494946  1
  Hf  Hf6  1  0.692488  0.692488  0.996164  1
  Hf  Hf7  1  0.850685  0.149315  0.000000  1
  In  In8  1  0.501172  0.000982  0.747627  1
  In  In9  1  0.999018  0.498828  0.252373  1
  In  In10  1  0.000982  0.501172  0.747627  1
  In  In11  1  0.498828  0.999018  0.252373  1
  Co  Co12  1  0.125530  0.125530  0.269836  1
  Co  Co13  1  0.874470  0.874470  0.730164  1
  Cu  Cu14  1  0.377273  0.624524  0.215209  1
  Cu  Cu15  1  0.622727  0.375476  0.784791  1
  Cu  Cu16  1  0.375476  0.622727  0.784791  1
  Cu  Cu17  1  0.624524  0.377273  0.215209  1
  Ni  Ni18  1  0.870420  0.870420  0.278830  1
  Ni  Ni19  1  0.129580  0.129580  0.721170  1
