# generated using pymatgen
data_Dy16Al4FePt3
_symmetry_space_group_name_H-M   'P 1'
_cell_length_a   9.53440042
_cell_length_b   9.53439992
_cell_length_c   9.53439839
_cell_angle_alpha   60.14142827
_cell_angle_beta   60.14142012
_cell_angle_gamma   60.14142568
_symmetry_Int_Tables_number   1
_chemical_formula_structural   Dy16Al4FePt3
_chemical_formula_sum   'Dy16 Al4 Fe1 Pt3'
_cell_volume   614.82868553
_cell_formula_units_Z   1
loop_
 _symmetry_equiv_pos_site_id
 _symmetry_equiv_pos_as_xyz
  1  'x, y, z'
loop_
 _atom_site_type_symbol
 _atom_site_label
 _atom_site_symmetry_multiplicity
 _atom_site_fract_x
 _atom_site_fract_y
 _atom_site_fract_z
 _atom_site_occupancy
  Dy  Dy0  1  0.353976  0.353976  0.353976  1
  Dy  Dy1  1  0.348686  0.348686  0.944372  1
  Dy  Dy2  1  0.348686  0.944372  0.348686  1
  Dy  Dy3  1  0.944372  0.348686  0.348686  1
  Dy  Dy4  1  0.816930  0.191280  0.191280  1
  Dy  Dy5  1  0.194331  0.805509  0.805509  1
  Dy  Dy6  1  0.191280  0.816930  0.191280  1
  Dy  Dy7  1  0.805509  0.194331  0.805509  1
  Dy  Dy8  1  0.191280  0.191280  0.816930  1
  Dy  Dy9  1  0.805509  0.805509  0.194331  1
  Dy  Dy10  1  0.936026  0.563291  0.563291  1
  Dy  Dy11  1  0.560047  0.936880  0.936880  1
  Dy  Dy12  1  0.563291  0.936026  0.563291  1
  Dy  Dy13  1  0.936880  0.560046  0.936880  1
  Dy  Dy14  1  0.563291  0.563291  0.936026  1
  Dy  Dy15  1  0.936880  0.936880  0.560046  1
  Al  Al16  1  0.577302  0.577302  0.577302  1
  Al  Al17  1  0.578089  0.578089  0.268618  1
  Al  Al18  1  0.578089  0.268618  0.578089  1
  Al  Al19  1  0.268618  0.578089  0.578089  1
  Fe  Fe20  1  0.141965  0.141965  0.141965  1
  Pt  Pt21  1  0.143436  0.143436  0.572093  1
  Pt  Pt22  1  0.143436  0.572093  0.143436  1
  Pt  Pt23  1  0.572093  0.143436  0.143436  1
