# generated using pymatgen
data_LaTb2Yb7Ir4
_symmetry_space_group_name_H-M   'P 1'
_cell_length_a   6.58177189
_cell_length_b   7.39689546
_cell_length_c   8.59057976
_cell_angle_alpha   96.96028133
_cell_angle_beta   112.84076066
_cell_angle_gamma   90.23701684
_symmetry_Int_Tables_number   1
_chemical_formula_structural   LaTb2Yb7Ir4
_chemical_formula_sum   'La1 Tb2 Yb7 Ir4'
_cell_volume   381.99542816
_cell_formula_units_Z   1
loop_
 _symmetry_equiv_pos_site_id
 _symmetry_equiv_pos_as_xyz
  1  'x, y, z'
loop_
 _atom_site_type_symbol
 _atom_site_label
 _atom_site_symmetry_multiplicity
 _atom_site_fract_x
 _atom_site_fract_y
 _atom_site_fract_z
 _atom_site_occupancy
  La  La0  1  0.979521  0.918010  0.174581  1
  Tb  Tb1  1  0.429633  0.747554  0.996488  1
  Tb  Tb2  1  0.563464  0.251386  0.000465  1
  Yb  Yb3  1  0.799472  0.576845  0.822617  1
  Yb  Yb4  1  0.022589  0.081089  0.820486  1
  Yb  Yb5  1  0.195444  0.419935  0.170827  1
  Yb  Yb6  1  0.639304  0.819980  0.435980  1
  Yb  Yb7  1  0.205427  0.677959  0.565982  1
  Yb  Yb8  1  0.363553  0.181926  0.567920  1
  Yb  Yb9  1  0.797548  0.319773  0.436055  1
  Ir  Ir10  1  0.817007  0.582833  0.212343  1
  Ir  Ir11  1  0.608262  0.924906  0.796732  1
  Ir  Ir12  1  0.185904  0.423415  0.787484  1
  Ir  Ir13  1  0.392873  0.074389  0.212039  1
