# generated using pymatgen
data_TbDy2Y(NiAs)4
_symmetry_space_group_name_H-M   'P 1'
_cell_length_a   4.05074700
_cell_length_b   4.05074655
_cell_length_c   15.60311600
_cell_angle_alpha   90.00000000
_cell_angle_beta   90.00000000
_cell_angle_gamma   120.00001183
_symmetry_Int_Tables_number   1
_chemical_formula_structural   TbDy2Y(NiAs)4
_chemical_formula_sum   'Tb1 Dy2 Y1 Ni4 As4'
_cell_volume   221.72369486
_cell_formula_units_Z   1
loop_
 _symmetry_equiv_pos_site_id
 _symmetry_equiv_pos_as_xyz
  1  'x, y, z'
loop_
 _atom_site_type_symbol
 _atom_site_label
 _atom_site_symmetry_multiplicity
 _atom_site_fract_x
 _atom_site_fract_y
 _atom_site_fract_z
 _atom_site_occupancy
  Tb  Tb0  1  0.000000  0.000000  0.500000  1
  Dy  Dy1  1  0.000000  0.000000  0.250033  1
  Dy  Dy2  1  0.000000  0.000000  0.749967  1
  Y  Y3  1  0.000000  0.000000  0.000000  1
  Ni  Ni4  1  0.333333  0.666667  0.134031  1
  Ni  Ni5  1  0.666667  0.333333  0.865969  1
  Ni  Ni6  1  0.666667  0.333333  0.634067  1
  Ni  Ni7  1  0.333333  0.666667  0.365933  1
  As  As8  1  0.333333  0.666667  0.621246  1
  As  As9  1  0.666667  0.333333  0.378754  1
  As  As10  1  0.666667  0.333333  0.121194  1
  As  As11  1  0.333333  0.666667  0.878806  1
