# generated using pymatgen
data_ErSc7Ta12Si15Ge
_symmetry_space_group_name_H-M   'P 1'
_cell_length_a   6.93452232
_cell_length_b   6.92784141
_cell_length_c   12.72746123
_cell_angle_alpha   89.93508540
_cell_angle_beta   89.97458273
_cell_angle_gamma   89.92376941
_symmetry_Int_Tables_number   1
_chemical_formula_structural   ErSc7Ta12Si15Ge
_chemical_formula_sum   'Er1 Sc7 Ta12 Si15 Ge1'
_cell_volume   611.44241898
_cell_formula_units_Z   1
loop_
 _symmetry_equiv_pos_site_id
 _symmetry_equiv_pos_as_xyz
  1  'x, y, z'
loop_
 _atom_site_type_symbol
 _atom_site_label
 _atom_site_symmetry_multiplicity
 _atom_site_fract_x
 _atom_site_fract_y
 _atom_site_fract_z
 _atom_site_occupancy
  Er  Er0  1  0.995455  0.659015  0.031807  1
  Sc  Sc1  1  0.343541  0.000065  0.467504  1
  Sc  Sc2  1  0.500810  0.841740  0.718871  1
  Sc  Sc3  1  0.500093  0.157971  0.219878  1
  Sc  Sc4  1  0.842746  0.499544  0.281840  1
  Sc  Sc5  1  0.157810  0.502027  0.781598  1
  Sc  Sc6  1  0.656416  0.999379  0.968429  1
  Sc  Sc7  1  0.997927  0.345501  0.529507  1
  Ta  Ta8  1  0.328631  0.326789  0.999973  1
  Ta  Ta9  1  0.172451  0.829159  0.250922  1
  Ta  Ta10  1  0.825189  0.171418  0.749539  1
  Ta  Ta11  1  0.672408  0.672044  0.500171  1
  Ta  Ta12  1  0.151890  0.004078  0.873562  1
  Ta  Ta13  1  0.495304  0.649719  0.124625  1
  Ta  Ta14  1  0.508976  0.352427  0.623631  1
  Ta  Ta15  1  0.650311  0.492141  0.875342  1
  Ta  Ta16  1  0.350452  0.506010  0.376862  1
  Ta  Ta17  1  0.849767  0.994976  0.374489  1
  Ta  Ta18  1  0.006764  0.150535  0.126728  1
  Ta  Ta19  1  0.991325  0.847079  0.625083  1
  Si  Si20  1  0.364597  0.705018  0.927733  1
  Si  Si21  1  0.639325  0.295763  0.428117  1
  Si  Si22  1  0.702051  0.356794  0.071566  1
  Si  Si23  1  0.295023  0.639903  0.571940  1
  Si  Si24  1  0.791750  0.865027  0.181186  1
  Si  Si25  1  0.139471  0.205031  0.322664  1
  Si  Si26  1  0.859879  0.796330  0.820263  1
  Si  Si27  1  0.302749  0.955627  0.064546  1
  Si  Si28  1  0.544994  0.800757  0.314676  1
  Si  Si29  1  0.456235  0.198561  0.814865  1
  Si  Si30  1  0.801803  0.544775  0.686053  1
  Si  Si31  1  0.202178  0.452621  0.187759  1
  Si  Si32  1  0.698427  0.045811  0.563871  1
  Si  Si33  1  0.954234  0.295240  0.934754  1
  Si  Si34  1  0.045794  0.700022  0.435561  1
  Ge  Ge35  1  0.203228  0.141099  0.674086  1
