# generated using pymatgen
data_Nd4U4Re3B24Ru
_symmetry_space_group_name_H-M   'P 1'
_cell_length_a   3.68437500
_cell_length_b   9.39798115
_cell_length_c   11.53662119
_cell_angle_alpha   89.97924556
_cell_angle_beta   90.00000000
_cell_angle_gamma   90.00000000
_symmetry_Int_Tables_number   1
_chemical_formula_structural   Nd4U4Re3B24Ru
_chemical_formula_sum   'Nd4 U4 Re3 B24 Ru1'
_cell_volume   399.46340599
_cell_formula_units_Z   1
loop_
 _symmetry_equiv_pos_site_id
 _symmetry_equiv_pos_as_xyz
  1  'x, y, z'
loop_
 _atom_site_type_symbol
 _atom_site_label
 _atom_site_symmetry_multiplicity
 _atom_site_fract_x
 _atom_site_fract_y
 _atom_site_fract_z
 _atom_site_occupancy
  Nd  Nd0  1  0.000000  0.337153  0.408749  1
  Nd  Nd1  1  0.000000  0.662803  0.592873  1
  Nd  Nd2  1  0.000000  0.838254  0.090845  1
  Nd  Nd3  1  0.000000  0.162563  0.907612  1
  U  U4  1  0.000000  0.959759  0.397038  1
  U  U5  1  0.000000  0.041652  0.602857  1
  U  U6  1  0.000000  0.455998  0.102224  1
  U  U7  1  0.000000  0.541977  0.897553  1
  Re  Re8  1  0.000000  0.352452  0.682829  1
  Re  Re9  1  0.000000  0.148348  0.183481  1
  Re  Re10  1  0.000000  0.851609  0.817057  1
  B  B11  1  0.500000  0.556219  0.427387  1
  B  B12  1  0.500000  0.444404  0.572303  1
  B  B13  1  0.500000  0.055820  0.072144  1
  B  B14  1  0.500000  0.943956  0.927734  1
  B  B15  1  0.500000  0.745806  0.420501  1
  B  B16  1  0.500000  0.254475  0.578967  1
  B  B17  1  0.500000  0.245710  0.079175  1
  B  B18  1  0.500000  0.754153  0.921016  1
  B  B19  1  0.500000  0.802651  0.274643  1
  B  B20  1  0.500000  0.197145  0.724735  1
  B  B21  1  0.500000  0.302932  0.225144  1
  B  B22  1  0.500000  0.696931  0.775286  1
  B  B23  1  0.500000  0.644651  0.187940  1
  B  B24  1  0.500000  0.355425  0.812092  1
  B  B25  1  0.500000  0.144390  0.312247  1
  B  B26  1  0.500000  0.855252  0.687656  1
  B  B27  1  0.500000  0.992247  0.220771  1
  B  B28  1  0.500000  0.007085  0.778566  1
  B  B29  1  0.500000  0.493277  0.279459  1
  B  B30  1  0.500000  0.507438  0.721237  1
  B  B31  1  0.500000  0.636976  0.037916  1
  B  B32  1  0.500000  0.363507  0.962808  1
  B  B33  1  0.500000  0.136845  0.462917  1
  B  B34  1  0.500000  0.862332  0.536796  1
  Ru  Ru35  1  0.000000  0.647804  0.317443  1
