# generated using pymatgen
data_Tb5Ce4Ho(CoBi2)2
_symmetry_space_group_name_H-M   'P 1'
_cell_length_a   7.96716948
_cell_length_b   9.09835000
_cell_length_c   12.26542330
_cell_angle_alpha   90.00000000
_cell_angle_beta   89.92991093
_cell_angle_gamma   90.00000000
_symmetry_Int_Tables_number   1
_chemical_formula_structural   Tb5Ce4Ho(CoBi2)2
_chemical_formula_sum   'Tb10 Ce8 Ho2 Co4 Bi8'
_cell_volume   889.09652253
_cell_formula_units_Z   2
loop_
 _symmetry_equiv_pos_site_id
 _symmetry_equiv_pos_as_xyz
  1  'x, y, z'
loop_
 _atom_site_type_symbol
 _atom_site_label
 _atom_site_symmetry_multiplicity
 _atom_site_fract_x
 _atom_site_fract_y
 _atom_site_fract_z
 _atom_site_occupancy
  Tb  Tb0  1  0.336769  0.250000  0.709667  1
  Tb  Tb1  1  0.663231  0.750000  0.290333  1
  Tb  Tb2  1  0.366305  0.750000  0.701267  1
  Tb  Tb3  1  0.633695  0.250000  0.298733  1
  Tb  Tb4  1  0.866188  0.250000  0.798789  1
  Tb  Tb5  1  0.133812  0.750000  0.201211  1
  Tb  Tb6  1  0.979423  0.750000  0.500074  1
  Tb  Tb7  1  0.020577  0.250000  0.499926  1
  Tb  Tb8  1  0.479261  0.250000  0.000037  1
  Tb  Tb9  1  0.520739  0.750000  0.999963  1
  Ce  Ce10  1  0.655031  0.012334  0.550880  1
  Ce  Ce11  1  0.344969  0.987666  0.449120  1
  Ce  Ce12  1  0.155021  0.987613  0.949140  1
  Ce  Ce13  1  0.344969  0.512334  0.449120  1
  Ce  Ce14  1  0.844979  0.012387  0.050860  1
  Ce  Ce15  1  0.655031  0.487666  0.550880  1
  Ce  Ce16  1  0.844979  0.487613  0.050860  1
  Ce  Ce17  1  0.155021  0.512387  0.949140  1
  Ho  Ho18  1  0.836250  0.750000  0.790419  1
  Ho  Ho19  1  0.163750  0.250000  0.209581  1
  Co  Co20  1  0.630562  0.750000  0.539337  1
  Co  Co21  1  0.369438  0.250000  0.460663  1
  Co  Co22  1  0.130318  0.250000  0.961320  1
  Co  Co23  1  0.869682  0.750000  0.038680  1
  Bi  Bi24  1  0.566450  0.494619  0.825303  1
  Bi  Bi25  1  0.433550  0.505381  0.174697  1
  Bi  Bi26  1  0.065750  0.506010  0.674847  1
  Bi  Bi27  1  0.433550  0.994619  0.174697  1
  Bi  Bi28  1  0.934250  0.493990  0.325153  1
  Bi  Bi29  1  0.566450  0.005381  0.825303  1
  Bi  Bi30  1  0.934250  0.006010  0.325153  1
  Bi  Bi31  1  0.065750  0.993990  0.674847  1
