# generated using pymatgen
data_TmTi4Re19Tc5
_symmetry_space_group_name_H-M   'P 1'
_cell_length_a   8.40338320
_cell_length_b   8.40010254
_cell_length_c   8.38768662
_cell_angle_alpha   109.45169382
_cell_angle_beta   109.46529254
_cell_angle_gamma   109.53123023
_symmetry_Int_Tables_number   1
_chemical_formula_structural   TmTi4Re19Tc5
_chemical_formula_sum   'Tm1 Ti4 Re19 Tc5'
_cell_volume   455.58932279
_cell_formula_units_Z   1
loop_
 _symmetry_equiv_pos_site_id
 _symmetry_equiv_pos_as_xyz
  1  'x, y, z'
loop_
 _atom_site_type_symbol
 _atom_site_label
 _atom_site_symmetry_multiplicity
 _atom_site_fract_x
 _atom_site_fract_y
 _atom_site_fract_z
 _atom_site_occupancy
  Tm  Tm0  1  0.999910  0.999912  0.000461  1
  Ti  Ti1  1  0.627409  0.999960  0.000352  1
  Ti  Ti2  1  0.998594  0.626623  0.999032  1
  Ti  Ti3  1  0.999374  0.999736  0.628184  1
  Ti  Ti4  1  0.371758  0.371794  0.372216  1
  Re  Re5  1  0.318774  0.719595  0.317707  1
  Re  Re6  1  0.319414  0.318771  0.720208  1
  Re  Re7  1  0.000432  0.680693  0.400501  1
  Re  Re8  1  0.680663  0.000783  0.400376  1
  Re  Re9  1  0.598793  0.598616  0.279784  1
  Re  Re10  1  0.280858  0.600561  0.599555  1
  Re  Re11  1  0.600469  0.280976  0.599243  1
  Re  Re12  1  0.377901  0.195130  0.999931  1
  Re  Re13  1  0.182340  0.805543  0.804608  1
  Re  Re14  1  0.376869  0.999805  0.194857  1
  Re  Re15  1  0.195077  0.378128  0.999781  1
  Re  Re16  1  0.000409  0.377527  0.195229  1
  Re  Re17  1  0.805938  0.183098  0.805296  1
  Re  Re18  1  0.805751  0.805962  0.184297  1
  Re  Re19  1  0.000616  0.194617  0.379588  1
  Re  Re20  1  0.194337  0.999910  0.379024  1
  Re  Re21  1  0.621976  0.621965  0.816178  1
  Re  Re22  1  0.815329  0.621218  0.620670  1
  Re  Re23  1  0.622520  0.816403  0.621943  1
  Tc  Tc24  1  0.400214  0.681302  0.999074  1
  Tc  Tc25  1  0.719406  0.318272  0.317478  1
  Tc  Tc26  1  0.402107  0.000808  0.682002  1
  Tc  Tc27  1  0.681510  0.400302  0.000081  1
  Tc  Tc28  1  0.001254  0.401988  0.682343  1
