# generated using pymatgen
data_Y20CdHg5OsRu
_symmetry_space_group_name_H-M   'P 1'
_cell_length_a   9.68416423
_cell_length_b   9.66672352
_cell_length_c   9.74172900
_cell_angle_alpha   90.00000000
_cell_angle_beta   90.00000000
_cell_angle_gamma   119.94044675
_symmetry_Int_Tables_number   1
_chemical_formula_structural   Y20CdHg5OsRu
_chemical_formula_sum   'Y20 Cd1 Hg5 Os1 Ru1'
_cell_volume   790.25713493
_cell_formula_units_Z   1
loop_
 _symmetry_equiv_pos_site_id
 _symmetry_equiv_pos_as_xyz
  1  'x, y, z'
loop_
 _atom_site_type_symbol
 _atom_site_label
 _atom_site_symmetry_multiplicity
 _atom_site_fract_x
 _atom_site_fract_y
 _atom_site_fract_z
 _atom_site_occupancy
  Y  Y0  1  0.996790  0.998395  0.502628  1
  Y  Y1  1  0.996790  0.998395  0.997372  1
  Y  Y2  1  0.209678  0.790999  0.440665  1
  Y  Y3  1  0.209678  0.418681  0.440665  1
  Y  Y4  1  0.581478  0.790739  0.440637  1
  Y  Y5  1  0.790787  0.209365  0.560715  1
  Y  Y6  1  0.790787  0.581420  0.560715  1
  Y  Y7  1  0.418744  0.209371  0.560001  1
  Y  Y8  1  0.790787  0.209365  0.939285  1
  Y  Y9  1  0.790787  0.581420  0.939285  1
  Y  Y10  1  0.418744  0.209371  0.939999  1
  Y  Y11  1  0.209678  0.790999  0.059335  1
  Y  Y12  1  0.209678  0.418681  0.059335  1
  Y  Y13  1  0.581478  0.790739  0.059363  1
  Y  Y14  1  0.542473  0.463065  0.250000  1
  Y  Y15  1  0.542473  0.079408  0.250000  1
  Y  Y16  1  0.920361  0.460181  0.250000  1
  Y  Y17  1  0.459112  0.541106  0.750000  1
  Y  Y18  1  0.459112  0.918006  0.750000  1
  Y  Y19  1  0.081972  0.540986  0.750000  1
  Cd  Cd20  1  0.231769  0.115885  0.250000  1
  Hg  Hg21  1  0.883733  0.119143  0.250000  1
  Hg  Hg22  1  0.883733  0.764592  0.250000  1
  Hg  Hg23  1  0.118788  0.880596  0.750000  1
  Hg  Hg24  1  0.118788  0.238191  0.750000  1
  Hg  Hg25  1  0.760928  0.880463  0.750000  1
  Os  Os26  1  0.333916  0.666959  0.250000  1
  Ru  Ru27  1  0.666959  0.333479  0.750000  1
