# generated using pymatgen
data_Dy16In2AgHgRh4
_symmetry_space_group_name_H-M   'P 1'
_cell_length_a   9.59265028
_cell_length_b   9.62580755
_cell_length_c   9.59998250
_cell_angle_alpha   59.91096397
_cell_angle_beta   59.85189621
_cell_angle_gamma   59.88559835
_symmetry_Int_Tables_number   1
_chemical_formula_structural   Dy16In2AgHgRh4
_chemical_formula_sum   'Dy16 In2 Ag1 Hg1 Rh4'
_cell_volume   625.13640115
_cell_formula_units_Z   1
loop_
 _symmetry_equiv_pos_site_id
 _symmetry_equiv_pos_as_xyz
  1  'x, y, z'
loop_
 _atom_site_type_symbol
 _atom_site_label
 _atom_site_symmetry_multiplicity
 _atom_site_fract_x
 _atom_site_fract_y
 _atom_site_fract_z
 _atom_site_occupancy
  Dy  Dy0  1  0.690929  0.310211  0.309993  1
  Dy  Dy1  1  0.690929  0.688866  0.309993  1
  Dy  Dy2  1  0.311547  0.688973  0.310507  1
  Dy  Dy3  1  0.936918  0.936734  0.560175  1
  Dy  Dy4  1  0.146407  0.151336  0.550920  1
  Dy  Dy5  1  0.559056  0.938005  0.564934  1
  Dy  Dy6  1  0.148571  0.152166  0.149157  1
  Dy  Dy7  1  0.311367  0.309804  0.690232  1
  Dy  Dy8  1  0.936918  0.566172  0.560175  1
  Dy  Dy9  1  0.558541  0.567721  0.936635  1
  Dy  Dy10  1  0.558541  0.937105  0.936635  1
  Dy  Dy11  1  0.936104  0.564421  0.935054  1
  Dy  Dy12  1  0.148571  0.550104  0.149157  1
  Dy  Dy13  1  0.311367  0.688598  0.690232  1
  Dy  Dy14  1  0.691835  0.308464  0.691237  1
  Dy  Dy15  1  0.553063  0.149685  0.147564  1
  In  In16  1  0.921241  0.242868  0.919215  1
  In  In17  1  0.921241  0.916675  0.919215  1
  Ag  Ag18  1  0.250773  0.916640  0.915948  1
  Hg  Hg19  1  0.917286  0.913801  0.255113  1
  Rh  Rh20  1  0.357463  0.357683  0.356898  1
  Rh  Rh21  1  0.927418  0.357967  0.356650  1
  Rh  Rh22  1  0.356452  0.358045  0.927458  1
  Rh  Rh23  1  0.357463  0.927957  0.356898  1
