# generated using pymatgen
data_Ti5Nb3Co7Si14Ru
_symmetry_space_group_name_H-M   'P 1'
_cell_length_a   9.22291783
_cell_length_b   9.21510582
_cell_length_c   9.21474011
_cell_angle_alpha   94.20316779
_cell_angle_beta   94.22793332
_cell_angle_gamma   148.48886592
_symmetry_Int_Tables_number   1
_chemical_formula_structural   Ti5Nb3Co7Si14Ru
_chemical_formula_sum   'Ti5 Nb3 Co7 Si14 Ru1'
_cell_volume   394.04606653
_cell_formula_units_Z   1
loop_
 _symmetry_equiv_pos_site_id
 _symmetry_equiv_pos_as_xyz
  1  'x, y, z'
loop_
 _atom_site_type_symbol
 _atom_site_label
 _atom_site_symmetry_multiplicity
 _atom_site_fract_x
 _atom_site_fract_y
 _atom_site_fract_z
 _atom_site_occupancy
  Ti  Ti0  1  0.138102  0.867651  0.000338  1
  Ti  Ti1  1  0.503768  0.692990  0.194212  1
  Ti  Ti2  1  0.496380  0.306164  0.805686  1
  Ti  Ti3  1  0.309845  0.500049  0.807206  1
  Ti  Ti4  1  0.690535  0.501662  0.195207  1
  Nb  Nb5  1  0.133823  0.132977  0.266983  1
  Nb  Nb6  1  0.866087  0.865566  0.732866  1
  Nb  Nb7  1  0.865128  0.132124  0.000890  1
  Co  Co8  1  0.101849  0.602182  0.204466  1
  Co  Co9  1  0.099876  0.897844  0.499671  1
  Co  Co10  1  0.399489  0.602241  0.500113  1
  Co  Co11  1  0.598219  0.397798  0.498230  1
  Co  Co12  1  0.899805  0.100523  0.497962  1
  Co  Co13  1  0.899053  0.399743  0.799775  1
  Co  Co14  1  0.599030  0.099594  0.197739  1
  Si  Si15  1  0.292250  0.292453  0.585049  1
  Si  Si16  1  0.707092  0.707226  0.414858  1
  Si  Si17  1  0.720405  0.314153  0.004928  1
  Si  Si18  1  0.285600  0.692803  0.004825  1
  Si  Si19  1  0.000246  0.296774  0.296534  1
  Si  Si20  1  0.988808  0.698145  0.704238  1
  Si  Si21  1  0.714442  0.006059  0.702817  1
  Si  Si22  1  0.295002  0.999144  0.294440  1
  Si  Si23  1  0.503502  0.908571  0.404439  1
  Si  Si24  1  0.506999  0.102745  0.589671  1
  Si  Si25  1  0.081939  0.487131  0.590555  1
  Si  Si26  1  0.900763  0.496516  0.405137  1
  Si  Si27  1  0.750332  0.748549  0.000225  1
  Si  Si28  1  0.251571  0.249618  0.000096  1
  Ru  Ru29  1  0.400061  0.901001  0.800844  1
