# generated using pymatgen
data_Tb4AlOsRu6
_symmetry_space_group_name_H-M   'P 1'
_cell_length_a   5.22977603
_cell_length_b   5.22977442
_cell_length_c   8.96380600
_cell_angle_alpha   90.00000000
_cell_angle_beta   90.00000000
_cell_angle_gamma   116.90032079
_symmetry_Int_Tables_number   1
_chemical_formula_structural   Tb4AlOsRu6
_chemical_formula_sum   'Tb4 Al1 Os1 Ru6'
_cell_volume   218.63693288
_cell_formula_units_Z   1
loop_
 _symmetry_equiv_pos_site_id
 _symmetry_equiv_pos_as_xyz
  1  'x, y, z'
loop_
 _atom_site_type_symbol
 _atom_site_label
 _atom_site_symmetry_multiplicity
 _atom_site_fract_x
 _atom_site_fract_y
 _atom_site_fract_z
 _atom_site_occupancy
  Tb  Tb0  1  0.330523  0.669477  0.431948  1
  Tb  Tb1  1  0.667598  0.332402  0.563971  1
  Tb  Tb2  1  0.667598  0.332402  0.936029  1
  Tb  Tb3  1  0.330523  0.669477  0.068052  1
  Al  Al4  1  0.164644  0.835356  0.750000  1
  Os  Os5  1  0.841791  0.158209  0.250000  1
  Ru  Ru6  1  0.992236  0.007764  0.499429  1
  Ru  Ru7  1  0.992236  0.007764  0.000571  1
  Ru  Ru8  1  0.828496  0.646426  0.250000  1
  Ru  Ru9  1  0.353574  0.171504  0.250000  1
  Ru  Ru10  1  0.176233  0.345448  0.750000  1
  Ru  Ru11  1  0.654552  0.823767  0.750000  1
