# generated using pymatgen
data_TbLu3Th6(Si3C)2
_symmetry_space_group_name_H-M   'P 1'
_cell_length_a   8.71023000
_cell_length_b   8.71023234
_cell_length_c   6.32443300
_cell_angle_alpha   90.00000000
_cell_angle_beta   90.00000000
_cell_angle_gamma   120.00000630
_symmetry_Int_Tables_number   1
_chemical_formula_structural   TbLu3Th6(Si3C)2
_chemical_formula_sum   'Tb1 Lu3 Th6 Si6 C2'
_cell_volume   415.53878242
_cell_formula_units_Z   1
loop_
 _symmetry_equiv_pos_site_id
 _symmetry_equiv_pos_as_xyz
  1  'x, y, z'
loop_
 _atom_site_type_symbol
 _atom_site_label
 _atom_site_symmetry_multiplicity
 _atom_site_fract_x
 _atom_site_fract_y
 _atom_site_fract_z
 _atom_site_occupancy
  Tb  Tb0  1  0.666667  0.333333  0.500000  1
  Lu  Lu1  1  0.666667  0.333333  0.000000  1
  Lu  Lu2  1  0.333333  0.666667  0.000000  1
  Lu  Lu3  1  0.333333  0.666667  0.500000  1
  Th  Th4  1  0.765669  0.765902  0.750573  1
  Th  Th5  1  0.234098  0.999767  0.750573  1
  Th  Th6  1  0.000233  0.234331  0.750573  1
  Th  Th7  1  0.234098  0.234331  0.249427  1
  Th  Th8  1  0.765669  0.999767  0.249427  1
  Th  Th9  1  0.000233  0.765902  0.249427  1
  Si  Si10  1  0.401562  0.404026  0.752340  1
  Si  Si11  1  0.595974  0.997537  0.752340  1
  Si  Si12  1  0.002463  0.598438  0.752340  1
  Si  Si13  1  0.595974  0.598438  0.247660  1
  Si  Si14  1  0.401562  0.997537  0.247660  1
  Si  Si15  1  0.002463  0.404026  0.247660  1
  C  C16  1  0.000000  0.000000  0.000000  1
  C  C17  1  0.000000  0.000000  0.500000  1
