# generated using pymatgen
data_Nb6CrFe5N2
_symmetry_space_group_name_H-M   'P 1'
_cell_length_a   7.96604582
_cell_length_b   8.01396728
_cell_length_c   8.01396760
_cell_angle_alpha   60.28361534
_cell_angle_beta   60.19761570
_cell_angle_gamma   60.19761137
_symmetry_Int_Tables_number   1
_chemical_formula_structural   Nb6CrFe5N2
_chemical_formula_sum   'Nb12 Cr2 Fe10 N4'
_cell_volume   363.61476063
_cell_formula_units_Z   2
loop_
 _symmetry_equiv_pos_site_id
 _symmetry_equiv_pos_as_xyz
  1  'x, y, z'
loop_
 _atom_site_type_symbol
 _atom_site_label
 _atom_site_symmetry_multiplicity
 _atom_site_fract_x
 _atom_site_fract_y
 _atom_site_fract_z
 _atom_site_occupancy
  Nb  Nb0  1  0.801243  0.802517  0.196395  1
  Nb  Nb1  1  0.199845  0.196395  0.802517  1
  Nb  Nb2  1  0.801243  0.196395  0.802517  1
  Nb  Nb3  1  0.199845  0.802517  0.196395  1
  Nb  Nb4  1  0.195181  0.804819  0.804819  1
  Nb  Nb5  1  0.798797  0.201203  0.201203  1
  Nb  Nb6  1  0.448757  0.447483  0.053605  1
  Nb  Nb7  1  0.050155  0.053605  0.447483  1
  Nb  Nb8  1  0.448757  0.053605  0.447483  1
  Nb  Nb9  1  0.050155  0.447483  0.053605  1
  Nb  Nb10  1  0.054819  0.445181  0.445181  1
  Nb  Nb11  1  0.451203  0.048797  0.048797  1
  Cr  Cr12  1  0.125000  0.625000  0.625000  1
  Cr  Cr13  1  0.625000  0.625000  0.625000  1
  Fe  Fe14  1  0.625000  0.125000  0.625000  1
  Fe  Fe15  1  0.625000  0.625000  0.125000  1
  Fe  Fe16  1  0.724732  0.425415  0.425415  1
  Fe  Fe17  1  0.423116  0.729570  0.424200  1
  Fe  Fe18  1  0.423116  0.424200  0.729570  1
  Fe  Fe19  1  0.424438  0.425415  0.425415  1
  Fe  Fe20  1  0.525268  0.824585  0.824585  1
  Fe  Fe21  1  0.826884  0.520430  0.825800  1
  Fe  Fe22  1  0.826884  0.825800  0.520430  1
  Fe  Fe23  1  0.825562  0.824585  0.824585  1
  N  N24  1  0.625000  0.125000  0.125000  1
  N  N25  1  0.125000  0.625000  0.125000  1
  N  N26  1  0.125000  0.125000  0.625000  1
  N  N27  1  0.125000  0.125000  0.125000  1
