# generated using pymatgen
data_MgTa3(Pd3Rh)3
_symmetry_space_group_name_H-M   'P 1'
_cell_length_a   5.60347300
_cell_length_b   5.60347278
_cell_length_c   9.07138100
_cell_angle_alpha   90.00000000
_cell_angle_beta   90.00000000
_cell_angle_gamma   119.99999541
_symmetry_Int_Tables_number   1
_chemical_formula_structural   MgTa3(Pd3Rh)3
_chemical_formula_sum   'Mg1 Ta3 Pd9 Rh3'
_cell_volume   246.67129266
_cell_formula_units_Z   1
loop_
 _symmetry_equiv_pos_site_id
 _symmetry_equiv_pos_as_xyz
  1  'x, y, z'
loop_
 _atom_site_type_symbol
 _atom_site_label
 _atom_site_symmetry_multiplicity
 _atom_site_fract_x
 _atom_site_fract_y
 _atom_site_fract_z
 _atom_site_occupancy
  Mg  Mg0  1  0.333333  0.666667  0.000000  1
  Ta  Ta1  1  0.666667  0.333333  0.500000  1
  Ta  Ta2  1  0.000000  0.000000  0.738618  1
  Ta  Ta3  1  0.000000  0.000000  0.261382  1
  Pd  Pd4  1  0.833398  0.166602  0.000000  1
  Pd  Pd5  1  0.833398  0.666796  0.000000  1
  Pd  Pd6  1  0.333204  0.166602  0.000000  1
  Pd  Pd7  1  0.997514  0.498758  0.747522  1
  Pd  Pd8  1  0.501242  0.498758  0.747522  1
  Pd  Pd9  1  0.501242  0.002486  0.747522  1
  Pd  Pd10  1  0.997514  0.498758  0.252478  1
  Pd  Pd11  1  0.501242  0.498758  0.252478  1
  Pd  Pd12  1  0.501242  0.002486  0.252478  1
  Rh  Rh13  1  0.167275  0.832725  0.500000  1
  Rh  Rh14  1  0.167275  0.334552  0.500000  1
  Rh  Rh15  1  0.665448  0.832725  0.500000  1
