# generated using pymatgen
data_Dy3Ga4Co6Ni3B2
_symmetry_space_group_name_H-M   'P 1'
_cell_length_a   5.18242700
_cell_length_b   5.18242811
_cell_length_c   10.46851100
_cell_angle_alpha   90.00000000
_cell_angle_beta   90.00000000
_cell_angle_gamma   119.99998656
_symmetry_Int_Tables_number   1
_chemical_formula_structural   Dy3Ga4Co6Ni3B2
_chemical_formula_sum   'Dy3 Ga4 Co6 Ni3 B2'
_cell_volume   243.49053474
_cell_formula_units_Z   1
loop_
 _symmetry_equiv_pos_site_id
 _symmetry_equiv_pos_as_xyz
  1  'x, y, z'
loop_
 _atom_site_type_symbol
 _atom_site_label
 _atom_site_symmetry_multiplicity
 _atom_site_fract_x
 _atom_site_fract_y
 _atom_site_fract_z
 _atom_site_occupancy
  Dy  Dy0  1  0.000000  0.000000  0.000000  1
  Dy  Dy1  1  0.000000  0.000000  0.323096  1
  Dy  Dy2  1  0.000000  0.000000  0.676904  1
  Ga  Ga3  1  0.333333  0.666667  0.314218  1
  Ga  Ga4  1  0.666667  0.333333  0.314218  1
  Ga  Ga5  1  0.666667  0.333333  0.685782  1
  Ga  Ga6  1  0.333333  0.666667  0.685782  1
  Co  Co7  1  0.500000  0.000000  0.129573  1
  Co  Co8  1  0.500000  0.500000  0.129573  1
  Co  Co9  1  0.000000  0.500000  0.129573  1
  Co  Co10  1  0.500000  0.000000  0.870427  1
  Co  Co11  1  0.500000  0.500000  0.870427  1
  Co  Co12  1  0.000000  0.500000  0.870427  1
  Ni  Ni13  1  0.500000  0.000000  0.500000  1
  Ni  Ni14  1  0.500000  0.500000  0.500000  1
  Ni  Ni15  1  0.000000  0.500000  0.500000  1
  B  B16  1  0.333333  0.666667  0.000000  1
  B  B17  1  0.666667  0.333333  0.000000  1
