# generated using pymatgen
data_Ta(Re6Mo)4
_symmetry_space_group_name_H-M   'P 1'
_cell_length_a   8.36857766
_cell_length_b   8.36857764
_cell_length_c   8.36857700
_cell_angle_alpha   109.47121425
_cell_angle_beta   109.47121419
_cell_angle_gamma   109.47123057
_symmetry_Int_Tables_number   1
_chemical_formula_structural   Ta(Re6Mo)4
_chemical_formula_sum   'Ta1 Re24 Mo4'
_cell_volume   451.16254894
_cell_formula_units_Z   1
loop_
 _symmetry_equiv_pos_site_id
 _symmetry_equiv_pos_as_xyz
  1  'x, y, z'
loop_
 _atom_site_type_symbol
 _atom_site_label
 _atom_site_symmetry_multiplicity
 _atom_site_fract_x
 _atom_site_fract_y
 _atom_site_fract_z
 _atom_site_occupancy
  Ta  Ta0  1  0.000000  0.000000  0.000000  1
  Re  Re1  1  0.376175  0.193896  0.000000  1
  Re  Re2  1  0.193896  0.376175  0.000000  1
  Re  Re3  1  0.684478  0.400924  0.000000  1
  Re  Re4  1  0.400924  0.684478  0.000000  1
  Re  Re5  1  0.806103  0.806103  0.182279  1
  Re  Re6  1  0.376175  0.000000  0.193896  1
  Re  Re7  1  0.000000  0.376175  0.193896  1
  Re  Re8  1  0.599076  0.599076  0.283553  1
  Re  Re9  1  0.716447  0.315523  0.315523  1
  Re  Re10  1  0.315523  0.716447  0.315523  1
  Re  Re11  1  0.193896  0.000000  0.376175  1
  Re  Re12  1  0.000000  0.193896  0.376175  1
  Re  Re13  1  0.684478  0.000000  0.400924  1
  Re  Re14  1  0.000000  0.684478  0.400924  1
  Re  Re15  1  0.599076  0.283553  0.599076  1
  Re  Re16  1  0.283553  0.599076  0.599076  1
  Re  Re17  1  0.817722  0.623825  0.623825  1
  Re  Re18  1  0.623825  0.817722  0.623825  1
  Re  Re19  1  0.400924  0.000000  0.684478  1
  Re  Re20  1  0.000000  0.400924  0.684478  1
  Re  Re21  1  0.315523  0.315523  0.716447  1
  Re  Re22  1  0.806103  0.182279  0.806103  1
  Re  Re23  1  0.182279  0.806103  0.806103  1
  Re  Re24  1  0.623825  0.623825  0.817722  1
  Mo  Mo25  1  0.638443  0.000000  0.000000  1
  Mo  Mo26  1  0.000000  0.638443  0.000000  1
  Mo  Mo27  1  0.361558  0.361558  0.361558  1
  Mo  Mo28  1  0.000000  0.000000  0.638443  1
