# generated using pymatgen
data_DyYEr8(In2Ni)4
_symmetry_space_group_name_H-M   'P 1'
_cell_length_a   3.57651500
_cell_length_b   7.99887907
_cell_length_c   17.86591715
_cell_angle_alpha   90.01511410
_cell_angle_beta   90.00000000
_cell_angle_gamma   90.00000000
_symmetry_Int_Tables_number   1
_chemical_formula_structural   DyYEr8(In2Ni)4
_chemical_formula_sum   'Dy1 Y1 Er8 In8 Ni4'
_cell_volume   511.11012288
_cell_formula_units_Z   1
loop_
 _symmetry_equiv_pos_site_id
 _symmetry_equiv_pos_as_xyz
  1  'x, y, z'
loop_
 _atom_site_type_symbol
 _atom_site_label
 _atom_site_symmetry_multiplicity
 _atom_site_fract_x
 _atom_site_fract_y
 _atom_site_fract_z
 _atom_site_occupancy
  Dy  Dy0  1  0.500000  0.000000  0.500000  1
  Y  Y1  1  0.500000  0.500000  0.000000  1
  Er  Er2  1  0.500000  0.382384  0.589246  1
  Er  Er3  1  0.500000  0.882654  0.910706  1
  Er  Er4  1  0.500000  0.117346  0.089294  1
  Er  Er5  1  0.500000  0.755626  0.720930  1
  Er  Er6  1  0.500000  0.255547  0.779059  1
  Er  Er7  1  0.500000  0.744453  0.220941  1
  Er  Er8  1  0.500000  0.244374  0.279070  1
  Er  Er9  1  0.500000  0.617616  0.410754  1
  In  In10  1  0.000000  0.797581  0.068449  1
  In  In11  1  0.000000  0.925957  0.347033  1
  In  In12  1  0.000000  0.074043  0.652967  1
  In  In13  1  0.000000  0.574075  0.847011  1
  In  In14  1  0.000000  0.702629  0.568428  1
  In  In15  1  0.000000  0.202419  0.931551  1
  In  In16  1  0.000000  0.297371  0.431572  1
  In  In17  1  0.000000  0.425925  0.152989  1
  Ni  Ni18  1  0.000000  0.976585  0.803836  1
  Ni  Ni19  1  0.000000  0.523465  0.303814  1
  Ni  Ni20  1  0.000000  0.476535  0.696186  1
  Ni  Ni21  1  0.000000  0.023415  0.196164  1
