# generated using pymatgen
data_Ac3La3(RuBr3)2
_symmetry_space_group_name_H-M   'P 1'
_cell_length_a   10.84475154
_cell_length_b   10.84475154
_cell_length_c   10.88338242
_cell_angle_alpha   107.18833648
_cell_angle_beta   111.66153988
_cell_angle_gamma   109.45070996
_symmetry_Int_Tables_number   1
_chemical_formula_structural   Ac3La3(RuBr3)2
_chemical_formula_sum   'Ac6 La6 Ru4 Br12'
_cell_volume   985.57344568
_cell_formula_units_Z   2
loop_
 _symmetry_equiv_pos_site_id
 _symmetry_equiv_pos_as_xyz
  1  'x, y, z'
loop_
 _atom_site_type_symbol
 _atom_site_label
 _atom_site_symmetry_multiplicity
 _atom_site_fract_x
 _atom_site_fract_y
 _atom_site_fract_z
 _atom_site_occupancy
  Ac  Ac0  1  0.266407  0.753008  0.239343  1
  Ac  Ac1  1  0.484525  0.746021  0.012927  1
  Ac  Ac2  1  0.233094  0.471597  0.487073  1
  Ac  Ac3  1  0.013665  0.027065  0.260657  1
  Ac  Ac4  1  0.233462  0.259841  0.747571  1
  Ac  Ac5  1  0.012270  0.485891  0.752429  1
  La  La6  1  0.472439  0.238417  0.457287  1
  La  La7  1  0.281130  0.015152  0.042713  1
  La  La8  1  0.754576  0.232473  0.273388  1
  La  La9  1  0.747819  0.021463  0.478972  1
  La  La10  1  0.459084  0.481189  0.226612  1
  La  La11  1  0.042492  0.268847  0.021028  1
  Ru  Ru12  1  0.494791  0.000406  0.244040  1
  Ru  Ru13  1  0.253397  0.496843  0.007502  1
  Ru  Ru14  1  0.989341  0.245896  0.492498  1
  Ru  Ru15  1  0.256365  0.250751  0.255960  1
  Br  Br16  1  0.259521  0.998729  0.510523  1
  Br  Br17  1  0.517104  0.500242  0.753549  1
  Br  Br18  1  0.246693  0.763554  0.746451  1
  Br  Br19  1  0.988205  0.748998  0.989477  1
  Br  Br20  1  0.984508  0.493599  0.238227  1
  Br  Br21  1  0.746097  0.007616  0.991440  1
  Br  Br22  1  0.755372  0.746281  0.261773  1
  Br  Br23  1  0.516175  0.754656  0.508560  1
  Br  Br24  1  0.507590  0.252494  0.008019  1
  Br  Br25  1  0.744475  0.499573  0.491981  1
  Br  Br26  1  0.743568  0.241749  0.745916  1
  Br  Br27  1  0.995833  0.997651  0.754084  1
