# generated using pymatgen
data_Dy11Y7Lu2(Cd3Ru)2
_symmetry_space_group_name_H-M   'P 1'
_cell_length_a   9.60047333
_cell_length_b   9.60281423
_cell_length_c   9.85248784
_cell_angle_alpha   89.99999874
_cell_angle_beta   90.04811162
_cell_angle_gamma   120.00806476
_symmetry_Int_Tables_number   1
_chemical_formula_structural   Dy11Y7Lu2(Cd3Ru)2
_chemical_formula_sum   'Dy11 Y7 Lu2 Cd6 Ru2'
_cell_volume   786.56063743
_cell_formula_units_Z   1
loop_
 _symmetry_equiv_pos_site_id
 _symmetry_equiv_pos_as_xyz
  1  'x, y, z'
loop_
 _atom_site_type_symbol
 _atom_site_label
 _atom_site_symmetry_multiplicity
 _atom_site_fract_x
 _atom_site_fract_y
 _atom_site_fract_z
 _atom_site_occupancy
  Dy  Dy0  1  0.209311  0.790815  0.440081  1
  Dy  Dy1  1  0.209311  0.418497  0.440081  1
  Dy  Dy2  1  0.580650  0.790325  0.439932  1
  Dy  Dy3  1  0.790659  0.209434  0.559947  1
  Dy  Dy4  1  0.790659  0.581224  0.559947  1
  Dy  Dy5  1  0.418620  0.209310  0.559857  1
  Dy  Dy6  1  0.790940  0.209733  0.939892  1
  Dy  Dy7  1  0.790940  0.581207  0.939892  1
  Dy  Dy8  1  0.418886  0.209442  0.940007  1
  Dy  Dy9  1  0.209427  0.790630  0.060163  1
  Dy  Dy10  1  0.209427  0.418799  0.060163  1
  Y  Y11  1  0.582258  0.791129  0.059146  1
  Y  Y12  1  0.540998  0.458899  0.250124  1
  Y  Y13  1  0.540998  0.082099  0.250124  1
  Y  Y14  1  0.918519  0.459260  0.250082  1
  Y  Y15  1  0.459127  0.540746  0.749706  1
  Y  Y16  1  0.459127  0.918381  0.749706  1
  Y  Y17  1  0.082128  0.541063  0.750024  1
  Lu  Lu18  1  0.999842  0.999921  0.500150  1
  Lu  Lu19  1  0.000541  0.000271  0.999884  1
  Cd  Cd20  1  0.886997  0.112730  0.249845  1
  Cd  Cd21  1  0.886997  0.774270  0.249845  1
  Cd  Cd22  1  0.225836  0.112919  0.250202  1
  Cd  Cd23  1  0.112791  0.887013  0.750037  1
  Cd  Cd24  1  0.112791  0.225777  0.750037  1
  Cd  Cd25  1  0.774150  0.887075  0.750140  1
  Ru  Ru26  1  0.331504  0.665752  0.251020  1
  Ru  Ru27  1  0.666564  0.333282  0.749964  1
