# generated using pymatgen
data_KRbBaCaSb2
_symmetry_space_group_name_H-M   'P 1'
_cell_length_a   5.40350100
_cell_length_b   8.84673900
_cell_length_c   10.24226600
_cell_angle_alpha   90.00000000
_cell_angle_beta   90.00000000
_cell_angle_gamma   90.00000000
_symmetry_Int_Tables_number   1
_chemical_formula_structural   KRbBaCaSb2
_chemical_formula_sum   'K2 Rb2 Ba2 Ca2 Sb4'
_cell_volume   489.61475988
_cell_formula_units_Z   2
loop_
 _symmetry_equiv_pos_site_id
 _symmetry_equiv_pos_as_xyz
  1  'x, y, z'
loop_
 _atom_site_type_symbol
 _atom_site_label
 _atom_site_symmetry_multiplicity
 _atom_site_fract_x
 _atom_site_fract_y
 _atom_site_fract_z
 _atom_site_occupancy
  K  K0  1  0.000000  0.344507  0.339108  1
  K  K1  1  0.000000  0.844507  0.660892  1
  Rb  Rb2  1  0.500000  0.027139  0.419846  1
  Rb  Rb3  1  0.500000  0.527139  0.580154  1
  Ba  Ba4  1  0.000000  0.494623  0.945301  1
  Ba  Ba5  1  0.000000  0.994623  0.054699  1
  Ca  Ca6  1  0.500000  0.149771  0.818364  1
  Ca  Ca7  1  0.500000  0.649771  0.181636  1
  Sb  Sb8  1  0.000000  0.241559  0.681456  1
  Sb  Sb9  1  0.500000  0.287919  0.110740  1
  Sb  Sb10  1  0.000000  0.741559  0.318544  1
  Sb  Sb11  1  0.500000  0.787919  0.889260  1
