# generated using pymatgen
data_Nd3Lu(CuP2)4
_symmetry_space_group_name_H-M   'P 1'
_cell_length_a   3.74804200
_cell_length_b   3.83268108
_cell_length_c   19.83146511
_cell_angle_alpha   90.04289458
_cell_angle_beta   90.00000000
_cell_angle_gamma   90.00000000
_symmetry_Int_Tables_number   1
_chemical_formula_structural   Nd3Lu(CuP2)4
_chemical_formula_sum   'Nd3 Lu1 Cu4 P8'
_cell_volume   284.87990161
_cell_formula_units_Z   1
loop_
 _symmetry_equiv_pos_site_id
 _symmetry_equiv_pos_as_xyz
  1  'x, y, z'
loop_
 _atom_site_type_symbol
 _atom_site_label
 _atom_site_symmetry_multiplicity
 _atom_site_fract_x
 _atom_site_fract_y
 _atom_site_fract_z
 _atom_site_occupancy
  Nd  Nd0  1  0.250000  0.709267  0.377709  1
  Nd  Nd1  1  0.250000  0.788982  0.887279  1
  Nd  Nd2  1  0.750000  0.291487  0.618955  1
  Lu  Lu3  1  0.750000  0.208872  0.118829  1
  Cu  Cu4  1  0.250000  0.206797  0.243080  1
  Cu  Cu5  1  0.750000  0.794023  0.753085  1
  Cu  Cu6  1  0.250000  0.294367  0.752987  1
  Cu  Cu7  1  0.750000  0.706346  0.244160  1
  P  P8  1  0.750000  0.815539  0.500806  1
  P  P9  1  0.750000  0.684941  0.010030  1
  P  P10  1  0.250000  0.184874  0.495972  1
  P  P11  1  0.250000  0.313549  0.004910  1
  P  P12  1  0.250000  0.709159  0.167857  1
  P  P13  1  0.750000  0.208361  0.318392  1
  P  P14  1  0.750000  0.291103  0.827224  1
  P  P15  1  0.250000  0.792335  0.678725  1
