# generated using pymatgen
data_Mn8AgO16
_symmetry_space_group_name_H-M   'P 1'
_cell_length_a   5.90399782
_cell_length_b   7.17334082
_cell_length_c   7.16555626
_cell_angle_alpha   87.81534217
_cell_angle_beta   77.98286523
_cell_angle_gamma   77.67282555
_symmetry_Int_Tables_number   1
_chemical_formula_structural   Mn8AgO16
_chemical_formula_sum   'Mn8 Ag1 O16'
_cell_volume   289.97106343
_cell_formula_units_Z   1
loop_
 _symmetry_equiv_pos_site_id
 _symmetry_equiv_pos_as_xyz
  1  'x, y, z'
loop_
 _atom_site_type_symbol
 _atom_site_label
 _atom_site_symmetry_multiplicity
 _atom_site_fract_x
 _atom_site_fract_y
 _atom_site_fract_z
 _atom_site_occupancy
  Mn  Mn0  1  0.571423  0.518251  0.181506  1
  Mn  Mn1  1  0.070527  0.516157  0.182573  1
  Mn  Mn2  1  0.158739  0.815593  0.516200  1
  Mn  Mn3  1  0.659172  0.819006  0.519330  1
  Mn  Mn4  1  0.329113  0.184576  0.481644  1
  Mn  Mn5  1  0.828636  0.180999  0.481816  1
  Mn  Mn6  1  0.425178  0.484944  0.815862  1
  Mn  Mn7  1  0.921654  0.484250  0.817142  1
  Ag  Ag8  1  0.222879  0.997443  0.001962  1
  O  O9  1  0.824966  0.641442  0.047353  1
  O  O10  1  0.317209  0.650447  0.052279  1
  O  O11  1  0.970227  0.702888  0.383097  1
  O  O12  1  0.473910  0.708798  0.380440  1
  O  O13  1  0.846308  0.952969  0.641218  1
  O  O14  1  0.339905  0.950298  0.649591  1
  O  O15  1  0.330076  0.381036  0.287489  1
  O  O16  1  0.830329  0.374450  0.286989  1
  O  O17  1  0.163674  0.621306  0.709677  1
  O  O18  1  0.663324  0.627179  0.712908  1
  O  O19  1  0.138934  0.037746  0.347853  1
  O  O20  1  0.641827  0.046182  0.361218  1
  O  O21  1  0.015551  0.292125  0.619168  1
  O  O22  1  0.521972  0.297634  0.620113  1
  O  O23  1  0.171750  0.352460  0.951637  1
  O  O24  1  0.669818  0.361821  0.950927  1
