# generated using pymatgen
data_Pr2LuCuS5
_symmetry_space_group_name_H-M   'P 1'
_cell_length_a   11.56625400
_cell_length_b   3.92300800
_cell_length_c   16.92533200
_cell_angle_alpha   90.00000000
_cell_angle_beta   90.00000000
_cell_angle_gamma   90.00000000
_symmetry_Int_Tables_number   1
_chemical_formula_structural   Pr2LuCuS5
_chemical_formula_sum   'Pr8 Lu4 Cu4 S20'
_cell_volume   767.97859484
_cell_formula_units_Z   4
loop_
 _symmetry_equiv_pos_site_id
 _symmetry_equiv_pos_as_xyz
  1  'x, y, z'
loop_
 _atom_site_type_symbol
 _atom_site_label
 _atom_site_symmetry_multiplicity
 _atom_site_fract_x
 _atom_site_fract_y
 _atom_site_fract_z
 _atom_site_occupancy
  Pr  Pr0  1  0.361977  0.250000  0.103027  1
  Pr  Pr1  1  0.012895  0.250000  0.174869  1
  Pr  Pr2  1  0.512895  0.250000  0.325132  1
  Pr  Pr3  1  0.861976  0.250000  0.396973  1
  Pr  Pr4  1  0.138024  0.749999  0.603027  1
  Pr  Pr5  1  0.487105  0.749999  0.674869  1
  Pr  Pr6  1  0.987105  0.749999  0.825132  1
  Pr  Pr7  1  0.638023  0.749999  0.896973  1
  Lu  Lu8  1  0.698190  0.749999  0.136450  1
  Lu  Lu9  1  0.198190  0.749999  0.363551  1
  Lu  Lu10  1  0.801810  0.250000  0.636450  1
  Lu  Lu11  1  0.301810  0.250000  0.863551  1
  Cu  Cu12  1  0.825982  0.250000  0.019440  1
  Cu  Cu13  1  0.325981  0.250000  0.480560  1
  Cu  Cu14  1  0.674019  0.749999  0.519440  1
  Cu  Cu15  1  0.174019  0.749999  0.980560  1
  S  S16  1  0.617268  0.250000  0.033941  1
  S  S17  1  0.903365  0.749999  0.071493  1
  S  S18  1  0.181970  0.749999  0.115056  1
  S  S19  1  0.487138  0.749999  0.197617  1
  S  S20  1  0.759119  0.250000  0.230239  1
  S  S21  1  0.259118  0.250000  0.269761  1
  S  S22  1  0.987137  0.749999  0.302383  1
  S  S23  1  0.681970  0.749999  0.384944  1
  S  S24  1  0.403365  0.749999  0.428507  1
  S  S25  1  0.117268  0.250000  0.466058  1
  S  S26  1  0.882732  0.749999  0.533941  1
  S  S27  1  0.596635  0.250000  0.571493  1
  S  S28  1  0.318031  0.250000  0.615056  1
  S  S29  1  0.012863  0.250000  0.697618  1
  S  S30  1  0.740882  0.749999  0.730239  1
  S  S31  1  0.240881  0.749999  0.769761  1
  S  S32  1  0.512862  0.250000  0.802383  1
  S  S33  1  0.818030  0.250000  0.884944  1
  S  S34  1  0.096635  0.250000  0.928507  1
  S  S35  1  0.382732  0.749999  0.966058  1
