# generated using pymatgen
data_DyHo15Cd4(NiOs)2
_symmetry_space_group_name_H-M   'P 1'
_cell_length_a   9.53881657
_cell_length_b   9.53881586
_cell_length_c   9.62533400
_cell_angle_alpha   59.69950675
_cell_angle_beta   59.69950925
_cell_angle_gamma   59.51532584
_symmetry_Int_Tables_number   1
_chemical_formula_structural   DyHo15Cd4(NiOs)2
_chemical_formula_sum   'Dy1 Ho15 Cd4 Ni2 Os2'
_cell_volume   614.18702860
_cell_formula_units_Z   1
loop_
 _symmetry_equiv_pos_site_id
 _symmetry_equiv_pos_as_xyz
  1  'x, y, z'
loop_
 _atom_site_type_symbol
 _atom_site_label
 _atom_site_symmetry_multiplicity
 _atom_site_fract_x
 _atom_site_fract_y
 _atom_site_fract_z
 _atom_site_occupancy
  Dy  Dy0  1  0.191954  0.191954  0.808046  1
  Ho  Ho1  1  0.600422  0.600422  0.592304  1
  Ho  Ho2  1  0.600422  0.600422  0.206854  1
  Ho  Ho3  1  0.601964  0.205541  0.596248  1
  Ho  Ho4  1  0.205541  0.601964  0.596248  1
  Ho  Ho5  1  0.060881  0.436264  0.440328  1
  Ho  Ho6  1  0.436264  0.060881  0.062526  1
  Ho  Ho7  1  0.436264  0.060881  0.440328  1
  Ho  Ho8  1  0.060881  0.436264  0.062526  1
  Ho  Ho9  1  0.438499  0.438499  0.061501  1
  Ho  Ho10  1  0.059879  0.059879  0.440121  1
  Ho  Ho11  1  0.189210  0.805908  0.816547  1
  Ho  Ho12  1  0.805908  0.189210  0.188336  1
  Ho  Ho13  1  0.805908  0.189210  0.816547  1
  Ho  Ho14  1  0.189210  0.805908  0.188336  1
  Ho  Ho15  1  0.815910  0.815910  0.184090  1
  Cd  Cd16  1  0.829270  0.829270  0.832983  1
  Cd  Cd17  1  0.829270  0.829270  0.508477  1
  Cd  Cd18  1  0.830165  0.506115  0.831860  1
  Cd  Cd19  1  0.506115  0.830165  0.831860  1
  Ni  Ni20  1  0.391634  0.827063  0.390652  1
  Ni  Ni21  1  0.827063  0.391634  0.390652  1
  Os  Os22  1  0.393683  0.393683  0.388383  1
  Os  Os23  1  0.393683  0.393683  0.824250  1
