# generated using pymatgen
data_Sc8Ti12Si15As
_symmetry_space_group_name_H-M   'P 1'
_cell_length_a   6.88010630
_cell_length_b   6.88221675
_cell_length_c   12.59304904
_cell_angle_alpha   89.84714711
_cell_angle_beta   90.02910727
_cell_angle_gamma   90.03259846
_symmetry_Int_Tables_number   1
_chemical_formula_structural   Sc8Ti12Si15As
_chemical_formula_sum   'Sc8 Ti12 Si15 As1'
_cell_volume   596.28339795
_cell_formula_units_Z   1
loop_
 _symmetry_equiv_pos_site_id
 _symmetry_equiv_pos_as_xyz
  1  'x, y, z'
loop_
 _atom_site_type_symbol
 _atom_site_label
 _atom_site_symmetry_multiplicity
 _atom_site_fract_x
 _atom_site_fract_y
 _atom_site_fract_z
 _atom_site_occupancy
  Sc  Sc0  1  0.000745  0.658530  0.032033  1
  Sc  Sc1  1  0.839741  0.500849  0.283199  1
  Sc  Sc2  1  0.158158  0.497803  0.782012  1
  Sc  Sc3  1  0.500136  0.839886  0.717284  1
  Sc  Sc4  1  0.502753  0.163627  0.219158  1
  Sc  Sc5  1  0.999724  0.339754  0.533197  1
  Sc  Sc6  1  0.660382  0.999927  0.966673  1
  Sc  Sc7  1  0.340332  0.999593  0.466805  1
  Ti  Ti8  1  0.329105  0.332296  0.999812  1
  Ti  Ti9  1  0.170294  0.828915  0.250921  1
  Ti  Ti10  1  0.829018  0.170417  0.750105  1
  Ti  Ti11  1  0.670874  0.671450  0.499991  1
  Ti  Ti12  1  0.002379  0.153343  0.127420  1
  Ti  Ti13  1  0.349128  0.507087  0.375762  1
  Ti  Ti14  1  0.652814  0.491322  0.875293  1
  Ti  Ti15  1  0.506484  0.348743  0.624341  1
  Ti  Ti16  1  0.492643  0.651114  0.123308  1
  Ti  Ti17  1  0.993528  0.849207  0.625570  1
  Ti  Ti18  1  0.151198  0.004233  0.874169  1
  Ti  Ti19  1  0.849193  0.993706  0.374250  1
  Si  Si20  1  0.544785  0.797448  0.314175  1
  Si  Si21  1  0.455486  0.201729  0.814363  1
  Si  Si22  1  0.796707  0.544654  0.685239  1
  Si  Si23  1  0.202047  0.456376  0.185938  1
  Si  Si24  1  0.702818  0.044507  0.564445  1
  Si  Si25  1  0.955998  0.295769  0.935699  1
  Si  Si26  1  0.044439  0.702686  0.435908  1
  Si  Si27  1  0.705686  0.365668  0.070830  1
  Si  Si28  1  0.134617  0.207012  0.321383  1
  Si  Si29  1  0.864782  0.794041  0.820703  1
  Si  Si30  1  0.206128  0.134256  0.679317  1
  Si  Si31  1  0.794517  0.863752  0.179187  1
  Si  Si32  1  0.294200  0.635021  0.570875  1
  Si  Si33  1  0.366232  0.698898  0.924205  1
  Si  Si34  1  0.635215  0.294663  0.429699  1
  As  As35  1  0.297709  0.961716  0.066735  1
