# generated using pymatgen
data_Cs12Na8Sn4Bi11Sb
_symmetry_space_group_name_H-M   'P 1'
_cell_length_a   12.10661635
_cell_length_b   12.10661636
_cell_length_c   18.03127729
_cell_angle_alpha   89.98638131
_cell_angle_beta   89.98638321
_cell_angle_gamma   143.26769468
_symmetry_Int_Tables_number   1
_chemical_formula_structural   Cs12Na8Sn4Bi11Sb
_chemical_formula_sum   'Cs12 Na8 Sn4 Bi11 Sb1'
_cell_volume   1580.62598727
_cell_formula_units_Z   1
loop_
 _symmetry_equiv_pos_site_id
 _symmetry_equiv_pos_as_xyz
  1  'x, y, z'
loop_
 _atom_site_type_symbol
 _atom_site_label
 _atom_site_symmetry_multiplicity
 _atom_site_fract_x
 _atom_site_fract_y
 _atom_site_fract_z
 _atom_site_occupancy
  Cs  Cs0  1  0.936270  0.603669  0.830707  1
  Cs  Cs1  1  0.564077  0.895770  0.330811  1
  Cs  Cs2  1  0.396320  0.063680  0.169267  1
  Cs  Cs3  1  0.063680  0.396320  0.169267  1
  Cs  Cs4  1  0.895770  0.564077  0.330811  1
  Cs  Cs5  1  0.436201  0.103665  0.669123  1
  Cs  Cs6  1  0.603669  0.936270  0.830707  1
  Cs  Cs7  1  0.266014  0.266014  0.326298  1
  Cs  Cs8  1  0.766946  0.766946  0.174884  1
  Cs  Cs9  1  0.233025  0.233025  0.825914  1
  Cs  Cs10  1  0.733056  0.733056  0.674033  1
  Cs  Cs11  1  0.103665  0.436201  0.669123  1
  Na  Na12  1  0.918575  0.081384  0.999998  1
  Na  Na13  1  0.582504  0.420512  0.499435  1
  Na  Na14  1  0.081384  0.918575  0.999998  1
  Na  Na15  1  0.420512  0.582504  0.499435  1
  Na  Na16  1  0.753802  0.246179  0.999988  1
  Na  Na17  1  0.746151  0.253773  0.500031  1
  Na  Na18  1  0.246179  0.753802  0.999988  1
  Na  Na19  1  0.253773  0.746151  0.500031  1
  Sn  Sn20  1  0.589062  0.410940  0.999995  1
  Sn  Sn21  1  0.909838  0.085956  0.499071  1
  Sn  Sn22  1  0.410940  0.589062  0.999995  1
  Sn  Sn23  1  0.085956  0.909838  0.499071  1
  Bi  Bi24  1  0.887639  0.566451  0.100269  1
  Bi  Bi25  1  0.433589  0.112339  0.899682  1
  Bi  Bi26  1  0.613022  0.933506  0.599686  1
  Bi  Bi27  1  0.933506  0.613022  0.599686  1
  Bi  Bi28  1  0.112339  0.433589  0.899682  1
  Bi  Bi29  1  0.566451  0.887639  0.100269  1
  Bi  Bi30  1  0.386060  0.065449  0.399764  1
  Bi  Bi31  1  0.207158  0.207158  0.589928  1
  Bi  Bi32  1  0.707098  0.707098  0.909538  1
  Bi  Bi33  1  0.292916  0.292916  0.090458  1
  Bi  Bi34  1  0.065449  0.386060  0.399764  1
  Sb  Sb35  1  0.797406  0.797406  0.413293  1
