# generated using pymatgen
data_YTm2Fe9
_symmetry_space_group_name_H-M   'P 1'
_cell_length_a   5.07260653
_cell_length_b   5.07260677
_cell_length_c   8.53921879
_cell_angle_alpha   72.72140707
_cell_angle_beta   72.72140744
_cell_angle_gamma   59.99999724
_symmetry_Int_Tables_number   1
_chemical_formula_structural   YTm2Fe9
_chemical_formula_sum   'Y1 Tm2 Fe9'
_cell_volume   178.74643876
_cell_formula_units_Z   1
loop_
 _symmetry_equiv_pos_site_id
 _symmetry_equiv_pos_as_xyz
  1  'x, y, z'
loop_
 _atom_site_type_symbol
 _atom_site_label
 _atom_site_symmetry_multiplicity
 _atom_site_fract_x
 _atom_site_fract_y
 _atom_site_fract_z
 _atom_site_occupancy
  Y  Y0  1  0.000000  0.000000  0.000000  1
  Tm  Tm1  1  0.142000  0.142000  0.574000  1
  Tm  Tm2  1  0.858000  0.858000  0.426000  1
  Fe  Fe3  1  0.081867  0.582127  0.753877  1
  Fe  Fe4  1  0.582127  0.582127  0.753877  1
  Fe  Fe5  1  0.582127  0.081867  0.753877  1
  Fe  Fe6  1  0.918133  0.417873  0.246123  1
  Fe  Fe7  1  0.417873  0.417873  0.246123  1
  Fe  Fe8  1  0.417873  0.918133  0.246123  1
  Fe  Fe9  1  0.332770  0.332770  0.001689  1
  Fe  Fe10  1  0.667230  0.667230  0.998311  1
  Fe  Fe11  1  0.500000  0.500000  0.500000  1
