# generated using pymatgen
data_HoPa5(Cu3Sn4)2
_symmetry_space_group_name_H-M   'P 1'
_cell_length_a   8.29630867
_cell_length_b   8.29717070
_cell_length_c   8.29827676
_cell_angle_alpha   109.57688361
_cell_angle_beta   109.26799420
_cell_angle_gamma   109.55733416
_symmetry_Int_Tables_number   1
_chemical_formula_structural   HoPa5(Cu3Sn4)2
_chemical_formula_sum   'Ho1 Pa5 Cu6 Sn8'
_cell_volume   439.78391320
_cell_formula_units_Z   1
loop_
 _symmetry_equiv_pos_site_id
 _symmetry_equiv_pos_as_xyz
  1  'x, y, z'
loop_
 _atom_site_type_symbol
 _atom_site_label
 _atom_site_symmetry_multiplicity
 _atom_site_fract_x
 _atom_site_fract_y
 _atom_site_fract_z
 _atom_site_occupancy
  Ho  Ho0  1  0.874972  0.750056  0.125100  1
  Pa  Pa1  1  0.123241  0.374278  0.248633  1
  Pa  Pa2  1  0.624959  0.250000  0.375072  1
  Pa  Pa3  1  0.751360  0.874559  0.625568  1
  Pa  Pa4  1  0.374363  0.125673  0.748821  1
  Pa  Pa5  1  0.251125  0.625490  0.876844  1
  Cu  Cu6  1  0.749162  0.374168  0.125887  1
  Cu  Cu7  1  0.624982  0.876681  0.250869  1
  Cu  Cu8  1  0.251682  0.125739  0.375084  1
  Cu  Cu9  1  0.375089  0.750094  0.624909  1
  Cu  Cu10  1  0.874119  0.623438  0.748319  1
  Cu  Cu11  1  0.125021  0.249800  0.874894  1
  Sn  Sn12  1  0.170717  0.000177  0.001357  1
  Sn  Sn13  1  0.670770  0.000740  0.000045  1
  Sn  Sn14  1  0.501311  0.499745  0.170533  1
  Sn  Sn15  1  0.329719  0.829320  0.329284  1
  Sn  Sn16  1  0.999976  0.670641  0.500528  1
  Sn  Sn17  1  0.998570  0.169384  0.498702  1
  Sn  Sn18  1  0.499543  0.499321  0.670198  1
  Sn  Sn19  1  0.829320  0.330698  0.829355  1
