# generated using pymatgen
data_Nd8Be2ZnSi12Rh
_symmetry_space_group_name_H-M   'P 1'
_cell_length_a   8.10167900
_cell_length_b   8.10167890
_cell_length_c   8.56608700
_cell_angle_alpha   90.00000000
_cell_angle_beta   90.00000000
_cell_angle_gamma   119.99999633
_symmetry_Int_Tables_number   1
_chemical_formula_structural   Nd8Be2ZnSi12Rh
_chemical_formula_sum   'Nd8 Be2 Zn1 Si12 Rh1'
_cell_volume   486.92624903
_cell_formula_units_Z   1
loop_
 _symmetry_equiv_pos_site_id
 _symmetry_equiv_pos_as_xyz
  1  'x, y, z'
loop_
 _atom_site_type_symbol
 _atom_site_label
 _atom_site_symmetry_multiplicity
 _atom_site_fract_x
 _atom_site_fract_y
 _atom_site_fract_z
 _atom_site_occupancy
  Nd  Nd0  1  0.000000  0.000000  0.747545  1
  Nd  Nd1  1  0.000000  0.000000  0.252538  1
  Nd  Nd2  1  0.499119  0.500881  0.746815  1
  Nd  Nd3  1  0.499119  0.998241  0.746815  1
  Nd  Nd4  1  0.001759  0.500881  0.746815  1
  Nd  Nd5  1  0.499507  0.500493  0.253129  1
  Nd  Nd6  1  0.000987  0.500493  0.253129  1
  Nd  Nd7  1  0.499507  0.999013  0.253129  1
  Be  Be8  1  0.666667  0.333333  0.501124  1
  Be  Be9  1  0.333333  0.666667  0.498581  1
  Zn  Zn10  1  0.666667  0.333333  0.999285  1
  Si  Si11  1  0.837197  0.162803  0.999840  1
  Si  Si12  1  0.837197  0.674394  0.999840  1
  Si  Si13  1  0.325606  0.162803  0.999840  1
  Si  Si14  1  0.827678  0.172322  0.500149  1
  Si  Si15  1  0.827678  0.655358  0.500149  1
  Si  Si16  1  0.344642  0.172322  0.500149  1
  Si  Si17  1  0.172414  0.827586  0.499977  1
  Si  Si18  1  0.655173  0.827586  0.499977  1
  Si  Si19  1  0.172414  0.344827  0.499977  1
  Si  Si20  1  0.170249  0.829751  0.000087  1
  Si  Si21  1  0.659502  0.829751  0.000087  1
  Si  Si22  1  0.170249  0.340498  0.000087  1
  Rh  Rh23  1  0.333333  0.666667  0.000937  1
