# generated using pymatgen
data_Ho2Hf3Sc3(Co4P3)4
_symmetry_space_group_name_H-M   'P 1'
_cell_length_a   12.15565000
_cell_length_b   12.15564853
_cell_length_c   3.64889000
_cell_angle_alpha   90.00000000
_cell_angle_beta   90.00000000
_cell_angle_gamma   120.00000401
_symmetry_Int_Tables_number   1
_chemical_formula_structural   Ho2Hf3Sc3(Co4P3)4
_chemical_formula_sum   'Ho2 Hf3 Sc3 Co16 P12'
_cell_volume   466.92562261
_cell_formula_units_Z   1
loop_
 _symmetry_equiv_pos_site_id
 _symmetry_equiv_pos_as_xyz
  1  'x, y, z'
loop_
 _atom_site_type_symbol
 _atom_site_label
 _atom_site_symmetry_multiplicity
 _atom_site_fract_x
 _atom_site_fract_y
 _atom_site_fract_z
 _atom_site_occupancy
  Ho  Ho0  1  0.666667  0.333333  0.000000  1
  Ho  Ho1  1  0.333333  0.666667  0.000000  1
  Hf  Hf2  1  0.444156  0.444156  0.000000  1
  Hf  Hf3  1  0.555844  0.000000  0.000000  1
  Hf  Hf4  1  0.000000  0.555844  0.000000  1
  Sc  Sc5  1  0.819264  0.819264  0.500000  1
  Sc  Sc6  1  0.180736  0.000000  0.500000  1
  Sc  Sc7  1  0.000000  0.180736  0.500000  1
  Co  Co8  1  0.875980  0.354865  0.500000  1
  Co  Co9  1  0.645135  0.521115  0.500000  1
  Co  Co10  1  0.478885  0.124020  0.500000  1
  Co  Co11  1  0.354865  0.875980  0.500000  1
  Co  Co12  1  0.521115  0.645135  0.500000  1
  Co  Co13  1  0.124020  0.478885  0.500000  1
  Co  Co14  1  0.806719  0.176217  0.000000  1
  Co  Co15  1  0.823783  0.630501  0.000000  1
  Co  Co16  1  0.369499  0.193281  0.000000  1
  Co  Co17  1  0.176217  0.806719  0.000000  1
  Co  Co18  1  0.630501  0.823783  0.000000  1
  Co  Co19  1  0.193281  0.369499  0.000000  1
  Co  Co20  1  0.275654  0.275654  0.500000  1
  Co  Co21  1  0.724346  0.000000  0.500000  1
  Co  Co22  1  0.000000  0.724346  0.500000  1
  Co  Co23  1  0.000000  0.000000  0.000000  1
  P  P24  1  0.692777  0.170831  0.500000  1
  P  P25  1  0.829169  0.521946  0.500000  1
  P  P26  1  0.478054  0.307223  0.500000  1
  P  P27  1  0.170831  0.692777  0.500000  1
  P  P28  1  0.521946  0.829169  0.500000  1
  P  P29  1  0.307223  0.478054  0.500000  1
  P  P30  1  0.174097  0.174097  0.000000  1
  P  P31  1  0.825903  0.000000  0.000000  1
  P  P32  1  0.000000  0.825903  0.000000  1
  P  P33  1  0.654342  0.654342  0.000000  1
  P  P34  1  0.345658  0.000000  0.000000  1
  P  P35  1  0.000000  0.345658  0.000000  1
