# generated using pymatgen
data_Ho6TmS8
_symmetry_space_group_name_H-M   'P 1'
_cell_length_a   7.76267904
_cell_length_b   7.76192586
_cell_length_c   7.76267900
_cell_angle_alpha   119.99678724
_cell_angle_beta   89.99428716
_cell_angle_gamma   119.99678644
_symmetry_Int_Tables_number   1
_chemical_formula_structural   Ho6TmS8
_chemical_formula_sum   'Ho6 Tm1 S8'
_cell_volume   330.78177004
_cell_formula_units_Z   1
loop_
 _symmetry_equiv_pos_site_id
 _symmetry_equiv_pos_as_xyz
  1  'x, y, z'
loop_
 _atom_site_type_symbol
 _atom_site_label
 _atom_site_symmetry_multiplicity
 _atom_site_fract_x
 _atom_site_fract_y
 _atom_site_fract_z
 _atom_site_occupancy
  Ho  Ho0  1  0.250001  0.999991  0.250003  1
  Ho  Ho1  1  0.250001  0.500012  0.250003  1
  Ho  Ho2  1  0.250000  0.500001  0.750003  1
  Ho  Ho3  1  0.249994  0.000000  0.750007  1
  Ho  Ho4  1  0.749997  0.000009  0.749999  1
  Ho  Ho5  1  0.749997  0.499987  0.749999  1
  Tm  Tm6  1  0.749999  0.000000  0.250002  1
  S  S7  1  0.998608  0.000000  0.001392  1
  S  S8  1  0.501398  0.000000  0.498602  1
  S  S9  1  0.997820  0.998714  0.497818  1
  S  S10  1  0.997820  0.496925  0.497818  1
  S  S11  1  0.500585  0.500001  0.499418  1
  S  S12  1  0.999418  0.500001  0.000584  1
  S  S13  1  0.502183  0.503077  0.002180  1
  S  S14  1  0.502183  0.001285  0.002180  1
