# generated using pymatgen
data_ErTm2Mg3Si2Au
_symmetry_space_group_name_H-M   'P 1'
_cell_length_a   7.17602500
_cell_length_b   7.18145386
_cell_length_c   4.26748700
_cell_angle_alpha   90.00000000
_cell_angle_beta   90.00000000
_cell_angle_gamma   119.97501016
_symmetry_Int_Tables_number   1
_chemical_formula_structural   ErTm2Mg3Si2Au
_chemical_formula_sum   'Er1 Tm2 Mg3 Si2 Au1'
_cell_volume   190.50591407
_cell_formula_units_Z   1
loop_
 _symmetry_equiv_pos_site_id
 _symmetry_equiv_pos_as_xyz
  1  'x, y, z'
loop_
 _atom_site_type_symbol
 _atom_site_label
 _atom_site_symmetry_multiplicity
 _atom_site_fract_x
 _atom_site_fract_y
 _atom_site_fract_z
 _atom_site_occupancy
  Er  Er0  1  0.582067  0.000000  0.000000  1
  Tm  Tm1  1  0.999825  0.582235  0.000000  1
  Tm  Tm2  1  0.417590  0.417765  0.000000  1
  Mg  Mg3  1  0.247382  0.000000  0.500000  1
  Mg  Mg4  1  0.000135  0.247607  0.500000  1
  Mg  Mg5  1  0.752529  0.752393  0.500000  1
  Si  Si6  1  0.333076  0.666180  0.500000  1
  Si  Si7  1  0.666896  0.333820  0.500000  1
  Au  Au8  1  0.000499  0.000000  0.000000  1
