# generated using pymatgen
data_TaNb5Re5Si6Pd
_symmetry_space_group_name_H-M   'P 1'
_cell_length_a   7.57062359
_cell_length_b   7.54246139
_cell_length_c   7.54154733
_cell_angle_alpha   127.63624071
_cell_angle_beta   123.02044412
_cell_angle_gamma   80.93807912
_symmetry_Int_Tables_number   1
_chemical_formula_structural   TaNb5Re5Si6Pd
_chemical_formula_sum   'Ta1 Nb5 Re5 Si6 Pd1'
_cell_volume   275.79505980
_cell_formula_units_Z   1
loop_
 _symmetry_equiv_pos_site_id
 _symmetry_equiv_pos_as_xyz
  1  'x, y, z'
loop_
 _atom_site_type_symbol
 _atom_site_label
 _atom_site_symmetry_multiplicity
 _atom_site_fract_x
 _atom_site_fract_y
 _atom_site_fract_z
 _atom_site_occupancy
  Ta  Ta0  1  0.238950  0.903001  0.148812  1
  Nb  Nb1  1  0.556062  0.094210  0.049773  1
  Nb  Nb2  1  0.445244  0.495006  0.538605  1
  Nb  Nb3  1  0.978903  0.502744  0.047019  1
  Nb  Nb4  1  0.021289  0.067738  0.524313  1
  Nb  Nb5  1  0.761839  0.911558  0.666279  1
  Re  Re6  1  0.001092  0.242816  0.244357  1
  Re  Re7  1  0.163070  0.749739  0.662163  1
  Re  Re8  1  0.837683  0.498925  0.586988  1
  Re  Re9  1  0.589942  0.750033  0.091168  1
  Re  Re10  1  0.409394  0.500507  0.159174  1
  Si  Si11  1  0.778052  0.524665  0.248297  1
  Si  Si12  1  0.221137  0.471239  0.747777  1
  Si  Si13  1  0.337949  0.833350  0.503756  1
  Si  Si14  1  0.662027  0.165813  0.495019  1
  Si  Si15  1  0.829079  0.824070  0.990677  1
  Si  Si16  1  0.171501  0.161165  0.995610  1
  Pd  Pd17  1  0.496787  0.245618  0.742411  1
