# generated using pymatgen
data_Er20IrPd6Ru5
_symmetry_space_group_name_H-M   'P 1'
_cell_length_a   10.87221940
_cell_length_b   10.87221940
_cell_length_c   6.37333803
_cell_angle_alpha   89.96058888
_cell_angle_beta   89.96058650
_cell_angle_gamma   90.91645884
_symmetry_Int_Tables_number   1
_chemical_formula_structural   Er20IrPd6Ru5
_chemical_formula_sum   'Er20 Ir1 Pd6 Ru5'
_cell_volume   753.26467470
_cell_formula_units_Z   1
loop_
 _symmetry_equiv_pos_site_id
 _symmetry_equiv_pos_as_xyz
  1  'x, y, z'
loop_
 _atom_site_type_symbol
 _atom_site_label
 _atom_site_symmetry_multiplicity
 _atom_site_fract_x
 _atom_site_fract_y
 _atom_site_fract_z
 _atom_site_occupancy
  Er  Er0  1  0.299782  0.084698  0.371417  1
  Er  Er1  1  0.296322  0.909625  0.873357  1
  Er  Er2  1  0.706762  0.087601  0.876891  1
  Er  Er3  1  0.705134  0.920290  0.368683  1
  Er  Er4  1  0.580197  0.795706  0.868762  1
  Er  Er5  1  0.592019  0.204063  0.373119  1
  Er  Er6  1  0.413413  0.794411  0.377146  1
  Er  Er7  1  0.416217  0.201084  0.872037  1
  Er  Er8  1  0.204294  0.419803  0.631238  1
  Er  Er9  1  0.205589  0.586587  0.122854  1
  Er  Er10  1  0.795937  0.407981  0.126881  1
  Er  Er11  1  0.798916  0.583783  0.627963  1
  Er  Er12  1  0.915302  0.700218  0.128583  1
  Er  Er13  1  0.912399  0.293238  0.623109  1
  Er  Er14  1  0.090375  0.703678  0.626643  1
  Er  Er15  1  0.079710  0.294866  0.131317  1
  Er  Er16  1  0.997453  0.004458  0.499026  1
  Er  Er17  1  0.995542  0.002547  0.000974  1
  Er  Er18  1  0.497098  0.502506  0.000011  1
  Er  Er19  1  0.497494  0.502902  0.499989  1
  Ir  Ir20  1  0.347540  0.652460  0.750000  1
  Pd  Pd21  1  0.845384  0.843904  0.749849  1
  Pd  Pd22  1  0.156096  0.154616  0.750151  1
  Pd  Pd23  1  0.152478  0.847522  0.250000  1
  Pd  Pd24  1  0.651605  0.348395  0.750000  1
  Pd  Pd25  1  0.655359  0.654760  0.250206  1
  Pd  Pd26  1  0.345240  0.344641  0.249794  1
  Ru  Ru27  1  0.848028  0.151972  0.250000  1
  Ru  Ru28  1  0.500045  0.000744  0.123515  1
  Ru  Ru29  1  0.499367  0.000353  0.623771  1
  Ru  Ru30  1  0.999647  0.500633  0.876229  1
  Ru  Ru31  1  0.999256  0.499955  0.376485  1
