# generated using pymatgen
data_Ca(P3Pt2)2
_symmetry_space_group_name_H-M   'P 1'
_cell_length_a   5.76038704
_cell_length_b   5.76038807
_cell_length_c   11.50816599
_cell_angle_alpha   89.47641464
_cell_angle_beta   89.47641305
_cell_angle_gamma   88.57519085
_symmetry_Int_Tables_number   1
_chemical_formula_structural   Ca(P3Pt2)2
_chemical_formula_sum   'Ca2 P12 Pt8'
_cell_volume   381.71553708
_cell_formula_units_Z   2
loop_
 _symmetry_equiv_pos_site_id
 _symmetry_equiv_pos_as_xyz
  1  'x, y, z'
loop_
 _atom_site_type_symbol
 _atom_site_label
 _atom_site_symmetry_multiplicity
 _atom_site_fract_x
 _atom_site_fract_y
 _atom_site_fract_z
 _atom_site_occupancy
  Ca  Ca0  1  0.601350  0.398650  0.750000  1
  Ca  Ca1  1  0.398650  0.601350  0.250000  1
  P  P2  1  0.089366  0.131902  0.305078  1
  P  P3  1  0.868098  0.910634  0.194922  1
  P  P4  1  0.910634  0.868098  0.694922  1
  P  P5  1  0.131902  0.089366  0.805078  1
  P  P6  1  0.615744  0.886342  0.946947  1
  P  P7  1  0.113658  0.384256  0.553053  1
  P  P8  1  0.384256  0.113658  0.053053  1
  P  P9  1  0.886342  0.615744  0.446947  1
  P  P10  1  0.883269  0.390968  0.051217  1
  P  P11  1  0.609032  0.116731  0.448783  1
  P  P12  1  0.390968  0.883269  0.551217  1
  P  P13  1  0.116731  0.609032  0.948783  1
  Pt  Pt14  1  0.507573  0.922028  0.749834  1
  Pt  Pt15  1  0.077972  0.492427  0.750166  1
  Pt  Pt16  1  0.500000  0.500000  0.500000  1
  Pt  Pt17  1  0.500000  0.500000  0.000000  1
  Pt  Pt18  1  0.000000  0.000000  0.500000  1
  Pt  Pt19  1  0.000000  0.000000  0.000000  1
  Pt  Pt20  1  0.922028  0.507573  0.249834  1
  Pt  Pt21  1  0.492427  0.077972  0.250166  1
