# generated using pymatgen
data_RbMoF7
_symmetry_space_group_name_H-M   'P 1'
_cell_length_a   10.60495000
_cell_length_b   10.60495000
_cell_length_c   10.60495000
_cell_angle_alpha   90.00000000
_cell_angle_beta   90.00000000
_cell_angle_gamma   90.00000000
_symmetry_Int_Tables_number   1
_chemical_formula_structural   RbMoF7
_chemical_formula_sum   'Rb8 Mo8 F56'
_cell_volume   1192.68532530
_cell_formula_units_Z   8
loop_
 _symmetry_equiv_pos_site_id
 _symmetry_equiv_pos_as_xyz
  1  'x, y, z'
loop_
 _atom_site_type_symbol
 _atom_site_label
 _atom_site_symmetry_multiplicity
 _atom_site_fract_x
 _atom_site_fract_y
 _atom_site_fract_z
 _atom_site_occupancy
  Rb  Rb0  1  0.000000  0.000000  0.000000  1
  Rb  Rb1  1  0.000000  0.500000  0.500000  1
  Rb  Rb2  1  0.500000  0.000000  0.500000  1
  Rb  Rb3  1  0.500000  0.500000  0.000000  1
  Rb  Rb4  1  0.500000  0.000000  0.000000  1
  Rb  Rb5  1  0.500000  0.500000  0.500000  1
  Rb  Rb6  1  0.000000  0.000000  0.500000  1
  Rb  Rb7  1  0.000000  0.500000  0.000000  1
  Mo  Mo8  1  0.276697  0.723303  0.223303  1
  Mo  Mo9  1  0.723303  0.223303  0.276697  1
  Mo  Mo10  1  0.223303  0.276697  0.723303  1
  Mo  Mo11  1  0.776697  0.776697  0.776697  1
  Mo  Mo12  1  0.723303  0.276697  0.776697  1
  Mo  Mo13  1  0.276697  0.776697  0.723303  1
  Mo  Mo14  1  0.776697  0.723303  0.276697  1
  Mo  Mo15  1  0.223303  0.223303  0.223303  1
  F  F16  1  0.172276  0.827724  0.327724  1
  F  F17  1  0.827724  0.327724  0.172276  1
  F  F18  1  0.327724  0.172276  0.827724  1
  F  F19  1  0.672276  0.672276  0.672276  1
  F  F20  1  0.827724  0.172276  0.672276  1
  F  F21  1  0.172276  0.672276  0.827724  1
  F  F22  1  0.672276  0.827724  0.172276  1
  F  F23  1  0.327724  0.327724  0.327724  1
  F  F24  1  0.428995  0.626757  0.259409  1
  F  F25  1  0.571005  0.126757  0.240591  1
  F  F26  1  0.071005  0.373243  0.759409  1
  F  F27  1  0.928995  0.873243  0.740591  1
  F  F28  1  0.259409  0.428995  0.626757  1
  F  F29  1  0.240591  0.571005  0.126757  1
  F  F30  1  0.759409  0.071005  0.373243  1
  F  F31  1  0.740591  0.928995  0.873243  1
  F  F32  1  0.626757  0.259409  0.428995  1
  F  F33  1  0.126757  0.240591  0.571005  1
  F  F34  1  0.373243  0.759409  0.071005  1
  F  F35  1  0.873243  0.740591  0.928995  1
  F  F36  1  0.571005  0.373243  0.740591  1
  F  F37  1  0.428995  0.873243  0.759409  1
  F  F38  1  0.928995  0.626757  0.240591  1
  F  F39  1  0.071005  0.126757  0.259409  1
  F  F40  1  0.740591  0.571005  0.373243  1
  F  F41  1  0.759409  0.428995  0.873243  1
  F  F42  1  0.240591  0.928995  0.626757  1
  F  F43  1  0.259409  0.071005  0.126757  1
  F  F44  1  0.373243  0.740591  0.571005  1
  F  F45  1  0.873243  0.759409  0.428995  1
  F  F46  1  0.626757  0.240591  0.928995  1
  F  F47  1  0.126757  0.259409  0.071005  1
  F  F48  1  0.146673  0.779360  0.111817  1
  F  F49  1  0.853327  0.279360  0.388183  1
  F  F50  1  0.353327  0.220640  0.611817  1
  F  F51  1  0.646673  0.720640  0.888183  1
  F  F52  1  0.111817  0.146673  0.779360  1
  F  F53  1  0.388183  0.853327  0.279360  1
  F  F54  1  0.611817  0.353327  0.220640  1
  F  F55  1  0.888183  0.646673  0.720640  1
  F  F56  1  0.779360  0.111817  0.146673  1
  F  F57  1  0.279360  0.388183  0.853327  1
  F  F58  1  0.220640  0.611817  0.353327  1
  F  F59  1  0.720640  0.888183  0.646673  1
  F  F60  1  0.853327  0.220640  0.888183  1
  F  F61  1  0.146673  0.720640  0.611817  1
  F  F62  1  0.646673  0.779360  0.388183  1
  F  F63  1  0.353327  0.279360  0.111817  1
  F  F64  1  0.888183  0.853327  0.220640  1
  F  F65  1  0.611817  0.146673  0.720640  1
  F  F66  1  0.388183  0.646673  0.779360  1
  F  F67  1  0.111817  0.353327  0.279360  1
  F  F68  1  0.220640  0.888183  0.853327  1
  F  F69  1  0.720640  0.611817  0.146673  1
  F  F70  1  0.779360  0.388183  0.646673  1
  F  F71  1  0.279360  0.111817  0.353327  1
