# generated using pymatgen
data_Cs3AuS13
_symmetry_space_group_name_H-M   'P 1'
_cell_length_a   5.59379700
_cell_length_b   13.45025571
_cell_length_c   15.62331611
_cell_angle_alpha   87.50819494
_cell_angle_beta   90.00000000
_cell_angle_gamma   90.00000000
_symmetry_Int_Tables_number   1
_chemical_formula_structural   Cs3AuS13
_chemical_formula_sum   'Cs6 Au2 S26'
_cell_volume   1174.35559574
_cell_formula_units_Z   2
loop_
 _symmetry_equiv_pos_site_id
 _symmetry_equiv_pos_as_xyz
  1  'x, y, z'
loop_
 _atom_site_type_symbol
 _atom_site_label
 _atom_site_symmetry_multiplicity
 _atom_site_fract_x
 _atom_site_fract_y
 _atom_site_fract_z
 _atom_site_occupancy
  Cs  Cs0  1  0.256239  0.170848  0.706712  1
  Cs  Cs1  1  0.256239  0.329152  0.293288  1
  Cs  Cs2  1  0.194855  0.250000  0.000000  1
  Cs  Cs3  1  0.805145  0.750000  0.000000  1
  Cs  Cs4  1  0.743761  0.829152  0.293288  1
  Cs  Cs5  1  0.743761  0.670848  0.706712  1
  Au  Au6  1  0.000000  0.500000  0.500000  1
  Au  Au7  1  0.000000  0.000000  0.500000  1
  S  S8  1  0.258398  0.545910  0.615507  1
  S  S9  1  0.688017  0.557897  0.287215  1
  S  S10  1  0.311983  0.057897  0.287215  1
  S  S11  1  0.311983  0.442103  0.712785  1
  S  S12  1  0.896930  0.523951  0.178409  1
  S  S13  1  0.896930  0.976049  0.821591  1
  S  S14  1  0.103070  0.476049  0.821591  1
  S  S15  1  0.103070  0.023951  0.178409  1
  S  S16  1  0.699287  0.430101  0.104678  1
  S  S17  1  0.688017  0.942103  0.712785  1
  S  S18  1  0.300713  0.569899  0.895322  1
  S  S19  1  0.300713  0.930101  0.104678  1
  S  S20  1  0.727057  0.284654  0.147348  1
  S  S21  1  0.727057  0.215346  0.852652  1
  S  S22  1  0.272943  0.715346  0.852652  1
  S  S23  1  0.272943  0.784654  0.147348  1
  S  S24  1  0.082666  0.658364  0.428127  1
  S  S25  1  0.082666  0.841636  0.571873  1
  S  S26  1  0.917334  0.341636  0.571873  1
  S  S27  1  0.917334  0.158364  0.428127  1
  S  S28  1  0.708931  0.250000  0.500000  1
  S  S29  1  0.291069  0.750000  0.500000  1
  S  S30  1  0.741602  0.454090  0.384493  1
  S  S31  1  0.741602  0.045910  0.615507  1
  S  S32  1  0.699287  0.069899  0.895322  1
  S  S33  1  0.258398  0.954090  0.384493  1
