# generated using pymatgen
data_Y19Tm(Bi2Sb)4
_symmetry_space_group_name_H-M   'P 1'
_cell_length_a   8.21029155
_cell_length_b   9.48413600
_cell_length_c   12.05293900
_cell_angle_alpha   90.00000000
_cell_angle_beta   90.04516506
_cell_angle_gamma   90.00000000
_symmetry_Int_Tables_number   1
_chemical_formula_structural   Y19Tm(Bi2Sb)4
_chemical_formula_sum   'Y19 Tm1 Bi8 Sb4'
_cell_volume   938.53219715
_cell_formula_units_Z   1
loop_
 _symmetry_equiv_pos_site_id
 _symmetry_equiv_pos_as_xyz
  1  'x, y, z'
loop_
 _atom_site_type_symbol
 _atom_site_label
 _atom_site_symmetry_multiplicity
 _atom_site_fract_x
 _atom_site_fract_y
 _atom_site_fract_z
 _atom_site_occupancy
  Y  Y0  1  0.529717  0.750000  0.511569  1
  Y  Y1  1  0.970421  0.250000  0.011674  1
  Y  Y2  1  0.470414  0.250000  0.488315  1
  Y  Y3  1  0.182588  0.750000  0.718697  1
  Y  Y4  1  0.683205  0.750000  0.782281  1
  Y  Y5  1  0.817043  0.250000  0.281748  1
  Y  Y6  1  0.317154  0.250000  0.218161  1
  Y  Y7  1  0.309690  0.439368  0.941462  1
  Y  Y8  1  0.810024  0.060839  0.558622  1
  Y  Y9  1  0.690838  0.938763  0.058433  1
  Y  Y10  1  0.189956  0.560772  0.441285  1
  Y  Y11  1  0.690838  0.561237  0.058433  1
  Y  Y12  1  0.189956  0.939228  0.441285  1
  Y  Y13  1  0.309690  0.060632  0.941462  1
  Y  Y14  1  0.810024  0.439161  0.558622  1
  Y  Y15  1  0.353621  0.750000  0.212608  1
  Y  Y16  1  0.854003  0.750000  0.286889  1
  Y  Y17  1  0.646191  0.250000  0.787477  1
  Y  Y18  1  0.146178  0.250000  0.712699  1
  Tm  Tm19  1  0.028607  0.750000  0.988543  1
  Bi  Bi20  1  0.433492  0.003873  0.673794  1
  Bi  Bi21  1  0.934160  0.497032  0.826793  1
  Bi  Bi22  1  0.566460  0.503914  0.326187  1
  Bi  Bi23  1  0.066590  0.995543  0.173141  1
  Bi  Bi24  1  0.566460  0.996086  0.326187  1
  Bi  Bi25  1  0.066590  0.504457  0.173141  1
  Bi  Bi26  1  0.433492  0.496127  0.673794  1
  Bi  Bi27  1  0.934160  0.002968  0.826793  1
  Sb  Sb28  1  0.408862  0.750000  0.959259  1
  Sb  Sb29  1  0.910222  0.750000  0.540714  1
  Sb  Sb30  1  0.589635  0.250000  0.040713  1
  Sb  Sb31  1  0.089717  0.250000  0.459217  1
