# generated using pymatgen
data_Tb2B4Ir3Ru2
_symmetry_space_group_name_H-M   'P 1'
_cell_length_a   7.52083722
_cell_length_b   6.38450921
_cell_length_c   5.54880113
_cell_angle_alpha   77.78741217
_cell_angle_beta   56.06772182
_cell_angle_gamma   46.58300092
_symmetry_Int_Tables_number   1
_chemical_formula_structural   Tb2B4Ir3Ru2
_chemical_formula_sum   'Tb2 B4 Ir3 Ru2'
_cell_volume   153.88453899
_cell_formula_units_Z   1
loop_
 _symmetry_equiv_pos_site_id
 _symmetry_equiv_pos_as_xyz
  1  'x, y, z'
loop_
 _atom_site_type_symbol
 _atom_site_label
 _atom_site_symmetry_multiplicity
 _atom_site_fract_x
 _atom_site_fract_y
 _atom_site_fract_z
 _atom_site_occupancy
  Tb  Tb0  1  0.860073  0.860071  0.139928  1
  Tb  Tb1  1  0.140104  0.140102  0.859897  1
  B  B2  1  0.463566  0.800370  0.216173  1
  B  B3  1  0.207700  0.528314  0.472422  1
  B  B4  1  0.800372  0.463564  0.519890  1
  B  B5  1  0.528316  0.207698  0.791565  1
  Ir  Ir6  1  0.499771  0.499773  0.000228  1
  Ir  Ir7  1  0.499948  0.499946  0.500053  1
  Ir  Ir8  1  0.749320  0.749320  0.750680  1
  Ru  Ru9  1  0.250800  0.250802  0.249199  1
  Ru  Ru10  1  0.000037  0.000037  0.499963  1
