# generated using pymatgen
data_Ca7(YbPd3)2
_symmetry_space_group_name_H-M   'P 1'
_cell_length_a   7.67752418
_cell_length_b   7.67752443
_cell_length_c   7.67752439
_cell_angle_alpha   71.12642909
_cell_angle_beta   71.12642693
_cell_angle_gamma   71.12642136
_symmetry_Int_Tables_number   1
_chemical_formula_structural   Ca7(YbPd3)2
_chemical_formula_sum   'Ca7 Yb2 Pd6'
_cell_volume   392.90303178
_cell_formula_units_Z   1
loop_
 _symmetry_equiv_pos_site_id
 _symmetry_equiv_pos_as_xyz
  1  'x, y, z'
loop_
 _atom_site_type_symbol
 _atom_site_label
 _atom_site_symmetry_multiplicity
 _atom_site_fract_x
 _atom_site_fract_y
 _atom_site_fract_z
 _atom_site_occupancy
  Ca  Ca0  1  0.000000  0.000000  0.000000  1
  Ca  Ca1  1  0.333496  0.603342  0.842308  1
  Ca  Ca2  1  0.842308  0.333496  0.603342  1
  Ca  Ca3  1  0.603341  0.842308  0.333496  1
  Ca  Ca4  1  0.666504  0.396658  0.157692  1
  Ca  Ca5  1  0.157692  0.666504  0.396658  1
  Ca  Ca6  1  0.396658  0.157692  0.666504  1
  Yb  Yb7  1  0.798478  0.798478  0.798478  1
  Yb  Yb8  1  0.201522  0.201522  0.201522  1
  Pd  Pd9  1  0.154669  0.958813  0.582975  1
  Pd  Pd10  1  0.582975  0.154669  0.958813  1
  Pd  Pd11  1  0.958813  0.582975  0.154669  1
  Pd  Pd12  1  0.845331  0.041187  0.417025  1
  Pd  Pd13  1  0.417025  0.845331  0.041187  1
  Pd  Pd14  1  0.041187  0.417025  0.845331  1
