# generated using pymatgen
data_Ba8Mo3IrO20
_symmetry_space_group_name_H-M   'P 1'
_cell_length_a   5.79531300
_cell_length_b   7.55617708
_cell_length_c   11.73688100
_cell_angle_alpha   89.94042318
_cell_angle_beta   90.00000000
_cell_angle_gamma   90.00000000
_symmetry_Int_Tables_number   1
_chemical_formula_structural   Ba8Mo3IrO20
_chemical_formula_sum   'Ba8 Mo3 Ir1 O20'
_cell_volume   513.96256841
_cell_formula_units_Z   1
loop_
 _symmetry_equiv_pos_site_id
 _symmetry_equiv_pos_as_xyz
  1  'x, y, z'
loop_
 _atom_site_type_symbol
 _atom_site_label
 _atom_site_symmetry_multiplicity
 _atom_site_fract_x
 _atom_site_fract_y
 _atom_site_fract_z
 _atom_site_occupancy
  Ba  Ba0  1  0.750000  0.184323  0.580041  1
  Ba  Ba1  1  0.250000  0.839772  0.417221  1
  Ba  Ba2  1  0.750000  0.678817  0.917393  1
  Ba  Ba3  1  0.250000  0.318137  0.084677  1
  Ba  Ba4  1  0.250000  0.023040  0.789350  1
  Ba  Ba5  1  0.750000  0.977936  0.210340  1
  Ba  Ba6  1  0.250000  0.517795  0.712107  1
  Ba  Ba7  1  0.750000  0.472318  0.290544  1
  Mo  Mo8  1  0.750000  0.683210  0.566384  1
  Mo  Mo9  1  0.250000  0.819349  0.064817  1
  Mo  Mo10  1  0.750000  0.179072  0.933988  1
  Ir  Ir11  1  0.250000  0.331280  0.439250  1
  O  O12  1  0.490841  0.675456  0.112788  1
  O  O13  1  0.990722  0.323748  0.885833  1
  O  O14  1  0.009168  0.177236  0.386508  1
  O  O15  1  0.510081  0.823638  0.614924  1
  O  O16  1  0.509278  0.323748  0.885833  1
  O  O17  1  0.009159  0.675456  0.112788  1
  O  O18  1  0.989919  0.823638  0.614924  1
  O  O19  1  0.490832  0.177236  0.386508  1
  O  O20  1  0.750000  0.274753  0.090842  1
  O  O21  1  0.250000  0.723766  0.907635  1
  O  O22  1  0.750000  0.773481  0.410047  1
  O  O23  1  0.250000  0.214609  0.592501  1
  O  O24  1  0.003995  0.498433  0.500316  1
  O  O25  1  0.496005  0.498433  0.500316  1
  O  O26  1  0.500147  0.999396  0.999707  1
  O  O27  1  0.999853  0.999396  0.999707  1
  O  O28  1  0.250000  0.465971  0.300739  1
  O  O29  1  0.750000  0.528423  0.692618  1
  O  O30  1  0.250000  0.968221  0.194380  1
  O  O31  1  0.750000  0.029913  0.804972  1
