# generated using pymatgen
data_Hf20InSn7Sb4
_symmetry_space_group_name_H-M   'P 1'
_cell_length_a   7.42507140
_cell_length_b   8.91418770
_cell_length_c   10.80517432
_cell_angle_alpha   89.93650453
_cell_angle_beta   90.04009977
_cell_angle_gamma   89.91707749
_symmetry_Int_Tables_number   1
_chemical_formula_structural   Hf20InSn7Sb4
_chemical_formula_sum   'Hf20 In1 Sn7 Sb4'
_cell_volume   715.17670222
_cell_formula_units_Z   1
loop_
 _symmetry_equiv_pos_site_id
 _symmetry_equiv_pos_as_xyz
  1  'x, y, z'
loop_
 _atom_site_type_symbol
 _atom_site_label
 _atom_site_symmetry_multiplicity
 _atom_site_fract_x
 _atom_site_fract_y
 _atom_site_fract_z
 _atom_site_occupancy
  Hf  Hf0  1  0.812354  0.440019  0.560575  1
  Hf  Hf1  1  0.312296  0.060521  0.939947  1
  Hf  Hf2  1  0.187787  0.939602  0.441347  1
  Hf  Hf3  1  0.687614  0.559296  0.059291  1
  Hf  Hf4  1  0.149370  0.249606  0.723257  1
  Hf  Hf5  1  0.649728  0.250019  0.777043  1
  Hf  Hf6  1  0.850480  0.749423  0.275299  1
  Hf  Hf7  1  0.352516  0.749515  0.224227  1
  Hf  Hf8  1  0.312115  0.439610  0.939918  1
  Hf  Hf9  1  0.813259  0.061787  0.561067  1
  Hf  Hf10  1  0.688455  0.938654  0.058881  1
  Hf  Hf11  1  0.187418  0.560094  0.439874  1
  Hf  Hf12  1  0.186533  0.750348  0.716621  1
  Hf  Hf13  1  0.686095  0.749931  0.782962  1
  Hf  Hf14  1  0.813796  0.250755  0.283466  1
  Hf  Hf15  1  0.313312  0.251871  0.217454  1
  Hf  Hf16  1  0.010008  0.750394  0.990882  1
  Hf  Hf17  1  0.509137  0.749024  0.509179  1
  Hf  Hf18  1  0.989475  0.249718  0.009455  1
  Hf  Hf19  1  0.489446  0.249427  0.489869  1
  In  In20  1  0.567480  0.996467  0.326518  1
  Sn  Sn21  1  0.067792  0.504289  0.173191  1
  Sn  Sn22  1  0.432053  0.495077  0.673030  1
  Sn  Sn23  1  0.931968  0.004486  0.826684  1
  Sn  Sn24  1  0.432321  0.004683  0.672446  1
  Sn  Sn25  1  0.931766  0.495670  0.826797  1
  Sn  Sn26  1  0.568354  0.504219  0.326898  1
  Sn  Sn27  1  0.068006  0.995827  0.173940  1
  Sb  Sb28  1  0.401331  0.749993  0.959522  1
  Sb  Sb29  1  0.900427  0.750286  0.539798  1
  Sb  Sb30  1  0.598420  0.249151  0.041341  1
  Sb  Sb31  1  0.098889  0.250240  0.459222  1
