# generated using pymatgen
data_Pr8ZnCo2Hg
_symmetry_space_group_name_H-M   'P 1'
_cell_length_a   9.79854781
_cell_length_b   9.77907907
_cell_length_c   9.77907859
_cell_angle_alpha   60.09809229
_cell_angle_beta   59.93411595
_cell_angle_gamma   59.93411340
_symmetry_Int_Tables_number   1
_chemical_formula_structural   Pr8ZnCo2Hg
_chemical_formula_sum   'Pr16 Zn2 Co4 Hg2'
_cell_volume   662.41426558
_cell_formula_units_Z   2
loop_
 _symmetry_equiv_pos_site_id
 _symmetry_equiv_pos_as_xyz
  1  'x, y, z'
loop_
 _atom_site_type_symbol
 _atom_site_label
 _atom_site_symmetry_multiplicity
 _atom_site_fract_x
 _atom_site_fract_y
 _atom_site_fract_z
 _atom_site_occupancy
  Pr  Pr0  1  0.938547  0.939508  0.556362  1
  Pr  Pr1  1  0.565582  0.939508  0.556362  1
  Pr  Pr2  1  0.561246  0.938754  0.938754  1
  Pr  Pr3  1  0.690806  0.691368  0.310201  1
  Pr  Pr4  1  0.151335  0.151999  0.545331  1
  Pr  Pr5  1  0.307214  0.692786  0.692786  1
  Pr  Pr6  1  0.151721  0.152383  0.152383  1
  Pr  Pr7  1  0.543512  0.152383  0.152383  1
  Pr  Pr8  1  0.307625  0.691368  0.310201  1
  Pr  Pr9  1  0.307625  0.310201  0.691368  1
  Pr  Pr10  1  0.690806  0.310201  0.691368  1
  Pr  Pr11  1  0.938986  0.561014  0.561014  1
  Pr  Pr12  1  0.565582  0.556362  0.939508  1
  Pr  Pr13  1  0.151335  0.545331  0.151999  1
  Pr  Pr14  1  0.690601  0.309399  0.309399  1
  Pr  Pr15  1  0.938547  0.556362  0.939508  1
  Zn  Zn16  1  0.919582  0.922992  0.237845  1
  Zn  Zn17  1  0.919582  0.237845  0.922992  1
  Co  Co18  1  0.921975  0.358701  0.358701  1
  Co  Co19  1  0.359935  0.357813  0.922316  1
  Co  Co20  1  0.359935  0.922316  0.357813  1
  Co  Co21  1  0.360623  0.358701  0.358701  1
  Hg  Hg22  1  0.241160  0.921352  0.921352  1
  Hg  Hg23  1  0.916135  0.921352  0.921352  1
