# generated using pymatgen
data_LiMgZr6(Al2Pd)7
_symmetry_space_group_name_H-M   'P 1'
_cell_length_a   8.82457546
_cell_length_b   8.83096720
_cell_length_c   8.81785531
_cell_angle_alpha   59.96508076
_cell_angle_beta   59.97478011
_cell_angle_gamma   60.02393480
_symmetry_Int_Tables_number   1
_chemical_formula_structural   LiMgZr6(Al2Pd)7
_chemical_formula_sum   'Li1 Mg1 Zr6 Al14 Pd7'
_cell_volume   485.77028527
_cell_formula_units_Z   1
loop_
 _symmetry_equiv_pos_site_id
 _symmetry_equiv_pos_as_xyz
  1  'x, y, z'
loop_
 _atom_site_type_symbol
 _atom_site_label
 _atom_site_symmetry_multiplicity
 _atom_site_fract_x
 _atom_site_fract_y
 _atom_site_fract_z
 _atom_site_occupancy
  Li  Li0  1  0.880545  0.881872  0.357038  1
  Mg  Mg1  1  0.881134  0.354192  0.883541  1
  Zr  Zr2  1  0.684862  0.685207  0.313758  1
  Zr  Zr3  1  0.316174  0.685207  0.313758  1
  Zr  Zr4  1  0.681673  0.318268  0.318387  1
  Zr  Zr5  1  0.317908  0.314981  0.683968  1
  Zr  Zr6  1  0.683143  0.314981  0.683968  1
  Zr  Zr7  1  0.314560  0.685228  0.685652  1
  Al  Al8  1  0.360129  0.879927  0.880810  1
  Al  Al9  1  0.879135  0.879927  0.880810  1
  Al  Al10  1  0.119672  0.120700  0.639954  1
  Al  Al11  1  0.116733  0.640138  0.126394  1
  Al  Al12  1  0.642016  0.116083  0.125778  1
  Al  Al13  1  0.116122  0.116083  0.125778  1
  Al  Al14  1  0.664999  0.664595  0.005408  1
  Al  Al15  1  0.669586  0.001199  0.659628  1
  Al  Al16  1  0.000771  0.669274  0.659801  1
  Al  Al17  1  0.670154  0.669274  0.659801  1
  Al  Al18  1  0.334372  0.333602  0.997653  1
  Al  Al19  1  0.335855  0.994921  0.333370  1
  Al  Al20  1  0.994390  0.335568  0.333664  1
  Al  Al21  1  0.336379  0.335568  0.333664  1
  Pd  Pd22  1  0.006010  0.990893  0.997086  1
  Pd  Pd23  1  0.001896  0.001470  0.505083  1
  Pd  Pd24  1  0.491550  0.001470  0.505083  1
  Pd  Pd25  1  0.003034  0.496140  0.497792  1
  Pd  Pd26  1  0.494052  0.506339  0.997748  1
  Pd  Pd27  1  0.001861  0.506339  0.997748  1
  Pd  Pd28  1  0.501286  0.000553  0.996875  1
