# generated using pymatgen
data_PrEu3Si10OsPt5
_symmetry_space_group_name_H-M   'P 1'
_cell_length_a   8.32222810
_cell_length_b   8.32057690
_cell_length_c   8.32121322
_cell_angle_alpha   137.96446415
_cell_angle_beta   104.86334333
_cell_angle_gamma   90.05406916
_symmetry_Int_Tables_number   1
_chemical_formula_structural   PrEu3Si10OsPt5
_chemical_formula_sum   'Pr1 Eu3 Si10 Os1 Pt5'
_cell_volume   356.22202882
_cell_formula_units_Z   1
loop_
 _symmetry_equiv_pos_site_id
 _symmetry_equiv_pos_as_xyz
  1  'x, y, z'
loop_
 _atom_site_type_symbol
 _atom_site_label
 _atom_site_symmetry_multiplicity
 _atom_site_fract_x
 _atom_site_fract_y
 _atom_site_fract_z
 _atom_site_occupancy
  Pr  Pr0  1  0.603674  0.869920  0.732463  1
  Eu  Eu1  1  0.862810  0.630342  0.233409  1
  Eu  Eu2  1  0.137366  0.370697  0.767383  1
  Eu  Eu3  1  0.395690  0.128544  0.266149  1
  Si  Si4  1  0.499450  0.749343  0.248485  1
  Si  Si5  1  0.499266  0.250859  0.750083  1
  Si  Si6  1  0.224356  0.975237  0.750163  1
  Si  Si7  1  0.775459  0.524671  0.750176  1
  Si  Si8  1  0.771170  0.020594  0.250966  1
  Si  Si9  1  0.228711  0.478604  0.248784  1
  Si  Si10  1  0.042355  0.885227  0.143981  1
  Si  Si11  1  0.958883  0.103125  0.843742  1
  Si  Si12  1  0.742456  0.397790  0.356457  1
  Si  Si13  1  0.258030  0.614270  0.656825  1
  Os  Os14  1  0.999438  0.750977  0.750347  1
  Pt  Pt15  1  0.999863  0.249772  0.249348  1
  Pt  Pt16  1  0.251635  0.865181  0.390294  1
  Pt  Pt17  1  0.748695  0.138815  0.614214  1
  Pt  Pt18  1  0.475697  0.360930  0.110854  1
  Pt  Pt19  1  0.524998  0.635103  0.885879  1
