# generated using pymatgen
data_Y8Th12(Ir3Os)3
_symmetry_space_group_name_H-M   'P 1'
_cell_length_a   11.33328440
_cell_length_b   11.15269746
_cell_length_c   6.39087900
_cell_angle_alpha   90.00000000
_cell_angle_beta   90.00000000
_cell_angle_gamma   89.94217724
_symmetry_Int_Tables_number   1
_chemical_formula_structural   Y8Th12(Ir3Os)3
_chemical_formula_sum   'Y8 Th12 Ir9 Os3'
_cell_volume   807.78555431
_cell_formula_units_Z   1
loop_
 _symmetry_equiv_pos_site_id
 _symmetry_equiv_pos_as_xyz
  1  'x, y, z'
loop_
 _atom_site_type_symbol
 _atom_site_label
 _atom_site_symmetry_multiplicity
 _atom_site_fract_x
 _atom_site_fract_y
 _atom_site_fract_z
 _atom_site_occupancy
  Y  Y0  1  0.913439  0.713965  0.112347  1
  Y  Y1  1  0.912815  0.285643  0.614710  1
  Y  Y2  1  0.087185  0.714357  0.614710  1
  Y  Y3  1  0.086561  0.286035  0.112347  1
  Y  Y4  1  0.000000  0.000000  0.486686  1
  Y  Y5  1  0.000000  0.000000  0.986603  1
  Y  Y6  1  0.500000  0.500000  0.023512  1
  Y  Y7  1  0.500000  0.500000  0.523376  1
  Th  Th8  1  0.290581  0.090780  0.381362  1
  Th  Th9  1  0.290603  0.910466  0.881448  1
  Th  Th10  1  0.709397  0.089534  0.881448  1
  Th  Th11  1  0.709419  0.909220  0.381362  1
  Th  Th12  1  0.589966  0.787807  0.885546  1
  Th  Th13  1  0.590549  0.211778  0.384763  1
  Th  Th14  1  0.409451  0.788222  0.384763  1
  Th  Th15  1  0.410034  0.212193  0.885546  1
  Th  Th16  1  0.200828  0.409673  0.615603  1
  Th  Th17  1  0.201227  0.590497  0.111381  1
  Th  Th18  1  0.798773  0.409503  0.111381  1
  Th  Th19  1  0.799172  0.590327  0.615603  1
  Ir  Ir20  1  0.844095  0.151666  0.238720  1
  Ir  Ir21  1  0.844037  0.848429  0.738777  1
  Ir  Ir22  1  0.155963  0.151571  0.738777  1
  Ir  Ir23  1  0.155905  0.848334  0.238720  1
  Ir  Ir24  1  0.652513  0.341723  0.764007  1
  Ir  Ir25  1  0.654739  0.656151  0.264315  1
  Ir  Ir26  1  0.345261  0.343849  0.264315  1
  Ir  Ir27  1  0.347487  0.658277  0.764007  1
  Ir  Ir28  1  0.000000  0.500000  0.376044  1
  Os  Os29  1  0.500000  0.000000  0.121534  1
  Os  Os30  1  0.500000  0.000000  0.620997  1
  Os  Os31  1  0.000000  0.500000  0.875291  1
