# generated using pymatgen
data_Ho7Er3InPb5
_symmetry_space_group_name_H-M   'P 1'
_cell_length_a   8.99819305
_cell_length_b   8.99837333
_cell_length_c   6.62878000
_cell_angle_alpha   90.00100102
_cell_angle_beta   89.99931902
_cell_angle_gamma   120.05825670
_symmetry_Int_Tables_number   1
_chemical_formula_structural   Ho7Er3InPb5
_chemical_formula_sum   'Ho7 Er3 In1 Pb5'
_cell_volume   464.54555221
_cell_formula_units_Z   1
loop_
 _symmetry_equiv_pos_site_id
 _symmetry_equiv_pos_as_xyz
  1  'x, y, z'
loop_
 _atom_site_type_symbol
 _atom_site_label
 _atom_site_symmetry_multiplicity
 _atom_site_fract_x
 _atom_site_fract_y
 _atom_site_fract_z
 _atom_site_occupancy
  Ho  Ho0  1  0.663839  0.333640  0.998235  1
  Ho  Ho1  1  0.760445  0.760490  0.749952  1
  Ho  Ho2  1  0.239138  0.004735  0.749937  1
  Ho  Ho3  1  0.004872  0.239223  0.749965  1
  Ho  Ho4  1  0.237895  0.237954  0.250056  1
  Ho  Ho5  1  0.762214  0.999517  0.250064  1
  Ho  Ho6  1  0.999615  0.762264  0.250050  1
  Er  Er7  1  0.333627  0.663795  0.998204  1
  Er  Er8  1  0.333659  0.663830  0.501764  1
  Er  Er9  1  0.663822  0.333665  0.501781  1
  In  In10  1  0.396458  0.396647  0.749812  1
  Pb  Pb11  1  0.606134  0.000256  0.749756  1
  Pb  Pb12  1  0.000696  0.606360  0.749772  1
  Pb  Pb13  1  0.604479  0.604702  0.250225  1
  Pb  Pb14  1  0.394299  0.998382  0.250223  1
  Pb  Pb15  1  0.998808  0.394538  0.250203  1
