# generated using pymatgen
data_CaLaTaVO6
_symmetry_space_group_name_H-M   'P 1'
_cell_length_a   5.59509520
_cell_length_b   8.00432116
_cell_length_c   11.55388102
_cell_angle_alpha   90.00120348
_cell_angle_beta   89.99873208
_cell_angle_gamma   89.78414565
_symmetry_Int_Tables_number   1
_chemical_formula_structural   CaLaTaVO6
_chemical_formula_sum   'Ca4 La4 Ta4 V4 O24'
_cell_volume   517.43618320
_cell_formula_units_Z   4
loop_
 _symmetry_equiv_pos_site_id
 _symmetry_equiv_pos_as_xyz
  1  'x, y, z'
loop_
 _atom_site_type_symbol
 _atom_site_label
 _atom_site_symmetry_multiplicity
 _atom_site_fract_x
 _atom_site_fract_y
 _atom_site_fract_z
 _atom_site_occupancy
  Ca  Ca0  1  0.513777  0.251848  0.277063  1
  Ca  Ca1  1  0.513787  0.252019  0.777084  1
  Ca  Ca2  1  0.013767  0.751846  0.472923  1
  Ca  Ca3  1  0.013854  0.751985  0.972898  1
  La  La4  1  0.988811  0.248112  0.025307  1
  La  La5  1  0.988530  0.248099  0.525351  1
  La  La6  1  0.488583  0.748089  0.224652  1
  La  La7  1  0.488848  0.748074  0.724684  1
  Ta  Ta8  1  0.999848  0.498655  0.252000  1
  Ta  Ta9  1  0.000017  0.498659  0.752022  1
  Ta  Ta10  1  0.499818  0.998647  0.498005  1
  Ta  Ta11  1  0.500011  0.998643  0.997975  1
  V  V12  1  0.999442  0.000352  0.749369  1
  V  V13  1  0.499436  0.500360  0.000621  1
  V  V14  1  0.999312  0.000345  0.249380  1
  V  V15  1  0.499290  0.500338  0.500618  1
  O  O16  1  0.600423  0.759686  0.015263  1
  O  O17  1  0.600342  0.759694  0.515326  1
  O  O18  1  0.100340  0.259700  0.234700  1
  O  O19  1  0.100321  0.259666  0.734786  1
  O  O20  1  0.209093  0.952434  0.094672  1
  O  O21  1  0.209009  0.952363  0.594701  1
  O  O22  1  0.709012  0.452390  0.155303  1
  O  O23  1  0.709043  0.452477  0.655347  1
  O  O24  1  0.187370  0.554221  0.107606  1
  O  O25  1  0.187339  0.554102  0.607591  1
  O  O26  1  0.687433  0.054177  0.142356  1
  O  O27  1  0.687409  0.054255  0.642356  1
  O  O28  1  0.905966  0.740406  0.268336  1
  O  O29  1  0.906293  0.740430  0.768324  1
  O  O30  1  0.405934  0.240395  0.481695  1
  O  O31  1  0.406238  0.240424  0.981675  1
  O  O32  1  0.287943  0.547517  0.348392  1
  O  O33  1  0.288294  0.547362  0.848322  1
  O  O34  1  0.787934  0.047510  0.401614  1
  O  O35  1  0.788233  0.047416  0.901650  1
  O  O36  1  0.307108  0.946774  0.356293  1
  O  O37  1  0.307319  0.946822  0.856260  1
  O  O38  1  0.807105  0.446779  0.393709  1
  O  O39  1  0.807360  0.446926  0.893772  1
