# generated using pymatgen
data_Zr2Co3Ir
_symmetry_space_group_name_H-M   'P 1'
_cell_length_a   4.94091700
_cell_length_b   4.94091583
_cell_length_c   8.32437200
_cell_angle_alpha   90.00000000
_cell_angle_beta   90.00000000
_cell_angle_gamma   120.00001453
_symmetry_Int_Tables_number   1
_chemical_formula_structural   Zr2Co3Ir
_chemical_formula_sum   'Zr4 Co6 Ir2'
_cell_volume   175.99367574
_cell_formula_units_Z   2
loop_
 _symmetry_equiv_pos_site_id
 _symmetry_equiv_pos_as_xyz
  1  'x, y, z'
loop_
 _atom_site_type_symbol
 _atom_site_label
 _atom_site_symmetry_multiplicity
 _atom_site_fract_x
 _atom_site_fract_y
 _atom_site_fract_z
 _atom_site_occupancy
  Zr  Zr0  1  0.333333  0.666667  0.429925  1
  Zr  Zr1  1  0.666667  0.333333  0.570075  1
  Zr  Zr2  1  0.666667  0.333333  0.929925  1
  Zr  Zr3  1  0.333333  0.666667  0.070075  1
  Co  Co4  1  0.829487  0.170513  0.250000  1
  Co  Co5  1  0.829487  0.658973  0.250000  1
  Co  Co6  1  0.341027  0.170513  0.250000  1
  Co  Co7  1  0.170513  0.829487  0.750000  1
  Co  Co8  1  0.170513  0.341027  0.750000  1
  Co  Co9  1  0.658973  0.829487  0.750000  1
  Ir  Ir10  1  0.000000  0.000000  0.500000  1
  Ir  Ir11  1  0.000000  0.000000  0.000000  1
