# generated using pymatgen
data_Zr4Si3MoN
_symmetry_space_group_name_H-M   'P 1'
_cell_length_a   7.81322900
_cell_length_b   7.81323029
_cell_length_c   5.51430100
_cell_angle_alpha   90.00000000
_cell_angle_beta   90.00000000
_cell_angle_gamma   119.99999877
_symmetry_Int_Tables_number   1
_chemical_formula_structural   Zr4Si3MoN
_chemical_formula_sum   'Zr8 Si6 Mo2 N2'
_cell_volume   291.52934977
_cell_formula_units_Z   2
loop_
 _symmetry_equiv_pos_site_id
 _symmetry_equiv_pos_as_xyz
  1  'x, y, z'
loop_
 _atom_site_type_symbol
 _atom_site_label
 _atom_site_symmetry_multiplicity
 _atom_site_fract_x
 _atom_site_fract_y
 _atom_site_fract_z
 _atom_site_occupancy
  Zr  Zr0  1  0.234421  0.000000  0.748152  1
  Zr  Zr1  1  0.765579  0.000000  0.251848  1
  Zr  Zr2  1  0.000000  0.234421  0.748152  1
  Zr  Zr3  1  0.000000  0.765579  0.251848  1
  Zr  Zr4  1  0.765579  0.765579  0.748152  1
  Zr  Zr5  1  0.234421  0.234421  0.251848  1
  Zr  Zr6  1  0.666667  0.333333  0.000000  1
  Zr  Zr7  1  0.333333  0.666667  0.000000  1
  Si  Si8  1  0.588542  0.000000  0.721702  1
  Si  Si9  1  0.411458  0.000000  0.278298  1
  Si  Si10  1  0.000000  0.588542  0.721702  1
  Si  Si11  1  0.000000  0.411458  0.278298  1
  Si  Si12  1  0.411458  0.411458  0.721702  1
  Si  Si13  1  0.588542  0.588542  0.278298  1
  Mo  Mo14  1  0.333333  0.666667  0.500000  1
  Mo  Mo15  1  0.666667  0.333333  0.500000  1
  N  N16  1  0.000000  0.000000  0.500000  1
  N  N17  1  0.000000  0.000000  0.000000  1
