# generated using pymatgen
data_CsTaTe7Mo5
_symmetry_space_group_name_H-M   'P 1'
_cell_length_a   10.55495155
_cell_length_b   10.53319671
_cell_length_c   10.50835151
_cell_angle_alpha   59.76557729
_cell_angle_beta   60.33553117
_cell_angle_gamma   60.50949668
_symmetry_Int_Tables_number   1
_chemical_formula_structural   CsTaTe7Mo5
_chemical_formula_sum   'Cs2 Ta2 Te14 Mo10'
_cell_volume   829.83793112
_cell_formula_units_Z   2
loop_
 _symmetry_equiv_pos_site_id
 _symmetry_equiv_pos_as_xyz
  1  'x, y, z'
loop_
 _atom_site_type_symbol
 _atom_site_label
 _atom_site_symmetry_multiplicity
 _atom_site_fract_x
 _atom_site_fract_y
 _atom_site_fract_z
 _atom_site_occupancy
  Cs  Cs0  1  0.620039  0.620619  0.620556  1
  Cs  Cs1  1  0.379851  0.378657  0.378424  1
  Ta  Ta2  1  0.684430  0.900484  0.000232  1
  Ta  Ta3  1  0.013757  0.697788  0.873240  1
  Te  Te4  1  0.418392  0.803131  0.168171  1
  Te  Te5  1  0.169110  0.419348  0.799616  1
  Te  Te6  1  0.809740  0.160624  0.424964  1
  Te  Te7  1  0.573630  0.207081  0.828786  1
  Te  Te8  1  0.838037  0.577928  0.190130  1
  Te  Te9  1  0.197700  0.841095  0.573728  1
  Te  Te10  1  0.634435  0.978971  0.250327  1
  Te  Te11  1  0.246992  0.632716  0.985870  1
  Te  Te12  1  0.981663  0.245329  0.632664  1
  Te  Te13  1  0.365145  0.020415  0.756088  1
  Te  Te14  1  0.758066  0.364985  0.017813  1
  Te  Te15  1  0.016355  0.754725  0.369540  1
  Te  Te16  1  0.775375  0.764621  0.783598  1
  Te  Te17  1  0.223001  0.224557  0.222779  1
  Mo  Mo18  1  0.879532  0.997263  0.719200  1
  Mo  Mo19  1  0.290773  0.118532  0.998503  1
  Mo  Mo20  1  0.001703  0.288910  0.115681  1
  Mo  Mo21  1  0.118795  0.000020  0.286453  1
  Mo  Mo22  1  0.945347  0.817740  0.107392  1
  Mo  Mo23  1  0.108759  0.944745  0.815957  1
  Mo  Mo24  1  0.816370  0.108099  0.944342  1
  Mo  Mo25  1  0.056419  0.184699  0.890045  1
  Mo  Mo26  1  0.891321  0.056258  0.187921  1
  Mo  Mo27  1  0.185265  0.890659  0.057980  1
