# generated using pymatgen
data_BaLuIn3B4Ir9
_symmetry_space_group_name_H-M   'P 1'
_cell_length_a   5.66369200
_cell_length_b   5.66369100
_cell_length_c   10.32793200
_cell_angle_alpha   90.00000000
_cell_angle_beta   90.00000000
_cell_angle_gamma   120.00000582
_symmetry_Int_Tables_number   1
_chemical_formula_structural   BaLuIn3B4Ir9
_chemical_formula_sum   'Ba1 Lu1 In3 B4 Ir9'
_cell_volume   286.90832835
_cell_formula_units_Z   1
loop_
 _symmetry_equiv_pos_site_id
 _symmetry_equiv_pos_as_xyz
  1  'x, y, z'
loop_
 _atom_site_type_symbol
 _atom_site_label
 _atom_site_symmetry_multiplicity
 _atom_site_fract_x
 _atom_site_fract_y
 _atom_site_fract_z
 _atom_site_occupancy
  Ba  Ba0  1  0.000000  0.000000  0.528712  1
  Lu  Lu1  1  0.000000  0.000000  0.879848  1
  In  In2  1  0.666667  0.333333  0.525537  1
  In  In3  1  0.000000  0.000000  0.195401  1
  In  In4  1  0.333333  0.666667  0.525537  1
  B  B5  1  0.666667  0.333333  0.172701  1
  B  B6  1  0.333333  0.666667  0.881758  1
  B  B7  1  0.666667  0.333333  0.881758  1
  B  B8  1  0.333333  0.666667  0.172701  1
  Ir  Ir9  1  0.000000  0.470195  0.300802  1
  Ir  Ir10  1  0.495560  0.000000  0.751366  1
  Ir  Ir11  1  0.470195  0.000000  0.300802  1
  Ir  Ir12  1  0.000000  0.461900  0.026514  1
  Ir  Ir13  1  0.504440  0.504440  0.751366  1
  Ir  Ir14  1  0.000000  0.495560  0.751366  1
  Ir  Ir15  1  0.538100  0.538100  0.026514  1
  Ir  Ir16  1  0.461900  0.000000  0.026514  1
  Ir  Ir17  1  0.529805  0.529805  0.300802  1
