# generated using pymatgen
data_Li2PrSmSi2Sn
_symmetry_space_group_name_H-M   'P 1'
_cell_length_a   9.74513734
_cell_length_b   9.74513588
_cell_length_c   6.89510900
_cell_angle_alpha   90.00000000
_cell_angle_beta   90.00000000
_cell_angle_gamma   153.18123934
_symmetry_Int_Tables_number   1
_chemical_formula_structural   Li2PrSmSi2Sn
_chemical_formula_sum   'Li4 Pr2 Sm2 Si4 Sn2'
_cell_volume   295.43163773
_cell_formula_units_Z   2
loop_
 _symmetry_equiv_pos_site_id
 _symmetry_equiv_pos_as_xyz
  1  'x, y, z'
loop_
 _atom_site_type_symbol
 _atom_site_label
 _atom_site_symmetry_multiplicity
 _atom_site_fract_x
 _atom_site_fract_y
 _atom_site_fract_z
 _atom_site_occupancy
  Li  Li0  1  0.815548  0.184452  0.554478  1
  Li  Li1  1  0.184452  0.815548  0.445522  1
  Li  Li2  1  0.184452  0.815548  0.054478  1
  Li  Li3  1  0.815548  0.184452  0.945522  1
  Pr  Pr4  1  0.549136  0.450864  0.250000  1
  Pr  Pr5  1  0.450864  0.549136  0.750000  1
  Sm  Sm6  1  0.350545  0.649455  0.250000  1
  Sm  Sm7  1  0.649455  0.350545  0.750000  1
  Si  Si8  1  0.942732  0.057268  0.075603  1
  Si  Si9  1  0.057268  0.942732  0.924397  1
  Si  Si10  1  0.057268  0.942732  0.575603  1
  Si  Si11  1  0.942732  0.057268  0.424397  1
  Sn  Sn12  1  0.720443  0.279557  0.250000  1
  Sn  Sn13  1  0.279557  0.720443  0.750000  1
