# generated using pymatgen
data_Tb5Y2BI12
_symmetry_space_group_name_H-M   'P 1'
_cell_length_a   9.66695623
_cell_length_b   9.66834255
_cell_length_c   9.66600203
_cell_angle_alpha   107.87614316
_cell_angle_beta   107.86177787
_cell_angle_gamma   107.88448233
_symmetry_Int_Tables_number   1
_chemical_formula_structural   Tb5Y2BI12
_chemical_formula_sum   'Tb5 Y2 B1 I12'
_cell_volume   733.69532341
_cell_formula_units_Z   1
loop_
 _symmetry_equiv_pos_site_id
 _symmetry_equiv_pos_as_xyz
  1  'x, y, z'
loop_
 _atom_site_type_symbol
 _atom_site_label
 _atom_site_symmetry_multiplicity
 _atom_site_fract_x
 _atom_site_fract_y
 _atom_site_fract_z
 _atom_site_occupancy
  Tb  Tb0  1  0.707010  0.967066  0.900244  1
  Tb  Tb1  1  0.966881  0.899857  0.706320  1
  Tb  Tb2  1  0.099358  0.293017  0.032217  1
  Tb  Tb3  1  0.292937  0.032308  0.099527  1
  Tb  Tb4  1  0.900093  0.706861  0.967131  1
  Y  Y5  1  0.501193  0.501265  0.501426  1
  Y  Y6  1  0.032699  0.099563  0.292524  1
  B  B7  1  0.000350  0.000110  0.999449  1
  I  I8  1  0.074762  0.225643  0.685425  1
  I  I9  1  0.388726  0.154174  0.469734  1
  I  I10  1  0.610373  0.846361  0.530024  1
  I  I11  1  0.225983  0.685875  0.075082  1
  I  I12  1  0.773928  0.314108  0.925332  1
  I  I13  1  0.686379  0.074896  0.226214  1
  I  I14  1  0.529862  0.610661  0.846504  1
  I  I15  1  0.846336  0.529943  0.610645  1
  I  I16  1  0.925544  0.774962  0.314408  1
  I  I17  1  0.314126  0.925298  0.774112  1
  I  I18  1  0.469767  0.389298  0.154457  1
  I  I19  1  0.153694  0.468734  0.389225  1
