# generated using pymatgen
data_Ce10Bi6IrRh
_symmetry_space_group_name_H-M   'P 1'
_cell_length_a   6.44708901
_cell_length_b   9.68336744
_cell_length_c   9.68412291
_cell_angle_alpha   120.00012132
_cell_angle_beta   90.00383367
_cell_angle_gamma   89.99857015
_symmetry_Int_Tables_number   1
_chemical_formula_structural   Ce10Bi6IrRh
_chemical_formula_sum   'Ce10 Bi6 Ir1 Rh1'
_cell_volume   523.57689155
_cell_formula_units_Z   1
loop_
 _symmetry_equiv_pos_site_id
 _symmetry_equiv_pos_as_xyz
  1  'x, y, z'
loop_
 _atom_site_type_symbol
 _atom_site_label
 _atom_site_symmetry_multiplicity
 _atom_site_fract_x
 _atom_site_fract_y
 _atom_site_fract_z
 _atom_site_occupancy
  Ce  Ce0  1  0.500009  0.333302  0.666695  1
  Ce  Ce1  1  0.499986  0.666634  0.333287  1
  Ce  Ce2  1  0.000002  0.666670  0.333338  1
  Ce  Ce3  1  0.000012  0.333315  0.666702  1
  Ce  Ce4  1  0.748914  0.245387  0.000002  1
  Ce  Ce5  1  0.748839  0.754595  0.754611  1
  Ce  Ce6  1  0.748820  0.999930  0.245403  1
  Ce  Ce7  1  0.251174  0.754686  0.000017  1
  Ce  Ce8  1  0.251112  0.245412  0.245370  1
  Ce  Ce9  1  0.251210  0.000029  0.754600  1
  Bi  Bi10  1  0.750191  0.609157  0.999974  1
  Bi  Bi11  1  0.750183  0.390742  0.390749  1
  Bi  Bi12  1  0.750181  0.000005  0.609267  1
  Bi  Bi13  1  0.249789  0.390839  0.999998  1
  Bi  Bi14  1  0.249785  0.609261  0.609267  1
  Bi  Bi15  1  0.249796  0.000025  0.390753  1
  Ir  Ir16  1  0.499999  0.000006  0.999988  1
  Rh  Rh17  1  0.999999  0.000006  0.999980  1
