# generated using pymatgen
data_Li8Y7Tm(Sn3Sb)2
_symmetry_space_group_name_H-M   'P 1'
_cell_length_a   9.37463420
_cell_length_b   9.37467638
_cell_length_c   7.25368915
_cell_angle_alpha   90.07546828
_cell_angle_beta   89.92453022
_cell_angle_gamma   119.98393119
_symmetry_Int_Tables_number   1
_chemical_formula_structural   Li8Y7Tm(Sn3Sb)2
_chemical_formula_sum   'Li8 Y7 Tm1 Sn6 Sb2'
_cell_volume   552.16640900
_cell_formula_units_Z   1
loop_
 _symmetry_equiv_pos_site_id
 _symmetry_equiv_pos_as_xyz
  1  'x, y, z'
loop_
 _atom_site_type_symbol
 _atom_site_label
 _atom_site_symmetry_multiplicity
 _atom_site_fract_x
 _atom_site_fract_y
 _atom_site_fract_z
 _atom_site_occupancy
  Li  Li0  1  0.832360  0.666664  0.713403  1
  Li  Li1  1  0.833650  0.166351  0.714123  1
  Li  Li2  1  0.333857  0.666144  0.819891  1
  Li  Li3  1  0.666453  0.333544  0.320988  1
  Li  Li4  1  0.666196  0.832995  0.214411  1
  Li  Li5  1  0.167003  0.333801  0.214411  1
  Li  Li6  1  0.166860  0.833136  0.214374  1
  Li  Li7  1  0.333336  0.167639  0.713403  1
  Y  Y8  1  0.999127  0.000874  0.002690  1
  Y  Y9  1  0.999229  0.000772  0.499616  1
  Y  Y10  1  0.510074  0.489925  0.008382  1
  Y  Y11  1  0.022696  0.510273  0.504272  1
  Y  Y12  1  0.489733  0.977307  0.504270  1
  Y  Y13  1  0.512136  0.020731  0.009520  1
  Y  Y14  1  0.979271  0.487861  0.009522  1
  Tm  Tm15  1  0.487811  0.512189  0.504907  1
  Sn  Sn16  1  0.333534  0.666469  0.241096  1
  Sn  Sn17  1  0.833077  0.166921  0.267883  1
  Sn  Sn18  1  0.167330  0.334080  0.767479  1
  Sn  Sn19  1  0.334264  0.167409  0.268932  1
  Sn  Sn20  1  0.832591  0.665738  0.268932  1
  Sn  Sn21  1  0.665918  0.832668  0.767478  1
  Sb  Sb22  1  0.166902  0.833099  0.767646  1
  Sb  Sb23  1  0.666593  0.333408  0.740374  1
