# generated using pymatgen
data_MoOs2Rh4W
_symmetry_space_group_name_H-M   'P 1'
_cell_length_a   5.51217643
_cell_length_b   5.53110584
_cell_length_c   4.40057900
_cell_angle_alpha   90.00000000
_cell_angle_beta   90.00000000
_cell_angle_gamma   119.96887498
_symmetry_Int_Tables_number   1
_chemical_formula_structural   MoOs2Rh4W
_chemical_formula_sum   'Mo1 Os2 Rh4 W1'
_cell_volume   116.22823881
_cell_formula_units_Z   1
loop_
 _symmetry_equiv_pos_site_id
 _symmetry_equiv_pos_as_xyz
  1  'x, y, z'
loop_
 _atom_site_type_symbol
 _atom_site_label
 _atom_site_symmetry_multiplicity
 _atom_site_fract_x
 _atom_site_fract_y
 _atom_site_fract_z
 _atom_site_occupancy
  Mo  Mo0  1  0.673270  0.337931  0.750000  1
  Os  Os1  1  0.835584  0.667805  0.250000  1
  Os  Os2  1  0.164457  0.832608  0.750000  1
  Rh  Rh3  1  0.664906  0.834216  0.750000  1
  Rh  Rh4  1  0.336813  0.169139  0.250000  1
  Rh  Rh5  1  0.832834  0.164067  0.250000  1
  Rh  Rh6  1  0.166032  0.330273  0.750000  1
  W  W7  1  0.326103  0.663964  0.250000  1
