# generated using pymatgen
data_Sm8Tm7Sc5Pb16
_symmetry_space_group_name_H-M   'P 1'
_cell_length_a   8.08723229
_cell_length_b   8.17222211
_cell_length_c   15.43573300
_cell_angle_alpha   90.02033202
_cell_angle_beta   89.94100552
_cell_angle_gamma   90.07282356
_symmetry_Int_Tables_number   1
_chemical_formula_structural   Sm8Tm7Sc5Pb16
_chemical_formula_sum   'Sm8 Tm7 Sc5 Pb16'
_cell_volume   1020.15633013
_cell_formula_units_Z   1
loop_
 _symmetry_equiv_pos_site_id
 _symmetry_equiv_pos_as_xyz
  1  'x, y, z'
loop_
 _atom_site_type_symbol
 _atom_site_label
 _atom_site_symmetry_multiplicity
 _atom_site_fract_x
 _atom_site_fract_y
 _atom_site_fract_z
 _atom_site_occupancy
  Sm  Sm0  1  0.471629  0.678141  0.596782  1
  Sm  Sm1  1  0.970416  0.822770  0.902294  1
  Sm  Sm2  1  0.529253  0.322505  0.097207  1
  Sm  Sm3  1  0.029873  0.177383  0.403033  1
  Sm  Sm4  1  0.528442  0.321337  0.404067  1
  Sm  Sm5  1  0.029419  0.177553  0.097391  1
  Sm  Sm6  1  0.471227  0.677796  0.901867  1
  Sm  Sm7  1  0.971042  0.823253  0.597345  1
  Tm  Tm8  1  0.130817  0.342095  0.875715  1
  Tm  Tm9  1  0.369049  0.842866  0.123015  1
  Tm  Tm10  1  0.867595  0.657597  0.378545  1
  Tm  Tm11  1  0.368868  0.842630  0.376998  1
  Tm  Tm12  1  0.869343  0.657413  0.123148  1
  Tm  Tm13  1  0.630491  0.157190  0.876900  1
  Tm  Tm14  1  0.130392  0.343119  0.622793  1
  Sc  Sc15  1  0.631377  0.156734  0.624277  1
  Sc  Sc16  1  0.797849  0.493370  0.749420  1
  Sc  Sc17  1  0.299200  0.007344  0.749180  1
  Sc  Sc18  1  0.201403  0.506672  0.250041  1
  Sc  Sc19  1  0.701485  0.993904  0.250409  1
  Pb  Pb20  1  0.707494  0.964686  0.457828  1
  Pb  Pb21  1  0.208884  0.537352  0.044884  1
  Pb  Pb22  1  0.290549  0.037654  0.954555  1
  Pb  Pb23  1  0.788371  0.456349  0.546469  1
  Pb  Pb24  1  0.297257  0.039538  0.545951  1
  Pb  Pb25  1  0.791297  0.462577  0.954399  1
  Pb  Pb26  1  0.709136  0.962241  0.045298  1
  Pb  Pb27  1  0.208194  0.537751  0.454779  1
  Pb  Pb28  1  0.440953  0.369700  0.747594  1
  Pb  Pb29  1  0.935359  0.127231  0.748158  1
  Pb  Pb30  1  0.561555  0.626813  0.250247  1
  Pb  Pb31  1  0.061086  0.872989  0.250501  1
  Pb  Pb32  1  0.659111  0.847906  0.748738  1
  Pb  Pb33  1  0.160354  0.654945  0.749566  1
  Pb  Pb34  1  0.340604  0.155436  0.250166  1
  Pb  Pb35  1  0.840629  0.345159  0.250438  1
