# generated using pymatgen
data_LuTi2Co5B2
_symmetry_space_group_name_H-M   'P 1'
_cell_length_a   8.69443000
_cell_length_b   8.69133800
_cell_length_c   3.04992600
_cell_angle_alpha   90.00000000
_cell_angle_beta   90.00000000
_cell_angle_gamma   90.00000000
_symmetry_Int_Tables_number   1
_chemical_formula_structural   LuTi2Co5B2
_chemical_formula_sum   'Lu2 Ti4 Co10 B4'
_cell_volume   230.47140913
_cell_formula_units_Z   2
loop_
 _symmetry_equiv_pos_site_id
 _symmetry_equiv_pos_as_xyz
  1  'x, y, z'
loop_
 _atom_site_type_symbol
 _atom_site_label
 _atom_site_symmetry_multiplicity
 _atom_site_fract_x
 _atom_site_fract_y
 _atom_site_fract_z
 _atom_site_occupancy
  Lu  Lu0  1  0.823450  0.326928  0.000000  1
  Lu  Lu1  1  0.323450  0.173072  0.000000  1
  Ti  Ti2  1  0.999466  0.997767  0.000000  1
  Ti  Ti3  1  0.499466  0.502233  0.000000  1
  Ti  Ti4  1  0.674865  0.823858  0.000000  1
  Ti  Ti5  1  0.174865  0.676142  0.000000  1
  Co  Co6  1  0.504397  0.984916  0.500000  1
  Co  Co7  1  0.004397  0.515084  0.500000  1
  Co  Co8  1  0.068839  0.230433  0.500000  1
  Co  Co9  1  0.221400  0.914284  0.500000  1
  Co  Co10  1  0.775009  0.055935  0.500000  1
  Co  Co11  1  0.930007  0.784293  0.500000  1
  Co  Co12  1  0.430007  0.715707  0.500000  1
  Co  Co13  1  0.568839  0.269567  0.500000  1
  Co  Co14  1  0.721400  0.585716  0.500000  1
  Co  Co15  1  0.275009  0.444065  0.500000  1
  B  B16  1  0.621294  0.108562  0.000000  1
  B  B17  1  0.121294  0.391438  0.000000  1
  B  B18  1  0.881274  0.632014  0.000000  1
  B  B19  1  0.381274  0.867986  0.000000  1
