# generated using pymatgen
data_Er3In3SnPdPt
_symmetry_space_group_name_H-M   'P 1'
_cell_length_a   7.61203200
_cell_length_b   7.61203193
_cell_length_c   4.11822100
_cell_angle_alpha   90.00000000
_cell_angle_beta   90.00000000
_cell_angle_gamma   120.00000033
_symmetry_Int_Tables_number   1
_chemical_formula_structural   Er3In3SnPdPt
_chemical_formula_sum   'Er3 In3 Sn1 Pd1 Pt1'
_cell_volume   206.65289112
_cell_formula_units_Z   1
loop_
 _symmetry_equiv_pos_site_id
 _symmetry_equiv_pos_as_xyz
  1  'x, y, z'
loop_
 _atom_site_type_symbol
 _atom_site_label
 _atom_site_symmetry_multiplicity
 _atom_site_fract_x
 _atom_site_fract_y
 _atom_site_fract_z
 _atom_site_occupancy
  Er  Er0  1  0.602751  0.022858  0.500000  1
  Er  Er1  1  0.420106  0.397249  0.500000  1
  Er  Er2  1  0.977142  0.579894  0.500000  1
  In  In3  1  0.755733  0.744998  0.000000  1
  In  In4  1  0.989266  0.244267  0.000000  1
  In  In5  1  0.255002  0.010734  0.000000  1
  Sn  Sn6  1  0.333333  0.666667  0.000000  1
  Pd  Pd7  1  0.000000  0.000000  0.500000  1
  Pt  Pt8  1  0.666667  0.333333  0.000000  1
