# generated using pymatgen
data_BaTbSiGe3N7
_symmetry_space_group_name_H-M   'P 1'
_cell_length_a   6.32398100
_cell_length_b   6.32398194
_cell_length_c   10.19075000
_cell_angle_alpha   90.00000000
_cell_angle_beta   90.00000000
_cell_angle_gamma   120.00000029
_symmetry_Int_Tables_number   1
_chemical_formula_structural   BaTbSiGe3N7
_chemical_formula_sum   'Ba2 Tb2 Si2 Ge6 N14'
_cell_volume   352.95387616
_cell_formula_units_Z   2
loop_
 _symmetry_equiv_pos_site_id
 _symmetry_equiv_pos_as_xyz
  1  'x, y, z'
loop_
 _atom_site_type_symbol
 _atom_site_label
 _atom_site_symmetry_multiplicity
 _atom_site_fract_x
 _atom_site_fract_y
 _atom_site_fract_z
 _atom_site_occupancy
  Ba  Ba0  1  0.333333  0.666667  0.362641  1
  Ba  Ba1  1  0.666667  0.333333  0.862641  1
  Tb  Tb2  1  0.333333  0.666667  0.738332  1
  Tb  Tb3  1  0.666667  0.333333  0.238332  1
  Si  Si4  1  0.000000  0.000000  0.814685  1
  Si  Si5  1  0.000000  0.000000  0.314685  1
  Ge  Ge6  1  0.828090  0.656178  0.546799  1
  Ge  Ge7  1  0.171910  0.828090  0.046799  1
  Ge  Ge8  1  0.656178  0.828090  0.046799  1
  Ge  Ge9  1  0.343822  0.171910  0.546799  1
  Ge  Ge10  1  0.828090  0.171910  0.546799  1
  Ge  Ge11  1  0.171910  0.343822  0.046799  1
  N  N12  1  0.000000  0.000000  0.629991  1
  N  N13  1  0.000000  0.000000  0.129991  1
  N  N14  1  0.150340  0.300680  0.866740  1
  N  N15  1  0.849660  0.150340  0.366740  1
  N  N16  1  0.300680  0.150340  0.366740  1
  N  N17  1  0.699320  0.849660  0.866740  1
  N  N18  1  0.150340  0.849660  0.866740  1
  N  N19  1  0.849660  0.699320  0.366740  1
  N  N20  1  0.988165  0.494084  0.602544  1
  N  N21  1  0.494084  0.988165  0.102544  1
  N  N22  1  0.494084  0.505916  0.102544  1
  N  N23  1  0.505916  0.494084  0.602544  1
  N  N24  1  0.011835  0.505916  0.102544  1
  N  N25  1  0.505916  0.011835  0.602544  1
