# generated using pymatgen
data_CuNiH7
_symmetry_space_group_name_H-M   'P 1'
_cell_length_a   2.63292329
_cell_length_b   2.62726601
_cell_length_c   11.88942022
_cell_angle_alpha   99.24069318
_cell_angle_beta   89.26004603
_cell_angle_gamma   120.06574635
_symmetry_Int_Tables_number   1
_chemical_formula_structural   CuNiH7
_chemical_formula_sum   'Cu1 Ni1 H7'
_cell_volume   70.03431573
_cell_formula_units_Z   1
loop_
 _symmetry_equiv_pos_site_id
 _symmetry_equiv_pos_as_xyz
  1  'x, y, z'
loop_
 _atom_site_type_symbol
 _atom_site_label
 _atom_site_symmetry_multiplicity
 _atom_site_fract_x
 _atom_site_fract_y
 _atom_site_fract_z
 _atom_site_occupancy
  Cu  Cu0  1  0.154983  0.601503  0.827039  1
  Ni  Ni1  1  0.707319  0.673998  0.610824  1
  H  H2  1  0.468170  0.493813  0.343080  1
  H  H3  1  0.393168  0.812165  0.100165  1
  H  H4  1  0.065723  0.397869  0.673684  1
  H  H5  1  0.178602  0.764070  0.144694  1
  H  H6  1  0.514549  0.328062  0.889615  1
  H  H7  1  0.346431  0.944108  0.543667  1
  H  H8  1  0.729535  0.468212  0.325947  1
