# generated using pymatgen
data_U3Ti(NbRh9)2
_symmetry_space_group_name_H-M   'P 1'
_cell_length_a   5.61286100
_cell_length_b   5.61286106
_cell_length_c   13.67501500
_cell_angle_alpha   90.00000000
_cell_angle_beta   90.00000000
_cell_angle_gamma   120.00000551
_symmetry_Int_Tables_number   1
_chemical_formula_structural   U3Ti(NbRh9)2
_chemical_formula_sum   'U3 Ti1 Nb2 Rh18'
_cell_volume   373.10150291
_cell_formula_units_Z   1
loop_
 _symmetry_equiv_pos_site_id
 _symmetry_equiv_pos_as_xyz
  1  'x, y, z'
loop_
 _atom_site_type_symbol
 _atom_site_label
 _atom_site_symmetry_multiplicity
 _atom_site_fract_x
 _atom_site_fract_y
 _atom_site_fract_z
 _atom_site_occupancy
  U  U0  1  0.333333  0.666667  0.408987  1
  U  U1  1  0.666667  0.333333  0.585557  1
  U  U2  1  0.666667  0.333333  0.918420  1
  Ti  Ti3  1  0.000000  0.000000  0.247734  1
  Nb  Nb4  1  0.000000  0.000000  0.751837  1
  Nb  Nb5  1  0.333333  0.666667  0.089042  1
  Rh  Rh6  1  0.504380  0.495620  0.246798  1
  Rh  Rh7  1  0.504380  0.008760  0.246798  1
  Rh  Rh8  1  0.991240  0.495620  0.246798  1
  Rh  Rh9  1  0.496022  0.503978  0.751986  1
  Rh  Rh10  1  0.496022  0.992042  0.751986  1
  Rh  Rh11  1  0.007958  0.503978  0.751986  1
  Rh  Rh12  1  0.165226  0.330450  0.918518  1
  Rh  Rh13  1  0.669550  0.834774  0.918518  1
  Rh  Rh14  1  0.165226  0.834774  0.918518  1
  Rh  Rh15  1  0.835262  0.670526  0.084130  1
  Rh  Rh16  1  0.329474  0.164738  0.084130  1
  Rh  Rh17  1  0.835262  0.164738  0.084130  1
  Rh  Rh18  1  0.834021  0.668043  0.414369  1
  Rh  Rh19  1  0.331957  0.165979  0.414369  1
  Rh  Rh20  1  0.834021  0.165979  0.414369  1
  Rh  Rh21  1  0.165743  0.331485  0.583674  1
  Rh  Rh22  1  0.668515  0.834257  0.583674  1
  Rh  Rh23  1  0.165743  0.834257  0.583674  1
