# generated using pymatgen
data_TcOs2Ru4W
_symmetry_space_group_name_H-M   'P 1'
_cell_length_a   5.52208469
_cell_length_b   5.52208479
_cell_length_c   4.36214200
_cell_angle_alpha   90.00000000
_cell_angle_beta   90.00000000
_cell_angle_gamma   120.11317613
_symmetry_Int_Tables_number   1
_chemical_formula_structural   TcOs2Ru4W
_chemical_formula_sum   'Tc1 Os2 Ru4 W1'
_cell_volume   115.06418035
_cell_formula_units_Z   1
loop_
 _symmetry_equiv_pos_site_id
 _symmetry_equiv_pos_as_xyz
  1  'x, y, z'
loop_
 _atom_site_type_symbol
 _atom_site_label
 _atom_site_symmetry_multiplicity
 _atom_site_fract_x
 _atom_site_fract_y
 _atom_site_fract_z
 _atom_site_occupancy
  Tc  Tc0  1  0.667121  0.332879  0.250000  1
  Os  Os1  1  0.829954  0.663401  0.750000  1
  Os  Os2  1  0.336599  0.170046  0.750000  1
  Ru  Ru3  1  0.165242  0.331002  0.250000  1
  Ru  Ru4  1  0.668998  0.834758  0.250000  1
  Ru  Ru5  1  0.165740  0.834260  0.250000  1
  Ru  Ru6  1  0.832064  0.167936  0.750000  1
  W  W7  1  0.334283  0.665717  0.750000  1
