# generated using pymatgen
data_U2AlTcPt2
_symmetry_space_group_name_H-M   'P 1'
_cell_length_a   5.73033100
_cell_length_b   5.56691280
_cell_length_c   7.89372600
_cell_angle_alpha   90.00000000
_cell_angle_beta   90.00000000
_cell_angle_gamma   120.97590393
_symmetry_Int_Tables_number   1
_chemical_formula_structural   U2AlTcPt2
_chemical_formula_sum   'U4 Al2 Tc2 Pt4'
_cell_volume   215.89941312
_cell_formula_units_Z   2
loop_
 _symmetry_equiv_pos_site_id
 _symmetry_equiv_pos_as_xyz
  1  'x, y, z'
loop_
 _atom_site_type_symbol
 _atom_site_label
 _atom_site_symmetry_multiplicity
 _atom_site_fract_x
 _atom_site_fract_y
 _atom_site_fract_z
 _atom_site_occupancy
  U  U0  1  0.333771  0.685393  0.421915  1
  U  U1  1  0.648380  0.314607  0.921915  1
  U  U2  1  0.648380  0.314607  0.578085  1
  U  U3  1  0.333771  0.685393  0.078085  1
  Al  Al4  1  0.001994  0.000000  0.500000  1
  Al  Al5  1  0.001994  0.000000  0.000000  1
  Tc  Tc6  1  0.168150  0.814259  0.750000  1
  Tc  Tc7  1  0.353891  0.185741  0.250000  1
  Pt  Pt8  1  0.843340  0.179444  0.250000  1
  Pt  Pt9  1  0.663897  0.820556  0.750000  1
  Pt  Pt10  1  0.167560  0.332688  0.750000  1
  Pt  Pt11  1  0.834872  0.667312  0.250000  1
