# generated using pymatgen
data_ScInPd8Se
_symmetry_space_group_name_H-M   'P 1'
_cell_length_a   4.06773300
_cell_length_b   4.06773300
_cell_length_c   11.13095900
_cell_angle_alpha   90.00000000
_cell_angle_beta   90.00000000
_cell_angle_gamma   90.00000000
_symmetry_Int_Tables_number   1
_chemical_formula_structural   ScInPd8Se
_chemical_formula_sum   'Sc1 In1 Pd8 Se1'
_cell_volume   184.17787613
_cell_formula_units_Z   1
loop_
 _symmetry_equiv_pos_site_id
 _symmetry_equiv_pos_as_xyz
  1  'x, y, z'
loop_
 _atom_site_type_symbol
 _atom_site_label
 _atom_site_symmetry_multiplicity
 _atom_site_fract_x
 _atom_site_fract_y
 _atom_site_fract_z
 _atom_site_occupancy
  Sc  Sc0  1  0.500000  0.500000  0.824135  1
  In  In1  1  0.500000  0.500000  0.177812  1
  Pd  Pd2  1  0.500000  0.000000  0.997773  1
  Pd  Pd3  1  0.000000  0.500000  0.997773  1
  Pd  Pd4  1  0.500000  0.000000  0.641853  1
  Pd  Pd5  1  0.000000  0.500000  0.641853  1
  Pd  Pd6  1  0.500000  0.000000  0.359579  1
  Pd  Pd7  1  0.000000  0.500000  0.359579  1
  Pd  Pd8  1  0.000000  0.000000  0.820485  1
  Pd  Pd9  1  0.000000  0.000000  0.179743  1
  Se  Se10  1  0.000000  0.000000  0.499414  1
