# generated using pymatgen
data_ZnCo3Cu4(Mo3N)4
_symmetry_space_group_name_H-M   'P 1'
_cell_length_a   6.70591012
_cell_length_b   6.70396288
_cell_length_c   6.70641386
_cell_angle_alpha   90.03398055
_cell_angle_beta   90.07124174
_cell_angle_gamma   89.86314516
_symmetry_Int_Tables_number   1
_chemical_formula_structural   ZnCo3Cu4(Mo3N)4
_chemical_formula_sum   'Zn1 Co3 Cu4 Mo12 N4'
_cell_volume   301.49355286
_cell_formula_units_Z   1
loop_
 _symmetry_equiv_pos_site_id
 _symmetry_equiv_pos_as_xyz
  1  'x, y, z'
loop_
 _atom_site_type_symbol
 _atom_site_label
 _atom_site_symmetry_multiplicity
 _atom_site_fract_x
 _atom_site_fract_y
 _atom_site_fract_z
 _atom_site_occupancy
  Zn  Zn0  1  0.070242  0.067564  0.068573  1
  Co  Co1  1  0.569814  0.431511  0.933261  1
  Co  Co2  1  0.930929  0.569291  0.435238  1
  Co  Co3  1  0.683104  0.680961  0.684926  1
  Cu  Cu4  1  0.316632  0.182559  0.818463  1
  Cu  Cu5  1  0.819794  0.317584  0.183121  1
  Cu  Cu6  1  0.183173  0.818214  0.318884  1
  Cu  Cu7  1  0.431149  0.932646  0.569098  1
  Mo  Mo8  1  0.122398  0.211866  0.454173  1
  Mo  Mo9  1  0.382484  0.787185  0.946901  1
  Mo  Mo10  1  0.871723  0.696428  0.043934  1
  Mo  Mo11  1  0.204496  0.458405  0.126307  1
  Mo  Mo12  1  0.792441  0.946245  0.381455  1
  Mo  Mo13  1  0.037636  0.867146  0.695249  1
  Mo  Mo14  1  0.459713  0.129853  0.200300  1
  Mo  Mo15  1  0.302536  0.543542  0.629729  1
  Mo  Mo16  1  0.943160  0.384828  0.788049  1
  Mo  Mo17  1  0.551814  0.623343  0.297995  1
  Mo  Mo18  1  0.700135  0.046659  0.876348  1
  Mo  Mo19  1  0.627801  0.304890  0.548563  1
  N  N20  1  0.376045  0.376665  0.375056  1
  N  N21  1  0.625075  0.873102  0.125093  1
  N  N22  1  0.124103  0.624864  0.873612  1
  N  N23  1  0.873603  0.124650  0.625671  1
