# generated using pymatgen
data_Er3Mg3SiHg2
_symmetry_space_group_name_H-M   'P 1'
_cell_length_a   7.42928400
_cell_length_b   7.42928205
_cell_length_c   4.32321000
_cell_angle_alpha   90.00000000
_cell_angle_beta   90.00000000
_cell_angle_gamma   119.99999978
_symmetry_Int_Tables_number   1
_chemical_formula_structural   Er3Mg3SiHg2
_chemical_formula_sum   'Er3 Mg3 Si1 Hg2'
_cell_volume   206.64779304
_cell_formula_units_Z   1
loop_
 _symmetry_equiv_pos_site_id
 _symmetry_equiv_pos_as_xyz
  1  'x, y, z'
loop_
 _atom_site_type_symbol
 _atom_site_label
 _atom_site_symmetry_multiplicity
 _atom_site_fract_x
 _atom_site_fract_y
 _atom_site_fract_z
 _atom_site_occupancy
  Er  Er0  1  0.579167  0.008727  0.000000  1
  Er  Er1  1  0.991273  0.570438  0.000000  1
  Er  Er2  1  0.429562  0.420833  0.000000  1
  Mg  Mg3  1  0.250458  0.001687  0.500000  1
  Mg  Mg4  1  0.998313  0.248771  0.500000  1
  Mg  Mg5  1  0.751229  0.749542  0.500000  1
  Si  Si6  1  0.666667  0.333333  0.500000  1
  Hg  Hg7  1  0.333333  0.666667  0.500000  1
  Hg  Hg8  1  0.000000  0.000000  0.000000  1
