# generated using pymatgen
data_La19Dy(SiSb2)4
_symmetry_space_group_name_H-M   'P 1'
_cell_length_a   8.32713506
_cell_length_b   9.50514398
_cell_length_c   12.69516304
_cell_angle_alpha   90.06923440
_cell_angle_beta   89.88138725
_cell_angle_gamma   89.86831803
_symmetry_Int_Tables_number   1
_chemical_formula_structural   La19Dy(SiSb2)4
_chemical_formula_sum   'La19 Dy1 Si4 Sb8'
_cell_volume   1004.82444934
_cell_formula_units_Z   1
loop_
 _symmetry_equiv_pos_site_id
 _symmetry_equiv_pos_as_xyz
  1  'x, y, z'
loop_
 _atom_site_type_symbol
 _atom_site_label
 _atom_site_symmetry_multiplicity
 _atom_site_fract_x
 _atom_site_fract_y
 _atom_site_fract_z
 _atom_site_occupancy
  La  La0  1  0.335947  0.749988  0.715287  1
  La  La1  1  0.663914  0.250281  0.285478  1
  La  La2  1  0.836795  0.248660  0.785107  1
  La  La3  1  0.163150  0.750222  0.214515  1
  La  La4  1  0.032243  0.750090  0.503167  1
  La  La5  1  0.966908  0.249011  0.498028  1
  La  La6  1  0.534562  0.252250  0.997866  1
  La  La7  1  0.466460  0.749617  0.002256  1
  La  La8  1  0.861132  0.750891  0.793835  1
  La  La9  1  0.138516  0.248929  0.206080  1
  La  La10  1  0.360792  0.249821  0.707577  1
  La  La11  1  0.638706  0.749952  0.293437  1
  La  La12  1  0.688345  0.549272  0.562842  1
  La  La13  1  0.312434  0.451343  0.436879  1
  La  La14  1  0.188707  0.451752  0.936507  1
  La  La15  1  0.312149  0.048997  0.436687  1
  La  La16  1  0.814478  0.548866  0.062555  1
  La  La17  1  0.687430  0.951172  0.563161  1
  La  La18  1  0.811628  0.950119  0.063050  1
  Dy  Dy19  1  0.180751  0.046189  0.936576  1
  Si  Si20  1  0.084773  0.755889  0.976768  1
  Si  Si21  1  0.923557  0.244951  0.018860  1
  Si  Si22  1  0.583473  0.249769  0.521438  1
  Si  Si23  1  0.416255  0.750193  0.478831  1
  Sb  Sb24  1  0.572107  0.508932  0.826293  1
  Sb  Sb25  1  0.428646  0.491103  0.174098  1
  Sb  Sb26  1  0.071617  0.490934  0.674194  1
  Sb  Sb27  1  0.427663  0.010042  0.171702  1
  Sb  Sb28  1  0.928404  0.508538  0.326109  1
  Sb  Sb29  1  0.566749  0.992129  0.827989  1
  Sb  Sb30  1  0.928147  0.990690  0.325954  1
  Sb  Sb31  1  0.073563  0.009408  0.676874  1
