# generated using pymatgen
data_Tb3Y7Sn8
_symmetry_space_group_name_H-M   'P 1'
_cell_length_a   8.06683558
_cell_length_b   8.20999523
_cell_length_c   15.52729300
_cell_angle_alpha   90.00436872
_cell_angle_beta   90.07854805
_cell_angle_gamma   89.93546823
_symmetry_Int_Tables_number   1
_chemical_formula_structural   Tb3Y7Sn8
_chemical_formula_sum   'Tb6 Y14 Sn16'
_cell_volume   1028.35052334
_cell_formula_units_Z   2
loop_
 _symmetry_equiv_pos_site_id
 _symmetry_equiv_pos_as_xyz
  1  'x, y, z'
loop_
 _atom_site_type_symbol
 _atom_site_label
 _atom_site_symmetry_multiplicity
 _atom_site_fract_x
 _atom_site_fract_y
 _atom_site_fract_z
 _atom_site_occupancy
  Tb  Tb0  1  0.479182  0.678934  0.402215  1
  Tb  Tb1  1  0.978995  0.821048  0.097708  1
  Tb  Tb2  1  0.478925  0.678843  0.097714  1
  Tb  Tb3  1  0.979381  0.820835  0.402273  1
  Tb  Tb4  1  0.520683  0.321328  0.597611  1
  Tb  Tb5  1  0.020867  0.179063  0.902303  1
  Y  Y6  1  0.020447  0.179348  0.597420  1
  Y  Y7  1  0.367486  0.836304  0.878053  1
  Y  Y8  1  0.867082  0.663529  0.622013  1
  Y  Y9  1  0.633031  0.163537  0.377806  1
  Y  Y10  1  0.132652  0.336413  0.121963  1
  Y  Y11  1  0.632600  0.163494  0.122067  1
  Y  Y12  1  0.133076  0.336648  0.377815  1
  Y  Y13  1  0.367158  0.836408  0.622194  1
  Y  Y14  1  0.867336  0.663504  0.878199  1
  Y  Y15  1  0.521620  0.321443  0.902370  1
  Y  Y16  1  0.199170  0.502409  0.750320  1
  Y  Y17  1  0.698890  0.997469  0.750286  1
  Y  Y18  1  0.800930  0.497630  0.249897  1
  Y  Y19  1  0.301034  0.002353  0.249925  1
  Sn  Sn20  1  0.292956  0.035532  0.041850  1
  Sn  Sn21  1  0.793060  0.464116  0.458203  1
  Sn  Sn22  1  0.705912  0.963324  0.541569  1
  Sn  Sn23  1  0.207208  0.535741  0.958232  1
  Sn  Sn24  1  0.706958  0.964361  0.958218  1
  Sn  Sn25  1  0.207061  0.536659  0.541591  1
  Sn  Sn26  1  0.293638  0.035541  0.457951  1
  Sn  Sn27  1  0.792594  0.463926  0.041724  1
  Sn  Sn28  1  0.565334  0.618721  0.749903  1
  Sn  Sn29  1  0.065264  0.881134  0.750078  1
  Sn  Sn30  1  0.434684  0.381445  0.249978  1
  Sn  Sn31  1  0.934851  0.118665  0.250006  1
  Sn  Sn32  1  0.330229  0.146800  0.750224  1
  Sn  Sn33  1  0.829269  0.353520  0.750277  1
  Sn  Sn34  1  0.670269  0.853251  0.250036  1
  Sn  Sn35  1  0.170173  0.646728  0.250009  1
