# generated using pymatgen
data_Ho6TmRh3
_symmetry_space_group_name_H-M   'P 1'
_cell_length_a   9.72996800
_cell_length_b   9.72996760
_cell_length_c   6.14460400
_cell_angle_alpha   90.00000000
_cell_angle_beta   90.00000000
_cell_angle_gamma   120.00000137
_symmetry_Int_Tables_number   1
_chemical_formula_structural   Ho6TmRh3
_chemical_formula_sum   'Ho12 Tm2 Rh6'
_cell_volume   503.78743420
_cell_formula_units_Z   2
loop_
 _symmetry_equiv_pos_site_id
 _symmetry_equiv_pos_as_xyz
  1  'x, y, z'
loop_
 _atom_site_type_symbol
 _atom_site_label
 _atom_site_symmetry_multiplicity
 _atom_site_fract_x
 _atom_site_fract_y
 _atom_site_fract_z
 _atom_site_occupancy
  Ho  Ho0  1  0.123937  0.876063  0.253052  1
  Ho  Ho1  1  0.752127  0.876063  0.253052  1
  Ho  Ho2  1  0.123937  0.247873  0.253052  1
  Ho  Ho3  1  0.876063  0.123937  0.753052  1
  Ho  Ho4  1  0.247873  0.123937  0.753052  1
  Ho  Ho5  1  0.876063  0.752127  0.753052  1
  Ho  Ho6  1  0.540673  0.459327  0.448186  1
  Ho  Ho7  1  0.918655  0.459327  0.448186  1
  Ho  Ho8  1  0.540673  0.081345  0.448186  1
  Ho  Ho9  1  0.459327  0.540673  0.948186  1
  Ho  Ho10  1  0.081345  0.540673  0.948186  1
  Ho  Ho11  1  0.459327  0.918655  0.948186  1
  Tm  Tm12  1  0.333333  0.666667  0.455567  1
  Tm  Tm13  1  0.666667  0.333333  0.955567  1
  Rh  Rh14  1  0.809486  0.190514  0.180830  1
  Rh  Rh15  1  0.381027  0.190514  0.180830  1
  Rh  Rh16  1  0.809486  0.618973  0.180830  1
  Rh  Rh17  1  0.190514  0.809486  0.680830  1
  Rh  Rh18  1  0.618973  0.809486  0.680830  1
  Rh  Rh19  1  0.190514  0.381027  0.680830  1
