# generated using pymatgen
data_Dy2Er4Al24Ir3Os5
_symmetry_space_group_name_H-M   'P 1'
_cell_length_a   8.78026982
_cell_length_b   8.78870988
_cell_length_c   9.55912802
_cell_angle_alpha   90.00856365
_cell_angle_beta   89.83086140
_cell_angle_gamma   119.55340136
_symmetry_Int_Tables_number   1
_chemical_formula_structural   Dy2Er4Al24Ir3Os5
_chemical_formula_sum   'Dy2 Er4 Al24 Ir3 Os5'
_cell_volume   641.67689631
_cell_formula_units_Z   1
loop_
 _symmetry_equiv_pos_site_id
 _symmetry_equiv_pos_as_xyz
  1  'x, y, z'
loop_
 _atom_site_type_symbol
 _atom_site_label
 _atom_site_symmetry_multiplicity
 _atom_site_fract_x
 _atom_site_fract_y
 _atom_site_fract_z
 _atom_site_occupancy
  Dy  Dy0  1  0.188333  0.385151  0.251243  1
  Dy  Dy1  1  0.811667  0.614849  0.748757  1
  Er  Er2  1  0.611468  0.811201  0.250301  1
  Er  Er3  1  0.388532  0.188799  0.749699  1
  Er  Er4  1  0.195925  0.808166  0.251178  1
  Er  Er5  1  0.804075  0.191834  0.748822  1
  Al  Al6  1  0.333626  0.668354  0.025694  1
  Al  Al7  1  0.666374  0.331646  0.974306  1
  Al  Al8  1  0.667644  0.332327  0.524915  1
  Al  Al9  1  0.332356  0.667673  0.475085  1
  Al  Al10  1  0.162617  0.326483  0.576772  1
  Al  Al11  1  0.837383  0.673517  0.423228  1
  Al  Al12  1  0.672729  0.836697  0.575646  1
  Al  Al13  1  0.835761  0.673813  0.077104  1
  Al  Al14  1  0.327271  0.163303  0.424354  1
  Al  Al15  1  0.164239  0.326187  0.922896  1
  Al  Al16  1  0.164451  0.835386  0.575768  1
  Al  Al17  1  0.326809  0.163028  0.076352  1
  Al  Al18  1  0.835549  0.164614  0.424232  1
  Al  Al19  1  0.673191  0.836972  0.923648  1
  Al  Al20  1  0.833926  0.162905  0.075569  1
  Al  Al21  1  0.166074  0.837095  0.924431  1
  Al  Al22  1  0.560789  0.125430  0.249700  1
  Al  Al23  1  0.439211  0.874570  0.750300  1
  Al  Al24  1  0.875399  0.439994  0.250504  1
  Al  Al25  1  0.124601  0.560006  0.749496  1
  Al  Al26  1  0.561335  0.439250  0.249697  1
  Al  Al27  1  0.438665  0.560750  0.750303  1
  Al  Al28  1  0.998054  0.000455  0.250036  1
  Al  Al29  1  0.001946  0.999545  0.749964  1
  Ir  Ir30  1  0.000000  0.500000  0.000000  1
  Ir  Ir31  1  0.500000  0.500000  0.000000  1
  Ir  Ir32  1  0.500000  0.500000  0.500000  1
  Os  Os33  1  0.500000  0.000000  0.000000  1
  Os  Os34  1  0.500000  0.000000  0.500000  1
  Os  Os35  1  0.000000  0.500000  0.500000  1
  Os  Os36  1  0.000000  0.000000  0.000000  1
  Os  Os37  1  0.000000  0.000000  0.500000  1
