# generated using pymatgen
data_Tb6VFe2(Co5P4)3
_symmetry_space_group_name_H-M   'P 1'
_cell_length_a   3.70794500
_cell_length_b   10.57394500
_cell_length_c   12.19629400
_cell_angle_alpha   90.00000000
_cell_angle_beta   90.00000000
_cell_angle_gamma   90.00000000
_symmetry_Int_Tables_number   1
_chemical_formula_structural   Tb6VFe2(Co5P4)3
_chemical_formula_sum   'Tb6 V1 Fe2 Co15 P12'
_cell_volume   478.18749583
_cell_formula_units_Z   1
loop_
 _symmetry_equiv_pos_site_id
 _symmetry_equiv_pos_as_xyz
  1  'x, y, z'
loop_
 _atom_site_type_symbol
 _atom_site_label
 _atom_site_symmetry_multiplicity
 _atom_site_fract_x
 _atom_site_fract_y
 _atom_site_fract_z
 _atom_site_occupancy
  Tb  Tb0  1  0.000000  0.500000  0.521571  1
  Tb  Tb1  1  0.500000  0.000000  0.476866  1
  Tb  Tb2  1  0.500000  0.818086  0.203998  1
  Tb  Tb3  1  0.500000  0.181914  0.203998  1
  Tb  Tb4  1  0.000000  0.680451  0.795344  1
  Tb  Tb5  1  0.000000  0.319549  0.795344  1
  V  V6  1  0.000000  0.000000  0.846906  1
  Fe  Fe7  1  0.500000  0.500000  0.155005  1
  Fe  Fe8  1  0.000000  0.500000  0.988546  1
  Co  Co9  1  0.500000  0.500000  0.701869  1
  Co  Co10  1  0.000000  0.000000  0.299137  1
  Co  Co11  1  0.500000  0.000000  0.013517  1
  Co  Co12  1  0.500000  0.331386  0.994319  1
  Co  Co13  1  0.500000  0.668614  0.994319  1
  Co  Co14  1  0.000000  0.166919  0.006738  1
  Co  Co15  1  0.000000  0.833081  0.006738  1
  Co  Co16  1  0.500000  0.296720  0.430753  1
  Co  Co17  1  0.500000  0.703280  0.430753  1
  Co  Co18  1  0.000000  0.203907  0.569362  1
  Co  Co19  1  0.000000  0.796093  0.569362  1
  Co  Co20  1  0.500000  0.879242  0.708429  1
  Co  Co21  1  0.500000  0.120758  0.708429  1
  Co  Co22  1  0.000000  0.620878  0.290794  1
  Co  Co23  1  0.000000  0.379122  0.290794  1
  P  P24  1  0.500000  0.500000  0.885271  1
  P  P25  1  0.000000  0.000000  0.117815  1
  P  P26  1  0.500000  0.500000  0.340554  1
  P  P27  1  0.000000  0.000000  0.653886  1
  P  P28  1  0.500000  0.310193  0.615513  1
  P  P29  1  0.500000  0.689807  0.615513  1
  P  P30  1  0.000000  0.190919  0.383845  1
  P  P31  1  0.000000  0.809081  0.383845  1
  P  P32  1  0.500000  0.845875  0.893481  1
  P  P33  1  0.500000  0.154125  0.893481  1
  P  P34  1  0.000000  0.651648  0.106954  1
  P  P35  1  0.000000  0.348352  0.106954  1
