# generated using pymatgen
data_Co4TcB4W3
_symmetry_space_group_name_H-M   'P 1'
_cell_length_a   3.24330500
_cell_length_b   5.72844946
_cell_length_c   6.60498628
_cell_angle_alpha   89.55323380
_cell_angle_beta   90.00000000
_cell_angle_gamma   90.00000000
_symmetry_Int_Tables_number   1
_chemical_formula_structural   Co4TcB4W3
_chemical_formula_sum   'Co4 Tc1 B4 W3'
_cell_volume   122.71102811
_cell_formula_units_Z   1
loop_
 _symmetry_equiv_pos_site_id
 _symmetry_equiv_pos_as_xyz
  1  'x, y, z'
loop_
 _atom_site_type_symbol
 _atom_site_label
 _atom_site_symmetry_multiplicity
 _atom_site_fract_x
 _atom_site_fract_y
 _atom_site_fract_z
 _atom_site_occupancy
  Co  Co0  1  0.250000  0.143865  0.443615  1
  Co  Co1  1  0.250000  0.645698  0.055916  1
  Co  Co2  1  0.750000  0.853387  0.556808  1
  Co  Co3  1  0.750000  0.356696  0.943284  1
  Tc  Tc4  1  0.250000  0.029944  0.828118  1
  B  B5  1  0.250000  0.271681  0.123877  1
  B  B6  1  0.250000  0.771582  0.375536  1
  B  B7  1  0.750000  0.730135  0.871714  1
  B  B8  1  0.750000  0.225831  0.627859  1
  W  W9  1  0.250000  0.526939  0.674540  1
  W  W10  1  0.750000  0.972173  0.172782  1
  W  W11  1  0.750000  0.472069  0.325954  1
