# generated using pymatgen
data_TbTm3(Pa2Ga5)4
_symmetry_space_group_name_H-M   'P 1'
_cell_length_a   6.05620700
_cell_length_b   9.50547800
_cell_length_c   11.65746500
_cell_angle_alpha   90.00000000
_cell_angle_beta   90.00257474
_cell_angle_gamma   90.00000000
_symmetry_Int_Tables_number   1
_chemical_formula_structural   TbTm3(Pa2Ga5)4
_chemical_formula_sum   'Tb1 Tm3 Pa8 Ga20'
_cell_volume   671.08694736
_cell_formula_units_Z   1
loop_
 _symmetry_equiv_pos_site_id
 _symmetry_equiv_pos_as_xyz
  1  'x, y, z'
loop_
 _atom_site_type_symbol
 _atom_site_label
 _atom_site_symmetry_multiplicity
 _atom_site_fract_x
 _atom_site_fract_y
 _atom_site_fract_z
 _atom_site_occupancy
  Tb  Tb0  1  0.857975  0.750000  0.071793  1
  Tm  Tm1  1  0.642813  0.750000  0.572035  1
  Tm  Tm2  1  0.142820  0.250000  0.927783  1
  Tm  Tm3  1  0.357302  0.250000  0.427989  1
  Pa  Pa4  1  0.880546  0.502407  0.352452  1
  Pa  Pa5  1  0.619494  0.997816  0.851859  1
  Pa  Pa6  1  0.119594  0.002513  0.647710  1
  Pa  Pa7  1  0.380337  0.497337  0.147837  1
  Pa  Pa8  1  0.119594  0.497487  0.647710  1
  Pa  Pa9  1  0.380337  0.002663  0.147837  1
  Pa  Pa10  1  0.880546  0.997593  0.352452  1
  Pa  Pa11  1  0.619494  0.502184  0.851859  1
  Ga  Ga12  1  0.872132  0.053167  0.090842  1
  Ga  Ga13  1  0.627704  0.448520  0.590568  1
  Ga  Ga14  1  0.128157  0.551175  0.908850  1
  Ga  Ga15  1  0.372197  0.948530  0.409548  1
  Ga  Ga16  1  0.128157  0.948825  0.908850  1
  Ga  Ga17  1  0.372197  0.551470  0.409548  1
  Ga  Ga18  1  0.872132  0.446833  0.090842  1
  Ga  Ga19  1  0.627704  0.051480  0.590568  1
  Ga  Ga20  1  0.155508  0.750000  0.264494  1
  Ga  Ga21  1  0.345551  0.750000  0.763221  1
  Ga  Ga22  1  0.845760  0.250000  0.736439  1
  Ga  Ga23  1  0.654337  0.250000  0.236609  1
  Ga  Ga24  1  0.389981  0.750000  0.993620  1
  Ga  Ga25  1  0.108245  0.750000  0.494211  1
  Ga  Ga26  1  0.607812  0.250000  0.005852  1
  Ga  Ga27  1  0.891843  0.250000  0.506133  1
  Ga  Ga28  1  0.595791  0.750000  0.292617  1
  Ga  Ga29  1  0.903937  0.750000  0.791052  1
  Ga  Ga30  1  0.403753  0.250000  0.708290  1
  Ga  Ga31  1  0.096250  0.250000  0.208527  1
