# generated using pymatgen
data_Lu2Th2C3
_symmetry_space_group_name_H-M   'P 1'
_cell_length_a   6.47869141
_cell_length_b   6.47869276
_cell_length_c   6.23162552
_cell_angle_alpha   103.78192045
_cell_angle_beta   103.78192245
_cell_angle_gamma   33.33043159
_symmetry_Int_Tables_number   1
_chemical_formula_structural   Lu2Th2C3
_chemical_formula_sum   'Lu2 Th2 C3'
_cell_volume   139.20548356
_cell_formula_units_Z   1
loop_
 _symmetry_equiv_pos_site_id
 _symmetry_equiv_pos_as_xyz
  1  'x, y, z'
loop_
 _atom_site_type_symbol
 _atom_site_label
 _atom_site_symmetry_multiplicity
 _atom_site_fract_x
 _atom_site_fract_y
 _atom_site_fract_z
 _atom_site_occupancy
  Lu  Lu0  1  0.144608  0.144608  0.353952  1
  Lu  Lu1  1  0.855392  0.855392  0.646047  1
  Th  Th2  1  0.380279  0.380279  0.132420  1
  Th  Th3  1  0.619721  0.619721  0.867580  1
  C  C4  1  0.000000  0.000000  0.000000  1
  C  C5  1  0.745829  0.745829  0.248040  1
  C  C6  1  0.254171  0.254171  0.751959  1
