# generated using pymatgen
data_NdTh2(ZnPd)3
_symmetry_space_group_name_H-M   'P 1'
_cell_length_a   7.55004906
_cell_length_b   7.58091204
_cell_length_c   3.90259500
_cell_angle_alpha   90.00000000
_cell_angle_beta   90.00000000
_cell_angle_gamma   120.13530704
_symmetry_Int_Tables_number   1
_chemical_formula_structural   NdTh2(ZnPd)3
_chemical_formula_sum   'Nd1 Th2 Zn3 Pd3'
_cell_volume   193.17974767
_cell_formula_units_Z   1
loop_
 _symmetry_equiv_pos_site_id
 _symmetry_equiv_pos_as_xyz
  1  'x, y, z'
loop_
 _atom_site_type_symbol
 _atom_site_label
 _atom_site_symmetry_multiplicity
 _atom_site_fract_x
 _atom_site_fract_y
 _atom_site_fract_z
 _atom_site_occupancy
  Nd  Nd0  1  0.000000  0.593314  0.000000  1
  Th  Th1  1  0.411736  0.410136  0.000000  1
  Th  Th2  1  0.588264  0.998400  0.000000  1
  Zn  Zn3  1  0.757978  0.753535  0.500000  1
  Zn  Zn4  1  0.242022  0.995557  0.500000  1
  Zn  Zn5  1  0.000000  0.252339  0.500000  1
  Pd  Pd6  1  0.000000  0.007412  0.000000  1
  Pd  Pd7  1  0.653487  0.321397  0.500000  1
  Pd  Pd8  1  0.346513  0.667911  0.500000  1
