# generated using pymatgen
data_Tb7Y(P7Ir8)2
_symmetry_space_group_name_H-M   'P 1'
_cell_length_a   3.95460500
_cell_length_b   12.70276735
_cell_length_c   13.13267003
_cell_angle_alpha   80.85305536
_cell_angle_beta   90.00000000
_cell_angle_gamma   90.00000000
_symmetry_Int_Tables_number   1
_chemical_formula_structural   Tb7Y(P7Ir8)2
_chemical_formula_sum   'Tb7 Y1 P14 Ir16'
_cell_volume   651.32318517
_cell_formula_units_Z   1
loop_
 _symmetry_equiv_pos_site_id
 _symmetry_equiv_pos_as_xyz
  1  'x, y, z'
loop_
 _atom_site_type_symbol
 _atom_site_label
 _atom_site_symmetry_multiplicity
 _atom_site_fract_x
 _atom_site_fract_y
 _atom_site_fract_z
 _atom_site_occupancy
  Tb  Tb0  1  0.250000  0.102636  0.789670  1
  Tb  Tb1  1  0.750000  0.897393  0.210285  1
  Tb  Tb2  1  0.250000  0.279013  0.101959  1
  Tb  Tb3  1  0.750000  0.720967  0.898033  1
  Tb  Tb4  1  0.250000  0.520454  0.293882  1
  Tb  Tb5  1  0.750000  0.479523  0.706127  1
  Tb  Tb6  1  0.250000  0.209134  0.437956  1
  Y  Y7  1  0.750000  0.790833  0.562137  1
  P  P8  1  0.250000  0.051567  0.100205  1
  P  P9  1  0.750000  0.948445  0.899726  1
  P  P10  1  0.250000  0.312257  0.688870  1
  P  P11  1  0.750000  0.687767  0.311137  1
  P  P12  1  0.250000  0.607783  0.566739  1
  P  P13  1  0.750000  0.392337  0.433282  1
  P  P14  1  0.250000  0.843385  0.718018  1
  P  P15  1  0.750000  0.156499  0.281993  1
  P  P16  1  0.750000  0.258114  0.919831  1
  P  P17  1  0.250000  0.741901  0.080175  1
  P  P18  1  0.750000  0.092994  0.588316  1
  P  P19  1  0.250000  0.906987  0.411694  1
  P  P20  1  0.750000  0.472472  0.129116  1
  P  P21  1  0.250000  0.527589  0.870852  1
  Ir  Ir22  1  0.250000  0.990579  0.576265  1
  Ir  Ir23  1  0.750000  0.009311  0.423761  1
  Ir  Ir24  1  0.250000  0.662798  0.731227  1
  Ir  Ir25  1  0.750000  0.337212  0.268653  1
  Ir  Ir26  1  0.250000  0.554851  0.044963  1
  Ir  Ir27  1  0.750000  0.445131  0.955029  1
  Ir  Ir28  1  0.250000  0.060016  0.272627  1
  Ir  Ir29  1  0.750000  0.939900  0.727295  1
  Ir  Ir30  1  0.250000  0.421873  0.523759  1
  Ir  Ir31  1  0.750000  0.578249  0.476293  1
  Ir  Ir32  1  0.250000  0.914902  0.997703  1
  Ir  Ir33  1  0.750000  0.085095  0.002255  1
  Ir  Ir34  1  0.250000  0.729295  0.395336  1
  Ir  Ir35  1  0.750000  0.270725  0.604801  1
  Ir  Ir36  1  0.250000  0.341777  0.857925  1
  Ir  Ir37  1  0.750000  0.658237  0.142103  1
