# generated using pymatgen
data_EuYAl5Ga4Ir3
_symmetry_space_group_name_H-M   'P 1'
_cell_length_a   7.55710718
_cell_length_b   7.54955619
_cell_length_c   9.68200406
_cell_angle_alpha   90.07550384
_cell_angle_beta   89.85967956
_cell_angle_gamma   119.62041158
_symmetry_Int_Tables_number   1
_chemical_formula_structural   EuYAl5Ga4Ir3
_chemical_formula_sum   'Eu2 Y2 Al10 Ga8 Ir6'
_cell_volume   480.19770951
_cell_formula_units_Z   2
loop_
 _symmetry_equiv_pos_site_id
 _symmetry_equiv_pos_as_xyz
  1  'x, y, z'
loop_
 _atom_site_type_symbol
 _atom_site_label
 _atom_site_symmetry_multiplicity
 _atom_site_fract_x
 _atom_site_fract_y
 _atom_site_fract_z
 _atom_site_occupancy
  Eu  Eu0  1  0.995257  0.667434  0.246204  1
  Eu  Eu1  1  0.004743  0.332566  0.753796  1
  Y  Y2  1  0.672903  0.999176  0.249336  1
  Y  Y3  1  0.327097  0.000824  0.750664  1
  Al  Al4  1  0.997450  0.665311  0.568374  1
  Al  Al5  1  0.334544  0.001329  0.429856  1
  Al  Al6  1  0.002550  0.334689  0.431626  1
  Al  Al7  1  0.665456  0.998671  0.570144  1
  Al  Al8  1  0.663846  0.996243  0.928401  1
  Al  Al9  1  0.336154  0.003757  0.071599  1
  Al  Al10  1  0.334445  0.333697  0.553770  1
  Al  Al11  1  0.665555  0.666303  0.446230  1
  Al  Al12  1  0.665803  0.665846  0.052899  1
  Al  Al13  1  0.334197  0.334154  0.947101  1
  Ga  Ga14  1  0.129841  0.128707  0.250961  1
  Ga  Ga15  1  0.870159  0.871293  0.749039  1
  Ga  Ga16  1  0.000240  0.333104  0.077653  1
  Ga  Ga17  1  0.999760  0.666896  0.922347  1
  Ga  Ga18  1  0.342754  0.549382  0.251132  1
  Ga  Ga19  1  0.657246  0.450618  0.748868  1
  Ga  Ga20  1  0.543759  0.336775  0.250246  1
  Ga  Ga21  1  0.456241  0.663225  0.749754  1
  Ir  Ir22  1  0.665503  0.325564  0.999349  1
  Ir  Ir23  1  0.334497  0.674436  0.000651  1
  Ir  Ir24  1  0.330040  0.672369  0.500832  1
  Ir  Ir25  1  0.669960  0.327631  0.499168  1
  Ir  Ir26  1  0.000000  0.000000  0.000000  1
  Ir  Ir27  1  0.000000  0.000000  0.500000  1
