# generated using pymatgen
data_Ca3Sm3(Si3Ru)8
_symmetry_space_group_name_H-M   'P 1'
_cell_length_a   10.18263476
_cell_length_b   10.18263538
_cell_length_c   8.17776401
_cell_angle_alpha   89.98876862
_cell_angle_beta   89.98877178
_cell_angle_gamma   132.64066414
_symmetry_Int_Tables_number   1
_chemical_formula_structural   Ca3Sm3(Si3Ru)8
_chemical_formula_sum   'Ca3 Sm3 Si24 Ru8'
_cell_volume   623.74395182
_cell_formula_units_Z   1
loop_
 _symmetry_equiv_pos_site_id
 _symmetry_equiv_pos_as_xyz
  1  'x, y, z'
loop_
 _atom_site_type_symbol
 _atom_site_label
 _atom_site_symmetry_multiplicity
 _atom_site_fract_x
 _atom_site_fract_y
 _atom_site_fract_z
 _atom_site_occupancy
  Ca  Ca0  1  0.500077  0.499923  0.500000  1
  Ca  Ca1  1  0.500987  0.000840  0.749818  1
  Ca  Ca2  1  0.999160  0.499013  0.250182  1
  Sm  Sm3  1  0.999949  0.000051  0.000000  1
  Sm  Sm4  1  0.498240  0.998273  0.250114  1
  Sm  Sm5  1  0.001727  0.501760  0.749886  1
  Si  Si6  1  0.795202  0.204798  0.500000  1
  Si  Si7  1  0.294365  0.705635  0.000000  1
  Si  Si8  1  0.205378  0.794622  0.500000  1
  Si  Si9  1  0.705083  0.294917  0.000000  1
  Si  Si10  1  0.332446  0.337856  0.831698  1
  Si  Si11  1  0.662144  0.667554  0.168302  1
  Si  Si12  1  0.170506  0.165405  0.334935  1
  Si  Si13  1  0.834595  0.829494  0.665065  1
  Si  Si14  1  0.123110  0.889480  0.727694  1
  Si  Si15  1  0.110520  0.876890  0.272306  1
  Si  Si16  1  0.608792  0.376182  0.229244  1
  Si  Si17  1  0.623818  0.391208  0.770756  1
  Si  Si18  1  0.875401  0.108867  0.272322  1
  Si  Si19  1  0.891133  0.124599  0.727678  1
  Si  Si20  1  0.389796  0.622723  0.770595  1
  Si  Si21  1  0.377277  0.610204  0.229405  1
  Si  Si22  1  0.346135  0.112979  0.505395  1
  Si  Si23  1  0.887021  0.653865  0.494605  1
  Si  Si24  1  0.389345  0.156051  0.006427  1
  Si  Si25  1  0.843949  0.610655  0.993573  1
  Si  Si26  1  0.654024  0.886337  0.492653  1
  Si  Si27  1  0.113663  0.345976  0.507347  1
  Si  Si28  1  0.610066  0.844027  0.996238  1
  Si  Si29  1  0.155973  0.389934  0.003762  1
  Ru  Ru30  1  0.670409  0.329591  0.500000  1
  Ru  Ru31  1  0.168984  0.831016  0.000000  1
  Ru  Ru32  1  0.330394  0.669606  0.500000  1
  Ru  Ru33  1  0.830153  0.169847  0.000000  1
  Ru  Ru34  1  0.124833  0.125226  0.626445  1
  Ru  Ru35  1  0.874774  0.875167  0.373555  1
  Ru  Ru36  1  0.373422  0.372851  0.124915  1
  Ru  Ru37  1  0.627149  0.626578  0.875085  1
