# generated using pymatgen
data_LaYbCu10
_symmetry_space_group_name_H-M   'P 1'
_cell_length_a   4.08175500
_cell_length_b   5.07450600
_cell_length_c   8.83301800
_cell_angle_alpha   90.00000000
_cell_angle_beta   90.00000000
_cell_angle_gamma   90.00000000
_symmetry_Int_Tables_number   1
_chemical_formula_structural   LaYbCu10
_chemical_formula_sum   'La1 Yb1 Cu10'
_cell_volume   182.95733230
_cell_formula_units_Z   1
loop_
 _symmetry_equiv_pos_site_id
 _symmetry_equiv_pos_as_xyz
  1  'x, y, z'
loop_
 _atom_site_type_symbol
 _atom_site_label
 _atom_site_symmetry_multiplicity
 _atom_site_fract_x
 _atom_site_fract_y
 _atom_site_fract_z
 _atom_site_occupancy
  La  La0  1  0.000000  0.500000  0.000000  1
  Yb  Yb1  1  0.000000  0.000000  0.500000  1
  Cu  Cu2  1  0.000000  0.500000  0.339953  1
  Cu  Cu3  1  0.000000  0.000000  0.824639  1
  Cu  Cu4  1  0.000000  0.000000  0.175361  1
  Cu  Cu5  1  0.000000  0.500000  0.660047  1
  Cu  Cu6  1  0.500000  0.500000  0.500000  1
  Cu  Cu7  1  0.500000  0.000000  0.000000  1
  Cu  Cu8  1  0.500000  0.751285  0.255731  1
  Cu  Cu9  1  0.500000  0.248715  0.744269  1
  Cu  Cu10  1  0.500000  0.248715  0.255731  1
  Cu  Cu11  1  0.500000  0.751285  0.744269  1
