# generated using pymatgen
data_CaHo3Ir8
_symmetry_space_group_name_H-M   'P 1'
_cell_length_a   5.35546400
_cell_length_b   5.35546311
_cell_length_c   8.71104900
_cell_angle_alpha   90.00000000
_cell_angle_beta   90.00000000
_cell_angle_gamma   119.99998079
_symmetry_Int_Tables_number   1
_chemical_formula_structural   CaHo3Ir8
_chemical_formula_sum   'Ca1 Ho3 Ir8'
_cell_volume   216.36913498
_cell_formula_units_Z   1
loop_
 _symmetry_equiv_pos_site_id
 _symmetry_equiv_pos_as_xyz
  1  'x, y, z'
loop_
 _atom_site_type_symbol
 _atom_site_label
 _atom_site_symmetry_multiplicity
 _atom_site_fract_x
 _atom_site_fract_y
 _atom_site_fract_z
 _atom_site_occupancy
  Ca  Ca0  1  0.333333  0.666667  0.436005  1
  Ho  Ho1  1  0.333333  0.666667  0.073556  1
  Ho  Ho2  1  0.666667  0.333333  0.562708  1
  Ho  Ho3  1  0.666667  0.333333  0.930840  1
  Ir  Ir4  1  0.000000  0.000000  0.999663  1
  Ir  Ir5  1  0.000000  0.000000  0.499163  1
  Ir  Ir6  1  0.830084  0.660169  0.247922  1
  Ir  Ir7  1  0.169822  0.830178  0.751433  1
  Ir  Ir8  1  0.660356  0.830178  0.751433  1
  Ir  Ir9  1  0.339831  0.169916  0.247922  1
  Ir  Ir10  1  0.830084  0.169916  0.247922  1
  Ir  Ir11  1  0.169822  0.339644  0.751433  1
