# generated using pymatgen
data_Tb2MnCo11P7
_symmetry_space_group_name_H-M   'P 1'
_cell_length_a   9.04204133
_cell_length_b   9.03878065
_cell_length_c   3.60961500
_cell_angle_alpha   90.00000000
_cell_angle_beta   90.00000000
_cell_angle_gamma   120.24908603
_symmetry_Int_Tables_number   1
_chemical_formula_structural   Tb2MnCo11P7
_chemical_formula_sum   'Tb2 Mn1 Co11 P7'
_cell_volume   254.84276486
_cell_formula_units_Z   1
loop_
 _symmetry_equiv_pos_site_id
 _symmetry_equiv_pos_as_xyz
  1  'x, y, z'
loop_
 _atom_site_type_symbol
 _atom_site_label
 _atom_site_symmetry_multiplicity
 _atom_site_fract_x
 _atom_site_fract_y
 _atom_site_fract_z
 _atom_site_occupancy
  Tb  Tb0  1  0.667532  0.332591  0.000000  1
  Tb  Tb1  1  0.334400  0.667771  0.500000  1
  Mn  Mn2  1  0.120130  0.219256  0.500000  1
  Co  Co3  1  0.059023  0.629040  0.000000  1
  Co  Co4  1  0.568572  0.940927  0.000000  1
  Co  Co5  1  0.371651  0.431717  0.000000  1
  Co  Co6  1  0.274253  0.116583  0.000000  1
  Co  Co7  1  0.844537  0.726148  0.000000  1
  Co  Co8  1  0.882400  0.154196  0.000000  1
  Co  Co9  1  0.434764  0.050535  0.500000  1
  Co  Co10  1  0.616923  0.567111  0.500000  1
  Co  Co11  1  0.948960  0.384839  0.500000  1
  Co  Co12  1  0.099924  0.872584  0.500000  1
  Co  Co13  1  0.773475  0.903311  0.500000  1
  P  P14  1  0.296363  0.887908  0.000000  1
  P  P15  1  0.592648  0.704697  0.000000  1
  P  P16  1  0.111614  0.410760  0.000000  1
  P  P17  1  0.405805  0.291809  0.500000  1
  P  P18  1  0.887910  0.598909  0.500000  1
  P  P19  1  0.709795  0.111961  0.500000  1
  P  P20  1  0.999319  0.997348  0.000000  1
