# generated using pymatgen
data_Ho7Tm(HgAu2)4
_symmetry_space_group_name_H-M   'P 1'
_cell_length_a   7.95248603
_cell_length_b   7.95248636
_cell_length_c   7.34863700
_cell_angle_alpha   90.00000000
_cell_angle_beta   90.00000000
_cell_angle_gamma   89.87498284
_symmetry_Int_Tables_number   1
_chemical_formula_structural   Ho7Tm(HgAu2)4
_chemical_formula_sum   'Ho7 Tm1 Hg4 Au8'
_cell_volume   464.74166388
_cell_formula_units_Z   1
loop_
 _symmetry_equiv_pos_site_id
 _symmetry_equiv_pos_as_xyz
  1  'x, y, z'
loop_
 _atom_site_type_symbol
 _atom_site_label
 _atom_site_symmetry_multiplicity
 _atom_site_fract_x
 _atom_site_fract_y
 _atom_site_fract_z
 _atom_site_occupancy
  Ho  Ho0  1  0.839538  0.160462  0.500000  1
  Ho  Ho1  1  0.159800  0.840200  0.500000  1
  Ho  Ho2  1  0.340249  0.339437  0.000000  1
  Ho  Ho3  1  0.660563  0.659751  0.000000  1
  Ho  Ho4  1  0.683107  0.682427  0.500000  1
  Ho  Ho5  1  0.317573  0.316893  0.500000  1
  Ho  Ho6  1  0.182717  0.817283  0.000000  1
  Tm  Tm7  1  0.817796  0.182204  0.000000  1
  Hg  Hg8  1  0.499773  0.000041  0.249980  1
  Hg  Hg9  1  0.999959  0.500227  0.750020  1
  Hg  Hg10  1  0.499773  0.000041  0.750020  1
  Hg  Hg11  1  0.999959  0.500227  0.249980  1
  Au  Au12  1  0.628453  0.371547  0.271564  1
  Au  Au13  1  0.372516  0.627484  0.273659  1
  Au  Au14  1  0.126764  0.128138  0.774226  1
  Au  Au15  1  0.871862  0.873236  0.774226  1
  Au  Au16  1  0.372516  0.627484  0.726341  1
  Au  Au17  1  0.628453  0.371547  0.728436  1
  Au  Au18  1  0.871862  0.873236  0.225774  1
  Au  Au19  1  0.126764  0.128138  0.225774  1
