# generated using pymatgen
data_Pr4Nd3Au10
_symmetry_space_group_name_H-M   'P 1'
_cell_length_a   9.02755192
_cell_length_b   9.02735181
_cell_length_c   10.76765934
_cell_angle_alpha   89.98440455
_cell_angle_beta   89.98136816
_cell_angle_gamma   107.25833442
_symmetry_Int_Tables_number   1
_chemical_formula_structural   Pr4Nd3Au10
_chemical_formula_sum   'Pr8 Nd6 Au20'
_cell_volume   838.00080366
_cell_formula_units_Z   2
loop_
 _symmetry_equiv_pos_site_id
 _symmetry_equiv_pos_as_xyz
  1  'x, y, z'
loop_
 _atom_site_type_symbol
 _atom_site_label
 _atom_site_symmetry_multiplicity
 _atom_site_fract_x
 _atom_site_fract_y
 _atom_site_fract_z
 _atom_site_occupancy
  Pr  Pr0  1  0.692902  0.307096  0.000003  1
  Pr  Pr1  1  0.192849  0.807148  0.500002  1
  Pr  Pr2  1  0.814529  0.814537  0.310001  1
  Pr  Pr3  1  0.314542  0.314544  0.190028  1
  Pr  Pr4  1  0.807151  0.192852  0.499998  1
  Pr  Pr5  1  0.307098  0.692904  0.999997  1
  Pr  Pr6  1  0.685458  0.685456  0.809972  1
  Pr  Pr7  1  0.185471  0.185463  0.689999  1
  Nd  Nd8  1  0.504301  0.004313  0.250014  1
  Nd  Nd9  1  0.995688  0.495691  0.749981  1
  Nd  Nd10  1  0.000000  0.000000  0.000000  1
  Nd  Nd11  1  0.004312  0.504309  0.250019  1
  Nd  Nd12  1  0.495699  0.995687  0.749986  1
  Nd  Nd13  1  0.500000  0.500000  0.500000  1
  Au  Au14  1  0.144116  0.439031  0.496752  1
  Au  Au15  1  0.895340  0.895342  0.598196  1
  Au  Au16  1  0.560965  0.855889  0.503252  1
  Au  Au17  1  0.863598  0.152686  0.210206  1
  Au  Au18  1  0.363611  0.652690  0.289797  1
  Au  Au19  1  0.652690  0.363611  0.289794  1
  Au  Au20  1  0.395346  0.395347  0.901815  1
  Au  Au21  1  0.939023  0.644083  0.003264  1
  Au  Au22  1  0.347310  0.636389  0.710206  1
  Au  Au23  1  0.355913  0.060982  0.996735  1
  Au  Au24  1  0.604654  0.604653  0.098185  1
  Au  Au25  1  0.644087  0.939018  0.003265  1
  Au  Au26  1  0.104660  0.104658  0.401804  1
  Au  Au27  1  0.636389  0.347310  0.710203  1
  Au  Au28  1  0.136402  0.847314  0.789794  1
  Au  Au29  1  0.060977  0.355917  0.996736  1
  Au  Au30  1  0.855884  0.560969  0.503248  1
  Au  Au31  1  0.152677  0.863597  0.210208  1
  Au  Au32  1  0.439035  0.144111  0.496748  1
  Au  Au33  1  0.847323  0.136403  0.789792  1
