# generated using pymatgen
data_Rb3Lu2Br9
_symmetry_space_group_name_H-M   'P 1'
_cell_length_a   10.28129194
_cell_length_b   10.28129187
_cell_length_c   10.28129143
_cell_angle_alpha   83.43312892
_cell_angle_beta   83.43313256
_cell_angle_gamma   83.43313700
_symmetry_Int_Tables_number   1
_chemical_formula_structural   Rb3Lu2Br9
_chemical_formula_sum   'Rb6 Lu4 Br18'
_cell_volume   1066.90651752
_cell_formula_units_Z   2
loop_
 _symmetry_equiv_pos_site_id
 _symmetry_equiv_pos_as_xyz
  1  'x, y, z'
loop_
 _atom_site_type_symbol
 _atom_site_label
 _atom_site_symmetry_multiplicity
 _atom_site_fract_x
 _atom_site_fract_y
 _atom_site_fract_z
 _atom_site_occupancy
  Rb  Rb0  1  0.588243  0.911757  0.250000  1
  Rb  Rb1  1  0.250000  0.588243  0.911757  1
  Rb  Rb2  1  0.911757  0.250000  0.588243  1
  Rb  Rb3  1  0.750000  0.411757  0.088243  1
  Rb  Rb4  1  0.088243  0.750000  0.411757  1
  Rb  Rb5  1  0.411757  0.088243  0.750000  1
  Lu  Lu6  1  0.846454  0.846454  0.846454  1
  Lu  Lu7  1  0.346454  0.346454  0.346454  1
  Lu  Lu8  1  0.153546  0.153546  0.153546  1
  Lu  Lu9  1  0.653546  0.653546  0.653546  1
  Br  Br10  1  0.094887  0.405113  0.250000  1
  Br  Br11  1  0.250000  0.094887  0.405113  1
  Br  Br12  1  0.405113  0.250000  0.094887  1
  Br  Br13  1  0.750000  0.905113  0.594887  1
  Br  Br14  1  0.594887  0.750000  0.905113  1
  Br  Br15  1  0.905113  0.594887  0.750000  1
  Br  Br16  1  0.235575  0.415466  0.579231  1
  Br  Br17  1  0.579231  0.235575  0.415466  1
  Br  Br18  1  0.415466  0.579231  0.235575  1
  Br  Br19  1  0.079231  0.915466  0.735575  1
  Br  Br20  1  0.735575  0.079231  0.915466  1
  Br  Br21  1  0.915466  0.735575  0.079231  1
  Br  Br22  1  0.764425  0.584534  0.420769  1
  Br  Br23  1  0.420769  0.764425  0.584534  1
  Br  Br24  1  0.584534  0.420769  0.764425  1
  Br  Br25  1  0.920769  0.084534  0.264425  1
  Br  Br26  1  0.264425  0.920769  0.084534  1
  Br  Br27  1  0.084534  0.264425  0.920769  1
