# generated using pymatgen
data_CeTcH5
_symmetry_space_group_name_H-M   'P 1'
_cell_length_a   4.66041500
_cell_length_b   4.51736100
_cell_length_c   11.84206800
_cell_angle_alpha   90.00000000
_cell_angle_beta   90.00000000
_cell_angle_gamma   90.00000000
_symmetry_Int_Tables_number   1
_chemical_formula_structural   CeTcH5
_chemical_formula_sum   'Ce4 Tc4 H20'
_cell_volume   249.30841641
_cell_formula_units_Z   4
loop_
 _symmetry_equiv_pos_site_id
 _symmetry_equiv_pos_as_xyz
  1  'x, y, z'
loop_
 _atom_site_type_symbol
 _atom_site_label
 _atom_site_symmetry_multiplicity
 _atom_site_fract_x
 _atom_site_fract_y
 _atom_site_fract_z
 _atom_site_occupancy
  Ce  Ce0  1  0.249806  0.249000  0.643350  1
  Ce  Ce1  1  0.749806  0.251000  0.356650  1
  Ce  Ce2  1  0.250194  0.751000  0.143350  1
  Ce  Ce3  1  0.750194  0.749000  0.856650  1
  Tc  Tc4  1  0.249517  0.211644  0.913017  1
  Tc  Tc5  1  0.749517  0.288356  0.086983  1
  Tc  Tc6  1  0.250483  0.788356  0.413017  1
  Tc  Tc7  1  0.750483  0.711644  0.586983  1
  H  H8  1  0.483355  0.521020  0.497309  1
  H  H9  1  0.983355  0.978980  0.502691  1
  H  H10  1  0.016645  0.478980  0.997309  1
  H  H11  1  0.516645  0.021020  0.002691  1
  H  H12  1  0.250250  0.891553  0.835327  1
  H  H13  1  0.750250  0.608447  0.164673  1
  H  H14  1  0.249750  0.108447  0.335327  1
  H  H15  1  0.749750  0.391553  0.664673  1
  H  H16  1  0.983490  0.283368  0.815345  1
  H  H17  1  0.483490  0.216632  0.184655  1
  H  H18  1  0.516510  0.716632  0.315345  1
  H  H19  1  0.016510  0.783368  0.684655  1
  H  H20  1  0.514740  0.285210  0.815265  1
  H  H21  1  0.014740  0.214790  0.184735  1
  H  H22  1  0.985260  0.714790  0.315265  1
  H  H23  1  0.485260  0.785210  0.684735  1
  H  H24  1  0.982975  0.020902  0.002820  1
  H  H25  1  0.482975  0.479098  0.997180  1
  H  H26  1  0.517025  0.979098  0.502820  1
  H  H27  1  0.017025  0.520902  0.497180  1
