# generated using pymatgen
data_NbSe4IO13
_symmetry_space_group_name_H-M   'P 1'
_cell_length_a   7.02086300
_cell_length_b   8.02800386
_cell_length_c   11.83047590
_cell_angle_alpha   71.20886043
_cell_angle_beta   90.00000000
_cell_angle_gamma   90.00000000
_symmetry_Int_Tables_number   1
_chemical_formula_structural   NbSe4IO13
_chemical_formula_sum   'Nb2 Se8 I2 O26'
_cell_volume   631.26577468
_cell_formula_units_Z   2
loop_
 _symmetry_equiv_pos_site_id
 _symmetry_equiv_pos_as_xyz
  1  'x, y, z'
loop_
 _atom_site_type_symbol
 _atom_site_label
 _atom_site_symmetry_multiplicity
 _atom_site_fract_x
 _atom_site_fract_y
 _atom_site_fract_z
 _atom_site_occupancy
  Nb  Nb0  1  0.008523  0.819943  0.048980  1
  Nb  Nb1  1  0.991477  0.319943  0.048980  1
  Se  Se2  1  0.507886  0.893139  0.707412  1
  Se  Se3  1  0.492114  0.393139  0.707412  1
  Se  Se4  1  0.070411  0.044169  0.728021  1
  Se  Se5  1  0.929589  0.544169  0.728021  1
  Se  Se6  1  0.060844  0.677252  0.379089  1
  Se  Se7  1  0.939156  0.177252  0.379089  1
  Se  Se8  1  0.574583  0.594040  0.057296  1
  Se  Se9  1  0.425417  0.094040  0.057296  1
  I  I10  1  0.481964  0.931399  0.399158  1
  I  I11  1  0.518036  0.431399  0.399158  1
  O  O12  1  0.093871  0.500120  0.642266  1
  O  O13  1  0.906129  0.000120  0.642266  1
  O  O14  1  0.576256  0.706765  0.806574  1
  O  O15  1  0.423744  0.206765  0.806574  1
  O  O16  1  0.248837  0.868590  0.724679  1
  O  O17  1  0.751163  0.368590  0.724679  1
  O  O18  1  0.615619  0.633715  0.408143  1
  O  O19  1  0.384381  0.133715  0.408143  1
  O  O20  1  0.523808  0.817320  0.576416  1
  O  O21  1  0.476192  0.317320  0.576416  1
  O  O22  1  0.196658  0.842886  0.409832  1
  O  O23  1  0.803342  0.342886  0.409832  1
  O  O24  1  0.982946  0.274113  0.229122  1
  O  O25  1  0.017054  0.774113  0.229122  1
  O  O26  1  0.273214  0.269046  0.057727  1
  O  O27  1  0.726786  0.769046  0.057727  1
  O  O28  1  0.275750  0.931706  0.040705  1
  O  O29  1  0.724250  0.431706  0.040705  1
  O  O30  1  0.015024  0.434262  0.871699  1
  O  O31  1  0.984976  0.934262  0.871699  1
  O  O32  1  0.921728  0.104660  0.050447  1
  O  O33  1  0.078272  0.604660  0.050447  1
  O  O34  1  0.488658  0.009795  0.204975  1
  O  O35  1  0.511342  0.509795  0.204975  1
  O  O36  1  0.220469  0.510780  0.381456  1
  O  O37  1  0.779531  0.010780  0.381456  1
