# generated using pymatgen
data_La4PrU5O19
_symmetry_space_group_name_H-M   'P 1'
_cell_length_a   6.88459957
_cell_length_b   7.79420678
_cell_length_c   8.73737463
_cell_angle_alpha   101.29643275
_cell_angle_beta   97.70221588
_cell_angle_gamma   107.17680416
_symmetry_Int_Tables_number   1
_chemical_formula_structural   La4PrU5O19
_chemical_formula_sum   'La4 Pr1 U5 O19'
_cell_volume   429.94754251
_cell_formula_units_Z   1
loop_
 _symmetry_equiv_pos_site_id
 _symmetry_equiv_pos_as_xyz
  1  'x, y, z'
loop_
 _atom_site_type_symbol
 _atom_site_label
 _atom_site_symmetry_multiplicity
 _atom_site_fract_x
 _atom_site_fract_y
 _atom_site_fract_z
 _atom_site_occupancy
  La  La0  1  0.800468  0.099927  0.602870  1
  La  La1  1  0.387722  0.296204  0.799118  1
  La  La2  1  0.605859  0.701920  0.203145  1
  La  La3  1  0.999180  0.500007  0.998465  1
  Pr  Pr4  1  0.208356  0.913328  0.387512  1
  U  U5  1  0.779159  0.597707  0.600121  1
  U  U6  1  0.604876  0.203431  0.196504  1
  U  U7  1  0.998896  0.003571  0.998588  1
  U  U8  1  0.409977  0.809567  0.814981  1
  U  U9  1  0.199358  0.388402  0.390258  1
  O  O10  1  0.343076  0.056767  0.954055  1
  O  O11  1  0.427691  0.985417  0.651933  1
  O  O12  1  0.040225  0.212931  0.859311  1
  O  O13  1  0.726288  0.388255  0.733280  1
  O  O14  1  0.148578  0.183781  0.531911  1
  O  O15  1  0.358907  0.597497  0.951596  1
  O  O16  1  0.952951  0.267413  0.162304  1
  O  O17  1  0.904131  0.396306  0.464342  1
  O  O18  1  0.747737  0.859606  0.763107  1
  O  O19  1  0.546980  0.455641  0.363354  1
  O  O20  1  0.405307  0.554930  0.631416  1
  O  O21  1  0.255870  0.134534  0.234673  1
  O  O22  1  0.063259  0.715711  0.792147  1
  O  O23  1  0.644730  0.407792  0.059635  1
  O  O24  1  0.867429  0.799376  0.465877  1
  O  O25  1  0.247248  0.616436  0.277881  1
  O  O26  1  0.957370  0.788788  0.127434  1
  O  O27  1  0.571955  0.006668  0.345626  1
  O  O28  1  0.660335  0.945730  0.046796  1
