# generated using pymatgen
data_U4Mo3W(CN)4
_symmetry_space_group_name_H-M   'P 1'
_cell_length_a   3.19099700
_cell_length_b   5.61565631
_cell_length_c   11.09234907
_cell_angle_alpha   89.97446524
_cell_angle_beta   90.00000000
_cell_angle_gamma   90.00000000
_symmetry_Int_Tables_number   1
_chemical_formula_structural   U4Mo3W(CN)4
_chemical_formula_sum   'U4 Mo3 W1 C4 N4'
_cell_volume   198.76980029
_cell_formula_units_Z   1
loop_
 _symmetry_equiv_pos_site_id
 _symmetry_equiv_pos_as_xyz
  1  'x, y, z'
loop_
 _atom_site_type_symbol
 _atom_site_label
 _atom_site_symmetry_multiplicity
 _atom_site_fract_x
 _atom_site_fract_y
 _atom_site_fract_z
 _atom_site_occupancy
  U  U0  1  0.250000  0.079483  0.856796  1
  U  U1  1  0.250000  0.580638  0.643837  1
  U  U2  1  0.750000  0.919934  0.144292  1
  U  U3  1  0.750000  0.421223  0.356252  1
  Mo  Mo4  1  0.250000  0.423882  0.098712  1
  Mo  Mo5  1  0.250000  0.924875  0.400617  1
  Mo  Mo6  1  0.750000  0.575377  0.900523  1
  W  W7  1  0.750000  0.075699  0.599439  1
  C  C8  1  0.250000  0.751825  0.995138  1
  C  C9  1  0.250000  0.252796  0.506006  1
  C  C10  1  0.750000  0.247633  0.004875  1
  C  C11  1  0.750000  0.748121  0.495785  1
  N  N12  1  0.250000  0.161651  0.243632  1
  N  N13  1  0.250000  0.661037  0.255968  1
  N  N14  1  0.750000  0.839521  0.755474  1
  N  N15  1  0.750000  0.336303  0.742654  1
