# generated using pymatgen
data_Li2Bi3Pt2
_symmetry_space_group_name_H-M   'P 1'
_cell_length_a   4.69623600
_cell_length_b   4.69623751
_cell_length_c   16.19709100
_cell_angle_alpha   90.00000000
_cell_angle_beta   90.00000000
_cell_angle_gamma   119.99997527
_symmetry_Int_Tables_number   1
_chemical_formula_structural   Li2Bi3Pt2
_chemical_formula_sum   'Li4 Bi6 Pt4'
_cell_volume   309.36254269
_cell_formula_units_Z   2
loop_
 _symmetry_equiv_pos_site_id
 _symmetry_equiv_pos_as_xyz
  1  'x, y, z'
loop_
 _atom_site_type_symbol
 _atom_site_label
 _atom_site_symmetry_multiplicity
 _atom_site_fract_x
 _atom_site_fract_y
 _atom_site_fract_z
 _atom_site_occupancy
  Li  Li0  1  0.000000  0.000000  0.164807  1
  Li  Li1  1  0.000000  0.000000  0.835193  1
  Li  Li2  1  0.000000  0.000000  0.664807  1
  Li  Li3  1  0.000000  0.000000  0.335193  1
  Bi  Bi4  1  0.333333  0.666667  0.750000  1
  Bi  Bi5  1  0.666667  0.333333  0.250000  1
  Bi  Bi6  1  0.333333  0.666667  0.069517  1
  Bi  Bi7  1  0.666667  0.333333  0.930483  1
  Bi  Bi8  1  0.666667  0.333333  0.569517  1
  Bi  Bi9  1  0.333333  0.666667  0.430483  1
  Pt  Pt10  1  0.000000  0.000000  0.000000  1
  Pt  Pt11  1  0.000000  0.000000  0.500000  1
  Pt  Pt12  1  0.333333  0.666667  0.250000  1
  Pt  Pt13  1  0.666667  0.333333  0.750000  1
