# generated using pymatgen
data_SmHg4S2Br5
_symmetry_space_group_name_H-M   'P 1'
_cell_length_a   8.57143410
_cell_length_b   11.04595700
_cell_length_c   9.25693600
_cell_angle_alpha   90.00000000
_cell_angle_beta   114.30852856
_cell_angle_gamma   90.00000000
_symmetry_Int_Tables_number   1
_chemical_formula_structural   SmHg4S2Br5
_chemical_formula_sum   'Sm2 Hg8 S4 Br10'
_cell_volume   798.74010542
_cell_formula_units_Z   2
loop_
 _symmetry_equiv_pos_site_id
 _symmetry_equiv_pos_as_xyz
  1  'x, y, z'
loop_
 _atom_site_type_symbol
 _atom_site_label
 _atom_site_symmetry_multiplicity
 _atom_site_fract_x
 _atom_site_fract_y
 _atom_site_fract_z
 _atom_site_occupancy
  Sm  Sm0  1  0.505714  0.433746  0.514927  1
  Sm  Sm1  1  0.494286  0.933746  0.485073  1
  Hg  Hg2  1  0.921396  0.189132  0.328145  1
  Hg  Hg3  1  0.078604  0.689132  0.671855  1
  Hg  Hg4  1  0.944008  0.661123  0.361862  1
  Hg  Hg5  1  0.055992  0.161123  0.638138  1
  Hg  Hg6  1  0.496849  0.181820  0.983435  1
  Hg  Hg7  1  0.503151  0.681820  0.016565  1
  Hg  Hg8  1  0.794159  0.432437  0.019868  1
  Hg  Hg9  1  0.205841  0.932437  0.980132  1
  S  S10  1  0.793444  0.210099  0.029591  1
  S  S11  1  0.206556  0.710099  0.970409  1
  S  S12  1  0.201179  0.152070  0.935823  1
  S  S13  1  0.798821  0.652070  0.064177  1
  Br  Br14  1  0.849219  0.925526  0.686590  1
  Br  Br15  1  0.150781  0.425526  0.313410  1
  Br  Br16  1  0.861456  0.440518  0.722901  1
  Br  Br17  1  0.138544  0.940518  0.277099  1
  Br  Br18  1  0.395613  0.459776  0.767963  1
  Br  Br19  1  0.604387  0.959776  0.232037  1
  Br  Br20  1  0.587180  0.386741  0.256040  1
  Br  Br21  1  0.412820  0.886741  0.743960  1
  Br  Br22  1  0.492814  0.180613  0.575587  1
  Br  Br23  1  0.507186  0.680613  0.424413  1
