# generated using pymatgen
data_Ba2Na4(TcH9)3
_symmetry_space_group_name_H-M   'P 1'
_cell_length_a   9.82989900
_cell_length_b   9.00062129
_cell_length_c   5.26582600
_cell_angle_alpha   90.00000000
_cell_angle_beta   90.00000000
_cell_angle_gamma   123.09766763
_symmetry_Int_Tables_number   1
_chemical_formula_structural   Ba2Na4(TcH9)3
_chemical_formula_sum   'Ba2 Na4 Tc3 H27'
_cell_volume   390.29931762
_cell_formula_units_Z   1
loop_
 _symmetry_equiv_pos_site_id
 _symmetry_equiv_pos_as_xyz
  1  'x, y, z'
loop_
 _atom_site_type_symbol
 _atom_site_label
 _atom_site_symmetry_multiplicity
 _atom_site_fract_x
 _atom_site_fract_y
 _atom_site_fract_z
 _atom_site_occupancy
  Ba  Ba0  1  0.255538  0.000000  0.500000  1
  Ba  Ba1  1  0.603879  0.000000  0.000000  1
  Na  Na2  1  0.995838  0.251282  0.500000  1
  Na  Na3  1  0.744556  0.748718  0.500000  1
  Na  Na4  1  0.916517  0.600943  0.000000  1
  Na  Na5  1  0.315574  0.399057  0.000000  1
  Tc  Tc6  1  0.958845  0.000000  0.000000  1
  Tc  Tc7  1  0.337158  0.644545  0.500000  1
  Tc  Tc8  1  0.692615  0.355455  0.500000  1
  H  H9  1  0.847340  0.000000  0.250030  1
  H  H10  1  0.982713  0.867003  0.204778  1
  H  H11  1  0.847340  0.000000  0.749970  1
  H  H12  1  0.982713  0.867003  0.795222  1
  H  H13  1  0.115709  0.132997  0.204778  1
  H  H14  1  0.115709  0.132997  0.795222  1
  H  H15  1  0.340860  0.000000  0.000000  1
  H  H16  1  0.976208  0.198584  0.000000  1
  H  H17  1  0.777624  0.801416  0.000000  1
  H  H18  1  0.210814  0.505220  0.275827  1
  H  H19  1  0.472194  0.664305  0.275396  1
  H  H20  1  0.210814  0.505220  0.724173  1
  H  H21  1  0.557703  0.243246  0.735337  1
  H  H22  1  0.314457  0.756754  0.264663  1
  H  H23  1  0.472194  0.664305  0.724604  1
  H  H24  1  0.705595  0.494780  0.724173  1
  H  H25  1  0.557703  0.243246  0.264663  1
  H  H26  1  0.314457  0.756754  0.735337  1
  H  H27  1  0.705595  0.494780  0.275827  1
  H  H28  1  0.807889  0.335695  0.724604  1
  H  H29  1  0.807889  0.335695  0.275396  1
  H  H30  1  0.341850  0.461860  0.500000  1
  H  H31  1  0.496876  0.855685  0.500000  1
  H  H32  1  0.540395  0.384738  0.500000  1
  H  H33  1  0.155657  0.615262  0.500000  1
  H  H34  1  0.879989  0.538140  0.500000  1
  H  H35  1  0.641190  0.144315  0.500000  1
