# generated using pymatgen
data_Sc4Be2TcOs5
_symmetry_space_group_name_H-M   'P 1'
_cell_length_a   5.00301069
_cell_length_b   5.11327305
_cell_length_c   8.55302300
_cell_angle_alpha   90.00000000
_cell_angle_beta   90.00000000
_cell_angle_gamma   120.02977674
_symmetry_Int_Tables_number   1
_chemical_formula_structural   Sc4Be2TcOs5
_chemical_formula_sum   'Sc4 Be2 Tc1 Os5'
_cell_volume   189.43067147
_cell_formula_units_Z   1
loop_
 _symmetry_equiv_pos_site_id
 _symmetry_equiv_pos_as_xyz
  1  'x, y, z'
loop_
 _atom_site_type_symbol
 _atom_site_label
 _atom_site_symmetry_multiplicity
 _atom_site_fract_x
 _atom_site_fract_y
 _atom_site_fract_z
 _atom_site_occupancy
  Sc  Sc0  1  0.332922  0.668067  0.435392  1
  Sc  Sc1  1  0.661729  0.332884  0.561906  1
  Sc  Sc2  1  0.661729  0.332884  0.938094  1
  Sc  Sc3  1  0.332922  0.668067  0.064608  1
  Be  Be4  1  0.173024  0.832908  0.750000  1
  Be  Be5  1  0.340207  0.168211  0.250000  1
  Tc  Tc6  1  0.176453  0.343937  0.750000  1
  Os  Os7  1  0.830694  0.651923  0.250000  1
  Os  Os8  1  0.658784  0.827365  0.750000  1
  Os  Os9  1  0.999661  0.001398  0.999735  1
  Os  Os10  1  0.832216  0.170956  0.250000  1
  Os  Os11  1  0.999661  0.001398  0.500265  1
