# generated using pymatgen
data_Cs4TiTe4
_symmetry_space_group_name_H-M   'P 1'
_cell_length_a   9.88958200
_cell_length_b   11.37785400
_cell_length_c   16.82902000
_cell_angle_alpha   90.00000000
_cell_angle_beta   90.00000000
_cell_angle_gamma   90.00000000
_symmetry_Int_Tables_number   1
_chemical_formula_structural   Cs4TiTe4
_chemical_formula_sum   'Cs16 Ti4 Te16'
_cell_volume   1893.63869279
_cell_formula_units_Z   4
loop_
 _symmetry_equiv_pos_site_id
 _symmetry_equiv_pos_as_xyz
  1  'x, y, z'
loop_
 _atom_site_type_symbol
 _atom_site_label
 _atom_site_symmetry_multiplicity
 _atom_site_fract_x
 _atom_site_fract_y
 _atom_site_fract_z
 _atom_site_occupancy
  Cs  Cs0  1  0.500000  0.500000  0.500000  1
  Cs  Cs1  1  0.159587  0.444429  0.279336  1
  Cs  Cs2  1  0.159587  0.055571  0.279336  1
  Cs  Cs3  1  0.016503  0.750000  0.422311  1
  Cs  Cs4  1  0.983497  0.250000  0.577689  1
  Cs  Cs5  1  0.659587  0.944429  0.220664  1
  Cs  Cs6  1  0.340413  0.055571  0.779336  1
  Cs  Cs7  1  0.840413  0.944429  0.720664  1
  Cs  Cs8  1  0.340413  0.444429  0.779336  1
  Cs  Cs9  1  0.000000  0.500000  0.000000  1
  Cs  Cs10  1  0.516503  0.250000  0.077689  1
  Cs  Cs11  1  0.659587  0.555571  0.220664  1
  Cs  Cs12  1  0.483497  0.750000  0.922311  1
  Cs  Cs13  1  0.000000  0.000000  0.000000  1
  Cs  Cs14  1  0.840413  0.555571  0.720664  1
  Cs  Cs15  1  0.500000  0.000000  0.500000  1
  Ti  Ti16  1  0.741914  0.250000  0.833900  1
  Ti  Ti17  1  0.758086  0.250000  0.333900  1
  Ti  Ti18  1  0.241914  0.750000  0.666100  1
  Ti  Ti19  1  0.258086  0.750000  0.166100  1
  Te  Te20  1  0.508970  0.750000  0.676005  1
  Te  Te21  1  0.491030  0.250000  0.323995  1
  Te  Te22  1  0.363699  0.750000  0.310875  1
  Te  Te23  1  0.136301  0.750000  0.810875  1
  Te  Te24  1  0.008970  0.250000  0.823995  1
  Te  Te25  1  0.991030  0.750000  0.176005  1
  Te  Te26  1  0.636301  0.250000  0.689125  1
  Te  Te27  1  0.863699  0.250000  0.189125  1
  Te  Te28  1  0.839720  0.439274  0.409037  1
  Te  Te29  1  0.660280  0.060726  0.909037  1
  Te  Te30  1  0.339720  0.939274  0.090963  1
  Te  Te31  1  0.339720  0.560726  0.090963  1
  Te  Te32  1  0.160280  0.560726  0.590963  1
  Te  Te33  1  0.839720  0.060726  0.409037  1
  Te  Te34  1  0.160280  0.939274  0.590963  1
  Te  Te35  1  0.660280  0.439274  0.909037  1
