# generated using pymatgen
data_LaNd2Cu4(P2O)2
_symmetry_space_group_name_H-M   'P 1'
_cell_length_a   4.01643485
_cell_length_b   4.01643839
_cell_length_c   13.70011777
_cell_angle_alpha   98.45859233
_cell_angle_beta   98.45925742
_cell_angle_gamma   89.98522470
_symmetry_Int_Tables_number   1
_chemical_formula_structural   LaNd2Cu4(P2O)2
_chemical_formula_sum   'La1 Nd2 Cu4 P4 O2'
_cell_volume   216.17315275
_cell_formula_units_Z   1
loop_
 _symmetry_equiv_pos_site_id
 _symmetry_equiv_pos_as_xyz
  1  'x, y, z'
loop_
 _atom_site_type_symbol
 _atom_site_label
 _atom_site_symmetry_multiplicity
 _atom_site_fract_x
 _atom_site_fract_y
 _atom_site_fract_z
 _atom_site_occupancy
  La  La0  1  0.295849  0.295829  0.591177  1
  Nd  Nd1  1  0.000180  0.000165  0.000330  1
  Nd  Nd2  1  0.703861  0.703844  0.408311  1
  Cu  Cu3  1  0.593642  0.093910  0.187781  1
  Cu  Cu4  1  0.093857  0.593632  0.187776  1
  Cu  Cu5  1  0.906732  0.406887  0.813297  1
  Cu  Cu6  1  0.406936  0.906864  0.813344  1
  P  P7  1  0.541720  0.541711  0.083522  1
  P  P8  1  0.139507  0.139494  0.279196  1
  P  P9  1  0.861106  0.861088  0.722225  1
  P  P10  1  0.458389  0.458387  0.916725  1
  O  O11  1  0.749080  0.249133  0.498159  1
  O  O12  1  0.249146  0.749060  0.498156  1
