# generated using pymatgen
data_LaCeU2As6Ru7
_symmetry_space_group_name_H-M   'P 1'
_cell_length_a   7.28113609
_cell_length_b   7.32138158
_cell_length_c   7.26350469
_cell_angle_alpha   109.30412656
_cell_angle_beta   109.43453507
_cell_angle_gamma   109.39769356
_symmetry_Int_Tables_number   1
_chemical_formula_structural   LaCeU2As6Ru7
_chemical_formula_sum   'La1 Ce1 U2 As6 Ru7'
_cell_volume   299.08423502
_cell_formula_units_Z   1
loop_
 _symmetry_equiv_pos_site_id
 _symmetry_equiv_pos_as_xyz
  1  'x, y, z'
loop_
 _atom_site_type_symbol
 _atom_site_label
 _atom_site_symmetry_multiplicity
 _atom_site_fract_x
 _atom_site_fract_y
 _atom_site_fract_z
 _atom_site_occupancy
  La  La0  1  0.000000  0.000000  0.500000  1
  Ce  Ce1  1  0.500000  0.000000  0.000000  1
  U  U2  1  0.000000  0.500000  0.000000  1
  U  U3  1  0.500000  0.500000  0.500000  1
  As  As4  1  0.315576  0.000119  0.313596  1
  As  As5  1  0.000046  0.315368  0.313153  1
  As  As6  1  0.999954  0.684632  0.686847  1
  As  As7  1  0.315374  0.315638  0.002371  1
  As  As8  1  0.684626  0.684362  0.997629  1
  As  As9  1  0.684424  0.999881  0.686404  1
  Ru  Ru10  1  0.747115  0.494341  0.247326  1
  Ru  Ru11  1  0.488175  0.740513  0.247053  1
  Ru  Ru12  1  0.511825  0.259487  0.752947  1
  Ru  Ru13  1  0.747812  0.259717  0.506941  1
  Ru  Ru14  1  0.252188  0.740283  0.493059  1
  Ru  Ru15  1  0.252885  0.505659  0.752674  1
  Ru  Ru16  1  0.000000  0.000000  0.000000  1
