# generated using pymatgen
data_Hf2Zr8CuSn2Sb5
_symmetry_space_group_name_H-M   'P 1'
_cell_length_a   5.90773558
_cell_length_b   8.72431768
_cell_length_c   8.70940709
_cell_angle_alpha   120.05664162
_cell_angle_beta   90.02469423
_cell_angle_gamma   89.95071118
_symmetry_Int_Tables_number   1
_chemical_formula_structural   Hf2Zr8CuSn2Sb5
_chemical_formula_sum   'Hf2 Zr8 Cu1 Sn2 Sb5'
_cell_volume   388.52898295
_cell_formula_units_Z   1
loop_
 _symmetry_equiv_pos_site_id
 _symmetry_equiv_pos_as_xyz
  1  'x, y, z'
loop_
 _atom_site_type_symbol
 _atom_site_label
 _atom_site_symmetry_multiplicity
 _atom_site_fract_x
 _atom_site_fract_y
 _atom_site_fract_z
 _atom_site_occupancy
  Hf  Hf0  1  0.267416  0.274965  0.275668  1
  Hf  Hf1  1  0.267416  0.999297  0.724332  1
  Zr  Zr2  1  0.498573  0.332790  0.666819  1
  Zr  Zr3  1  0.498573  0.665971  0.333181  1
  Zr  Zr4  1  0.001205  0.665301  0.332330  1
  Zr  Zr5  1  0.001205  0.332971  0.667670  1
  Zr  Zr6  1  0.736203  0.270728  0.000000  1
  Zr  Zr7  1  0.735347  0.730902  0.729464  1
  Zr  Zr8  1  0.735347  0.001438  0.270536  1
  Zr  Zr9  1  0.263238  0.722860  0.000000  1
  Cu  Cu10  1  0.490923  0.001397  0.000000  1
  Sn  Sn11  1  0.245842  0.615118  0.614616  1
  Sn  Sn12  1  0.245842  0.000502  0.385384  1
  Sb  Sb13  1  0.751365  0.612717  0.000000  1
  Sb  Sb14  1  0.752703  0.389356  0.390052  1
  Sb  Sb15  1  0.752703  0.999304  0.609948  1
  Sb  Sb16  1  0.248195  0.383941  0.000000  1
  Sb  Sb17  1  0.007904  0.000439  0.000000  1
