# generated using pymatgen
data_Hf4Ti2Al2Mo3Pd
_symmetry_space_group_name_H-M   'P 1'
_cell_length_a   5.31219027
_cell_length_b   5.31219054
_cell_length_c   8.72145500
_cell_angle_alpha   90.00000000
_cell_angle_beta   90.00000000
_cell_angle_gamma   118.62608692
_symmetry_Int_Tables_number   1
_chemical_formula_structural   Hf4Ti2Al2Mo3Pd
_chemical_formula_sum   'Hf4 Ti2 Al2 Mo3 Pd1'
_cell_volume   216.03018506
_cell_formula_units_Z   1
loop_
 _symmetry_equiv_pos_site_id
 _symmetry_equiv_pos_as_xyz
  1  'x, y, z'
loop_
 _atom_site_type_symbol
 _atom_site_label
 _atom_site_symmetry_multiplicity
 _atom_site_fract_x
 _atom_site_fract_y
 _atom_site_fract_z
 _atom_site_occupancy
  Hf  Hf0  1  0.332567  0.667433  0.193500  1
  Hf  Hf1  1  0.663478  0.336522  0.316888  1
  Hf  Hf2  1  0.663478  0.336522  0.683112  1
  Hf  Hf3  1  0.332567  0.667433  0.806500  1
  Ti  Ti4  1  0.996464  0.003536  0.246164  1
  Ti  Ti5  1  0.996464  0.003536  0.753836  1
  Al  Al6  1  0.834730  0.645745  0.000000  1
  Al  Al7  1  0.354255  0.165270  0.000000  1
  Mo  Mo8  1  0.166327  0.342247  0.500000  1
  Mo  Mo9  1  0.657753  0.833673  0.500000  1
  Mo  Mo10  1  0.166281  0.833719  0.500000  1
  Pd  Pd11  1  0.835727  0.164273  0.000000  1
