# generated using pymatgen
data_La8Si15Ni
_symmetry_space_group_name_H-M   'P 1'
_cell_length_a   8.28327800
_cell_length_b   8.28327871
_cell_length_c   8.73113400
_cell_angle_alpha   90.00000000
_cell_angle_beta   90.00000000
_cell_angle_gamma   119.99999715
_symmetry_Int_Tables_number   1
_chemical_formula_structural   La8Si15Ni
_chemical_formula_sum   'La8 Si15 Ni1'
_cell_volume   518.80697908
_cell_formula_units_Z   1
loop_
 _symmetry_equiv_pos_site_id
 _symmetry_equiv_pos_as_xyz
  1  'x, y, z'
loop_
 _atom_site_type_symbol
 _atom_site_label
 _atom_site_symmetry_multiplicity
 _atom_site_fract_x
 _atom_site_fract_y
 _atom_site_fract_z
 _atom_site_occupancy
  La  La0  1  0.499713  0.500287  0.753330  1
  La  La1  1  0.499697  0.500303  0.246666  1
  La  La2  1  0.000573  0.500287  0.753330  1
  La  La3  1  0.000605  0.500303  0.246666  1
  La  La4  1  0.499713  0.999427  0.753330  1
  La  La5  1  0.499697  0.999395  0.246666  1
  La  La6  1  0.000000  0.000000  0.751352  1
  La  La7  1  0.000000  0.000000  0.248839  1
  Si  Si8  1  0.666667  0.333333  0.999867  1
  Si  Si9  1  0.333333  0.666667  0.999879  1
  Si  Si10  1  0.333333  0.666667  0.499895  1
  Si  Si11  1  0.833954  0.166046  0.000081  1
  Si  Si12  1  0.166990  0.833010  0.000046  1
  Si  Si13  1  0.332090  0.166046  0.000081  1
  Si  Si14  1  0.163938  0.836062  0.500076  1
  Si  Si15  1  0.666022  0.833010  0.000046  1
  Si  Si16  1  0.826423  0.173577  0.500068  1
  Si  Si17  1  0.833954  0.667910  0.000081  1
  Si  Si18  1  0.672121  0.836062  0.500076  1
  Si  Si19  1  0.166990  0.333978  0.000046  1
  Si  Si20  1  0.347155  0.173577  0.500068  1
  Si  Si21  1  0.163938  0.327879  0.500076  1
  Si  Si22  1  0.826423  0.652845  0.500068  1
  Ni  Ni23  1  0.666667  0.333333  0.499366  1
