# generated using pymatgen
data_YbDy(FeB4)2
_symmetry_space_group_name_H-M   'P 1'
_cell_length_a   3.35452700
_cell_length_b   5.88655902
_cell_length_c   11.38859397
_cell_angle_alpha   89.93261448
_cell_angle_beta   90.00000000
_cell_angle_gamma   90.00000000
_symmetry_Int_Tables_number   1
_chemical_formula_structural   YbDy(FeB4)2
_chemical_formula_sum   'Yb2 Dy2 Fe4 B16'
_cell_volume   224.88609515
_cell_formula_units_Z   2
loop_
 _symmetry_equiv_pos_site_id
 _symmetry_equiv_pos_as_xyz
  1  'x, y, z'
loop_
 _atom_site_type_symbol
 _atom_site_label
 _atom_site_symmetry_multiplicity
 _atom_site_fract_x
 _atom_site_fract_y
 _atom_site_fract_z
 _atom_site_occupancy
  Yb  Yb0  1  0.000000  0.625503  0.849793  1
  Yb  Yb1  1  0.000000  0.374497  0.150207  1
  Dy  Dy2  1  0.000000  0.126115  0.651226  1
  Dy  Dy3  1  0.000000  0.873885  0.348774  1
  Fe  Fe4  1  0.000000  0.127686  0.915286  1
  Fe  Fe5  1  0.000000  0.872314  0.084714  1
  Fe  Fe6  1  0.000000  0.632958  0.587307  1
  Fe  Fe7  1  0.000000  0.367042  0.412693  1
  B  B8  1  0.500000  0.361360  0.967764  1
  B  B9  1  0.500000  0.638640  0.032236  1
  B  B10  1  0.500000  0.860516  0.531847  1
  B  B11  1  0.500000  0.139484  0.468153  1
  B  B12  1  0.500000  0.474935  0.690682  1
  B  B13  1  0.500000  0.525065  0.309318  1
  B  B14  1  0.500000  0.975187  0.810347  1
  B  B15  1  0.500000  0.024813  0.189653  1
  B  B16  1  0.500000  0.280871  0.817915  1
  B  B17  1  0.500000  0.719129  0.182085  1
  B  B18  1  0.500000  0.779403  0.683862  1
  B  B19  1  0.500000  0.220597  0.316138  1
  B  B20  1  0.500000  0.389008  0.546376  1
  B  B21  1  0.500000  0.610992  0.453624  1
  B  B22  1  0.500000  0.886943  0.954019  1
  B  B23  1  0.500000  0.113057  0.045981  1
