# generated using pymatgen
data_Er3(LuTl2)2
_symmetry_space_group_name_H-M   'P 1'
_cell_length_a   9.18585800
_cell_length_b   9.18585853
_cell_length_c   6.67892900
_cell_angle_alpha   90.00000000
_cell_angle_beta   90.00000000
_cell_angle_gamma   119.99999808
_symmetry_Int_Tables_number   1
_chemical_formula_structural   Er3(LuTl2)2
_chemical_formula_sum   'Er6 Lu4 Tl8'
_cell_volume   488.06419365
_cell_formula_units_Z   2
loop_
 _symmetry_equiv_pos_site_id
 _symmetry_equiv_pos_as_xyz
  1  'x, y, z'
loop_
 _atom_site_type_symbol
 _atom_site_label
 _atom_site_symmetry_multiplicity
 _atom_site_fract_x
 _atom_site_fract_y
 _atom_site_fract_z
 _atom_site_occupancy
  Er  Er0  1  0.290273  0.000000  0.750000  1
  Er  Er1  1  0.709727  0.000000  0.250000  1
  Er  Er2  1  0.000000  0.290273  0.750000  1
  Er  Er3  1  0.000000  0.709727  0.250000  1
  Er  Er4  1  0.709727  0.709727  0.750000  1
  Er  Er5  1  0.290273  0.290273  0.250000  1
  Lu  Lu6  1  0.333333  0.666667  0.500000  1
  Lu  Lu7  1  0.666667  0.333333  0.500000  1
  Lu  Lu8  1  0.666667  0.333333  0.000000  1
  Lu  Lu9  1  0.333333  0.666667  0.000000  1
  Tl  Tl10  1  0.000000  0.000000  0.500000  1
  Tl  Tl11  1  0.000000  0.000000  0.000000  1
  Tl  Tl12  1  0.627939  0.000000  0.750000  1
  Tl  Tl13  1  0.372061  0.000000  0.250000  1
  Tl  Tl14  1  0.000000  0.627939  0.750000  1
  Tl  Tl15  1  0.000000  0.372061  0.250000  1
  Tl  Tl16  1  0.372061  0.372061  0.750000  1
  Tl  Tl17  1  0.627939  0.627939  0.250000  1
