# generated using pymatgen
data_Nd4Mn4Fe3AgO20
_symmetry_space_group_name_H-M   'P 1'
_cell_length_a   5.83785100
_cell_length_b   7.63622409
_cell_length_c   8.82471552
_cell_angle_alpha   89.19783773
_cell_angle_beta   90.00000000
_cell_angle_gamma   90.00000000
_symmetry_Int_Tables_number   1
_chemical_formula_structural   Nd4Mn4Fe3AgO20
_chemical_formula_sum   'Nd4 Mn4 Fe3 Ag1 O20'
_cell_volume   393.35966057
_cell_formula_units_Z   1
loop_
 _symmetry_equiv_pos_site_id
 _symmetry_equiv_pos_as_xyz
  1  'x, y, z'
loop_
 _atom_site_type_symbol
 _atom_site_label
 _atom_site_symmetry_multiplicity
 _atom_site_fract_x
 _atom_site_fract_y
 _atom_site_fract_z
 _atom_site_occupancy
  Nd  Nd0  1  0.000000  0.368464  0.674214  1
  Nd  Nd1  1  0.000000  0.636394  0.327515  1
  Nd  Nd2  1  0.000000  0.854780  0.828954  1
  Nd  Nd3  1  0.000000  0.146499  0.169790  1
  Mn  Mn4  1  0.255738  0.503506  0.002444  1
  Mn  Mn5  1  0.749470  0.998089  0.495666  1
  Mn  Mn6  1  0.744262  0.503506  0.002444  1
  Mn  Mn7  1  0.250530  0.998089  0.495666  1
  Fe  Fe8  1  0.500000  0.889682  0.147888  1
  Fe  Fe9  1  0.500000  0.609903  0.643615  1
  Fe  Fe10  1  0.500000  0.390682  0.358957  1
  Ag  Ag11  1  0.500000  0.068069  0.842709  1
  O  O12  1  0.246234  0.902991  0.294171  1
  O  O13  1  0.233362  0.096553  0.696876  1
  O  O14  1  0.752967  0.405442  0.208850  1
  O  O15  1  0.751795  0.601762  0.794693  1
  O  O16  1  0.766638  0.096553  0.696876  1
  O  O17  1  0.753766  0.902991  0.294171  1
  O  O18  1  0.248205  0.601762  0.794693  1
  O  O19  1  0.247033  0.405442  0.208850  1
  O  O20  1  0.500000  0.360395  0.946913  1
  O  O21  1  0.500000  0.658813  0.066621  1
  O  O22  1  0.500000  0.847526  0.561973  1
  O  O23  1  0.500000  0.151216  0.433086  1
  O  O24  1  0.267053  0.997746  0.005014  1
  O  O25  1  0.727089  0.499302  0.502118  1
  O  O26  1  0.732947  0.997746  0.005014  1
  O  O27  1  0.272911  0.499302  0.502118  1
  O  O28  1  0.000000  0.155470  0.445130  1
  O  O29  1  0.000000  0.841387  0.549460  1
  O  O30  1  0.000000  0.661115  0.054186  1
  O  O31  1  0.000000  0.348826  0.949323  1
