# generated using pymatgen
data_Zr6Zn19Pt4C
_symmetry_space_group_name_H-M   'P 1'
_cell_length_a   8.75597532
_cell_length_b   8.75597443
_cell_length_c   8.75597382
_cell_angle_alpha   59.88773722
_cell_angle_beta   59.88773706
_cell_angle_gamma   59.88773854
_symmetry_Int_Tables_number   1
_chemical_formula_structural   Zr6Zn19Pt4C
_chemical_formula_sum   'Zr6 Zn19 Pt4 C1'
_cell_volume   473.46827534
_cell_formula_units_Z   1
loop_
 _symmetry_equiv_pos_site_id
 _symmetry_equiv_pos_as_xyz
  1  'x, y, z'
loop_
 _atom_site_type_symbol
 _atom_site_label
 _atom_site_symmetry_multiplicity
 _atom_site_fract_x
 _atom_site_fract_y
 _atom_site_fract_z
 _atom_site_occupancy
  Zr  Zr0  1  0.685518  0.311188  0.311188  1
  Zr  Zr1  1  0.314482  0.688812  0.688812  1
  Zr  Zr2  1  0.311188  0.685518  0.311188  1
  Zr  Zr3  1  0.688812  0.314482  0.688812  1
  Zr  Zr4  1  0.311188  0.311188  0.685518  1
  Zr  Zr5  1  0.688812  0.688812  0.314482  1
  Zn  Zn6  1  0.119645  0.119645  0.119645  1
  Zn  Zn7  1  0.880355  0.880355  0.880355  1
  Zn  Zn8  1  0.121124  0.121124  0.638073  1
  Zn  Zn9  1  0.121124  0.638073  0.121124  1
  Zn  Zn10  1  0.878876  0.878876  0.361927  1
  Zn  Zn11  1  0.878876  0.361927  0.878876  1
  Zn  Zn12  1  0.638073  0.121124  0.121124  1
  Zn  Zn13  1  0.361927  0.878876  0.878876  1
  Zn  Zn14  1  0.500000  0.000000  0.000000  1
  Zn  Zn15  1  0.000000  0.500000  0.000000  1
  Zn  Zn16  1  0.000000  0.000000  0.500000  1
  Zn  Zn17  1  0.333256  0.333256  0.333256  1
  Zn  Zn18  1  0.666744  0.666744  0.666744  1
  Zn  Zn19  1  0.332515  0.332515  0.997346  1
  Zn  Zn20  1  0.332515  0.997346  0.332515  1
  Zn  Zn21  1  0.667485  0.667485  0.002654  1
  Zn  Zn22  1  0.667485  0.002654  0.667485  1
  Zn  Zn23  1  0.997346  0.332515  0.332515  1
  Zn  Zn24  1  0.002654  0.667485  0.667485  1
  Pt  Pt25  1  0.000000  0.500000  0.500000  1
  Pt  Pt26  1  0.500000  0.000000  0.500000  1
  Pt  Pt27  1  0.500000  0.500000  0.000000  1
  Pt  Pt28  1  0.000000  0.000000  0.000000  1
  C  C29  1  0.500000  0.500000  0.500000  1
