# generated using pymatgen
data_Ho8NbSi16Mo11
_symmetry_space_group_name_H-M   'P 1'
_cell_length_a   6.78077324
_cell_length_b   6.96106020
_cell_length_c   12.94728800
_cell_angle_alpha   90.00000000
_cell_angle_beta   90.00000000
_cell_angle_gamma   90.14984378
_symmetry_Int_Tables_number   1
_chemical_formula_structural   Ho8NbSi16Mo11
_chemical_formula_sum   'Ho8 Nb1 Si16 Mo11'
_cell_volume   611.12765121
_cell_formula_units_Z   1
loop_
 _symmetry_equiv_pos_site_id
 _symmetry_equiv_pos_as_xyz
  1  'x, y, z'
loop_
 _atom_site_type_symbol
 _atom_site_label
 _atom_site_symmetry_multiplicity
 _atom_site_fract_x
 _atom_site_fract_y
 _atom_site_fract_z
 _atom_site_occupancy
  Ho  Ho0  1  0.498445  0.331571  0.093971  1
  Ho  Ho1  1  0.996072  0.169309  0.406084  1
  Ho  Ho2  1  0.503708  0.667764  0.594359  1
  Ho  Ho3  1  0.003994  0.832963  0.906042  1
  Ho  Ho4  1  0.503708  0.667764  0.905641  1
  Ho  Ho5  1  0.003994  0.832963  0.593958  1
  Ho  Ho6  1  0.498445  0.331571  0.406029  1
  Ho  Ho7  1  0.996072  0.169309  0.093916  1
  Nb  Nb8  1  0.836881  0.504528  0.250000  1
  Si  Si9  1  0.804696  0.630923  0.750000  1
  Si  Si10  1  0.303562  0.870157  0.750000  1
  Si  Si11  1  0.202342  0.367171  0.250000  1
  Si  Si12  1  0.696169  0.125891  0.250000  1
  Si  Si13  1  0.533993  0.366344  0.750000  1
  Si  Si14  1  0.036019  0.134113  0.750000  1
  Si  Si15  1  0.460384  0.633833  0.250000  1
  Si  Si16  1  0.966087  0.872588  0.250000  1
  Si  Si17  1  0.660006  0.041311  0.547312  1
  Si  Si18  1  0.160869  0.457242  0.952936  1
  Si  Si19  1  0.338456  0.957909  0.047039  1
  Si  Si20  1  0.838478  0.542774  0.456864  1
  Si  Si21  1  0.338456  0.957909  0.452961  1
  Si  Si22  1  0.838478  0.542774  0.043136  1
  Si  Si23  1  0.660006  0.041311  0.952688  1
  Si  Si24  1  0.160869  0.457242  0.547064  1
  Mo  Mo25  1  0.667509  0.997312  0.750000  1
  Mo  Mo26  1  0.165878  0.501322  0.750000  1
  Mo  Mo27  1  0.332136  0.000673  0.250000  1
  Mo  Mo28  1  0.829619  0.336131  0.626131  1
  Mo  Mo29  1  0.331308  0.164551  0.874812  1
  Mo  Mo30  1  0.168428  0.662996  0.124468  1
  Mo  Mo31  1  0.667786  0.833051  0.375696  1
  Mo  Mo32  1  0.168428  0.662996  0.375532  1
  Mo  Mo33  1  0.667786  0.833051  0.124304  1
  Mo  Mo34  1  0.829619  0.336131  0.873869  1
  Mo  Mo35  1  0.331308  0.164551  0.625188  1
