# generated using pymatgen
data_Pr2Er4Zn3(SiRh4)3
_symmetry_space_group_name_H-M   'P 1'
_cell_length_a   5.60742300
_cell_length_b   5.60742072
_cell_length_c   15.31081400
_cell_angle_alpha   90.00000000
_cell_angle_beta   90.00000000
_cell_angle_gamma   119.99999576
_symmetry_Int_Tables_number   1
_chemical_formula_structural   Pr2Er4Zn3(SiRh4)3
_chemical_formula_sum   'Pr2 Er4 Zn3 Si3 Rh12'
_cell_volume   416.92255590
_cell_formula_units_Z   1
loop_
 _symmetry_equiv_pos_site_id
 _symmetry_equiv_pos_as_xyz
  1  'x, y, z'
loop_
 _atom_site_type_symbol
 _atom_site_label
 _atom_site_symmetry_multiplicity
 _atom_site_fract_x
 _atom_site_fract_y
 _atom_site_fract_z
 _atom_site_occupancy
  Pr  Pr0  1  0.333333  0.666667  0.750000  1
  Pr  Pr1  1  0.666667  0.333333  0.250000  1
  Er  Er2  1  0.333333  0.666667  0.536615  1
  Er  Er3  1  0.666667  0.333333  0.464157  1
  Er  Er4  1  0.666667  0.333333  0.035843  1
  Er  Er5  1  0.333333  0.666667  0.963385  1
  Zn  Zn6  1  0.000000  0.000000  0.250000  1
  Zn  Zn7  1  0.000000  0.000000  0.997127  1
  Zn  Zn8  1  0.000000  0.000000  0.502873  1
  Si  Si9  1  0.000000  0.000000  0.750000  1
  Si  Si10  1  0.333333  0.666667  0.250000  1
  Si  Si11  1  0.666667  0.333333  0.750000  1
  Rh  Rh12  1  0.170336  0.340673  0.126253  1
  Rh  Rh13  1  0.831869  0.663739  0.866296  1
  Rh  Rh14  1  0.659327  0.829664  0.126253  1
  Rh  Rh15  1  0.831869  0.663739  0.633704  1
  Rh  Rh16  1  0.336261  0.168131  0.866296  1
  Rh  Rh17  1  0.170336  0.340673  0.373747  1
  Rh  Rh18  1  0.170336  0.829664  0.126253  1
  Rh  Rh19  1  0.336261  0.168131  0.633704  1
  Rh  Rh20  1  0.831869  0.168131  0.866296  1
  Rh  Rh21  1  0.659327  0.829664  0.373747  1
  Rh  Rh22  1  0.831869  0.168131  0.633704  1
  Rh  Rh23  1  0.170336  0.829664  0.373747  1
