# generated using pymatgen
data_TbDy5(Zn3C)2
_symmetry_space_group_name_H-M   'P 1'
_cell_length_a   9.17863295
_cell_length_b   9.18372184
_cell_length_c   9.17772046
_cell_angle_alpha   59.98571855
_cell_angle_beta   59.99670780
_cell_angle_gamma   60.01833013
_symmetry_Int_Tables_number   1
_chemical_formula_structural   TbDy5(Zn3C)2
_chemical_formula_sum   'Tb2 Dy10 Zn12 C4'
_cell_volume   547.03984679
_cell_formula_units_Z   2
loop_
 _symmetry_equiv_pos_site_id
 _symmetry_equiv_pos_as_xyz
  1  'x, y, z'
loop_
 _atom_site_type_symbol
 _atom_site_label
 _atom_site_symmetry_multiplicity
 _atom_site_fract_x
 _atom_site_fract_y
 _atom_site_fract_z
 _atom_site_occupancy
  Tb  Tb0  1  0.447433  0.447432  0.052631  1
  Tb  Tb1  1  0.052504  0.447432  0.052631  1
  Dy  Dy2  1  0.447242  0.052625  0.052891  1
  Dy  Dy3  1  0.052876  0.052747  0.447180  1
  Dy  Dy4  1  0.447196  0.052747  0.447180  1
  Dy  Dy5  1  0.052758  0.447259  0.447225  1
  Dy  Dy6  1  0.802724  0.802889  0.197257  1
  Dy  Dy7  1  0.197130  0.802889  0.197257  1
  Dy  Dy8  1  0.802900  0.196973  0.197227  1
  Dy  Dy9  1  0.197180  0.197057  0.802799  1
  Dy  Dy10  1  0.802964  0.197057  0.802799  1
  Dy  Dy11  1  0.197098  0.803069  0.802734  1
  Zn  Zn12  1  0.826223  0.826171  0.521385  1
  Zn  Zn13  1  0.826246  0.521483  0.826025  1
  Zn  Zn14  1  0.521433  0.826321  0.826150  1
  Zn  Zn15  1  0.826097  0.826321  0.826150  1
  Zn  Zn16  1  0.423908  0.423824  0.728360  1
  Zn  Zn17  1  0.423800  0.728537  0.423863  1
  Zn  Zn18  1  0.728448  0.423780  0.423928  1
  Zn  Zn19  1  0.423844  0.423780  0.423928  1
  Zn  Zn20  1  0.624911  0.625150  0.125029  1
  Zn  Zn21  1  0.625011  0.124987  0.624991  1
  Zn  Zn22  1  0.125009  0.625089  0.624833  1
  Zn  Zn23  1  0.625069  0.625089  0.624833  1
  C  C24  1  0.124986  0.124966  0.625062  1
  C  C25  1  0.124510  0.625658  0.125322  1
  C  C26  1  0.625358  0.124332  0.125166  1
  C  C27  1  0.125145  0.124332  0.125166  1
