# generated using pymatgen
data_Sc6Al8Si8Ir6Pt
_symmetry_space_group_name_H-M   'P 1'
_cell_length_a   8.61619410
_cell_length_b   8.61619406
_cell_length_c   8.61619400
_cell_angle_alpha   60.00000022
_cell_angle_beta   60.00000037
_cell_angle_gamma   60.00000010
_symmetry_Int_Tables_number   1
_chemical_formula_structural   Sc6Al8Si8Ir6Pt
_chemical_formula_sum   'Sc6 Al8 Si8 Ir6 Pt1'
_cell_volume   452.30503146
_cell_formula_units_Z   1
loop_
 _symmetry_equiv_pos_site_id
 _symmetry_equiv_pos_as_xyz
  1  'x, y, z'
loop_
 _atom_site_type_symbol
 _atom_site_label
 _atom_site_symmetry_multiplicity
 _atom_site_fract_x
 _atom_site_fract_y
 _atom_site_fract_z
 _atom_site_occupancy
  Sc  Sc0  1  0.191795  0.808205  0.808205  1
  Sc  Sc1  1  0.808205  0.191795  0.191795  1
  Sc  Sc2  1  0.808205  0.191795  0.808205  1
  Sc  Sc3  1  0.808205  0.808205  0.191795  1
  Sc  Sc4  1  0.191795  0.808205  0.191795  1
  Sc  Sc5  1  0.191795  0.191795  0.808205  1
  Al  Al6  1  0.623232  0.623232  0.623232  1
  Al  Al7  1  0.623232  0.623232  0.130302  1
  Al  Al8  1  0.130302  0.623232  0.623232  1
  Al  Al9  1  0.623232  0.130302  0.623232  1
  Al  Al10  1  0.376768  0.376768  0.376768  1
  Al  Al11  1  0.376768  0.376768  0.869698  1
  Al  Al12  1  0.376768  0.869698  0.376768  1
  Al  Al13  1  0.869698  0.376768  0.376768  1
  Si  Si14  1  0.847675  0.847675  0.847675  1
  Si  Si15  1  0.847675  0.847675  0.456974  1
  Si  Si16  1  0.456974  0.847675  0.847675  1
  Si  Si17  1  0.847675  0.456974  0.847675  1
  Si  Si18  1  0.152325  0.152325  0.152325  1
  Si  Si19  1  0.152325  0.152325  0.543026  1
  Si  Si20  1  0.152325  0.543026  0.152325  1
  Si  Si21  1  0.543026  0.152325  0.152325  1
  Ir  Ir22  1  0.000000  0.500000  0.500000  1
  Ir  Ir23  1  0.500000  0.000000  0.000000  1
  Ir  Ir24  1  0.500000  0.000000  0.500000  1
  Ir  Ir25  1  0.500000  0.500000  0.000000  1
  Ir  Ir26  1  0.000000  0.500000  0.000000  1
  Ir  Ir27  1  0.000000  0.000000  0.500000  1
  Pt  Pt28  1  0.500000  0.500000  0.500000  1
