# generated using pymatgen
data_Ba4SnPb11
_symmetry_space_group_name_H-M   'P 1'
_cell_length_a   12.42288440
_cell_length_b   12.42317731
_cell_length_c   12.42317634
_cell_angle_alpha   34.47401660
_cell_angle_beta   34.44827643
_cell_angle_gamma   34.44827779
_symmetry_Int_Tables_number   1
_chemical_formula_structural   Ba4SnPb11
_chemical_formula_sum   'Ba4 Sn1 Pb11'
_cell_volume   547.50046396
_cell_formula_units_Z   1
loop_
 _symmetry_equiv_pos_site_id
 _symmetry_equiv_pos_as_xyz
  1  'x, y, z'
loop_
 _atom_site_type_symbol
 _atom_site_label
 _atom_site_symmetry_multiplicity
 _atom_site_fract_x
 _atom_site_fract_y
 _atom_site_fract_z
 _atom_site_occupancy
  Ba  Ba0  1  0.871172  0.871306  0.871306  1
  Ba  Ba1  1  0.128204  0.128064  0.128064  1
  Ba  Ba2  1  0.710402  0.711531  0.711531  1
  Ba  Ba3  1  0.290332  0.289628  0.289628  1
  Sn  Sn4  1  0.713431  0.206364  0.206364  1
  Pb  Pb5  1  0.287614  0.793541  0.793541  1
  Pb  Pb6  1  0.794087  0.796689  0.286103  1
  Pb  Pb7  1  0.837725  0.394047  0.394047  1
  Pb  Pb8  1  0.395157  0.393844  0.836774  1
  Pb  Pb9  1  0.395157  0.836774  0.393844  1
  Pb  Pb10  1  0.606256  0.163049  0.602586  1
  Pb  Pb11  1  0.164043  0.604977  0.604977  1
  Pb  Pb12  1  0.606256  0.602586  0.163049  1
  Pb  Pb13  1  0.794087  0.286103  0.796689  1
  Pb  Pb14  1  0.203040  0.716618  0.204879  1
  Pb  Pb15  1  0.203040  0.204879  0.716618  1
