# generated using pymatgen
data_Ac8Si13As
_symmetry_space_group_name_H-M   'P 1'
_cell_length_a   7.82490358
_cell_length_b   7.82490343
_cell_length_c   12.53534476
_cell_angle_alpha   89.56526513
_cell_angle_beta   89.56526431
_cell_angle_gamma   133.01278270
_symmetry_Int_Tables_number   1
_chemical_formula_structural   Ac8Si13As
_chemical_formula_sum   'Ac8 Si13 As1'
_cell_volume   561.11603198
_cell_formula_units_Z   1
loop_
 _symmetry_equiv_pos_site_id
 _symmetry_equiv_pos_as_xyz
  1  'x, y, z'
loop_
 _atom_site_type_symbol
 _atom_site_label
 _atom_site_symmetry_multiplicity
 _atom_site_fract_x
 _atom_site_fract_y
 _atom_site_fract_z
 _atom_site_occupancy
  Ac  Ac0  1  0.505676  0.007637  0.371866  1
  Ac  Ac1  1  0.002876  0.501051  0.626616  1
  Ac  Ac2  1  0.498949  0.997124  0.873384  1
  Ac  Ac3  1  0.992363  0.494324  0.128134  1
  Ac  Ac4  1  0.996976  0.003024  0.250000  1
  Ac  Ac5  1  0.001113  0.998887  0.750000  1
  Ac  Ac6  1  0.506563  0.507269  0.498313  1
  Ac  Ac7  1  0.492731  0.493437  0.001687  1
  Si  Si8  1  0.907974  0.076103  0.997599  1
  Si  Si9  1  0.082607  0.913170  0.005241  1
  Si  Si10  1  0.086830  0.917393  0.494759  1
  Si  Si11  1  0.923897  0.092026  0.502401  1
  Si  Si12  1  0.569194  0.905610  0.126077  1
  Si  Si13  1  0.923921  0.589777  0.882429  1
  Si  Si14  1  0.410223  0.076079  0.617571  1
  Si  Si15  1  0.094390  0.430806  0.373923  1
  Si  Si16  1  0.417066  0.085818  0.124770  1
  Si  Si17  1  0.087726  0.419732  0.876352  1
  Si  Si18  1  0.580268  0.912274  0.623648  1
  Si  Si19  1  0.914182  0.582934  0.375230  1
  Si  Si20  1  0.416738  0.583262  0.250000  1
  As  As21  1  0.587737  0.412263  0.750000  1
