# generated using pymatgen
data_Ti2MnAl2Rh3
_symmetry_space_group_name_H-M   'P 1'
_cell_length_a   4.29918200
_cell_length_b   6.07383097
_cell_length_c   12.79501809
_cell_angle_alpha   89.93482163
_cell_angle_beta   89.99954032
_cell_angle_gamma   89.99947864
_symmetry_Int_Tables_number   1
_chemical_formula_structural   Ti2MnAl2Rh3
_chemical_formula_sum   'Ti6 Mn3 Al6 Rh9'
_cell_volume   334.10975497
_cell_formula_units_Z   3
loop_
 _symmetry_equiv_pos_site_id
 _symmetry_equiv_pos_as_xyz
  1  'x, y, z'
loop_
 _atom_site_type_symbol
 _atom_site_label
 _atom_site_symmetry_multiplicity
 _atom_site_fract_x
 _atom_site_fract_y
 _atom_site_fract_z
 _atom_site_occupancy
  Ti  Ti0  1  0.000009  0.006816  0.005104  1
  Ti  Ti1  1  0.500002  0.486990  0.156951  1
  Ti  Ti2  1  0.000000  0.007683  0.323344  1
  Ti  Ti3  1  0.499998  0.501601  0.498735  1
  Ti  Ti4  1  0.999991  0.999443  0.669140  1
  Ti  Ti5  1  0.500000  0.502357  0.846325  1
  Mn  Mn6  1  0.500002  0.250886  0.000320  1
  Mn  Mn7  1  0.500003  0.746831  0.999460  1
  Mn  Mn8  1  0.000000  0.246268  0.167381  1
  Al  Al9  1  0.999991  0.494791  0.003824  1
  Al  Al10  1  0.500014  0.004725  0.159917  1
  Al  Al11  1  0.999994  0.498617  0.328550  1
  Al  Al12  1  0.500000  0.999626  0.499239  1
  Al  Al13  1  0.999996  0.500899  0.667931  1
  Al  Al14  1  0.500007  0.999961  0.840544  1
  Rh  Rh15  1  0.999978  0.748902  0.165822  1
  Rh  Rh16  1  0.499978  0.249207  0.333170  1
  Rh  Rh17  1  0.500002  0.750420  0.333169  1
  Rh  Rh18  1  0.000011  0.251162  0.500151  1
  Rh  Rh19  1  0.999978  0.750823  0.499547  1
  Rh  Rh20  1  0.499992  0.249761  0.666729  1
  Rh  Rh21  1  0.500030  0.750625  0.667019  1
  Rh  Rh22  1  0.000028  0.250766  0.833139  1
  Rh  Rh23  1  0.999988  0.750840  0.834485  1
