# generated using pymatgen
data_Dy8Sc12Si15As
_symmetry_space_group_name_H-M   'P 1'
_cell_length_a   7.13781641
_cell_length_b   7.37865994
_cell_length_c   13.98498082
_cell_angle_alpha   90.08483761
_cell_angle_beta   88.99498527
_cell_angle_gamma   90.15671072
_symmetry_Int_Tables_number   1
_chemical_formula_structural   Dy8Sc12Si15As
_chemical_formula_sum   'Dy8 Sc12 Si15 As1'
_cell_volume   736.43743820
_cell_formula_units_Z   1
loop_
 _symmetry_equiv_pos_site_id
 _symmetry_equiv_pos_as_xyz
  1  'x, y, z'
loop_
 _atom_site_type_symbol
 _atom_site_label
 _atom_site_symmetry_multiplicity
 _atom_site_fract_x
 _atom_site_fract_y
 _atom_site_fract_z
 _atom_site_occupancy
  Dy  Dy0  1  0.012793  0.175736  0.097144  1
  Dy  Dy1  1  0.987712  0.824584  0.902557  1
  Dy  Dy2  1  0.487488  0.675705  0.902646  1
  Dy  Dy3  1  0.990741  0.822519  0.595929  1
  Dy  Dy4  1  0.512816  0.324850  0.097321  1
  Dy  Dy5  1  0.007737  0.177556  0.403734  1
  Dy  Dy6  1  0.506683  0.322310  0.402118  1
  Dy  Dy7  1  0.498027  0.676515  0.597556  1
  Sc  Sc8  1  0.162625  0.501280  0.750179  1
  Sc  Sc9  1  0.837204  0.498437  0.252530  1
  Sc  Sc10  1  0.337408  0.001022  0.250919  1
  Sc  Sc11  1  0.662832  0.998907  0.749538  1
  Sc  Sc12  1  0.337523  0.172037  0.626690  1
  Sc  Sc13  1  0.663629  0.826513  0.373824  1
  Sc  Sc14  1  0.160755  0.673418  0.376960  1
  Sc  Sc15  1  0.669093  0.823521  0.125409  1
  Sc  Sc16  1  0.836275  0.327662  0.622819  1
  Sc  Sc17  1  0.330556  0.176026  0.874107  1
  Sc  Sc18  1  0.831288  0.323172  0.874473  1
  Sc  Sc19  1  0.168903  0.676762  0.125061  1
  Si  Si20  1  0.034205  0.117076  0.749118  1
  Si  Si21  1  0.965236  0.883503  0.249840  1
  Si  Si22  1  0.461715  0.617245  0.249041  1
  Si  Si23  1  0.537042  0.382942  0.750683  1
  Si  Si24  1  0.287209  0.871388  0.749974  1
  Si  Si25  1  0.713941  0.126974  0.249416  1
  Si  Si26  1  0.212327  0.374252  0.249991  1
  Si  Si27  1  0.789393  0.626681  0.750115  1
  Si  Si28  1  0.815517  0.539392  0.457199  1
  Si  Si29  1  0.335612  0.963223  0.460795  1
  Si  Si30  1  0.843831  0.535095  0.039444  1
  Si  Si31  1  0.664258  0.036756  0.540105  1
  Si  Si32  1  0.155861  0.465413  0.960144  1
  Si  Si33  1  0.655781  0.034703  0.959770  1
  Si  Si34  1  0.344165  0.965853  0.039960  1
  As  As35  1  0.181816  0.460974  0.542891  1
