# generated using pymatgen
data_Mn2VSeO8
_symmetry_space_group_name_H-M   'P 1'
_cell_length_a   5.04435339
_cell_length_b   5.04435389
_cell_length_c   6.74140400
_cell_angle_alpha   90.00000000
_cell_angle_beta   90.00000000
_cell_angle_gamma   111.24110921
_symmetry_Int_Tables_number   1
_chemical_formula_structural   Mn2VSeO8
_chemical_formula_sum   'Mn2 V1 Se1 O8'
_cell_volume   159.88480284
_cell_formula_units_Z   1
loop_
 _symmetry_equiv_pos_site_id
 _symmetry_equiv_pos_as_xyz
  1  'x, y, z'
loop_
 _atom_site_type_symbol
 _atom_site_label
 _atom_site_symmetry_multiplicity
 _atom_site_fract_x
 _atom_site_fract_y
 _atom_site_fract_z
 _atom_site_occupancy
  Mn  Mn0  1  0.997773  0.002227  0.988279  1
  Mn  Mn1  1  0.997773  0.002227  0.511721  1
  V  V2  1  0.646264  0.353736  0.750000  1
  Se  Se3  1  0.350140  0.649860  0.250000  1
  O  O4  1  0.765187  0.234813  0.957682  1
  O  O5  1  0.788096  0.732263  0.750000  1
  O  O6  1  0.267737  0.211904  0.750000  1
  O  O7  1  0.229043  0.288719  0.250000  1
  O  O8  1  0.765187  0.234813  0.542318  1
  O  O9  1  0.240759  0.759241  0.456933  1
  O  O10  1  0.711281  0.770957  0.250000  1
  O  O11  1  0.240759  0.759241  0.043067  1
