# generated using pymatgen
data_Er10FeAu3
_symmetry_space_group_name_H-M   'P 1'
_cell_length_a   9.30363400
_cell_length_b   9.30363403
_cell_length_c   9.37587800
_cell_angle_alpha   90.00000000
_cell_angle_beta   90.00000000
_cell_angle_gamma   119.99999279
_symmetry_Int_Tables_number   1
_chemical_formula_structural   Er10FeAu3
_chemical_formula_sum   'Er20 Fe2 Au6'
_cell_volume   702.82604403
_cell_formula_units_Z   2
loop_
 _symmetry_equiv_pos_site_id
 _symmetry_equiv_pos_as_xyz
  1  'x, y, z'
loop_
 _atom_site_type_symbol
 _atom_site_label
 _atom_site_symmetry_multiplicity
 _atom_site_fract_x
 _atom_site_fract_y
 _atom_site_fract_z
 _atom_site_occupancy
  Er  Er0  1  0.000000  0.000000  0.500000  1
  Er  Er1  1  0.000000  0.000000  0.000000  1
  Er  Er2  1  0.541983  0.458017  0.250000  1
  Er  Er3  1  0.541983  0.083966  0.250000  1
  Er  Er4  1  0.916034  0.458017  0.250000  1
  Er  Er5  1  0.458017  0.541983  0.750000  1
  Er  Er6  1  0.458017  0.916034  0.750000  1
  Er  Er7  1  0.083966  0.541983  0.750000  1
  Er  Er8  1  0.209970  0.790030  0.437029  1
  Er  Er9  1  0.209970  0.419940  0.437029  1
  Er  Er10  1  0.580060  0.790030  0.437029  1
  Er  Er11  1  0.790030  0.209970  0.562971  1
  Er  Er12  1  0.790030  0.580060  0.562971  1
  Er  Er13  1  0.419940  0.209970  0.562971  1
  Er  Er14  1  0.790030  0.209970  0.937029  1
  Er  Er15  1  0.790030  0.580060  0.937029  1
  Er  Er16  1  0.419940  0.209970  0.937029  1
  Er  Er17  1  0.209970  0.790030  0.062971  1
  Er  Er18  1  0.209970  0.419940  0.062971  1
  Er  Er19  1  0.580060  0.790030  0.062971  1
  Fe  Fe20  1  0.333333  0.666667  0.250000  1
  Fe  Fe21  1  0.666667  0.333333  0.750000  1
  Au  Au22  1  0.881404  0.118596  0.250000  1
  Au  Au23  1  0.881404  0.762810  0.250000  1
  Au  Au24  1  0.237190  0.118596  0.250000  1
  Au  Au25  1  0.118596  0.881404  0.750000  1
  Au  Au26  1  0.118596  0.237190  0.750000  1
  Au  Au27  1  0.762810  0.881404  0.750000  1
