# generated using pymatgen
data_Pr3ZnHg3Pd2
_symmetry_space_group_name_H-M   'P 1'
_cell_length_a   8.00348300
_cell_length_b   8.00348397
_cell_length_c   3.88968300
_cell_angle_alpha   90.00000000
_cell_angle_beta   90.00000000
_cell_angle_gamma   119.99999188
_symmetry_Int_Tables_number   1
_chemical_formula_structural   Pr3ZnHg3Pd2
_chemical_formula_sum   'Pr3 Zn1 Hg3 Pd2'
_cell_volume   215.77592250
_cell_formula_units_Z   1
loop_
 _symmetry_equiv_pos_site_id
 _symmetry_equiv_pos_as_xyz
  1  'x, y, z'
loop_
 _atom_site_type_symbol
 _atom_site_label
 _atom_site_symmetry_multiplicity
 _atom_site_fract_x
 _atom_site_fract_y
 _atom_site_fract_z
 _atom_site_occupancy
  Pr  Pr0  1  0.408338  0.408338  0.500000  1
  Pr  Pr1  1  0.591662  0.000000  0.500000  1
  Pr  Pr2  1  0.000000  0.591662  0.500000  1
  Zn  Zn3  1  0.000000  0.000000  0.500000  1
  Hg  Hg4  1  0.735779  0.735779  0.000000  1
  Hg  Hg5  1  0.264221  0.000000  0.000000  1
  Hg  Hg6  1  0.000000  0.264221  0.000000  1
  Pd  Pd7  1  0.666667  0.333333  0.000000  1
  Pd  Pd8  1  0.333333  0.666667  0.000000  1
