# generated using pymatgen
data_Dy2Y8NiAg3
_symmetry_space_group_name_H-M   'P 1'
_cell_length_a   9.54024521
_cell_length_b   9.53611625
_cell_length_c   9.60159757
_cell_angle_alpha   89.99999734
_cell_angle_beta   89.92740940
_cell_angle_gamma   119.98568094
_symmetry_Int_Tables_number   1
_chemical_formula_structural   Dy2Y8NiAg3
_chemical_formula_sum   'Dy4 Y16 Ni2 Ag6'
_cell_volume   756.60182819
_cell_formula_units_Z   2
loop_
 _symmetry_equiv_pos_site_id
 _symmetry_equiv_pos_as_xyz
  1  'x, y, z'
loop_
 _atom_site_type_symbol
 _atom_site_label
 _atom_site_symmetry_multiplicity
 _atom_site_fract_x
 _atom_site_fract_y
 _atom_site_fract_z
 _atom_site_occupancy
  Dy  Dy0  1  0.000238  0.000119  0.499807  1
  Dy  Dy1  1  0.999999  0.999999  0.999508  1
  Dy  Dy2  1  0.210044  0.789738  0.439181  1
  Dy  Dy3  1  0.210044  0.420306  0.439181  1
  Y  Y4  1  0.543757  0.456105  0.250189  1
  Y  Y5  1  0.543757  0.087653  0.250189  1
  Y  Y6  1  0.912560  0.456280  0.250226  1
  Y  Y7  1  0.456209  0.543781  0.749862  1
  Y  Y8  1  0.456209  0.912427  0.749862  1
  Y  Y9  1  0.087613  0.543806  0.749701  1
  Y  Y10  1  0.580432  0.790216  0.439730  1
  Y  Y11  1  0.790511  0.209798  0.560495  1
  Y  Y12  1  0.790511  0.580713  0.560495  1
  Y  Y13  1  0.419344  0.209671  0.560487  1
  Y  Y14  1  0.790271  0.209798  0.939537  1
  Y  Y15  1  0.790271  0.580473  0.939537  1
  Y  Y16  1  0.419528  0.209763  0.939504  1
  Y  Y17  1  0.209614  0.790343  0.060480  1
  Y  Y18  1  0.209614  0.419272  0.060480  1
  Y  Y19  1  0.580565  0.790283  0.060424  1
  Ni  Ni20  1  0.332387  0.666194  0.251098  1
  Ni  Ni21  1  0.666607  0.333303  0.749884  1
  Ag  Ag22  1  0.883595  0.116360  0.250042  1
  Ag  Ag23  1  0.883595  0.767234  0.250042  1
  Ag  Ag24  1  0.232763  0.116381  0.249983  1
  Ag  Ag25  1  0.116347  0.883628  0.750011  1
  Ag  Ag26  1  0.116347  0.232720  0.750011  1
  Ag  Ag27  1  0.767270  0.883636  0.750057  1
