# generated using pymatgen
data_Li2NdDySi2Pb
_symmetry_space_group_name_H-M   'P 1'
_cell_length_a   9.73177551
_cell_length_b   9.73177485
_cell_length_c   6.90923300
_cell_angle_alpha   90.00000000
_cell_angle_beta   90.00000000
_cell_angle_gamma   153.59181089
_symmetry_Int_Tables_number   1
_chemical_formula_structural   Li2NdDySi2Pb
_chemical_formula_sum   'Li4 Nd2 Dy2 Si4 Pb2'
_cell_volume   291.03338853
_cell_formula_units_Z   2
loop_
 _symmetry_equiv_pos_site_id
 _symmetry_equiv_pos_as_xyz
  1  'x, y, z'
loop_
 _atom_site_type_symbol
 _atom_site_label
 _atom_site_symmetry_multiplicity
 _atom_site_fract_x
 _atom_site_fract_y
 _atom_site_fract_z
 _atom_site_occupancy
  Li  Li0  1  0.182837  0.817163  0.053408  1
  Li  Li1  1  0.182837  0.817163  0.446592  1
  Li  Li2  1  0.817163  0.182837  0.946592  1
  Li  Li3  1  0.817163  0.182837  0.553408  1
  Nd  Nd4  1  0.548399  0.451601  0.250000  1
  Nd  Nd5  1  0.451601  0.548399  0.750000  1
  Dy  Dy6  1  0.353223  0.646777  0.250000  1
  Dy  Dy7  1  0.646777  0.353223  0.750000  1
  Si  Si8  1  0.057461  0.942539  0.924417  1
  Si  Si9  1  0.942539  0.057461  0.075583  1
  Si  Si10  1  0.942539  0.057461  0.424417  1
  Si  Si11  1  0.057461  0.942539  0.575583  1
  Pb  Pb12  1  0.721028  0.278972  0.250000  1
  Pb  Pb13  1  0.278972  0.721028  0.750000  1
