# generated using pymatgen
data_Nd6Cd23Se
_symmetry_space_group_name_H-M   'P 1'
_cell_length_a   10.07487862
_cell_length_b   10.07487853
_cell_length_c   10.07487900
_cell_angle_alpha   60.00000173
_cell_angle_beta   60.00000202
_cell_angle_gamma   60.00000105
_symmetry_Int_Tables_number   1
_chemical_formula_structural   Nd6Cd23Se
_chemical_formula_sum   'Nd6 Cd23 Se1'
_cell_volume   723.11021688
_cell_formula_units_Z   1
loop_
 _symmetry_equiv_pos_site_id
 _symmetry_equiv_pos_as_xyz
  1  'x, y, z'
loop_
 _atom_site_type_symbol
 _atom_site_label
 _atom_site_symmetry_multiplicity
 _atom_site_fract_x
 _atom_site_fract_y
 _atom_site_fract_z
 _atom_site_occupancy
  Nd  Nd0  1  0.791425  0.791425  0.208575  1
  Nd  Nd1  1  0.208575  0.791425  0.208575  1
  Nd  Nd2  1  0.791425  0.208575  0.208575  1
  Nd  Nd3  1  0.208575  0.208575  0.791425  1
  Nd  Nd4  1  0.791425  0.208575  0.791425  1
  Nd  Nd5  1  0.208575  0.791425  0.791425  1
  Cd  Cd6  1  0.833120  0.833120  0.500639  1
  Cd  Cd7  1  0.833120  0.500639  0.833120  1
  Cd  Cd8  1  0.500639  0.833120  0.833120  1
  Cd  Cd9  1  0.833120  0.833120  0.833120  1
  Cd  Cd10  1  0.166880  0.166880  0.499361  1
  Cd  Cd11  1  0.166880  0.499361  0.166880  1
  Cd  Cd12  1  0.499361  0.166880  0.166880  1
  Cd  Cd13  1  0.166880  0.166880  0.166880  1
  Cd  Cd14  1  0.621387  0.621387  0.135838  1
  Cd  Cd15  1  0.621387  0.135838  0.621387  1
  Cd  Cd16  1  0.135838  0.621387  0.621387  1
  Cd  Cd17  1  0.621387  0.621387  0.621387  1
  Cd  Cd18  1  0.378613  0.378613  0.864162  1
  Cd  Cd19  1  0.378613  0.864162  0.378613  1
  Cd  Cd20  1  0.864162  0.378613  0.378613  1
  Cd  Cd21  1  0.378613  0.378613  0.378613  1
  Cd  Cd22  1  0.000000  0.000000  0.500000  1
  Cd  Cd23  1  0.500000  0.000000  0.500000  1
  Cd  Cd24  1  0.000000  0.500000  0.500000  1
  Cd  Cd25  1  0.500000  0.500000  0.000000  1
  Cd  Cd26  1  0.000000  0.500000  0.000000  1
  Cd  Cd27  1  0.500000  0.000000  0.000000  1
  Cd  Cd28  1  0.500000  0.500000  0.500000  1
  Se  Se29  1  0.000000  0.000000  0.000000  1
