# generated using pymatgen
data_Dy5Ho3(Tm3Pt4)4
_symmetry_space_group_name_H-M   'P 1'
_cell_length_a   7.42597781
_cell_length_b   7.50080359
_cell_length_c   14.61934235
_cell_angle_alpha   89.95871447
_cell_angle_beta   89.94981381
_cell_angle_gamma   90.01898365
_symmetry_Int_Tables_number   1
_chemical_formula_structural   Dy5Ho3(Tm3Pt4)4
_chemical_formula_sum   'Dy5 Ho3 Tm12 Pt16'
_cell_volume   814.30851111
_cell_formula_units_Z   1
loop_
 _symmetry_equiv_pos_site_id
 _symmetry_equiv_pos_as_xyz
  1  'x, y, z'
loop_
 _atom_site_type_symbol
 _atom_site_label
 _atom_site_symmetry_multiplicity
 _atom_site_fract_x
 _atom_site_fract_y
 _atom_site_fract_z
 _atom_site_occupancy
  Dy  Dy0  1  0.501063  0.679025  0.592964  1
  Dy  Dy1  1  0.000878  0.821164  0.907097  1
  Dy  Dy2  1  0.499006  0.321228  0.092866  1
  Dy  Dy3  1  0.999017  0.178584  0.407117  1
  Dy  Dy4  1  0.498930  0.321081  0.406954  1
  Ho  Ho5  1  0.998748  0.179126  0.093098  1
  Ho  Ho6  1  0.501313  0.679221  0.906873  1
  Ho  Ho7  1  0.001287  0.820808  0.593184  1
  Tm  Tm8  1  0.656172  0.167476  0.622465  1
  Tm  Tm9  1  0.155836  0.332457  0.877592  1
  Tm  Tm10  1  0.344072  0.832536  0.122355  1
  Tm  Tm11  1  0.844369  0.667803  0.377587  1
  Tm  Tm12  1  0.343980  0.832530  0.377403  1
  Tm  Tm13  1  0.844063  0.667564  0.122503  1
  Tm  Tm14  1  0.655913  0.167561  0.877428  1
  Tm  Tm15  1  0.155895  0.332301  0.622548  1
  Tm  Tm16  1  0.819103  0.510135  0.750047  1
  Tm  Tm17  1  0.319115  0.989873  0.750002  1
  Tm  Tm18  1  0.180824  0.489943  0.249915  1
  Tm  Tm19  1  0.680852  0.010062  0.249865  1
  Pt  Pt20  1  0.683024  0.965602  0.458536  1
  Pt  Pt21  1  0.183216  0.533481  0.041913  1
  Pt  Pt22  1  0.316776  0.033575  0.958120  1
  Pt  Pt23  1  0.817247  0.466624  0.541948  1
  Pt  Pt24  1  0.316468  0.033387  0.541807  1
  Pt  Pt25  1  0.816504  0.466458  0.958266  1
  Pt  Pt26  1  0.683438  0.966392  0.041675  1
  Pt  Pt27  1  0.182862  0.534320  0.458457  1
  Pt  Pt28  1  0.453376  0.385077  0.749876  1
  Pt  Pt29  1  0.953397  0.114783  0.749813  1
  Pt  Pt30  1  0.546777  0.615133  0.250104  1
  Pt  Pt31  1  0.046463  0.884995  0.249961  1
  Pt  Pt32  1  0.682217  0.856864  0.749942  1
  Pt  Pt33  1  0.182264  0.642938  0.749740  1
  Pt  Pt34  1  0.317511  0.143002  0.250024  1
  Pt  Pt35  1  0.818024  0.356889  0.249956  1
