# generated using pymatgen
data_Dy7Y13(Bi2As)4
_symmetry_space_group_name_H-M   'P 1'
_cell_length_a   8.07515507
_cell_length_b   9.12908721
_cell_length_c   12.19918303
_cell_angle_alpha   89.98554843
_cell_angle_beta   90.00111596
_cell_angle_gamma   89.98805185
_symmetry_Int_Tables_number   1
_chemical_formula_structural   Dy7Y13(Bi2As)4
_chemical_formula_sum   'Dy7 Y13 Bi8 As4'
_cell_volume   899.30902240
_cell_formula_units_Z   1
loop_
 _symmetry_equiv_pos_site_id
 _symmetry_equiv_pos_as_xyz
  1  'x, y, z'
loop_
 _atom_site_type_symbol
 _atom_site_label
 _atom_site_symmetry_multiplicity
 _atom_site_fract_x
 _atom_site_fract_y
 _atom_site_fract_z
 _atom_site_occupancy
  Dy  Dy0  1  0.314982  0.946803  0.435194  1
  Dy  Dy1  1  0.184503  0.946597  0.935695  1
  Dy  Dy2  1  0.315439  0.553123  0.435212  1
  Dy  Dy3  1  0.815417  0.053438  0.064410  1
  Dy  Dy4  1  0.684724  0.446948  0.564503  1
  Dy  Dy5  1  0.815461  0.446602  0.064270  1
  Dy  Dy6  1  0.184495  0.553477  0.935644  1
  Y  Y7  1  0.848651  0.749992  0.789508  1
  Y  Y8  1  0.151616  0.249980  0.210489  1
  Y  Y9  1  0.348239  0.250170  0.710739  1
  Y  Y10  1  0.651661  0.749882  0.289407  1
  Y  Y11  1  0.368728  0.750118  0.704998  1
  Y  Y12  1  0.631003  0.250105  0.295043  1
  Y  Y13  1  0.868971  0.250240  0.795286  1
  Y  Y14  1  0.131080  0.750043  0.204824  1
  Y  Y15  1  0.962596  0.749826  0.501062  1
  Y  Y16  1  0.038078  0.250374  0.498865  1
  Y  Y17  1  0.462353  0.250168  0.998944  1
  Y  Y18  1  0.537578  0.750044  0.001002  1
  Y  Y19  1  0.684925  0.052104  0.564770  1
  Bi  Bi20  1  0.576561  0.491377  0.827306  1
  Bi  Bi21  1  0.423512  0.508701  0.172592  1
  Bi  Bi22  1  0.076610  0.508731  0.672656  1
  Bi  Bi23  1  0.423530  0.991319  0.172606  1
  Bi  Bi24  1  0.923375  0.491246  0.327356  1
  Bi  Bi25  1  0.576435  0.008797  0.827456  1
  Bi  Bi26  1  0.923618  0.008762  0.327419  1
  Bi  Bi27  1  0.076482  0.991387  0.672561  1
  As  As28  1  0.579951  0.749708  0.516943  1
  As  As29  1  0.419544  0.249917  0.483130  1
  As  As30  1  0.080698  0.249956  0.982842  1
  As  As31  1  0.919188  0.750064  0.017268  1
