# generated using pymatgen
data_Tc4B8MoW7
_symmetry_space_group_name_H-M   'P 1'
_cell_length_a   3.11600300
_cell_length_b   7.54153445
_cell_length_c   9.68977757
_cell_angle_alpha   89.96049657
_cell_angle_beta   90.00000000
_cell_angle_gamma   90.00000000
_symmetry_Int_Tables_number   1
_chemical_formula_structural   Tc4B8MoW7
_chemical_formula_sum   'Tc4 B8 Mo1 W7'
_cell_volume   227.70433105
_cell_formula_units_Z   1
loop_
 _symmetry_equiv_pos_site_id
 _symmetry_equiv_pos_as_xyz
  1  'x, y, z'
loop_
 _atom_site_type_symbol
 _atom_site_label
 _atom_site_symmetry_multiplicity
 _atom_site_fract_x
 _atom_site_fract_y
 _atom_site_fract_z
 _atom_site_occupancy
  Tc  Tc0  1  0.500000  0.623264  0.395431  1
  Tc  Tc1  1  0.500000  0.377260  0.604547  1
  Tc  Tc2  1  0.000000  0.876869  0.895138  1
  Tc  Tc3  1  0.000000  0.123375  0.104702  1
  B  B4  1  0.500000  0.115183  0.459489  1
  B  B5  1  0.500000  0.884886  0.540488  1
  B  B6  1  0.000000  0.384548  0.959343  1
  B  B7  1  0.000000  0.615244  0.040410  1
  B  B8  1  0.500000  0.122275  0.266643  1
  B  B9  1  0.500000  0.877443  0.733430  1
  B  B10  1  0.000000  0.377929  0.766497  1
  B  B11  1  0.000000  0.622343  0.233507  1
  Mo  Mo12  1  0.000000  0.077046  0.638433  1
  W  W13  1  0.500000  0.811005  0.130766  1
  W  W14  1  0.500000  0.189228  0.869131  1
  W  W15  1  0.000000  0.688670  0.630786  1
  W  W16  1  0.000000  0.310838  0.369702  1
  W  W17  1  0.500000  0.578004  0.861577  1
  W  W18  1  0.500000  0.422253  0.138497  1
  W  W19  1  0.000000  0.922338  0.361480  1
