# generated using pymatgen
data_Os(BrF)2
_symmetry_space_group_name_H-M   'P 1'
_cell_length_a   5.51296826
_cell_length_b   5.51297063
_cell_length_c   3.76629048
_cell_angle_alpha   89.43505032
_cell_angle_beta   89.43503956
_cell_angle_gamma   91.46645957
_symmetry_Int_Tables_number   1
_chemical_formula_structural   Os(BrF)2
_chemical_formula_sum   'Os1 Br2 F2'
_cell_volume   114.41932513
_cell_formula_units_Z   1
loop_
 _symmetry_equiv_pos_site_id
 _symmetry_equiv_pos_as_xyz
  1  'x, y, z'
loop_
 _atom_site_type_symbol
 _atom_site_label
 _atom_site_symmetry_multiplicity
 _atom_site_fract_x
 _atom_site_fract_y
 _atom_site_fract_z
 _atom_site_occupancy
  Os  Os0  1  0.000000  0.000000  0.000000  1
  Br  Br1  1  0.218917  0.218917  0.493497  1
  Br  Br2  1  0.781083  0.781083  0.506503  1
  F  F3  1  0.757424  0.242576  0.000000  1
  F  F4  1  0.242576  0.757424  0.000000  1
