# generated using pymatgen
data_LaDy3Np2O12
_symmetry_space_group_name_H-M   'P 1'
_cell_length_a   5.62171700
_cell_length_b   7.94243660
_cell_length_c   11.95262162
_cell_angle_alpha   73.93724188
_cell_angle_beta   90.00000000
_cell_angle_gamma   90.00000000
_symmetry_Int_Tables_number   1
_chemical_formula_structural   LaDy3Np2O12
_chemical_formula_sum   'La2 Dy6 Np4 O24'
_cell_volume   512.85058834
_cell_formula_units_Z   2
loop_
 _symmetry_equiv_pos_site_id
 _symmetry_equiv_pos_as_xyz
  1  'x, y, z'
loop_
 _atom_site_type_symbol
 _atom_site_label
 _atom_site_symmetry_multiplicity
 _atom_site_fract_x
 _atom_site_fract_y
 _atom_site_fract_z
 _atom_site_occupancy
  La  La0  1  0.692880  0.500000  0.750000  1
  La  La1  1  0.307120  0.500000  0.250000  1
  Dy  Dy2  1  0.745042  0.000000  0.750000  1
  Dy  Dy3  1  0.254958  0.000000  0.250000  1
  Dy  Dy4  1  0.187546  0.796887  0.577235  1
  Dy  Dy5  1  0.812454  0.796887  0.077235  1
  Dy  Dy6  1  0.187546  0.203113  0.922765  1
  Dy  Dy7  1  0.812454  0.203113  0.422765  1
  Np  Np8  1  0.252985  0.729497  0.884232  1
  Np  Np9  1  0.747015  0.729497  0.384232  1
  Np  Np10  1  0.252985  0.270503  0.615768  1
  Np  Np11  1  0.747015  0.270503  0.115768  1
  O  O12  1  0.040536  0.948782  0.896057  1
  O  O13  1  0.552783  0.847594  0.931449  1
  O  O14  1  0.959464  0.948782  0.396057  1
  O  O15  1  0.446689  0.804736  0.725509  1
  O  O16  1  0.447217  0.847594  0.431449  1
  O  O17  1  0.968328  0.722867  0.767364  1
  O  O18  1  0.553311  0.804736  0.225509  1
  O  O19  1  0.876486  0.637636  0.549400  1
  O  O20  1  0.368073  0.486363  0.885154  1
  O  O21  1  0.031672  0.722867  0.267364  1
  O  O22  1  0.368073  0.513637  0.614846  1
  O  O23  1  0.876486  0.362364  0.950600  1
  O  O24  1  0.123514  0.637636  0.049400  1
  O  O25  1  0.631927  0.486363  0.385154  1
  O  O26  1  0.968328  0.277133  0.732636  1
  O  O27  1  0.631927  0.513637  0.114846  1
  O  O28  1  0.123514  0.362364  0.450600  1
  O  O29  1  0.446689  0.195264  0.774491  1
  O  O30  1  0.031672  0.277133  0.232636  1
  O  O31  1  0.552783  0.152406  0.568551  1
  O  O32  1  0.553311  0.195264  0.274491  1
  O  O33  1  0.040536  0.051218  0.603943  1
  O  O34  1  0.447217  0.152406  0.068551  1
  O  O35  1  0.959464  0.051218  0.103943  1
