# generated using pymatgen
data_Rb6AlTe4Cl
_symmetry_space_group_name_H-M   'P 1'
_cell_length_a   11.62099200
_cell_length_b   11.62099125
_cell_length_c   8.55963000
_cell_angle_alpha   90.00000000
_cell_angle_beta   90.00000000
_cell_angle_gamma   119.99999644
_symmetry_Int_Tables_number   1
_chemical_formula_structural   Rb6AlTe4Cl
_chemical_formula_sum   'Rb12 Al2 Te8 Cl2'
_cell_volume   1001.08744748
_cell_formula_units_Z   2
loop_
 _symmetry_equiv_pos_site_id
 _symmetry_equiv_pos_as_xyz
  1  'x, y, z'
loop_
 _atom_site_type_symbol
 _atom_site_label
 _atom_site_symmetry_multiplicity
 _atom_site_fract_x
 _atom_site_fract_y
 _atom_site_fract_z
 _atom_site_occupancy
  Rb  Rb0  1  0.126891  0.873109  0.516962  1
  Rb  Rb1  1  0.746216  0.873109  0.516962  1
  Rb  Rb2  1  0.955420  0.477710  0.317819  1
  Rb  Rb3  1  0.522290  0.477710  0.317819  1
  Rb  Rb4  1  0.873109  0.746216  0.016962  1
  Rb  Rb5  1  0.253784  0.126891  0.016962  1
  Rb  Rb6  1  0.522290  0.044580  0.317819  1
  Rb  Rb7  1  0.126891  0.253784  0.516962  1
  Rb  Rb8  1  0.873109  0.126891  0.016962  1
  Rb  Rb9  1  0.044580  0.522290  0.817819  1
  Rb  Rb10  1  0.477710  0.955420  0.817819  1
  Rb  Rb11  1  0.477710  0.522290  0.817819  1
  Al  Al12  1  0.666667  0.333333  0.708326  1
  Al  Al13  1  0.333333  0.666667  0.208326  1
  Te  Te14  1  0.415368  0.207685  0.610094  1
  Te  Te15  1  0.584632  0.792315  0.110094  1
  Te  Te16  1  0.666667  0.333333  0.021877  1
  Te  Te17  1  0.792315  0.584632  0.610094  1
  Te  Te18  1  0.207685  0.415368  0.110094  1
  Te  Te19  1  0.333333  0.666667  0.521877  1
  Te  Te20  1  0.207685  0.792315  0.110094  1
  Te  Te21  1  0.792315  0.207685  0.610094  1
  Cl  Cl22  1  0.000000  0.000000  0.275773  1
  Cl  Cl23  1  0.000000  0.000000  0.775773  1
