# generated using pymatgen
data_Y2LuPa(Ga3Ir)6
_symmetry_space_group_name_H-M   'P 1'
_cell_length_a   7.61128400
_cell_length_b   7.60511500
_cell_length_c   9.43616200
_cell_angle_alpha   90.00000000
_cell_angle_beta   90.00000000
_cell_angle_gamma   119.88064488
_symmetry_Int_Tables_number   1
_chemical_formula_structural   Y2LuPa(Ga3Ir)6
_chemical_formula_sum   'Y2 Lu1 Pa1 Ga18 Ir6'
_cell_volume   473.59902936
_cell_formula_units_Z   1
loop_
 _symmetry_equiv_pos_site_id
 _symmetry_equiv_pos_as_xyz
  1  'x, y, z'
loop_
 _atom_site_type_symbol
 _atom_site_label
 _atom_site_symmetry_multiplicity
 _atom_site_fract_x
 _atom_site_fract_y
 _atom_site_fract_z
 _atom_site_occupancy
  Y  Y0  1  0.003758  0.331048  0.750000  1
  Y  Y1  1  0.330786  0.002964  0.750000  1
  Lu  Lu2  1  0.670164  0.996479  0.250000  1
  Pa  Pa3  1  0.997620  0.669531  0.250000  1
  Ga  Ga4  1  0.130095  0.130189  0.250000  1
  Ga  Ga5  1  0.872243  0.873559  0.750000  1
  Ga  Ga6  1  0.997589  0.329548  0.080789  1
  Ga  Ga7  1  0.000951  0.665443  0.916861  1
  Ga  Ga8  1  0.000951  0.665443  0.583139  1
  Ga  Ga9  1  0.339819  0.002661  0.419086  1
  Ga  Ga10  1  0.997589  0.329548  0.419211  1
  Ga  Ga11  1  0.665734  0.001672  0.580067  1
  Ga  Ga12  1  0.665734  0.001672  0.919933  1
  Ga  Ga13  1  0.339819  0.002661  0.080914  1
  Ga  Ga14  1  0.331540  0.331457  0.567528  1
  Ga  Ga15  1  0.663751  0.668495  0.433723  1
  Ga  Ga16  1  0.663751  0.668495  0.066277  1
  Ga  Ga17  1  0.331540  0.331457  0.932472  1
  Ga  Ga18  1  0.339811  0.545783  0.250000  1
  Ga  Ga19  1  0.660427  0.452795  0.750000  1
  Ga  Ga20  1  0.544700  0.339997  0.250000  1
  Ga  Ga21  1  0.453076  0.661674  0.750000  1
  Ir  Ir22  1  0.673977  0.331231  0.002552  1
  Ir  Ir23  1  0.326437  0.671454  0.002546  1
  Ir  Ir24  1  0.326437  0.671454  0.497454  1
  Ir  Ir25  1  0.673977  0.331231  0.497448  1
  Ir  Ir26  1  0.998859  0.996031  0.003307  1
  Ir  Ir27  1  0.998859  0.996031  0.496693  1
