# generated using pymatgen
data_CeSc5Co2
_symmetry_space_group_name_H-M   'P 1'
_cell_length_a   5.89946900
_cell_length_b   8.79234600
_cell_length_c   13.10010500
_cell_angle_alpha   90.00000000
_cell_angle_beta   90.00000000
_cell_angle_gamma   90.00000000
_symmetry_Int_Tables_number   1
_chemical_formula_structural   CeSc5Co2
_chemical_formula_sum   'Ce4 Sc20 Co8'
_cell_volume   679.50470827
_cell_formula_units_Z   4
loop_
 _symmetry_equiv_pos_site_id
 _symmetry_equiv_pos_as_xyz
  1  'x, y, z'
loop_
 _atom_site_type_symbol
 _atom_site_label
 _atom_site_symmetry_multiplicity
 _atom_site_fract_x
 _atom_site_fract_y
 _atom_site_fract_z
 _atom_site_occupancy
  Ce  Ce0  1  0.567709  0.750000  0.348535  1
  Ce  Ce1  1  0.067709  0.250000  0.151465  1
  Ce  Ce2  1  0.432291  0.250000  0.651465  1
  Ce  Ce3  1  0.932291  0.750000  0.848535  1
  Sc  Sc4  1  0.790513  0.750000  0.103960  1
  Sc  Sc5  1  0.290513  0.250000  0.396040  1
  Sc  Sc6  1  0.209487  0.250000  0.896040  1
  Sc  Sc7  1  0.709487  0.750000  0.603960  1
  Sc  Sc8  1  0.409454  0.932678  0.790493  1
  Sc  Sc9  1  0.909454  0.067322  0.709507  1
  Sc  Sc10  1  0.590546  0.432678  0.209507  1
  Sc  Sc11  1  0.090546  0.567322  0.290493  1
  Sc  Sc12  1  0.590546  0.067322  0.209507  1
  Sc  Sc13  1  0.090546  0.932678  0.290493  1
  Sc  Sc14  1  0.409454  0.567322  0.790493  1
  Sc  Sc15  1  0.909454  0.432678  0.709507  1
  Sc  Sc16  1  0.237360  0.929968  0.536032  1
  Sc  Sc17  1  0.737360  0.070032  0.963968  1
  Sc  Sc18  1  0.762640  0.429968  0.463968  1
  Sc  Sc19  1  0.262640  0.570032  0.036032  1
  Sc  Sc20  1  0.762640  0.070032  0.463968  1
  Sc  Sc21  1  0.262640  0.929968  0.036032  1
  Sc  Sc22  1  0.237360  0.570032  0.536032  1
  Sc  Sc23  1  0.737360  0.429968  0.963968  1
  Co  Co24  1  0.942358  0.750000  0.439352  1
  Co  Co25  1  0.442358  0.250000  0.060648  1
  Co  Co26  1  0.057642  0.250000  0.560648  1
  Co  Co27  1  0.557642  0.750000  0.939352  1
  Co  Co28  1  0.389167  0.750000  0.190226  1
  Co  Co29  1  0.889167  0.250000  0.309774  1
  Co  Co30  1  0.610833  0.250000  0.809774  1
  Co  Co31  1  0.110833  0.750000  0.690226  1
