# generated using pymatgen
data_Er2(ZrSn)3
_symmetry_space_group_name_H-M   'P 1'
_cell_length_a   8.70118279
_cell_length_b   8.75312782
_cell_length_c   5.98218500
_cell_angle_alpha   90.00000000
_cell_angle_beta   90.00000000
_cell_angle_gamma   120.19768416
_symmetry_Int_Tables_number   1
_chemical_formula_structural   Er2(ZrSn)3
_chemical_formula_sum   'Er4 Zr6 Sn6'
_cell_volume   393.78889920
_cell_formula_units_Z   2
loop_
 _symmetry_equiv_pos_site_id
 _symmetry_equiv_pos_as_xyz
  1  'x, y, z'
loop_
 _atom_site_type_symbol
 _atom_site_label
 _atom_site_symmetry_multiplicity
 _atom_site_fract_x
 _atom_site_fract_y
 _atom_site_fract_z
 _atom_site_occupancy
  Er  Er0  1  0.760836  0.760671  0.250000  1
  Er  Er1  1  0.760836  0.000166  0.750000  1
  Er  Er2  1  0.239164  0.239329  0.750000  1
  Er  Er3  1  0.239164  0.999834  0.250000  1
  Zr  Zr4  1  0.000000  0.748351  0.750000  1
  Zr  Zr5  1  0.000000  0.251649  0.250000  1
  Zr  Zr6  1  0.332452  0.666227  0.500000  1
  Zr  Zr7  1  0.667548  0.333773  0.000000  1
  Zr  Zr8  1  0.667548  0.333773  0.500000  1
  Zr  Zr9  1  0.332452  0.666227  0.000000  1
  Sn  Sn10  1  0.392979  0.996663  0.750000  1
  Sn  Sn11  1  0.392979  0.396315  0.250000  1
  Sn  Sn12  1  0.000000  0.601123  0.250000  1
  Sn  Sn13  1  0.000000  0.398877  0.750000  1
  Sn  Sn14  1  0.607021  0.603685  0.750000  1
  Sn  Sn15  1  0.607021  0.003337  0.250000  1
