# generated using pymatgen
data_Nd3Tm(AsPt)4
_symmetry_space_group_name_H-M   'P 1'
_cell_length_a   4.31203300
_cell_length_b   4.31203365
_cell_length_c   16.04350800
_cell_angle_alpha   90.00000000
_cell_angle_beta   90.00000000
_cell_angle_gamma   120.00001806
_symmetry_Int_Tables_number   1
_chemical_formula_structural   Nd3Tm(AsPt)4
_chemical_formula_sum   'Nd3 Tm1 As4 Pt4'
_cell_volume   258.34145701
_cell_formula_units_Z   1
loop_
 _symmetry_equiv_pos_site_id
 _symmetry_equiv_pos_as_xyz
  1  'x, y, z'
loop_
 _atom_site_type_symbol
 _atom_site_label
 _atom_site_symmetry_multiplicity
 _atom_site_fract_x
 _atom_site_fract_y
 _atom_site_fract_z
 _atom_site_occupancy
  Nd  Nd0  1  0.000000  0.000000  0.507024  1
  Nd  Nd1  1  0.000000  0.000000  0.992976  1
  Nd  Nd2  1  0.000000  0.000000  0.250000  1
  Tm  Tm3  1  0.000000  0.000000  0.750000  1
  As  As4  1  0.333333  0.666667  0.877471  1
  As  As5  1  0.666667  0.333333  0.118423  1
  As  As6  1  0.666667  0.333333  0.381577  1
  As  As7  1  0.333333  0.666667  0.622529  1
  Pt  Pt8  1  0.333333  0.666667  0.374814  1
  Pt  Pt9  1  0.666667  0.333333  0.648884  1
  Pt  Pt10  1  0.666667  0.333333  0.851116  1
  Pt  Pt11  1  0.333333  0.666667  0.125186  1
