# generated using pymatgen
data_Nd6Ho2Co3P12Rh13
_symmetry_space_group_name_H-M   'P 1'
_cell_length_a   3.97330800
_cell_length_b   11.34133572
_cell_length_c   13.11562497
_cell_angle_alpha   89.87952548
_cell_angle_beta   90.00000000
_cell_angle_gamma   90.00000000
_symmetry_Int_Tables_number   1
_chemical_formula_structural   Nd6Ho2Co3P12Rh13
_chemical_formula_sum   'Nd6 Ho2 Co3 P12 Rh13'
_cell_volume   591.02311718
_cell_formula_units_Z   1
loop_
 _symmetry_equiv_pos_site_id
 _symmetry_equiv_pos_as_xyz
  1  'x, y, z'
loop_
 _atom_site_type_symbol
 _atom_site_label
 _atom_site_symmetry_multiplicity
 _atom_site_fract_x
 _atom_site_fract_y
 _atom_site_fract_z
 _atom_site_occupancy
  Nd  Nd0  1  0.000000  0.501381  0.524465  1
  Nd  Nd1  1  0.500000  0.001857  0.474483  1
  Nd  Nd2  1  0.500000  0.821385  0.202742  1
  Nd  Nd3  1  0.500000  0.176721  0.203260  1
  Nd  Nd4  1  0.000000  0.677048  0.798250  1
  Nd  Nd5  1  0.000000  0.322883  0.797499  1
  Ho  Ho6  1  0.500000  0.498131  0.160005  1
  Ho  Ho7  1  0.000000  0.000882  0.840979  1
  Co  Co8  1  0.000000  0.499120  0.990801  1
  Co  Co9  1  0.500000  0.999764  0.011053  1
  Co  Co10  1  0.000000  0.371773  0.293584  1
  P  P11  1  0.500000  0.499348  0.889737  1
  P  P12  1  0.000000  0.999457  0.111095  1
  P  P13  1  0.500000  0.497156  0.361312  1
  P  P14  1  0.000000  0.001134  0.637132  1
  P  P15  1  0.500000  0.310852  0.614465  1
  P  P16  1  0.500000  0.690661  0.616364  1
  P  P17  1  0.000000  0.196654  0.379686  1
  P  P18  1  0.000000  0.808734  0.383767  1
  P  P19  1  0.500000  0.843407  0.894509  1
  P  P20  1  0.500000  0.156967  0.895309  1
  P  P21  1  0.000000  0.655411  0.106092  1
  P  P22  1  0.000000  0.342389  0.111839  1
  Rh  Rh23  1  0.500000  0.499856  0.705896  1
  Rh  Rh24  1  0.000000  0.999215  0.294177  1
  Rh  Rh25  1  0.500000  0.332603  0.993912  1
  Rh  Rh26  1  0.500000  0.666511  0.993669  1
  Rh  Rh27  1  0.000000  0.167623  0.008437  1
  Rh  Rh28  1  0.000000  0.832522  0.007427  1
  Rh  Rh29  1  0.500000  0.296663  0.428269  1
  Rh  Rh30  1  0.500000  0.709086  0.432703  1
  Rh  Rh31  1  0.000000  0.211551  0.564225  1
  Rh  Rh32  1  0.000000  0.791598  0.567153  1
  Rh  Rh33  1  0.500000  0.874956  0.704539  1
  Rh  Rh34  1  0.500000  0.126171  0.702400  1
  Rh  Rh35  1  0.000000  0.618528  0.298765  1
