# generated using pymatgen
data_RbZn2In3Br8
_symmetry_space_group_name_H-M   'P 1'
_cell_length_a   7.65694500
_cell_length_b   7.42526327
_cell_length_c   9.57721567
_cell_angle_alpha   71.09359647
_cell_angle_beta   90.00000000
_cell_angle_gamma   90.00000000
_symmetry_Int_Tables_number   1
_chemical_formula_structural   RbZn2In3Br8
_chemical_formula_sum   'Rb1 Zn2 In3 Br8'
_cell_volume   515.13416254
_cell_formula_units_Z   1
loop_
 _symmetry_equiv_pos_site_id
 _symmetry_equiv_pos_as_xyz
  1  'x, y, z'
loop_
 _atom_site_type_symbol
 _atom_site_label
 _atom_site_symmetry_multiplicity
 _atom_site_fract_x
 _atom_site_fract_y
 _atom_site_fract_z
 _atom_site_occupancy
  Rb  Rb0  1  0.750000  0.209305  0.577495  1
  Zn  Zn1  1  0.750000  0.719388  0.205728  1
  Zn  Zn2  1  0.250000  0.282028  0.795216  1
  In  In3  1  0.250000  0.752321  0.432144  1
  In  In4  1  0.750000  0.282194  0.043658  1
  In  In5  1  0.250000  0.719164  0.954887  1
  Br  Br6  1  0.750000  0.905197  0.944400  1
  Br  Br7  1  0.250000  0.097232  0.055929  1
  Br  Br8  1  0.750000  0.933886  0.350900  1
  Br  Br9  1  0.250000  0.072720  0.644078  1
  Br  Br10  1  0.004797  0.512339  0.265844  1
  Br  Br11  1  0.498350  0.500943  0.731938  1
  Br  Br12  1  0.001650  0.500943  0.731938  1
  Br  Br13  1  0.495203  0.512339  0.265844  1
