# generated using pymatgen
data_Y9Th3IrOs3
_symmetry_space_group_name_H-M   'P 1'
_cell_length_a   6.42569235
_cell_length_b   7.34368313
_cell_length_c   9.46716900
_cell_angle_alpha   90.00000000
_cell_angle_beta   90.00000000
_cell_angle_gamma   90.64284356
_symmetry_Int_Tables_number   1
_chemical_formula_structural   Y9Th3IrOs3
_chemical_formula_sum   'Y9 Th3 Ir1 Os3'
_cell_volume   446.71100493
_cell_formula_units_Z   1
loop_
 _symmetry_equiv_pos_site_id
 _symmetry_equiv_pos_as_xyz
  1  'x, y, z'
loop_
 _atom_site_type_symbol
 _atom_site_label
 _atom_site_symmetry_multiplicity
 _atom_site_fract_x
 _atom_site_fract_y
 _atom_site_fract_z
 _atom_site_occupancy
  Y  Y0  1  0.333095  0.672479  0.065390  1
  Y  Y1  1  0.170908  0.176064  0.432482  1
  Y  Y2  1  0.665025  0.324810  0.564094  1
  Y  Y3  1  0.832991  0.827056  0.933460  1
  Y  Y4  1  0.665025  0.324810  0.935906  1
  Y  Y5  1  0.832991  0.827056  0.566540  1
  Y  Y6  1  0.333095  0.672479  0.434610  1
  Y  Y7  1  0.170908  0.176064  0.067518  1
  Y  Y8  1  0.638516  0.034727  0.250000  1
  Th  Th9  1  0.845357  0.546789  0.250000  1
  Th  Th10  1  0.149821  0.453332  0.750000  1
  Th  Th11  1  0.351366  0.954834  0.750000  1
  Ir  Ir12  1  0.046022  0.873129  0.250000  1
  Os  Os13  1  0.466869  0.379623  0.250000  1
  Os  Os14  1  0.964252  0.127955  0.750000  1
  Os  Os15  1  0.533759  0.628799  0.750000  1
