# generated using pymatgen
data_Y9Tm3Tc4
_symmetry_space_group_name_H-M   'P 1'
_cell_length_a   6.26669765
_cell_length_b   7.47588121
_cell_length_c   9.12973503
_cell_angle_alpha   90.16169260
_cell_angle_beta   90.17402141
_cell_angle_gamma   90.05609001
_symmetry_Int_Tables_number   1
_chemical_formula_structural   Y9Tm3Tc4
_chemical_formula_sum   'Y9 Tm3 Tc4'
_cell_volume   427.71586835
_cell_formula_units_Z   1
loop_
 _symmetry_equiv_pos_site_id
 _symmetry_equiv_pos_as_xyz
  1  'x, y, z'
loop_
 _atom_site_type_symbol
 _atom_site_label
 _atom_site_symmetry_multiplicity
 _atom_site_fract_x
 _atom_site_fract_y
 _atom_site_fract_z
 _atom_site_occupancy
  Y  Y0  1  0.627912  0.043032  0.245877  1
  Y  Y1  1  0.373732  0.958899  0.753009  1
  Y  Y2  1  0.127047  0.458211  0.753012  1
  Y  Y3  1  0.872225  0.540585  0.247725  1
  Y  Y4  1  0.842845  0.826333  0.563480  1
  Y  Y5  1  0.344440  0.676379  0.062104  1
  Y  Y6  1  0.159426  0.174675  0.436659  1
  Y  Y7  1  0.342769  0.674475  0.437287  1
  Y  Y8  1  0.658957  0.324478  0.563053  1
  Tm  Tm9  1  0.153477  0.173695  0.062319  1
  Tm  Tm10  1  0.843489  0.825387  0.937460  1
  Tm  Tm11  1  0.654645  0.325095  0.936864  1
  Tc  Tc12  1  0.456034  0.383041  0.245421  1
  Tc  Tc13  1  0.546982  0.615172  0.752208  1
  Tc  Tc14  1  0.955523  0.115540  0.756023  1
  Tc  Tc15  1  0.040498  0.885001  0.247499  1
