# generated using pymatgen
data_Tb3Cd17
_symmetry_space_group_name_H-M   'P 1'
_cell_length_a   13.59360634
_cell_length_b   13.59360599
_cell_length_c   13.59360600
_cell_angle_alpha   109.47122064
_cell_angle_beta   109.47122014
_cell_angle_gamma   109.47121954
_symmetry_Int_Tables_number   1
_chemical_formula_structural   Tb3Cd17
_chemical_formula_sum   'Tb12 Cd68'
_cell_volume   1933.66912345
_cell_formula_units_Z   4
loop_
 _symmetry_equiv_pos_site_id
 _symmetry_equiv_pos_as_xyz
  1  'x, y, z'
loop_
 _atom_site_type_symbol
 _atom_site_label
 _atom_site_symmetry_multiplicity
 _atom_site_fract_x
 _atom_site_fract_y
 _atom_site_fract_z
 _atom_site_occupancy
  Tb  Tb0  1  0.300240  0.811899  0.112140  1
  Tb  Tb1  1  0.488341  0.300240  0.188100  1
  Tb  Tb2  1  0.887860  0.699759  0.188100  1
  Tb  Tb3  1  0.811899  0.112140  0.300240  1
  Tb  Tb4  1  0.188100  0.488341  0.300240  1
  Tb  Tb5  1  0.300240  0.188100  0.488341  1
  Tb  Tb6  1  0.699759  0.811899  0.511659  1
  Tb  Tb7  1  0.811899  0.511659  0.699759  1
  Tb  Tb8  1  0.188100  0.887860  0.699759  1
  Tb  Tb9  1  0.112140  0.300240  0.811899  1
  Tb  Tb10  1  0.511659  0.699759  0.811899  1
  Tb  Tb11  1  0.699759  0.188100  0.887860  1
  Cd  Cd12  1  0.316942  0.000000  0.000000  1
  Cd  Cd13  1  0.683059  0.000000  0.000000  1
  Cd  Cd14  1  0.000000  0.316942  0.000000  1
  Cd  Cd15  1  0.403388  0.403388  0.000000  1
  Cd  Cd16  1  0.596612  0.596612  0.000000  1
  Cd  Cd17  1  0.000000  0.683059  0.000000  1
  Cd  Cd18  1  0.656182  0.404302  0.060483  1
  Cd  Cd19  1  0.222822  0.539535  0.083783  1
  Cd  Cd20  1  0.544249  0.860960  0.083783  1
  Cd  Cd21  1  0.228925  0.319144  0.090220  1
  Cd  Cd22  1  0.771076  0.861297  0.090220  1
  Cd  Cd23  1  0.909780  0.228925  0.138704  1
  Cd  Cd24  1  0.683289  0.222823  0.139041  1
  Cd  Cd25  1  0.916217  0.455752  0.139041  1
  Cd  Cd26  1  0.500000  0.687500  0.187501  1
  Cd  Cd27  1  0.539535  0.083783  0.222822  1
  Cd  Cd28  1  0.139041  0.683289  0.222823  1
  Cd  Cd29  1  0.319144  0.090220  0.228925  1
  Cd  Cd30  1  0.138704  0.909780  0.228925  1
  Cd  Cd31  1  0.656182  0.595698  0.251880  1
  Cd  Cd32  1  0.812499  0.500000  0.312499  1
  Cd  Cd33  1  0.455752  0.539535  0.316712  1
  Cd  Cd34  1  0.777178  0.860960  0.316712  1
  Cd  Cd35  1  0.000000  0.000000  0.316942  1
  Cd  Cd36  1  0.316942  0.316942  0.316942  1
  Cd  Cd37  1  0.090220  0.228925  0.319144  1
  Cd  Cd38  1  0.404302  0.748120  0.343818  1
  Cd  Cd39  1  0.595698  0.939516  0.343818  1
  Cd  Cd40  1  0.748120  0.343818  0.404302  1
  Cd  Cd41  1  0.060483  0.656182  0.404302  1
  Cd  Cd42  1  0.403388  0.000000  0.403388  1
  Cd  Cd43  1  0.000000  0.403388  0.403388  1
  Cd  Cd44  1  0.539535  0.316712  0.455752  1
  Cd  Cd45  1  0.139041  0.916217  0.455752  1
  Cd  Cd46  1  0.683289  0.544249  0.460466  1
  Cd  Cd47  1  0.916217  0.777178  0.460466  1
  Cd  Cd48  1  0.687500  0.187501  0.500000  1
  Cd  Cd49  1  0.312499  0.812499  0.500000  1
  Cd  Cd50  1  0.083783  0.222822  0.539535  1
  Cd  Cd51  1  0.316712  0.455752  0.539535  1
  Cd  Cd52  1  0.860960  0.083783  0.544249  1
  Cd  Cd53  1  0.460466  0.683289  0.544249  1
  Cd  Cd54  1  0.596612  0.000000  0.596612  1
  Cd  Cd55  1  0.000000  0.596612  0.596612  1
  Cd  Cd56  1  0.939516  0.343818  0.595698  1
  Cd  Cd57  1  0.251880  0.656182  0.595698  1
  Cd  Cd58  1  0.404302  0.060483  0.656182  1
  Cd  Cd59  1  0.595698  0.251880  0.656182  1
  Cd  Cd60  1  0.909780  0.771075  0.680855  1
  Cd  Cd61  1  0.000000  0.000000  0.683059  1
  Cd  Cd62  1  0.683059  0.683059  0.683059  1
  Cd  Cd63  1  0.222823  0.139041  0.683289  1
  Cd  Cd64  1  0.544249  0.460466  0.683289  1
  Cd  Cd65  1  0.187501  0.500000  0.687500  1
  Cd  Cd66  1  0.343818  0.404302  0.748120  1
  Cd  Cd67  1  0.861297  0.090220  0.771076  1
  Cd  Cd68  1  0.680855  0.909780  0.771075  1
  Cd  Cd69  1  0.860960  0.316712  0.777178  1
  Cd  Cd70  1  0.460466  0.916217  0.777178  1
  Cd  Cd71  1  0.500000  0.312499  0.812499  1
  Cd  Cd72  1  0.083783  0.544249  0.860960  1
  Cd  Cd73  1  0.316712  0.777178  0.860960  1
  Cd  Cd74  1  0.090220  0.771076  0.861297  1
  Cd  Cd75  1  0.228925  0.138704  0.909780  1
  Cd  Cd76  1  0.771075  0.680855  0.909780  1
  Cd  Cd77  1  0.455752  0.139041  0.916217  1
  Cd  Cd78  1  0.777178  0.460466  0.916217  1
  Cd  Cd79  1  0.343818  0.595698  0.939516  1
