# generated using pymatgen
data_Sm7Lu3(Sn3Cl)2
_symmetry_space_group_name_H-M   'P 1'
_cell_length_a   9.22367900
_cell_length_b   9.22367846
_cell_length_c   6.58783700
_cell_angle_alpha   90.00000000
_cell_angle_beta   90.00000000
_cell_angle_gamma   119.99999834
_symmetry_Int_Tables_number   1
_chemical_formula_structural   Sm7Lu3(Sn3Cl)2
_chemical_formula_sum   'Sm7 Lu3 Sn6 Cl2'
_cell_volume   485.37993537
_cell_formula_units_Z   1
loop_
 _symmetry_equiv_pos_site_id
 _symmetry_equiv_pos_as_xyz
  1  'x, y, z'
loop_
 _atom_site_type_symbol
 _atom_site_label
 _atom_site_symmetry_multiplicity
 _atom_site_fract_x
 _atom_site_fract_y
 _atom_site_fract_z
 _atom_site_occupancy
  Sm  Sm0  1  0.666667  0.333333  0.000000  1
  Sm  Sm1  1  0.738431  0.999792  0.749506  1
  Sm  Sm2  1  0.738431  0.738639  0.250494  1
  Sm  Sm3  1  0.000208  0.261569  0.250494  1
  Sm  Sm4  1  0.000208  0.738639  0.749506  1
  Sm  Sm5  1  0.261361  0.261569  0.749506  1
  Sm  Sm6  1  0.261361  0.999792  0.250494  1
  Lu  Lu7  1  0.333333  0.666667  0.500000  1
  Lu  Lu8  1  0.666667  0.333333  0.500000  1
  Lu  Lu9  1  0.333333  0.666667  0.000000  1
  Sn  Sn10  1  0.606653  0.609302  0.748139  1
  Sn  Sn11  1  0.002650  0.609302  0.251861  1
  Sn  Sn12  1  0.606653  0.997350  0.251861  1
  Sn  Sn13  1  0.390698  0.997350  0.748139  1
  Sn  Sn14  1  0.002650  0.393347  0.748139  1
  Sn  Sn15  1  0.390698  0.393347  0.251861  1
  Cl  Cl16  1  0.000000  0.000000  0.500000  1
  Cl  Cl17  1  0.000000  0.000000  0.000000  1
