# generated using pymatgen
data_DyErCuSi3
_symmetry_space_group_name_H-M   'P 1'
_cell_length_a   7.99187479
_cell_length_b   7.96647550
_cell_length_c   5.66805392
_cell_angle_alpha   69.43584775
_cell_angle_beta   69.07481782
_cell_angle_gamma   41.60831908
_symmetry_Int_Tables_number   1
_chemical_formula_structural   DyErCuSi3
_chemical_formula_sum   'Dy2 Er2 Cu2 Si6'
_cell_volume   221.75225806
_cell_formula_units_Z   2
loop_
 _symmetry_equiv_pos_site_id
 _symmetry_equiv_pos_as_xyz
  1  'x, y, z'
loop_
 _atom_site_type_symbol
 _atom_site_label
 _atom_site_symmetry_multiplicity
 _atom_site_fract_x
 _atom_site_fract_y
 _atom_site_fract_z
 _atom_site_occupancy
  Dy  Dy0  1  0.743534  0.256466  0.743535  1
  Dy  Dy1  1  0.750067  0.749933  0.750068  1
  Er  Er2  1  0.249924  0.250076  0.249925  1
  Er  Er3  1  0.256489  0.743511  0.256490  1
  Cu  Cu4  1  0.833408  0.833300  0.166683  1
  Cu  Cu5  1  0.166683  0.166609  0.833408  1
  Si  Si6  1  0.840008  0.328849  0.160058  1
  Si  Si7  1  0.671104  0.160087  0.328813  1
  Si  Si8  1  0.668591  0.668529  0.331318  1
  Si  Si9  1  0.331317  0.331562  0.668592  1
  Si  Si10  1  0.328813  0.839995  0.671104  1
  Si  Si11  1  0.160058  0.671087  0.840007  1
