# generated using pymatgen
data_Zr8Co2CuHgN2
_symmetry_space_group_name_H-M   'P 1'
_cell_length_a   8.77810672
_cell_length_b   8.77810612
_cell_length_c   8.74466600
_cell_angle_alpha   60.12593716
_cell_angle_beta   60.12593939
_cell_angle_gamma   60.31628918
_symmetry_Int_Tables_number   1
_chemical_formula_structural   Zr8Co2CuHgN2
_chemical_formula_sum   'Zr16 Co4 Cu2 Hg2 N4'
_cell_volume   478.50373364
_cell_formula_units_Z   2
loop_
 _symmetry_equiv_pos_site_id
 _symmetry_equiv_pos_as_xyz
  1  'x, y, z'
loop_
 _atom_site_type_symbol
 _atom_site_label
 _atom_site_symmetry_multiplicity
 _atom_site_fract_x
 _atom_site_fract_y
 _atom_site_fract_z
 _atom_site_occupancy
  Zr  Zr0  1  0.070687  0.638000  0.645656  1
  Zr  Zr1  1  0.638000  0.070687  0.645656  1
  Zr  Zr2  1  0.644112  0.644112  0.062253  1
  Zr  Zr3  1  0.644112  0.644112  0.649522  1
  Zr  Zr4  1  0.817917  0.817917  0.182083  1
  Zr  Zr5  1  0.182552  0.182552  0.817448  1
  Zr  Zr6  1  0.817750  0.181622  0.817775  1
  Zr  Zr7  1  0.181622  0.817750  0.182853  1
  Zr  Zr8  1  0.181622  0.817750  0.817775  1
  Zr  Zr9  1  0.817750  0.181622  0.182853  1
  Zr  Zr10  1  0.432834  0.432834  0.067166  1
  Zr  Zr11  1  0.068375  0.068375  0.431625  1
  Zr  Zr12  1  0.432490  0.074384  0.431339  1
  Zr  Zr13  1  0.074384  0.432490  0.061786  1
  Zr  Zr14  1  0.074384  0.432490  0.431339  1
  Zr  Zr15  1  0.432490  0.074384  0.061786  1
  Co  Co16  1  0.439619  0.854788  0.852797  1
  Co  Co17  1  0.854788  0.439619  0.852797  1
  Co  Co18  1  0.852493  0.852493  0.445789  1
  Co  Co19  1  0.852493  0.852493  0.849227  1
  Cu  Cu20  1  0.413915  0.413915  0.753246  1
  Cu  Cu21  1  0.413915  0.413915  0.418923  1
  Hg  Hg22  1  0.745729  0.413958  0.420156  1
  Hg  Hg23  1  0.413958  0.745729  0.420156  1
  N  N24  1  0.624598  0.125544  0.124929  1
  N  N25  1  0.125544  0.624598  0.124929  1
  N  N26  1  0.125933  0.125933  0.622698  1
  N  N27  1  0.125933  0.125933  0.125437  1
