# generated using pymatgen
data_Pr7Nd(Ho3Si4)4
_symmetry_space_group_name_H-M   'P 1'
_cell_length_a   7.52324302
_cell_length_b   7.80058006
_cell_length_c   14.81304616
_cell_angle_alpha   90.01437755
_cell_angle_beta   90.00828190
_cell_angle_gamma   89.99667924
_symmetry_Int_Tables_number   1
_chemical_formula_structural   Pr7Nd(Ho3Si4)4
_chemical_formula_sum   'Pr7 Nd1 Ho12 Si16'
_cell_volume   869.31334559
_cell_formula_units_Z   1
loop_
 _symmetry_equiv_pos_site_id
 _symmetry_equiv_pos_as_xyz
  1  'x, y, z'
loop_
 _atom_site_type_symbol
 _atom_site_label
 _atom_site_symmetry_multiplicity
 _atom_site_fract_x
 _atom_site_fract_y
 _atom_site_fract_z
 _atom_site_occupancy
  Pr  Pr0  1  0.475891  0.679156  0.402087  1
  Pr  Pr1  1  0.524118  0.320847  0.902112  1
  Pr  Pr2  1  0.024114  0.179154  0.597896  1
  Pr  Pr3  1  0.024105  0.179132  0.902121  1
  Pr  Pr4  1  0.524112  0.320853  0.597900  1
  Pr  Pr5  1  0.475867  0.679181  0.097912  1
  Pr  Pr6  1  0.975885  0.820845  0.402101  1
  Nd  Nd7  1  0.975812  0.820714  0.097975  1
  Ho  Ho8  1  0.649837  0.989614  0.249981  1
  Ho  Ho9  1  0.149761  0.510419  0.249977  1
  Ho  Ho10  1  0.850202  0.489631  0.749994  1
  Ho  Ho11  1  0.350211  0.010368  0.749995  1
  Ho  Ho12  1  0.680949  0.821735  0.876738  1
  Ho  Ho13  1  0.180909  0.678259  0.623281  1
  Ho  Ho14  1  0.819125  0.321706  0.123291  1
  Ho  Ho15  1  0.319087  0.178253  0.376703  1
  Ho  Ho16  1  0.319071  0.178223  0.123290  1
  Ho  Ho17  1  0.819097  0.321733  0.376705  1
  Ho  Ho18  1  0.180876  0.678300  0.876729  1
  Ho  Ho19  1  0.680905  0.821746  0.623280  1
  Si  Si20  1  0.769037  0.620613  0.249937  1
  Si  Si21  1  0.268802  0.879437  0.249926  1
  Si  Si22  1  0.731075  0.120522  0.749998  1
  Si  Si23  1  0.231068  0.379485  0.750000  1
  Si  Si24  1  0.024147  0.111992  0.249941  1
  Si  Si25  1  0.524176  0.387880  0.249995  1
  Si  Si26  1  0.475813  0.612106  0.749999  1
  Si  Si27  1  0.975818  0.887890  0.750002  1
  Si  Si28  1  0.856069  0.531266  0.960065  1
  Si  Si29  1  0.356030  0.968886  0.539992  1
  Si  Si30  1  0.644156  0.031019  0.040029  1
  Si  Si31  1  0.143975  0.468889  0.460010  1
  Si  Si32  1  0.143906  0.469054  0.040026  1
  Si  Si33  1  0.643964  0.031112  0.460006  1
  Si  Si34  1  0.356003  0.968866  0.960019  1
  Si  Si35  1  0.856028  0.531116  0.539986  1
