# generated using pymatgen
data_BeSi2Ni5Mo4
_symmetry_space_group_name_H-M   'P 1'
_cell_length_a   4.69963166
_cell_length_b   4.69963115
_cell_length_c   7.54954100
_cell_angle_alpha   90.00000000
_cell_angle_beta   90.00000000
_cell_angle_gamma   119.67711388
_symmetry_Int_Tables_number   1
_chemical_formula_structural   BeSi2Ni5Mo4
_chemical_formula_sum   'Be1 Si2 Ni5 Mo4'
_cell_volume   144.87138950
_cell_formula_units_Z   1
loop_
 _symmetry_equiv_pos_site_id
 _symmetry_equiv_pos_as_xyz
  1  'x, y, z'
loop_
 _atom_site_type_symbol
 _atom_site_label
 _atom_site_symmetry_multiplicity
 _atom_site_fract_x
 _atom_site_fract_y
 _atom_site_fract_z
 _atom_site_occupancy
  Be  Be0  1  0.820254  0.179746  0.250000  1
  Si  Si1  1  0.999507  0.000493  0.499244  1
  Si  Si2  1  0.999507  0.000493  0.000756  1
  Ni  Ni3  1  0.829274  0.665201  0.250000  1
  Ni  Ni4  1  0.334799  0.170726  0.250000  1
  Ni  Ni5  1  0.171599  0.828401  0.750000  1
  Ni  Ni6  1  0.173412  0.336633  0.750000  1
  Ni  Ni7  1  0.663367  0.826588  0.750000  1
  Mo  Mo8  1  0.332697  0.667303  0.432770  1
  Mo  Mo9  1  0.671443  0.328557  0.562743  1
  Mo  Mo10  1  0.671443  0.328557  0.937257  1
  Mo  Mo11  1  0.332697  0.667303  0.067230  1
