# generated using pymatgen
data_Dy2YHo7Bi6
_symmetry_space_group_name_H-M   'P 1'
_cell_length_a   8.25800400
_cell_length_b   9.51423700
_cell_length_c   12.03235200
_cell_angle_alpha   90.00000000
_cell_angle_beta   90.00000000
_cell_angle_gamma   90.00000000
_symmetry_Int_Tables_number   1
_chemical_formula_structural   Dy2YHo7Bi6
_chemical_formula_sum   'Dy4 Y2 Ho14 Bi12'
_cell_volume   945.36513802
_cell_formula_units_Z   2
loop_
 _symmetry_equiv_pos_site_id
 _symmetry_equiv_pos_as_xyz
  1  'x, y, z'
loop_
 _atom_site_type_symbol
 _atom_site_label
 _atom_site_symmetry_multiplicity
 _atom_site_fract_x
 _atom_site_fract_y
 _atom_site_fract_z
 _atom_site_occupancy
  Dy  Dy0  1  0.312512  0.250000  0.218609  1
  Dy  Dy1  1  0.812512  0.250000  0.281391  1
  Dy  Dy2  1  0.687451  0.750000  0.781368  1
  Dy  Dy3  1  0.187451  0.750000  0.718632  1
  Y  Y4  1  0.352452  0.750000  0.215375  1
  Y  Y5  1  0.852452  0.750000  0.284625  1
  Ho  Ho6  1  0.647446  0.250000  0.784408  1
  Ho  Ho7  1  0.147446  0.250000  0.715592  1
  Ho  Ho8  1  0.692703  0.564133  0.058466  1
  Ho  Ho9  1  0.192703  0.935867  0.441534  1
  Ho  Ho10  1  0.307251  0.064288  0.941374  1
  Ho  Ho11  1  0.807251  0.435712  0.558626  1
  Ho  Ho12  1  0.307251  0.435712  0.941374  1
  Ho  Ho13  1  0.807251  0.064288  0.558626  1
  Ho  Ho14  1  0.692703  0.935867  0.058466  1
  Ho  Ho15  1  0.192703  0.564133  0.441534  1
  Ho  Ho16  1  0.475602  0.250000  0.488358  1
  Ho  Ho17  1  0.975602  0.250000  0.011642  1
  Ho  Ho18  1  0.524506  0.750000  0.511810  1
  Ho  Ho19  1  0.024506  0.750000  0.988190  1
  Bi  Bi20  1  0.407176  0.750000  0.957031  1
  Bi  Bi21  1  0.907176  0.750000  0.542969  1
  Bi  Bi22  1  0.592979  0.250000  0.042840  1
  Bi  Bi23  1  0.092979  0.250000  0.457160  1
  Bi  Bi24  1  0.564906  0.995581  0.325516  1
  Bi  Bi25  1  0.064906  0.504419  0.174484  1
  Bi  Bi26  1  0.435078  0.495320  0.674564  1
  Bi  Bi27  1  0.935078  0.004680  0.825436  1
  Bi  Bi28  1  0.435078  0.004680  0.674564  1
  Bi  Bi29  1  0.935078  0.495320  0.825436  1
  Bi  Bi30  1  0.564906  0.504419  0.325516  1
  Bi  Bi31  1  0.064906  0.995581  0.174484  1
