# generated using pymatgen
data_Ho17Lu3(Bi2Sb)4
_symmetry_space_group_name_H-M   'P 1'
_cell_length_a   8.14506045
_cell_length_b   9.39844718
_cell_length_c   11.93250003
_cell_angle_alpha   89.99932268
_cell_angle_beta   90.04844325
_cell_angle_gamma   89.98862277
_symmetry_Int_Tables_number   1
_chemical_formula_structural   Ho17Lu3(Bi2Sb)4
_chemical_formula_sum   'Ho17 Lu3 Bi8 Sb4'
_cell_volume   913.44351524
_cell_formula_units_Z   1
loop_
 _symmetry_equiv_pos_site_id
 _symmetry_equiv_pos_as_xyz
  1  'x, y, z'
loop_
 _atom_site_type_symbol
 _atom_site_label
 _atom_site_symmetry_multiplicity
 _atom_site_fract_x
 _atom_site_fract_y
 _atom_site_fract_z
 _atom_site_occupancy
  Ho  Ho0  1  0.353553  0.749677  0.214134  1
  Ho  Ho1  1  0.853412  0.749810  0.285839  1
  Ho  Ho2  1  0.645628  0.249111  0.786144  1
  Ho  Ho3  1  0.146754  0.249526  0.714420  1
  Ho  Ho4  1  0.811813  0.436558  0.558071  1
  Ho  Ho5  1  0.310917  0.437071  0.941989  1
  Ho  Ho6  1  0.810958  0.062974  0.558225  1
  Ho  Ho7  1  0.689208  0.937058  0.058033  1
  Ho  Ho8  1  0.188822  0.563185  0.441948  1
  Ho  Ho9  1  0.472721  0.249710  0.488136  1
  Ho  Ho10  1  0.973423  0.249944  0.011742  1
  Ho  Ho11  1  0.526261  0.750042  0.511741  1
  Ho  Ho12  1  0.026584  0.749650  0.988397  1
  Ho  Ho13  1  0.316217  0.249632  0.217250  1
  Ho  Ho14  1  0.816219  0.249876  0.282344  1
  Ho  Ho15  1  0.683812  0.749741  0.782656  1
  Ho  Ho16  1  0.183674  0.750203  0.717398  1
  Lu  Lu17  1  0.688054  0.565694  0.058041  1
  Lu  Lu18  1  0.188596  0.934511  0.441733  1
  Lu  Lu19  1  0.311804  0.065471  0.942099  1
  Bi  Bi20  1  0.565918  0.995861  0.325190  1
  Bi  Bi21  1  0.066354  0.503869  0.174532  1
  Bi  Bi22  1  0.433705  0.495893  0.674883  1
  Bi  Bi23  1  0.934000  0.003810  0.825463  1
  Bi  Bi24  1  0.433599  0.003921  0.674707  1
  Bi  Bi25  1  0.933915  0.495623  0.825638  1
  Bi  Bi26  1  0.566567  0.503953  0.325255  1
  Bi  Bi27  1  0.066446  0.995519  0.174502  1
  Sb  Sb28  1  0.405959  0.751937  0.958190  1
  Sb  Sb29  1  0.906798  0.750606  0.541373  1
  Sb  Sb30  1  0.594075  0.252044  0.041950  1
  Sb  Sb31  1  0.094233  0.247517  0.457978  1
