# generated using pymatgen
data_Li4Sm3Dy(Si2Sn)2
_symmetry_space_group_name_H-M   'P 1'
_cell_length_a   9.67164603
_cell_length_b   9.67164488
_cell_length_c   6.78106200
_cell_angle_alpha   90.00000000
_cell_angle_beta   90.00000000
_cell_angle_gamma   153.27994410
_symmetry_Int_Tables_number   1
_chemical_formula_structural   Li4Sm3Dy(Si2Sn)2
_chemical_formula_sum   'Li4 Sm3 Dy1 Si4 Sn2'
_cell_volume   285.20383531
_cell_formula_units_Z   1
loop_
 _symmetry_equiv_pos_site_id
 _symmetry_equiv_pos_as_xyz
  1  'x, y, z'
loop_
 _atom_site_type_symbol
 _atom_site_label
 _atom_site_symmetry_multiplicity
 _atom_site_fract_x
 _atom_site_fract_y
 _atom_site_fract_z
 _atom_site_occupancy
  Li  Li0  1  0.815578  0.184422  0.554080  1
  Li  Li1  1  0.184323  0.815677  0.445773  1
  Li  Li2  1  0.184323  0.815677  0.054227  1
  Li  Li3  1  0.815578  0.184422  0.945920  1
  Sm  Sm4  1  0.451941  0.548059  0.750000  1
  Sm  Sm5  1  0.350813  0.649187  0.250000  1
  Sm  Sm6  1  0.649214  0.350786  0.750000  1
  Dy  Dy7  1  0.548062  0.451938  0.250000  1
  Si  Si8  1  0.942743  0.057257  0.073993  1
  Si  Si9  1  0.057609  0.942391  0.927766  1
  Si  Si10  1  0.057609  0.942391  0.572234  1
  Si  Si11  1  0.942743  0.057257  0.426007  1
  Sn  Sn12  1  0.718388  0.281612  0.250000  1
  Sn  Sn13  1  0.281076  0.718924  0.750000  1
