# generated using pymatgen
data_Pr3NpF12
_symmetry_space_group_name_H-M   'P 1'
_cell_length_a   4.52596404
_cell_length_b   6.90338474
_cell_length_c   7.27817400
_cell_angle_alpha   90.00000000
_cell_angle_beta   90.00000000
_cell_angle_gamma   90.13323930
_symmetry_Int_Tables_number   1
_chemical_formula_structural   Pr3NpF12
_chemical_formula_sum   'Pr3 Np1 F12'
_cell_volume   227.40208241
_cell_formula_units_Z   1
loop_
 _symmetry_equiv_pos_site_id
 _symmetry_equiv_pos_as_xyz
  1  'x, y, z'
loop_
 _atom_site_type_symbol
 _atom_site_label
 _atom_site_symmetry_multiplicity
 _atom_site_fract_x
 _atom_site_fract_y
 _atom_site_fract_z
 _atom_site_occupancy
  Pr  Pr0  1  0.933871  0.632808  0.750000  1
  Pr  Pr1  1  0.435321  0.866305  0.250000  1
  Pr  Pr2  1  0.564713  0.132023  0.750000  1
  Np  Np3  1  0.065628  0.367765  0.250000  1
  F  F4  1  0.391638  0.162736  0.435445  1
  F  F5  1  0.888444  0.336951  0.565515  1
  F  F6  1  0.109559  0.664067  0.064312  1
  F  F7  1  0.609975  0.836783  0.934821  1
  F  F8  1  0.575573  0.520559  0.250000  1
  F  F9  1  0.074894  0.982272  0.750000  1
  F  F10  1  0.926749  0.015673  0.250000  1
  F  F11  1  0.424022  0.481522  0.750000  1
  F  F12  1  0.391638  0.162736  0.064555  1
  F  F13  1  0.888444  0.336951  0.934485  1
  F  F14  1  0.109559  0.664067  0.435688  1
  F  F15  1  0.609975  0.836783  0.565179  1
