# generated using pymatgen
data_Ta3Ti3Co16Si6P
_symmetry_space_group_name_H-M   'P 1'
_cell_length_a   7.86610333
_cell_length_b   7.84426645
_cell_length_c   7.84700584
_cell_angle_alpha   60.24115821
_cell_angle_beta   59.89640389
_cell_angle_gamma   59.93093705
_symmetry_Int_Tables_number   1
_chemical_formula_structural   Ta3Ti3Co16Si6P
_chemical_formula_sum   'Ta3 Ti3 Co16 Si6 P1'
_cell_volume   342.54382799
_cell_formula_units_Z   1
loop_
 _symmetry_equiv_pos_site_id
 _symmetry_equiv_pos_as_xyz
  1  'x, y, z'
loop_
 _atom_site_type_symbol
 _atom_site_label
 _atom_site_symmetry_multiplicity
 _atom_site_fract_x
 _atom_site_fract_y
 _atom_site_fract_z
 _atom_site_occupancy
  Ta  Ta0  1  0.200655  0.799761  0.799271  1
  Ta  Ta1  1  0.800178  0.797756  0.202244  1
  Ta  Ta2  1  0.799687  0.200729  0.200239  1
  Ti  Ti3  1  0.201792  0.203925  0.796075  1
  Ti  Ti4  1  0.798463  0.204159  0.795841  1
  Ti  Ti5  1  0.202770  0.796731  0.203269  1
  Co  Co6  1  0.619067  0.618403  0.144363  1
  Co  Co7  1  0.165811  0.501947  0.166265  1
  Co  Co8  1  0.857112  0.380412  0.380029  1
  Co  Co9  1  0.497329  0.836730  0.837757  1
  Co  Co10  1  0.501708  0.162918  0.162956  1
  Co  Co11  1  0.834025  0.833735  0.498053  1
  Co  Co12  1  0.165362  0.165494  0.502873  1
  Co  Co13  1  0.142138  0.620316  0.620015  1
  Co  Co14  1  0.171816  0.162243  0.163270  1
  Co  Co15  1  0.381338  0.381318  0.856129  1
  Co  Co16  1  0.617553  0.619971  0.619588  1
  Co  Co17  1  0.381833  0.855637  0.381597  1
  Co  Co18  1  0.382469  0.379985  0.379684  1
  Co  Co19  1  0.827581  0.837044  0.837082  1
  Co  Co20  1  0.618785  0.143871  0.618682  1
  Co  Co21  1  0.833730  0.497127  0.834506  1
  Si  Si22  1  0.498132  0.001671  0.501860  1
  Si  Si23  1  0.499950  0.499916  0.999975  1
  Si  Si24  1  0.499337  0.499358  0.500642  1
  Si  Si25  1  0.999841  0.000025  0.500084  1
  Si  Si26  1  0.001663  0.498140  0.998329  1
  Si  Si27  1  0.001550  0.498340  0.501660  1
  P  P28  1  0.498327  0.002340  0.997660  1
