# generated using pymatgen
data_Li2Nd16Cd2Co3Ir
_symmetry_space_group_name_H-M   'P 1'
_cell_length_a   9.94141900
_cell_length_b   9.83990000
_cell_length_c   9.85961700
_cell_angle_alpha   59.93368321
_cell_angle_beta   60.27181216
_cell_angle_gamma   60.28736211
_symmetry_Int_Tables_number   1
_chemical_formula_structural   Li2Nd16Cd2Co3Ir
_chemical_formula_sum   'Li2 Nd16 Cd2 Co3 Ir1'
_cell_volume   684.52069484
_cell_formula_units_Z   1
loop_
 _symmetry_equiv_pos_site_id
 _symmetry_equiv_pos_as_xyz
  1  'x, y, z'
loop_
 _atom_site_type_symbol
 _atom_site_label
 _atom_site_symmetry_multiplicity
 _atom_site_fract_x
 _atom_site_fract_y
 _atom_site_fract_z
 _atom_site_occupancy
  Li  Li0  1  0.571310  0.570159  0.575740  1
  Li  Li1  1  0.571310  0.570159  0.282791  1
  Nd  Nd2  1  0.338160  0.351231  0.350540  1
  Nd  Nd3  1  0.338160  0.351231  0.960071  1
  Nd  Nd4  1  0.338151  0.963909  0.348970  1
  Nd  Nd5  1  0.967784  0.345411  0.343402  1
  Nd  Nd6  1  0.818865  0.187526  0.189115  1
  Nd  Nd7  1  0.191013  0.812170  0.809956  1
  Nd  Nd8  1  0.191013  0.812170  0.186861  1
  Nd  Nd9  1  0.818865  0.187526  0.804494  1
  Nd  Nd10  1  0.194735  0.188933  0.808166  1
  Nd  Nd11  1  0.821721  0.809547  0.184366  1
  Nd  Nd12  1  0.936486  0.562539  0.563467  1
  Nd  Nd13  1  0.563892  0.938589  0.940164  1
  Nd  Nd14  1  0.563892  0.938589  0.557355  1
  Nd  Nd15  1  0.936486  0.562539  0.937507  1
  Nd  Nd16  1  0.564169  0.555230  0.940301  1
  Nd  Nd17  1  0.935408  0.939500  0.562546  1
  Cd  Cd18  1  0.582242  0.258707  0.579525  1
  Cd  Cd19  1  0.256765  0.582692  0.580272  1
  Co  Co20  1  0.140063  0.143952  0.139978  1
  Co  Co21  1  0.140063  0.143952  0.576006  1
  Co  Co22  1  0.141863  0.579291  0.139422  1
  Ir  Ir23  1  0.577585  0.144447  0.138984  1
