# generated using pymatgen
data_Ta6ReSi6TcW4
_symmetry_space_group_name_H-M   'P 1'
_cell_length_a   7.68150075
_cell_length_b   7.68577193
_cell_length_c   7.68082282
_cell_angle_alpha   126.53553710
_cell_angle_beta   128.31543710
_cell_angle_gamma   77.55464312
_symmetry_Int_Tables_number   1
_chemical_formula_structural   Ta6ReSi6TcW4
_chemical_formula_sum   'Ta6 Re1 Si6 Tc1 W4'
_cell_volume   277.26032673
_cell_formula_units_Z   1
loop_
 _symmetry_equiv_pos_site_id
 _symmetry_equiv_pos_as_xyz
  1  'x, y, z'
loop_
 _atom_site_type_symbol
 _atom_site_label
 _atom_site_symmetry_multiplicity
 _atom_site_fract_x
 _atom_site_fract_y
 _atom_site_fract_z
 _atom_site_occupancy
  Ta  Ta0  1  0.548650  0.092023  0.047064  1
  Ta  Ta1  1  0.451136  0.503872  0.551276  1
  Ta  Ta2  1  0.952123  0.502572  0.051551  1
  Ta  Ta3  1  0.044650  0.093084  0.544525  1
  Ta  Ta4  1  0.754776  0.896617  0.646027  1
  Ta  Ta5  1  0.248824  0.895243  0.140784  1
  Re  Re6  1  0.372174  0.496726  0.126369  1
  Si  Si7  1  0.746395  0.490065  0.239856  1
  Si  Si8  1  0.250495  0.490853  0.745404  1
  Si  Si9  1  0.335899  0.834233  0.497358  1
  Si  Si10  1  0.663902  0.166283  0.500646  1
  Si  Si11  1  0.834609  0.832093  0.997356  1
  Si  Si12  1  0.168676  0.167698  0.000012  1
  Tc  Tc13  1  0.499030  0.238455  0.738744  1
  W  W14  1  0.001403  0.237559  0.237479  1
  W  W15  1  0.129122  0.754820  0.626180  1
  W  W16  1  0.869888  0.496929  0.626312  1
  W  W17  1  0.628248  0.753070  0.125256  1
