# generated using pymatgen
data_Ho3ErTm4In3Ru
_symmetry_space_group_name_H-M   'P 1'
_cell_length_a   10.27172600
_cell_length_b   10.27172580
_cell_length_c   7.03602200
_cell_angle_alpha   90.00000000
_cell_angle_beta   90.00000000
_cell_angle_gamma   119.99999421
_symmetry_Int_Tables_number   1
_chemical_formula_structural   Ho3ErTm4In3Ru
_chemical_formula_sum   'Ho6 Er2 Tm8 In6 Ru2'
_cell_volume   642.90187029
_cell_formula_units_Z   2
loop_
 _symmetry_equiv_pos_site_id
 _symmetry_equiv_pos_as_xyz
  1  'x, y, z'
loop_
 _atom_site_type_symbol
 _atom_site_label
 _atom_site_symmetry_multiplicity
 _atom_site_fract_x
 _atom_site_fract_y
 _atom_site_fract_z
 _atom_site_occupancy
  Ho  Ho0  1  0.532751  0.065502  0.794071  1
  Ho  Ho1  1  0.934498  0.467249  0.794071  1
  Ho  Ho2  1  0.532751  0.467249  0.794071  1
  Ho  Ho3  1  0.467249  0.934498  0.294071  1
  Ho  Ho4  1  0.065502  0.532751  0.294071  1
  Ho  Ho5  1  0.467249  0.532751  0.294071  1
  Er  Er6  1  0.000000  0.000000  0.777804  1
  Er  Er7  1  0.000000  0.000000  0.277804  1
  Tm  Tm8  1  0.822452  0.644906  0.497432  1
  Tm  Tm9  1  0.355094  0.177548  0.497432  1
  Tm  Tm10  1  0.822452  0.177548  0.497432  1
  Tm  Tm11  1  0.177548  0.355094  0.997432  1
  Tm  Tm12  1  0.644906  0.822452  0.997432  1
  Tm  Tm13  1  0.177548  0.822452  0.997432  1
  Tm  Tm14  1  0.666667  0.333333  0.172582  1
  Tm  Tm15  1  0.333333  0.666667  0.672582  1
  In  In16  1  0.837178  0.674356  0.042040  1
  In  In17  1  0.325644  0.162822  0.042040  1
  In  In18  1  0.837178  0.162822  0.042040  1
  In  In19  1  0.162822  0.325644  0.542040  1
  In  In20  1  0.674356  0.837178  0.542040  1
  In  In21  1  0.162822  0.837178  0.542040  1
  Ru  Ru22  1  0.666667  0.333333  0.566938  1
  Ru  Ru23  1  0.333333  0.666667  0.066938  1
