# generated using pymatgen
data_CaAg5(PO4)4
_symmetry_space_group_name_H-M   'P 1'
_cell_length_a   5.51616059
_cell_length_b   9.08511868
_cell_length_c   8.05235903
_cell_angle_alpha   88.05090522
_cell_angle_beta   95.07012345
_cell_angle_gamma   92.34908688
_symmetry_Int_Tables_number   1
_chemical_formula_structural   CaAg5(PO4)4
_chemical_formula_sum   'Ca1 Ag5 P4 O16'
_cell_volume   401.43974482
_cell_formula_units_Z   1
loop_
 _symmetry_equiv_pos_site_id
 _symmetry_equiv_pos_as_xyz
  1  'x, y, z'
loop_
 _atom_site_type_symbol
 _atom_site_label
 _atom_site_symmetry_multiplicity
 _atom_site_fract_x
 _atom_site_fract_y
 _atom_site_fract_z
 _atom_site_occupancy
  Ca  Ca0  1  0.500002  0.499897  0.500002  1
  Ag  Ag1  1  0.342265  0.126273  0.608100  1
  Ag  Ag2  1  0.658811  0.873877  0.392285  1
  Ag  Ag3  1  0.000037  0.999956  0.000066  1
  Ag  Ag4  1  0.202933  0.623104  0.907227  1
  Ag  Ag5  1  0.796375  0.377237  0.092308  1
  P  P6  1  0.017794  0.694169  0.275838  1
  P  P7  1  0.433993  0.190140  0.210106  1
  P  P8  1  0.566018  0.809826  0.789744  1
  P  P9  1  0.982216  0.305765  0.724229  1
  O  O10  1  0.970126  0.594489  0.118707  1
  O  O11  1  0.502990  0.089262  0.368849  1
  O  O12  1  0.497769  0.910708  0.630978  1
  O  O13  1  0.029627  0.405801  0.881152  1
  O  O14  1  0.050562  0.142013  0.778620  1
  O  O15  1  0.506893  0.646026  0.740573  1
  O  O16  1  0.492612  0.353833  0.259479  1
  O  O17  1  0.949654  0.857991  0.221651  1
  O  O18  1  0.159219  0.171233  0.156267  1
  O  O19  1  0.278829  0.682255  0.350418  1
  O  O20  1  0.721253  0.317508  0.649458  1
  O  O21  1  0.840652  0.828495  0.844076  1
  O  O22  1  0.173399  0.348752  0.597238  1
  O  O23  1  0.397235  0.839307  0.928289  1
  O  O24  1  0.601933  0.160779  0.071280  1
  O  O25  1  0.826806  0.651306  0.403060  1
