# generated using pymatgen
data_Eu2Mg2PtRh
_symmetry_space_group_name_H-M   'P 1'
_cell_length_a   4.33298900
_cell_length_b   7.38545895
_cell_length_c   8.58063488
_cell_angle_alpha   89.87260627
_cell_angle_beta   90.00000000
_cell_angle_gamma   90.00000000
_symmetry_Int_Tables_number   1
_chemical_formula_structural   Eu2Mg2PtRh
_chemical_formula_sum   'Eu4 Mg4 Pt2 Rh2'
_cell_volume   274.58918233
_cell_formula_units_Z   2
loop_
 _symmetry_equiv_pos_site_id
 _symmetry_equiv_pos_as_xyz
  1  'x, y, z'
loop_
 _atom_site_type_symbol
 _atom_site_label
 _atom_site_symmetry_multiplicity
 _atom_site_fract_x
 _atom_site_fract_y
 _atom_site_fract_z
 _atom_site_occupancy
  Eu  Eu0  1  0.250000  0.530086  0.172673  1
  Eu  Eu1  1  0.750000  0.469914  0.827327  1
  Eu  Eu2  1  0.750000  0.966592  0.679593  1
  Eu  Eu3  1  0.250000  0.033408  0.320407  1
  Mg  Mg4  1  0.250000  0.638398  0.562196  1
  Mg  Mg5  1  0.750000  0.361602  0.437804  1
  Mg  Mg6  1  0.750000  0.863604  0.058581  1
  Mg  Mg7  1  0.250000  0.136396  0.941419  1
  Pt  Pt8  1  0.750000  0.730206  0.374434  1
  Pt  Pt9  1  0.250000  0.269794  0.625566  1
  Rh  Rh10  1  0.250000  0.767457  0.874536  1
  Rh  Rh11  1  0.750000  0.232543  0.125464  1
