# generated using pymatgen
data_SrDy2ZnIr8
_symmetry_space_group_name_H-M   'P 1'
_cell_length_a   5.37278100
_cell_length_b   5.37278039
_cell_length_c   17.19825100
_cell_angle_alpha   90.00000000
_cell_angle_beta   90.00000000
_cell_angle_gamma   119.99998527
_symmetry_Int_Tables_number   1
_chemical_formula_structural   SrDy2ZnIr8
_chemical_formula_sum   'Sr2 Dy4 Zn2 Ir16'
_cell_volume   429.94530158
_cell_formula_units_Z   2
loop_
 _symmetry_equiv_pos_site_id
 _symmetry_equiv_pos_as_xyz
  1  'x, y, z'
loop_
 _atom_site_type_symbol
 _atom_site_label
 _atom_site_symmetry_multiplicity
 _atom_site_fract_x
 _atom_site_fract_y
 _atom_site_fract_z
 _atom_site_occupancy
  Sr  Sr0  1  0.333333  0.666667  0.750000  1
  Sr  Sr1  1  0.666667  0.333333  0.250000  1
  Dy  Dy2  1  0.333333  0.666667  0.539553  1
  Dy  Dy3  1  0.666667  0.333333  0.039553  1
  Dy  Dy4  1  0.666667  0.333333  0.460447  1
  Dy  Dy5  1  0.333333  0.666667  0.960447  1
  Zn  Zn6  1  0.000000  0.000000  0.250000  1
  Zn  Zn7  1  0.000000  0.000000  0.750000  1
  Ir  Ir8  1  0.168591  0.337181  0.124191  1
  Ir  Ir9  1  0.831409  0.662819  0.624191  1
  Ir  Ir10  1  0.662819  0.831409  0.124191  1
  Ir  Ir11  1  0.168591  0.831409  0.124191  1
  Ir  Ir12  1  0.831409  0.168591  0.624191  1
  Ir  Ir13  1  0.337181  0.168591  0.624191  1
  Ir  Ir14  1  0.831409  0.662819  0.875809  1
  Ir  Ir15  1  0.831409  0.168591  0.875809  1
  Ir  Ir16  1  0.337181  0.168591  0.875809  1
  Ir  Ir17  1  0.662819  0.831409  0.375809  1
  Ir  Ir18  1  0.168591  0.831409  0.375809  1
  Ir  Ir19  1  0.168591  0.337181  0.375809  1
  Ir  Ir20  1  0.333333  0.666667  0.250000  1
  Ir  Ir21  1  0.666667  0.333333  0.750000  1
  Ir  Ir22  1  0.000000  0.000000  0.000000  1
  Ir  Ir23  1  0.000000  0.000000  0.500000  1
