# generated using pymatgen
data_Hf16TaCo5Rh2
_symmetry_space_group_name_H-M   'P 1'
_cell_length_a   8.58678309
_cell_length_b   8.67102687
_cell_length_c   8.60063700
_cell_angle_alpha   60.26817789
_cell_angle_beta   59.94661865
_cell_angle_gamma   60.14381821
_symmetry_Int_Tables_number   1
_chemical_formula_structural   Hf16TaCo5Rh2
_chemical_formula_sum   'Hf16 Ta1 Co5 Rh2'
_cell_volume   454.02971405
_cell_formula_units_Z   1
loop_
 _symmetry_equiv_pos_site_id
 _symmetry_equiv_pos_as_xyz
  1  'x, y, z'
loop_
 _atom_site_type_symbol
 _atom_site_label
 _atom_site_symmetry_multiplicity
 _atom_site_fract_x
 _atom_site_fract_y
 _atom_site_fract_z
 _atom_site_occupancy
  Hf  Hf0  1  0.203098  0.598494  0.599204  1
  Hf  Hf1  1  0.604208  0.185585  0.605103  1
  Hf  Hf2  1  0.599364  0.597588  0.203945  1
  Hf  Hf3  1  0.599364  0.597588  0.599101  1
  Hf  Hf4  1  0.815283  0.815458  0.184630  1
  Hf  Hf5  1  0.181751  0.190289  0.813981  1
  Hf  Hf6  1  0.815212  0.192542  0.813990  1
  Hf  Hf7  1  0.190930  0.815783  0.179628  1
  Hf  Hf8  1  0.190930  0.815783  0.813660  1
  Hf  Hf9  1  0.815212  0.192542  0.178257  1
  Hf  Hf10  1  0.449555  0.444548  0.052949  1
  Hf  Hf11  1  0.049018  0.048324  0.451329  1
  Hf  Hf12  1  0.451789  0.047322  0.453181  1
  Hf  Hf13  1  0.054379  0.442902  0.053983  1
  Hf  Hf14  1  0.054379  0.442902  0.448736  1
  Hf  Hf15  1  0.451789  0.047322  0.047708  1
  Ta  Ta16  1  0.822072  0.525052  0.826437  1
  Co  Co17  1  0.827675  0.386251  0.393038  1
  Co  Co18  1  0.390093  0.830616  0.389647  1
  Co  Co19  1  0.392693  0.387105  0.826802  1
  Co  Co20  1  0.392693  0.387105  0.393402  1
  Co  Co21  1  0.483588  0.835417  0.840497  1
  Rh  Rh22  1  0.832462  0.836741  0.492847  1
  Rh  Rh23  1  0.832462  0.836741  0.837948  1
