# generated using pymatgen
data_HoTm2AgSn3IrRh
_symmetry_space_group_name_H-M   'P 1'
_cell_length_a   7.69814813
_cell_length_b   7.71519858
_cell_length_c   3.78835800
_cell_angle_alpha   90.00000000
_cell_angle_beta   90.00000000
_cell_angle_gamma   120.09318963
_symmetry_Int_Tables_number   1
_chemical_formula_structural   HoTm2AgSn3IrRh
_chemical_formula_sum   'Ho1 Tm2 Ag1 Sn3 Ir1 Rh1'
_cell_volume   194.67331775
_cell_formula_units_Z   1
loop_
 _symmetry_equiv_pos_site_id
 _symmetry_equiv_pos_as_xyz
  1  'x, y, z'
loop_
 _atom_site_type_symbol
 _atom_site_label
 _atom_site_symmetry_multiplicity
 _atom_site_fract_x
 _atom_site_fract_y
 _atom_site_fract_z
 _atom_site_occupancy
  Ho  Ho0  1  0.387852  0.977052  0.000000  1
  Tm  Tm1  1  0.024405  0.410702  0.000000  1
  Tm  Tm2  1  0.588789  0.613246  0.000000  1
  Ag  Ag3  1  0.667636  0.334367  0.500000  1
  Sn  Sn4  1  0.262369  0.258784  0.500000  1
  Sn  Sn5  1  0.995258  0.737198  0.500000  1
  Sn  Sn6  1  0.742105  0.004436  0.500000  1
  Ir  Ir7  1  0.332531  0.664399  0.500000  1
  Rh  Rh8  1  0.999055  0.999817  0.000000  1
