# generated using pymatgen
data_Cs3La(NbS4)2
_symmetry_space_group_name_H-M   'P 1'
_cell_length_a   9.95040913
_cell_length_b   10.81005909
_cell_length_c   11.64823987
_cell_angle_alpha   106.86640229
_cell_angle_beta   103.76809229
_cell_angle_gamma   114.03671498
_symmetry_Int_Tables_number   1
_chemical_formula_structural   Cs3La(NbS4)2
_chemical_formula_sum   'Cs6 La2 Nb4 S16'
_cell_volume   1000.00888644
_cell_formula_units_Z   2
loop_
 _symmetry_equiv_pos_site_id
 _symmetry_equiv_pos_as_xyz
  1  'x, y, z'
loop_
 _atom_site_type_symbol
 _atom_site_label
 _atom_site_symmetry_multiplicity
 _atom_site_fract_x
 _atom_site_fract_y
 _atom_site_fract_z
 _atom_site_occupancy
  Cs  Cs0  1  0.500001  0.500000  0.000000  1
  Cs  Cs1  1  0.000000  0.500001  0.000000  1
  Cs  Cs2  1  0.258364  0.008358  0.016649  1
  Cs  Cs3  1  0.484359  0.734345  0.468675  1
  Cs  Cs4  1  0.515641  0.265654  0.531327  1
  Cs  Cs5  1  0.741637  0.991643  0.983351  1
  La  La6  1  0.991508  0.241484  0.482993  1
  La  La7  1  0.008493  0.758516  0.517008  1
  Nb  Nb8  1  0.004218  0.905462  0.256610  1
  Nb  Nb9  1  0.752440  0.351219  0.256722  1
  Nb  Nb10  1  0.247561  0.648782  0.743279  1
  Nb  Nb11  1  0.995783  0.094538  0.743390  1
  S  S12  1  0.885547  0.762174  0.036235  1
  S  S13  1  0.650741  0.274082  0.036283  1
  S  S14  1  0.125802  0.156634  0.299299  1
  S  S15  1  0.673404  0.142650  0.299293  1
  S  S16  1  0.822126  0.867439  0.349711  1
  S  S17  1  0.027626  0.482317  0.349728  1
  S  S18  1  0.186728  0.850953  0.357810  1
  S  S19  1  0.671118  0.506954  0.357926  1
  S  S20  1  0.328882  0.493046  0.642073  1
  S  S21  1  0.813271  0.149046  0.642190  1
  S  S22  1  0.972375  0.517683  0.650272  1
  S  S23  1  0.177874  0.132560  0.650288  1
  S  S24  1  0.326593  0.857350  0.700707  1
  S  S25  1  0.874198  0.843365  0.700700  1
  S  S26  1  0.349260  0.725918  0.963718  1
  S  S27  1  0.114452  0.237826  0.963765  1
