# generated using pymatgen
data_Ho2Er4ZnSi5Rh12
_symmetry_space_group_name_H-M   'P 1'
_cell_length_a   5.55035200
_cell_length_b   5.55035165
_cell_length_c   15.15113900
_cell_angle_alpha   90.00000000
_cell_angle_beta   90.00000000
_cell_angle_gamma   119.99999019
_symmetry_Int_Tables_number   1
_chemical_formula_structural   Ho2Er4ZnSi5Rh12
_chemical_formula_sum   'Ho2 Er4 Zn1 Si5 Rh12'
_cell_volume   404.21924149
_cell_formula_units_Z   1
loop_
 _symmetry_equiv_pos_site_id
 _symmetry_equiv_pos_as_xyz
  1  'x, y, z'
loop_
 _atom_site_type_symbol
 _atom_site_label
 _atom_site_symmetry_multiplicity
 _atom_site_fract_x
 _atom_site_fract_y
 _atom_site_fract_z
 _atom_site_occupancy
  Ho  Ho0  1  0.333333  0.666667  0.750655  1
  Ho  Ho1  1  0.666667  0.333333  0.249345  1
  Er  Er2  1  0.333333  0.666667  0.537944  1
  Er  Er3  1  0.666667  0.333333  0.462056  1
  Er  Er4  1  0.666667  0.333333  0.036751  1
  Er  Er5  1  0.333333  0.666667  0.963249  1
  Zn  Zn6  1  0.000000  0.000000  0.000000  1
  Si  Si7  1  0.000000  0.000000  0.252050  1
  Si  Si8  1  0.000000  0.000000  0.747950  1
  Si  Si9  1  0.333333  0.666667  0.252162  1
  Si  Si10  1  0.666667  0.333333  0.747838  1
  Si  Si11  1  0.000000  0.000000  0.500000  1
  Rh  Rh12  1  0.167683  0.335365  0.134765  1
  Rh  Rh13  1  0.832317  0.664635  0.865235  1
  Rh  Rh14  1  0.664635  0.832317  0.134765  1
  Rh  Rh15  1  0.832880  0.665759  0.628605  1
  Rh  Rh16  1  0.335365  0.167683  0.865235  1
  Rh  Rh17  1  0.167120  0.334241  0.371395  1
  Rh  Rh18  1  0.167683  0.832317  0.134765  1
  Rh  Rh19  1  0.334241  0.167120  0.628605  1
  Rh  Rh20  1  0.832317  0.167683  0.865235  1
  Rh  Rh21  1  0.665759  0.832880  0.371395  1
  Rh  Rh22  1  0.832880  0.167120  0.628605  1
  Rh  Rh23  1  0.167120  0.832880  0.371395  1
