# generated using pymatgen
data_LiTa4Re6Si6W
_symmetry_space_group_name_H-M   'P 1'
_cell_length_a   7.63124664
_cell_length_b   7.53472137
_cell_length_c   7.63124768
_cell_angle_alpha   126.21044994
_cell_angle_beta   129.33709140
_cell_angle_gamma   77.29423229
_symmetry_Int_Tables_number   1
_chemical_formula_structural   LiTa4Re6Si6W
_chemical_formula_sum   'Li1 Ta4 Re6 Si6 W1'
_cell_volume   265.29785941
_cell_formula_units_Z   1
loop_
 _symmetry_equiv_pos_site_id
 _symmetry_equiv_pos_as_xyz
  1  'x, y, z'
loop_
 _atom_site_type_symbol
 _atom_site_label
 _atom_site_symmetry_multiplicity
 _atom_site_fract_x
 _atom_site_fract_y
 _atom_site_fract_z
 _atom_site_occupancy
  Li  Li0  1  0.556343  0.108343  0.052002  1
  Ta  Ta1  1  0.949815  0.492438  0.042624  1
  Ta  Ta2  1  0.048209  0.092836  0.544627  1
  Ta  Ta3  1  0.755341  0.906936  0.651595  1
  Ta  Ta4  1  0.240652  0.885280  0.144628  1
  Re  Re5  1  0.500940  0.238373  0.735680  1
  Re  Re6  1  0.002692  0.238373  0.237434  1
  Re  Re7  1  0.124362  0.755687  0.622090  1
  Re  Re8  1  0.874997  0.499687  0.633459  1
  Re  Re9  1  0.633597  0.755687  0.131325  1
  Re  Re10  1  0.366227  0.499687  0.124690  1
  Si  Si11  1  0.745590  0.490337  0.244747  1
  Si  Si12  1  0.252343  0.497831  0.745487  1
  Si  Si13  1  0.345170  0.832683  0.517704  1
  Si  Si14  1  0.654731  0.162435  0.476726  1
  Si  Si15  1  0.814979  0.832683  0.987512  1
  Si  Si16  1  0.185710  0.162435  0.007705  1
  W  W17  1  0.448302  0.490466  0.542164  1
