# generated using pymatgen
data_DyTmIr2O7
_symmetry_space_group_name_H-M   'P 1'
_cell_length_a   7.21454176
_cell_length_b   7.23888265
_cell_length_c   7.21454098
_cell_angle_alpha   59.88833153
_cell_angle_beta   59.75851380
_cell_angle_gamma   59.88832686
_symmetry_Int_Tables_number   1
_chemical_formula_structural   DyTmIr2O7
_chemical_formula_sum   'Dy2 Tm2 Ir4 O14'
_cell_volume   265.48664662
_cell_formula_units_Z   2
loop_
 _symmetry_equiv_pos_site_id
 _symmetry_equiv_pos_as_xyz
  1  'x, y, z'
loop_
 _atom_site_type_symbol
 _atom_site_label
 _atom_site_symmetry_multiplicity
 _atom_site_fract_x
 _atom_site_fract_y
 _atom_site_fract_z
 _atom_site_occupancy
  Dy  Dy0  1  0.125000  0.625000  0.125000  1
  Dy  Dy1  1  0.125000  0.125000  0.125000  1
  Tm  Tm2  1  0.625000  0.125000  0.125000  1
  Tm  Tm3  1  0.125000  0.125000  0.625000  1
  Ir  Ir4  1  0.125000  0.625000  0.625000  1
  Ir  Ir5  1  0.625000  0.125000  0.625000  1
  Ir  Ir6  1  0.625000  0.625000  0.125000  1
  Ir  Ir7  1  0.625000  0.625000  0.625000  1
  O  O8  1  0.709153  0.718068  0.286808  1
  O  O9  1  0.286808  0.285971  0.709153  1
  O  O10  1  0.713545  0.286455  0.713545  1
  O  O11  1  0.286161  0.713839  0.286161  1
  O  O12  1  0.286808  0.718068  0.709153  1
  O  O13  1  0.709153  0.285971  0.286808  1
  O  O14  1  0.540847  0.531932  0.963192  1
  O  O15  1  0.963192  0.964029  0.540847  1
  O  O16  1  0.536455  0.963545  0.536455  1
  O  O17  1  0.963839  0.536161  0.963839  1
  O  O18  1  0.963192  0.531932  0.540847  1
  O  O19  1  0.540847  0.964029  0.963192  1
  O  O20  1  0.252312  0.247688  0.252312  1
  O  O21  1  0.997688  0.002312  0.997688  1
