# generated using pymatgen
data_Yb2Cd3SnPd2
_symmetry_space_group_name_H-M   'P 1'
_cell_length_a   5.48224951
_cell_length_b   5.48224966
_cell_length_c   8.23355801
_cell_angle_alpha   89.71341911
_cell_angle_beta   90.28657944
_cell_angle_gamma   133.20972770
_symmetry_Int_Tables_number   1
_chemical_formula_structural   Yb2Cd3SnPd2
_chemical_formula_sum   'Yb2 Cd3 Sn1 Pd2'
_cell_volume   180.35919633
_cell_formula_units_Z   1
loop_
 _symmetry_equiv_pos_site_id
 _symmetry_equiv_pos_as_xyz
  1  'x, y, z'
loop_
 _atom_site_type_symbol
 _atom_site_label
 _atom_site_symmetry_multiplicity
 _atom_site_fract_x
 _atom_site_fract_y
 _atom_site_fract_z
 _atom_site_occupancy
  Yb  Yb0  1  0.433551  0.566449  0.258027  1
  Yb  Yb1  1  0.566239  0.433761  0.746994  1
  Cd  Cd2  1  0.854210  0.145790  0.550675  1
  Cd  Cd3  1  0.143432  0.856568  0.452026  1
  Cd  Cd4  1  0.862663  0.137337  0.940841  1
  Sn  Sn5  1  0.147021  0.852979  0.054090  1
  Pd  Pd6  1  0.274789  0.725211  0.755219  1
  Pd  Pd7  1  0.718094  0.281906  0.242128  1
