# generated using pymatgen
data_La3NpBO9
_symmetry_space_group_name_H-M   'P 1'
_cell_length_a   9.09547100
_cell_length_b   9.09589712
_cell_length_c   5.80302200
_cell_angle_alpha   90.00465193
_cell_angle_beta   89.99876238
_cell_angle_gamma   120.00705348
_symmetry_Int_Tables_number   1
_chemical_formula_structural   La3NpBO9
_chemical_formula_sum   'La6 Np2 B2 O18'
_cell_volume   415.74277315
_cell_formula_units_Z   2
loop_
 _symmetry_equiv_pos_site_id
 _symmetry_equiv_pos_as_xyz
  1  'x, y, z'
loop_
 _atom_site_type_symbol
 _atom_site_label
 _atom_site_symmetry_multiplicity
 _atom_site_fract_x
 _atom_site_fract_y
 _atom_site_fract_z
 _atom_site_occupancy
  La  La0  1  0.350194  0.074440  0.212853  1
  La  La1  1  0.649600  0.925284  0.712431  1
  La  La2  1  0.925276  0.275541  0.212804  1
  La  La3  1  0.724231  0.649951  0.212927  1
  La  La4  1  0.275814  0.350348  0.712313  1
  La  La5  1  0.074411  0.724333  0.712448  1
  Np  Np6  1  0.333491  0.666791  0.253224  1
  Np  Np7  1  0.666668  0.333209  0.753028  1
  B  B8  1  0.999882  0.999948  0.389111  1
  B  B9  1  0.999955  0.000002  0.889068  1
  O  O10  1  0.210347  0.455817  0.046895  1
  O  O11  1  0.789807  0.544131  0.546695  1
  O  O12  1  0.544318  0.754460  0.046696  1
  O  O13  1  0.245592  0.789735  0.046751  1
  O  O14  1  0.754361  0.210093  0.546600  1
  O  O15  1  0.455900  0.245716  0.546593  1
  O  O16  1  0.126445  0.525212  0.472228  1
  O  O17  1  0.873717  0.474789  0.972159  1
  O  O18  1  0.474967  0.601362  0.472476  1
  O  O19  1  0.398747  0.873687  0.472404  1
  O  O20  1  0.601187  0.126287  0.972234  1
  O  O21  1  0.525272  0.398859  0.972188  1
  O  O22  1  0.171634  0.052904  0.882159  1
  O  O23  1  0.828359  0.947135  0.382210  1
  O  O24  1  0.947144  0.118758  0.882164  1
  O  O25  1  0.881251  0.828426  0.882180  1
  O  O26  1  0.118692  0.171565  0.382223  1
  O  O27  1  0.052741  0.881218  0.382135  1
