# generated using pymatgen
data_Cs6Bi(PBr6)3
_symmetry_space_group_name_H-M   'P 1'
_cell_length_a   7.93312300
_cell_length_b   7.93312494
_cell_length_c   19.62230000
_cell_angle_alpha   90.00000000
_cell_angle_beta   90.00000000
_cell_angle_gamma   119.99999608
_symmetry_Int_Tables_number   1
_chemical_formula_structural   Cs6Bi(PBr6)3
_chemical_formula_sum   'Cs6 Bi1 P3 Br18'
_cell_volume   1069.47107242
_cell_formula_units_Z   1
loop_
 _symmetry_equiv_pos_site_id
 _symmetry_equiv_pos_as_xyz
  1  'x, y, z'
loop_
 _atom_site_type_symbol
 _atom_site_label
 _atom_site_symmetry_multiplicity
 _atom_site_fract_x
 _atom_site_fract_y
 _atom_site_fract_z
 _atom_site_occupancy
  Cs  Cs0  1  0.333333  0.666667  0.080114  1
  Cs  Cs1  1  0.666667  0.333333  0.917875  1
  Cs  Cs2  1  0.666667  0.333333  0.579570  1
  Cs  Cs3  1  0.333333  0.666667  0.405032  1
  Cs  Cs4  1  0.000000  0.000000  0.252149  1
  Cs  Cs5  1  0.000000  0.000000  0.759992  1
  Bi  Bi6  1  0.333333  0.666667  0.839594  1
  P  P7  1  0.333333  0.666667  0.649006  1
  P  P8  1  0.666667  0.333333  0.341981  1
  P  P9  1  0.666667  0.333333  0.157413  1
  Br  Br10  1  0.185146  0.370292  0.586038  1
  Br  Br11  1  0.817164  0.634327  0.410544  1
  Br  Br12  1  0.629708  0.814854  0.586038  1
  Br  Br13  1  0.815398  0.630796  0.092398  1
  Br  Br14  1  0.365673  0.182836  0.410544  1
  Br  Br15  1  0.164814  0.329628  0.919414  1
  Br  Br16  1  0.185146  0.814854  0.586038  1
  Br  Br17  1  0.369204  0.184602  0.092398  1
  Br  Br18  1  0.817164  0.182836  0.410544  1
  Br  Br19  1  0.670372  0.835186  0.919414  1
  Br  Br20  1  0.815398  0.184602  0.092398  1
  Br  Br21  1  0.164814  0.835186  0.919414  1
  Br  Br22  1  0.508429  0.016857  0.253191  1
  Br  Br23  1  0.500810  0.001618  0.744174  1
  Br  Br24  1  0.983143  0.491571  0.253191  1
  Br  Br25  1  0.998382  0.499190  0.744174  1
  Br  Br26  1  0.508429  0.491571  0.253191  1
  Br  Br27  1  0.500810  0.499190  0.744174  1
