# generated using pymatgen
data_Lu8B24Mo3Ir
_symmetry_space_group_name_H-M   'P 1'
_cell_length_a   3.58638400
_cell_length_b   9.13744088
_cell_length_c   11.51024882
_cell_angle_alpha   90.12192219
_cell_angle_beta   90.00000000
_cell_angle_gamma   90.00000000
_symmetry_Int_Tables_number   1
_chemical_formula_structural   Lu8B24Mo3Ir
_chemical_formula_sum   'Lu8 B24 Mo3 Ir1'
_cell_volume   377.19427901
_cell_formula_units_Z   1
loop_
 _symmetry_equiv_pos_site_id
 _symmetry_equiv_pos_as_xyz
  1  'x, y, z'
loop_
 _atom_site_type_symbol
 _atom_site_label
 _atom_site_symmetry_multiplicity
 _atom_site_fract_x
 _atom_site_fract_y
 _atom_site_fract_z
 _atom_site_occupancy
  Lu  Lu0  1  0.000000  0.317652  0.415080  1
  Lu  Lu1  1  0.000000  0.679952  0.589579  1
  Lu  Lu2  1  0.000000  0.824526  0.082092  1
  Lu  Lu3  1  0.000000  0.178283  0.912640  1
  Lu  Lu4  1  0.000000  0.943292  0.371032  1
  Lu  Lu5  1  0.000000  0.054805  0.627489  1
  Lu  Lu6  1  0.000000  0.443070  0.128396  1
  Lu  Lu7  1  0.000000  0.556410  0.872662  1
  B  B8  1  0.500000  0.554264  0.433731  1
  B  B9  1  0.500000  0.449127  0.563474  1
  B  B10  1  0.500000  0.052104  0.065602  1
  B  B11  1  0.500000  0.949071  0.935025  1
  B  B12  1  0.500000  0.749594  0.420414  1
  B  B13  1  0.500000  0.247265  0.577682  1
  B  B14  1  0.500000  0.251873  0.078701  1
  B  B15  1  0.500000  0.748751  0.922528  1
  B  B16  1  0.500000  0.791598  0.264598  1
  B  B17  1  0.500000  0.205699  0.735482  1
  B  B18  1  0.500000  0.295761  0.237368  1
  B  B19  1  0.500000  0.704764  0.764551  1
  B  B20  1  0.500000  0.631238  0.184029  1
  B  B21  1  0.500000  0.370007  0.816416  1
  B  B22  1  0.500000  0.130500  0.318025  1
  B  B23  1  0.500000  0.868239  0.682557  1
  B  B24  1  0.500000  0.977647  0.212588  1
  B  B25  1  0.500000  0.021988  0.786628  1
  B  B26  1  0.500000  0.482150  0.287950  1
  B  B27  1  0.500000  0.522045  0.712481  1
  B  B28  1  0.500000  0.602555  0.030037  1
  B  B29  1  0.500000  0.398802  0.972396  1
  B  B30  1  0.500000  0.099609  0.471573  1
  B  B31  1  0.500000  0.896020  0.527089  1
  Mo  Mo32  1  0.000000  0.362221  0.677726  1
  Mo  Mo33  1  0.000000  0.139229  0.181069  1
  Mo  Mo34  1  0.000000  0.861405  0.820529  1
  Ir  Ir35  1  0.000000  0.638483  0.320782  1
