# generated using pymatgen
data_Nd2Cd5
_symmetry_space_group_name_H-M   'P 1'
_cell_length_a   18.46116116
_cell_length_b   18.46116118
_cell_length_c   5.20469700
_cell_angle_alpha   90.00000000
_cell_angle_beta   90.00000000
_cell_angle_gamma   168.24979164
_symmetry_Int_Tables_number   1
_chemical_formula_structural   Nd2Cd5
_chemical_formula_sum   'Nd4 Cd10'
_cell_volume   361.23339673
_cell_formula_units_Z   2
loop_
 _symmetry_equiv_pos_site_id
 _symmetry_equiv_pos_as_xyz
  1  'x, y, z'
loop_
 _atom_site_type_symbol
 _atom_site_label
 _atom_site_symmetry_multiplicity
 _atom_site_fract_x
 _atom_site_fract_y
 _atom_site_fract_z
 _atom_site_occupancy
  Nd  Nd0  1  0.929770  0.070230  0.500000  1
  Nd  Nd1  1  0.070230  0.929770  0.500000  1
  Nd  Nd2  1  0.790578  0.209422  0.500000  1
  Nd  Nd3  1  0.209422  0.790578  0.500000  1
  Cd  Cd4  1  0.639791  0.360209  0.500000  1
  Cd  Cd5  1  0.360209  0.639791  0.500000  1
  Cd  Cd6  1  0.715115  0.284885  0.000000  1
  Cd  Cd7  1  0.284885  0.715115  0.000000  1
  Cd  Cd8  1  0.500000  0.500000  0.500000  1
  Cd  Cd9  1  0.569472  0.430528  0.000000  1
  Cd  Cd10  1  0.430528  0.569472  0.000000  1
  Cd  Cd11  1  0.855847  0.144153  0.000000  1
  Cd  Cd12  1  0.144153  0.855847  0.000000  1
  Cd  Cd13  1  0.000000  0.000000  0.000000  1
