# generated using pymatgen
data_Nd6B2(CBr)3
_symmetry_space_group_name_H-M   'P 1'
_cell_length_a   8.57654419
_cell_length_b   3.83977200
_cell_length_c   10.22961485
_cell_angle_alpha   90.00000000
_cell_angle_beta   112.41572102
_cell_angle_gamma   90.00000000
_symmetry_Int_Tables_number   1
_chemical_formula_structural   Nd6B2(CBr)3
_chemical_formula_sum   'Nd6 B2 C3 Br3'
_cell_volume   311.42713806
_cell_formula_units_Z   1
loop_
 _symmetry_equiv_pos_site_id
 _symmetry_equiv_pos_as_xyz
  1  'x, y, z'
loop_
 _atom_site_type_symbol
 _atom_site_label
 _atom_site_symmetry_multiplicity
 _atom_site_fract_x
 _atom_site_fract_y
 _atom_site_fract_z
 _atom_site_occupancy
  Nd  Nd0  1  0.373176  0.500001  0.227371  1
  Nd  Nd1  1  0.626823  0.500001  0.772628  1
  Nd  Nd2  1  0.948771  0.500001  0.162030  1
  Nd  Nd3  1  0.051229  0.500001  0.837970  1
  Nd  Nd4  1  0.288919  0.000000  0.482597  1
  Nd  Nd5  1  0.711081  0.000000  0.517403  1
  B  B6  1  0.092255  0.000000  0.066424  1
  B  B7  1  0.907747  0.000000  0.933577  1
  C  C8  1  0.170257  0.000000  0.226646  1
  C  C9  1  0.829743  0.000000  0.773353  1
  C  C10  1  0.500000  0.500001  0.500000  1
  Br  Br11  1  0.650347  0.000000  0.187418  1
  Br  Br12  1  0.349654  0.000000  0.812583  1
  Br  Br13  1  0.000000  0.500001  0.500000  1
