# generated using pymatgen
data_Li3Ho4MgPt4
_symmetry_space_group_name_H-M   'P 1'
_cell_length_a   4.02176700
_cell_length_b   7.02975855
_cell_length_c   8.51465829
_cell_angle_alpha   90.05981895
_cell_angle_beta   90.00000000
_cell_angle_gamma   90.00000000
_symmetry_Int_Tables_number   1
_chemical_formula_structural   Li3Ho4MgPt4
_chemical_formula_sum   'Li3 Ho4 Mg1 Pt4'
_cell_volume   240.72672210
_cell_formula_units_Z   1
loop_
 _symmetry_equiv_pos_site_id
 _symmetry_equiv_pos_as_xyz
  1  'x, y, z'
loop_
 _atom_site_type_symbol
 _atom_site_label
 _atom_site_symmetry_multiplicity
 _atom_site_fract_x
 _atom_site_fract_y
 _atom_site_fract_z
 _atom_site_occupancy
  Li  Li0  1  0.250000  0.126090  0.440945  1
  Li  Li1  1  0.250000  0.629964  0.059581  1
  Li  Li2  1  0.750000  0.874843  0.557307  1
  Ho  Ho3  1  0.250000  0.044950  0.818441  1
  Ho  Ho4  1  0.250000  0.549353  0.675802  1
  Ho  Ho5  1  0.750000  0.950201  0.181454  1
  Ho  Ho6  1  0.750000  0.450920  0.322122  1
  Mg  Mg7  1  0.750000  0.375485  0.941850  1
  Pt  Pt8  1  0.250000  0.741666  0.374001  1
  Pt  Pt9  1  0.250000  0.244190  0.125472  1
  Pt  Pt10  1  0.750000  0.255493  0.628062  1
  Pt  Pt11  1  0.750000  0.756844  0.874962  1
