# generated using pymatgen
data_LiLa13Yb3Cd3Co4
_symmetry_space_group_name_H-M   'P 1'
_cell_length_a   9.87242774
_cell_length_b   9.93341584
_cell_length_c   9.92125400
_cell_angle_alpha   60.04049912
_cell_angle_beta   59.83626833
_cell_angle_gamma   60.29400076
_symmetry_Int_Tables_number   1
_chemical_formula_structural   LiLa13Yb3Cd3Co4
_chemical_formula_sum   'Li1 La13 Yb3 Cd3 Co4'
_cell_volume   688.84289727
_cell_formula_units_Z   1
loop_
 _symmetry_equiv_pos_site_id
 _symmetry_equiv_pos_as_xyz
  1  'x, y, z'
loop_
 _atom_site_type_symbol
 _atom_site_label
 _atom_site_symmetry_multiplicity
 _atom_site_fract_x
 _atom_site_fract_y
 _atom_site_fract_z
 _atom_site_occupancy
  Li  Li0  1  0.207145  0.930478  0.931189  1
  La  La1  1  0.691516  0.688060  0.310213  1
  La  La2  1  0.154396  0.156708  0.532510  1
  La  La3  1  0.313417  0.686600  0.686771  1
  La  La4  1  0.154396  0.156708  0.156384  1
  La  La5  1  0.538000  0.153254  0.154372  1
  La  La6  1  0.313417  0.686600  0.313212  1
  La  La7  1  0.320140  0.308243  0.685809  1
  La  La8  1  0.691656  0.301229  0.690642  1
  La  La9  1  0.938100  0.565293  0.557846  1
  La  La10  1  0.558623  0.560108  0.940635  1
  La  La11  1  0.153888  0.534586  0.155763  1
  La  La12  1  0.691656  0.301229  0.316474  1
  La  La13  1  0.938100  0.565293  0.938760  1
  Yb  Yb14  1  0.939749  0.935894  0.562178  1
  Yb  Yb15  1  0.562699  0.936464  0.560662  1
  Yb  Yb16  1  0.562699  0.936464  0.940175  1
  Cd  Cd17  1  0.922535  0.922083  0.918026  1
  Cd  Cd18  1  0.922535  0.922083  0.237353  1
  Cd  Cd19  1  0.922760  0.238998  0.919120  1
  Co  Co20  1  0.919466  0.365926  0.357303  1
  Co  Co21  1  0.360646  0.366541  0.915246  1
  Co  Co22  1  0.361816  0.914614  0.361785  1
  Co  Co23  1  0.360646  0.366541  0.357568  1
