# generated using pymatgen
data_Tb4Ho6AlBi5
_symmetry_space_group_name_H-M   'P 1'
_cell_length_a   9.09171080
_cell_length_b   9.09171013
_cell_length_c   6.40768200
_cell_angle_alpha   90.00000000
_cell_angle_beta   90.00000000
_cell_angle_gamma   119.55012074
_symmetry_Int_Tables_number   1
_chemical_formula_structural   Tb4Ho6AlBi5
_chemical_formula_sum   'Tb4 Ho6 Al1 Bi5'
_cell_volume   460.75892730
_cell_formula_units_Z   1
loop_
 _symmetry_equiv_pos_site_id
 _symmetry_equiv_pos_as_xyz
  1  'x, y, z'
loop_
 _atom_site_type_symbol
 _atom_site_label
 _atom_site_symmetry_multiplicity
 _atom_site_fract_x
 _atom_site_fract_y
 _atom_site_fract_z
 _atom_site_occupancy
  Tb  Tb0  1  0.243656  0.012782  0.750000  1
  Tb  Tb1  1  0.012782  0.243656  0.750000  1
  Tb  Tb2  1  0.758461  0.000157  0.250000  1
  Tb  Tb3  1  0.000157  0.758461  0.250000  1
  Ho  Ho4  1  0.659362  0.335504  0.996570  1
  Ho  Ho5  1  0.335504  0.659362  0.996570  1
  Ho  Ho6  1  0.335504  0.659362  0.503430  1
  Ho  Ho7  1  0.659362  0.335504  0.503430  1
  Ho  Ho8  1  0.749473  0.749473  0.750000  1
  Ho  Ho9  1  0.240422  0.240422  0.250000  1
  Al  Al10  1  0.397320  0.397320  0.750000  1
  Bi  Bi11  1  0.611047  0.002222  0.750000  1
  Bi  Bi12  1  0.002222  0.611047  0.750000  1
  Bi  Bi13  1  0.606660  0.606660  0.250000  1
  Bi  Bi14  1  0.391351  0.996718  0.250000  1
  Bi  Bi15  1  0.996718  0.391351  0.250000  1
