# generated using pymatgen
data_La7Pr6YPt6
_symmetry_space_group_name_H-M   'P 1'
_cell_length_a   6.55123200
_cell_length_b   10.28375572
_cell_length_c   10.28375521
_cell_angle_alpha   119.99115562
_cell_angle_beta   89.99808805
_cell_angle_gamma   90.00191166
_symmetry_Int_Tables_number   1
_chemical_formula_structural   La7Pr6YPt6
_chemical_formula_sum   'La7 Pr6 Y1 Pt6'
_cell_volume   600.06153866
_cell_formula_units_Z   1
loop_
 _symmetry_equiv_pos_site_id
 _symmetry_equiv_pos_as_xyz
  1  'x, y, z'
loop_
 _atom_site_type_symbol
 _atom_site_label
 _atom_site_symmetry_multiplicity
 _atom_site_fract_x
 _atom_site_fract_y
 _atom_site_fract_z
 _atom_site_occupancy
  La  La0  1  0.960648  0.666639  0.333361  1
  La  La1  1  0.248314  0.129590  0.870410  1
  La  La2  1  0.248170  0.741086  0.870529  1
  La  La3  1  0.248170  0.129471  0.258914  1
  La  La4  1  0.745272  0.871716  0.128284  1
  La  La5  1  0.745219  0.256289  0.128159  1
  La  La6  1  0.745219  0.871841  0.743711  1
  Pr  Pr7  1  0.440933  0.537232  0.462768  1
  Pr  Pr8  1  0.440799  0.925487  0.462779  1
  Pr  Pr9  1  0.440799  0.537221  0.074513  1
  Pr  Pr10  1  0.943043  0.460794  0.539206  1
  Pr  Pr11  1  0.942890  0.078469  0.539185  1
  Pr  Pr12  1  0.942890  0.460815  0.921531  1
  Y  Y13  1  0.465280  0.333372  0.666628  1
  Pt  Pt14  1  0.189297  0.811900  0.188100  1
  Pt  Pt15  1  0.189180  0.376124  0.188139  1
  Pt  Pt16  1  0.189180  0.811861  0.623876  1
  Pt  Pt17  1  0.686958  0.189618  0.810382  1
  Pt  Pt18  1  0.686868  0.620827  0.810353  1
  Pt  Pt19  1  0.686868  0.189647  0.379173  1
