# generated using pymatgen
data_Ac2NiSnI2
_symmetry_space_group_name_H-M   'P 1'
_cell_length_a   4.64684600
_cell_length_b   4.64684527
_cell_length_c   12.48739900
_cell_angle_alpha   90.00000000
_cell_angle_beta   90.00000000
_cell_angle_gamma   119.99997669
_symmetry_Int_Tables_number   1
_chemical_formula_structural   Ac2NiSnI2
_chemical_formula_sum   'Ac2 Ni1 Sn1 I2'
_cell_volume   233.51738261
_cell_formula_units_Z   1
loop_
 _symmetry_equiv_pos_site_id
 _symmetry_equiv_pos_as_xyz
  1  'x, y, z'
loop_
 _atom_site_type_symbol
 _atom_site_label
 _atom_site_symmetry_multiplicity
 _atom_site_fract_x
 _atom_site_fract_y
 _atom_site_fract_z
 _atom_site_occupancy
  Ac  Ac0  1  0.000000  0.000000  0.160804  1
  Ac  Ac1  1  0.000000  0.000000  0.835947  1
  Ni  Ni2  1  0.333333  0.666667  0.006605  1
  Sn  Sn3  1  0.666667  0.333333  0.994237  1
  I  I4  1  0.333333  0.666667  0.663625  1
  I  I5  1  0.666667  0.333333  0.338784  1
