# generated using pymatgen
data_SrCa3(ReN3)4
_symmetry_space_group_name_H-M   'P 1'
_cell_length_a   7.42773697
_cell_length_b   7.42773744
_cell_length_c   6.22473248
_cell_angle_alpha   76.52058400
_cell_angle_beta   76.52058310
_cell_angle_gamma   85.56391472
_symmetry_Int_Tables_number   1
_chemical_formula_structural   SrCa3(ReN3)4
_chemical_formula_sum   'Sr1 Ca3 Re4 N12'
_cell_volume   324.67062870
_cell_formula_units_Z   1
loop_
 _symmetry_equiv_pos_site_id
 _symmetry_equiv_pos_as_xyz
  1  'x, y, z'
loop_
 _atom_site_type_symbol
 _atom_site_label
 _atom_site_symmetry_multiplicity
 _atom_site_fract_x
 _atom_site_fract_y
 _atom_site_fract_z
 _atom_site_occupancy
  Sr  Sr0  1  0.689145  0.310855  0.750000  1
  Ca  Ca1  1  0.302144  0.697856  0.250000  1
  Ca  Ca2  1  0.913422  0.086578  0.250000  1
  Ca  Ca3  1  0.089851  0.910149  0.750000  1
  Re  Re4  1  0.799716  0.624093  0.249342  1
  Re  Re5  1  0.375907  0.200284  0.250658  1
  Re  Re6  1  0.621587  0.798086  0.752453  1
  Re  Re7  1  0.201914  0.378413  0.747547  1
  N  N8  1  0.776289  0.986810  0.655991  1
  N  N9  1  0.121820  0.607629  0.665346  1
  N  N10  1  0.333579  0.360834  0.981613  1
  N  N11  1  0.605535  0.121146  0.175811  1
  N  N12  1  0.878854  0.394465  0.324189  1
  N  N13  1  0.226352  0.006670  0.343324  1
  N  N14  1  0.993330  0.773648  0.156676  1
  N  N15  1  0.362092  0.336263  0.479153  1
  N  N16  1  0.639166  0.666421  0.518387  1
  N  N17  1  0.013190  0.223711  0.844009  1
  N  N18  1  0.392371  0.878180  0.834654  1
  N  N19  1  0.663737  0.637908  0.020847  1
