# generated using pymatgen
data_Tb2Dy2HoRu2
_symmetry_space_group_name_H-M   'P 1'
_cell_length_a   6.38109246
_cell_length_b   7.27293297
_cell_length_c   8.49645421
_cell_angle_alpha   96.62935972
_cell_angle_beta   112.05616078
_cell_angle_gamma   89.99999839
_symmetry_Int_Tables_number   1
_chemical_formula_structural   Tb2Dy2HoRu2
_chemical_formula_sum   'Tb4 Dy4 Ho2 Ru4'
_cell_volume   362.61049205
_cell_formula_units_Z   2
loop_
 _symmetry_equiv_pos_site_id
 _symmetry_equiv_pos_as_xyz
  1  'x, y, z'
loop_
 _atom_site_type_symbol
 _atom_site_label
 _atom_site_symmetry_multiplicity
 _atom_site_fract_x
 _atom_site_fract_y
 _atom_site_fract_z
 _atom_site_occupancy
  Tb  Tb0  1  0.978232  0.915722  0.186264  1
  Tb  Tb1  1  0.791969  0.584278  0.813736  1
  Tb  Tb2  1  0.021768  0.084278  0.813736  1
  Tb  Tb3  1  0.208031  0.415722  0.186264  1
  Dy  Dy4  1  0.640259  0.814634  0.433630  1
  Dy  Dy5  1  0.206631  0.685366  0.566370  1
  Dy  Dy6  1  0.359741  0.185366  0.566370  1
  Dy  Dy7  1  0.793369  0.314634  0.433630  1
  Ho  Ho8  1  0.421507  0.750000  0.000000  1
  Ho  Ho9  1  0.578493  0.250000  0.000000  1
  Ru  Ru10  1  0.823749  0.575494  0.220289  1
  Ru  Ru11  1  0.603460  0.924506  0.779711  1
  Ru  Ru12  1  0.176251  0.424506  0.779711  1
  Ru  Ru13  1  0.396540  0.075494  0.220289  1
