# generated using pymatgen
data_Ta2Co4Si3GeMo2
_symmetry_space_group_name_H-M   'P 1'
_cell_length_a   6.18983752
_cell_length_b   3.64636800
_cell_length_c   7.04807859
_cell_angle_alpha   90.00000000
_cell_angle_beta   90.04698417
_cell_angle_gamma   90.00000000
_symmetry_Int_Tables_number   1
_chemical_formula_structural   Ta2Co4Si3GeMo2
_chemical_formula_sum   'Ta2 Co4 Si3 Ge1 Mo2'
_cell_volume   159.07807902
_cell_formula_units_Z   1
loop_
 _symmetry_equiv_pos_site_id
 _symmetry_equiv_pos_as_xyz
  1  'x, y, z'
loop_
 _atom_site_type_symbol
 _atom_site_label
 _atom_site_symmetry_multiplicity
 _atom_site_fract_x
 _atom_site_fract_y
 _atom_site_fract_z
 _atom_site_occupancy
  Ta  Ta0  1  0.975304  0.750000  0.172844  1
  Ta  Ta1  1  0.477865  0.750000  0.323527  1
  Co  Co2  1  0.144570  0.250000  0.427103  1
  Co  Co3  1  0.645494  0.250000  0.066012  1
  Co  Co4  1  0.850450  0.750000  0.558097  1
  Co  Co5  1  0.359495  0.750000  0.947163  1
  Si  Si6  1  0.776257  0.250000  0.383830  1
  Si  Si7  1  0.275049  0.250000  0.114444  1
  Si  Si8  1  0.721780  0.750000  0.872076  1
  Ge  Ge9  1  0.224071  0.750000  0.630199  1
  Mo  Mo10  1  0.018687  0.250000  0.830756  1
  Mo  Mo11  1  0.530979  0.250000  0.673950  1
