# generated using pymatgen
data_LaDy3Er2Ta2O14
_symmetry_space_group_name_H-M   'P 1'
_cell_length_a   6.49932264
_cell_length_b   6.49711071
_cell_length_c   7.53572478
_cell_angle_alpha   90.10512751
_cell_angle_beta   89.83920050
_cell_angle_gamma   108.66054189
_symmetry_Int_Tables_number   1
_chemical_formula_structural   LaDy3Er2Ta2O14
_chemical_formula_sum   'La1 Dy3 Er2 Ta2 O14'
_cell_volume   301.48033724
_cell_formula_units_Z   1
loop_
 _symmetry_equiv_pos_site_id
 _symmetry_equiv_pos_as_xyz
  1  'x, y, z'
loop_
 _atom_site_type_symbol
 _atom_site_label
 _atom_site_symmetry_multiplicity
 _atom_site_fract_x
 _atom_site_fract_y
 _atom_site_fract_z
 _atom_site_occupancy
  La  La0  1  0.490559  0.489950  0.000977  1
  Dy  Dy1  1  0.539229  0.538366  0.499350  1
  Dy  Dy2  1  0.000543  0.465250  0.740148  1
  Dy  Dy3  1  0.533603  0.001660  0.753511  1
  Er  Er4  1  0.001933  0.533691  0.246469  1
  Er  Er5  1  0.465222  0.999746  0.260137  1
  Ta  Ta6  1  0.002591  0.002808  0.498930  1
  Ta  Ta7  1  0.999181  0.999544  0.001054  1
  O  O8  1  0.933566  0.065723  0.750328  1
  O  O9  1  0.641581  0.358481  0.738439  1
  O  O10  1  0.308237  0.049806  0.540626  1
  O  O11  1  0.937904  0.684866  0.959992  1
  O  O12  1  0.634673  0.365866  0.260923  1
  O  O13  1  0.919159  0.672750  0.523923  1
  O  O14  1  0.324367  0.072232  0.974374  1
  O  O15  1  0.071107  0.323954  0.028916  1
  O  O16  1  0.673139  0.919636  0.472812  1
  O  O17  1  0.367454  0.633377  0.738616  1
  O  O18  1  0.685946  0.940392  0.043929  1
  O  O19  1  0.046550  0.306889  0.455373  1
  O  O20  1  0.355736  0.643618  0.261549  1
  O  O21  1  0.067719  0.931394  0.249624  1
