# generated using pymatgen
data_Nd16Cd4Ni3Pd
_symmetry_space_group_name_H-M   'P 1'
_cell_length_a   9.94516411
_cell_length_b   9.94616932
_cell_length_c   9.94514368
_cell_angle_alpha   60.05709686
_cell_angle_beta   60.05502324
_cell_angle_gamma   60.05380883
_symmetry_Int_Tables_number   1
_chemical_formula_structural   Nd16Cd4Ni3Pd
_chemical_formula_sum   'Nd16 Cd4 Ni3 Pd1'
_cell_volume   696.47886693
_cell_formula_units_Z   1
loop_
 _symmetry_equiv_pos_site_id
 _symmetry_equiv_pos_as_xyz
  1  'x, y, z'
loop_
 _atom_site_type_symbol
 _atom_site_label
 _atom_site_symmetry_multiplicity
 _atom_site_fract_x
 _atom_site_fract_y
 _atom_site_fract_z
 _atom_site_occupancy
  Nd  Nd0  1  0.595533  0.595549  0.595605  1
  Nd  Nd1  1  0.602716  0.602735  0.201450  1
  Nd  Nd2  1  0.602668  0.201494  0.602790  1
  Nd  Nd3  1  0.201481  0.602668  0.602775  1
  Nd  Nd4  1  0.054017  0.441224  0.441213  1
  Nd  Nd5  1  0.440084  0.058862  0.058765  1
  Nd  Nd6  1  0.441228  0.054021  0.441219  1
  Nd  Nd7  1  0.058848  0.440097  0.058757  1
  Nd  Nd8  1  0.441219  0.441232  0.053925  1
  Nd  Nd9  1  0.058818  0.058800  0.440091  1
  Nd  Nd10  1  0.190110  0.814328  0.814304  1
  Nd  Nd11  1  0.810862  0.187123  0.187136  1
  Nd  Nd12  1  0.814348  0.190142  0.814317  1
  Nd  Nd13  1  0.187137  0.810862  0.187128  1
  Nd  Nd14  1  0.814299  0.814308  0.190118  1
  Nd  Nd15  1  0.187136  0.187077  0.810881  1
  Cd  Cd16  1  0.830705  0.830736  0.830733  1
  Cd  Cd17  1  0.829636  0.829669  0.509868  1
  Cd  Cd18  1  0.829644  0.509850  0.829639  1
  Cd  Cd19  1  0.509880  0.829677  0.829638  1
  Ni  Ni20  1  0.391491  0.391457  0.823433  1
  Ni  Ni21  1  0.391496  0.823435  0.391517  1
  Ni  Ni22  1  0.823407  0.391444  0.391512  1
  Pd  Pd23  1  0.393237  0.393210  0.393184  1
