# generated using pymatgen
data_Sc10Ge3Se7
_symmetry_space_group_name_H-M   'P 1'
_cell_length_a   10.27359558
_cell_length_b   10.27359472
_cell_length_c   6.79653434
_cell_angle_alpha   83.58763989
_cell_angle_beta   83.58764784
_cell_angle_gamma   141.90893012
_symmetry_Int_Tables_number   1
_chemical_formula_structural   Sc10Ge3Se7
_chemical_formula_sum   'Sc10 Ge3 Se7'
_cell_volume   415.81812394
_cell_formula_units_Z   1
loop_
 _symmetry_equiv_pos_site_id
 _symmetry_equiv_pos_as_xyz
  1  'x, y, z'
loop_
 _atom_site_type_symbol
 _atom_site_label
 _atom_site_symmetry_multiplicity
 _atom_site_fract_x
 _atom_site_fract_y
 _atom_site_fract_z
 _atom_site_occupancy
  Sc  Sc0  1  0.256235  0.256235  0.761401  1
  Sc  Sc1  1  0.850675  0.651454  0.750812  1
  Sc  Sc2  1  0.743765  0.743765  0.238599  1
  Sc  Sc3  1  0.452888  0.047354  0.736284  1
  Sc  Sc4  1  0.348546  0.149325  0.249188  1
  Sc  Sc5  1  0.047354  0.452888  0.736284  1
  Sc  Sc6  1  0.952646  0.547112  0.263716  1
  Sc  Sc7  1  0.651454  0.850675  0.750812  1
  Sc  Sc8  1  0.547112  0.952646  0.263716  1
  Sc  Sc9  1  0.149325  0.348546  0.249188  1
  Ge  Ge10  1  0.500000  0.500000  0.000000  1
  Ge  Ge11  1  0.198387  0.801613  0.500000  1
  Ge  Ge12  1  0.801613  0.198387  0.500000  1
  Se  Se13  1  0.898824  0.101176  0.000000  1
  Se  Se14  1  0.400620  0.599380  0.500000  1
  Se  Se15  1  0.000000  0.000000  0.500000  1
  Se  Se16  1  0.599380  0.400620  0.500000  1
  Se  Se17  1  0.101176  0.898824  0.000000  1
  Se  Se18  1  0.700040  0.299960  0.000000  1
  Se  Se19  1  0.299960  0.700040  0.000000  1
