# generated using pymatgen
data_Ho2Tm3Mn2Co17P12
_symmetry_space_group_name_H-M   'P 1'
_cell_length_a   11.98092859
_cell_length_b   11.97829133
_cell_length_c   3.64499200
_cell_angle_alpha   90.00000000
_cell_angle_beta   90.00000000
_cell_angle_gamma   119.99271658
_symmetry_Int_Tables_number   1
_chemical_formula_structural   Ho2Tm3Mn2Co17P12
_chemical_formula_sum   'Ho2 Tm3 Mn2 Co17 P12'
_cell_volume   453.04822337
_cell_formula_units_Z   1
loop_
 _symmetry_equiv_pos_site_id
 _symmetry_equiv_pos_as_xyz
  1  'x, y, z'
loop_
 _atom_site_type_symbol
 _atom_site_label
 _atom_site_symmetry_multiplicity
 _atom_site_fract_x
 _atom_site_fract_y
 _atom_site_fract_z
 _atom_site_occupancy
  Ho  Ho0  1  0.666400  0.333150  0.000000  1
  Ho  Ho1  1  0.333600  0.666751  0.000000  1
  Tm  Tm2  1  0.813786  0.814453  0.500000  1
  Tm  Tm3  1  0.186214  0.000666  0.500000  1
  Tm  Tm4  1  0.000000  0.187872  0.500000  1
  Mn  Mn5  1  0.443491  0.443100  0.000000  1
  Mn  Mn6  1  0.556509  0.999609  0.000000  1
  Co  Co7  1  0.875091  0.358682  0.500000  1
  Co  Co8  1  0.643483  0.517592  0.500000  1
  Co  Co9  1  0.482567  0.125540  0.500000  1
  Co  Co10  1  0.356517  0.874109  0.500000  1
  Co  Co11  1  0.517433  0.642973  0.500000  1
  Co  Co12  1  0.124909  0.483591  0.500000  1
  Co  Co13  1  0.000000  0.552049  0.000000  1
  Co  Co14  1  0.802210  0.179298  0.000000  1
  Co  Co15  1  0.823199  0.623343  0.000000  1
  Co  Co16  1  0.375291  0.197433  0.000000  1
  Co  Co17  1  0.176801  0.800143  0.000000  1
  Co  Co18  1  0.624709  0.822141  0.000000  1
  Co  Co19  1  0.197790  0.377089  0.000000  1
  Co  Co20  1  0.282375  0.282813  0.500000  1
  Co  Co21  1  0.717625  0.000438  0.500000  1
  Co  Co22  1  0.000000  0.715941  0.500000  1
  Co  Co23  1  0.000000  0.999078  0.000000  1
  P  P24  1  0.685448  0.165917  0.500000  1
  P  P25  1  0.834918  0.519903  0.500000  1
  P  P26  1  0.479556  0.314215  0.500000  1
  P  P27  1  0.165082  0.684985  0.500000  1
  P  P28  1  0.520444  0.834659  0.500000  1
  P  P29  1  0.314552  0.480469  0.500000  1
  P  P30  1  0.178811  0.179594  0.000000  1
  P  P31  1  0.821189  0.000782  0.000000  1
  P  P32  1  0.000000  0.819746  0.000000  1
  P  P33  1  0.636740  0.635924  0.000000  1
  P  P34  1  0.363260  0.999184  0.000000  1
  P  P35  1  0.000000  0.366766  0.000000  1
