# generated using pymatgen
data_LiY3ErCo19P12
_symmetry_space_group_name_H-M   'P 1'
_cell_length_a   3.66180900
_cell_length_b   10.27213394
_cell_length_c   11.76762141
_cell_angle_alpha   90.31743126
_cell_angle_beta   90.00000000
_cell_angle_gamma   90.00000000
_symmetry_Int_Tables_number   1
_chemical_formula_structural   LiY3ErCo19P12
_chemical_formula_sum   'Li1 Y3 Er1 Co19 P12'
_cell_volume   442.62749080
_cell_formula_units_Z   1
loop_
 _symmetry_equiv_pos_site_id
 _symmetry_equiv_pos_as_xyz
  1  'x, y, z'
loop_
 _atom_site_type_symbol
 _atom_site_label
 _atom_site_symmetry_multiplicity
 _atom_site_fract_x
 _atom_site_fract_y
 _atom_site_fract_z
 _atom_site_occupancy
  Li  Li0  1  0.250000  0.797392  0.490580  1
  Y  Y1  1  0.750000  0.081748  0.797838  1
  Y  Y2  1  0.750000  0.419149  0.296787  1
  Y  Y3  1  0.250000  0.580943  0.703347  1
  Er  Er4  1  0.250000  0.918606  0.201204  1
  Co  Co5  1  0.750000  0.210674  0.509986  1
  Co  Co6  1  0.750000  0.283757  0.007688  1
  Co  Co7  1  0.250000  0.715877  0.992844  1
  Co  Co8  1  0.250000  0.093435  0.988586  1
  Co  Co9  1  0.750000  0.906723  0.014389  1
  Co  Co10  1  0.750000  0.591468  0.512496  1
  Co  Co11  1  0.250000  0.403905  0.487777  1
  Co  Co12  1  0.250000  0.276350  0.675809  1
  Co  Co13  1  0.750000  0.721118  0.321302  1
  Co  Co14  1  0.750000  0.779280  0.828076  1
  Co  Co15  1  0.250000  0.221857  0.175398  1
  Co  Co16  1  0.250000  0.617100  0.197375  1
  Co  Co17  1  0.750000  0.381459  0.800598  1
  Co  Co18  1  0.750000  0.119279  0.300369  1
  Co  Co19  1  0.250000  0.880644  0.700096  1
  Co  Co20  1  0.250000  0.034984  0.431162  1
  Co  Co21  1  0.750000  0.966075  0.566514  1
  Co  Co22  1  0.750000  0.532310  0.067004  1
  Co  Co23  1  0.250000  0.466964  0.931510  1
  P  P24  1  0.250000  0.078082  0.612081  1
  P  P25  1  0.750000  0.921839  0.383121  1
  P  P26  1  0.750000  0.580491  0.888065  1
  P  P27  1  0.250000  0.419277  0.111314  1
  P  P28  1  0.250000  0.230826  0.367956  1
  P  P29  1  0.750000  0.770140  0.637344  1
  P  P30  1  0.750000  0.729400  0.131125  1
  P  P31  1  0.250000  0.270025  0.869248  1
  P  P32  1  0.250000  0.898154  0.893700  1
  P  P33  1  0.750000  0.102199  0.108569  1
  P  P34  1  0.750000  0.396294  0.607295  1
  P  P35  1  0.250000  0.602178  0.391447  1
