# generated using pymatgen
data_Li4NdTh3Si8
_symmetry_space_group_name_H-M   'P 1'
_cell_length_a   3.86297000
_cell_length_b   7.79510001
_cell_length_c   10.45943102
_cell_angle_alpha   89.76230069
_cell_angle_beta   90.00000000
_cell_angle_gamma   90.00000000
_symmetry_Int_Tables_number   1
_chemical_formula_structural   Li4NdTh3Si8
_chemical_formula_sum   'Li4 Nd1 Th3 Si8'
_cell_volume   314.95416048
_cell_formula_units_Z   1
loop_
 _symmetry_equiv_pos_site_id
 _symmetry_equiv_pos_as_xyz
  1  'x, y, z'
loop_
 _atom_site_type_symbol
 _atom_site_label
 _atom_site_symmetry_multiplicity
 _atom_site_fract_x
 _atom_site_fract_y
 _atom_site_fract_z
 _atom_site_occupancy
  Li  Li0  1  0.250000  0.995093  0.395100  1
  Li  Li1  1  0.750000  0.010911  0.604759  1
  Li  Li2  1  0.250000  0.488323  0.108120  1
  Li  Li3  1  0.750000  0.508132  0.896628  1
  Nd  Nd4  1  0.750000  0.365803  0.362945  1
  Th  Th5  1  0.250000  0.135151  0.862246  1
  Th  Th6  1  0.750000  0.861051  0.135495  1
  Th  Th7  1  0.250000  0.636738  0.637298  1
  Si  Si8  1  0.750000  0.263296  0.067364  1
  Si  Si9  1  0.250000  0.730210  0.930280  1
  Si  Si10  1  0.750000  0.769355  0.431364  1
  Si  Si11  1  0.250000  0.236627  0.570098  1
  Si  Si12  1  0.750000  0.837114  0.817137  1
  Si  Si13  1  0.250000  0.159153  0.179291  1
  Si  Si14  1  0.750000  0.336753  0.684566  1
  Si  Si15  1  0.250000  0.666289  0.317309  1
