# generated using pymatgen
data_TbSm9(Sn3Br)2
_symmetry_space_group_name_H-M   'P 1'
_cell_length_a   9.37197600
_cell_length_b   9.37197624
_cell_length_c   6.73382300
_cell_angle_alpha   90.00000000
_cell_angle_beta   90.00000000
_cell_angle_gamma   120.00000621
_symmetry_Int_Tables_number   1
_chemical_formula_structural   TbSm9(Sn3Br)2
_chemical_formula_sum   'Tb1 Sm9 Sn6 Br2'
_cell_volume   512.21777805
_cell_formula_units_Z   1
loop_
 _symmetry_equiv_pos_site_id
 _symmetry_equiv_pos_as_xyz
  1  'x, y, z'
loop_
 _atom_site_type_symbol
 _atom_site_label
 _atom_site_symmetry_multiplicity
 _atom_site_fract_x
 _atom_site_fract_y
 _atom_site_fract_z
 _atom_site_occupancy
  Tb  Tb0  1  0.666667  0.333333  0.000000  1
  Sm  Sm1  1  0.267974  0.267828  0.750141  1
  Sm  Sm2  1  0.999854  0.732026  0.750141  1
  Sm  Sm3  1  0.732172  0.000146  0.750141  1
  Sm  Sm4  1  0.999854  0.267828  0.249859  1
  Sm  Sm5  1  0.333333  0.666667  0.500000  1
  Sm  Sm6  1  0.732172  0.732026  0.249859  1
  Sm  Sm7  1  0.666667  0.333333  0.500000  1
  Sm  Sm8  1  0.267974  0.000146  0.249859  1
  Sm  Sm9  1  0.333333  0.666667  0.000000  1
  Sn  Sn10  1  0.612451  0.000583  0.249639  1
  Sn  Sn11  1  0.999417  0.387549  0.750361  1
  Sn  Sn12  1  0.388131  0.000583  0.750361  1
  Sn  Sn13  1  0.612451  0.611869  0.750361  1
  Sn  Sn14  1  0.999417  0.611869  0.249639  1
  Sn  Sn15  1  0.388131  0.387549  0.249639  1
  Br  Br16  1  0.000000  0.000000  0.000000  1
  Br  Br17  1  0.000000  0.000000  0.500000  1
