# generated using pymatgen
data_Rb3Nd(BO3)2
_symmetry_space_group_name_H-M   'P 1'
_cell_length_a   5.77242400
_cell_length_b   7.30323500
_cell_length_c   9.73355300
_cell_angle_alpha   90.00000000
_cell_angle_beta   90.00000000
_cell_angle_gamma   90.00000000
_symmetry_Int_Tables_number   1
_chemical_formula_structural   Rb3Nd(BO3)2
_chemical_formula_sum   'Rb6 Nd2 B4 O12'
_cell_volume   410.34098542
_cell_formula_units_Z   2
loop_
 _symmetry_equiv_pos_site_id
 _symmetry_equiv_pos_as_xyz
  1  'x, y, z'
loop_
 _atom_site_type_symbol
 _atom_site_label
 _atom_site_symmetry_multiplicity
 _atom_site_fract_x
 _atom_site_fract_y
 _atom_site_fract_z
 _atom_site_occupancy
  Rb  Rb0  1  0.000000  0.232733  0.333377  1
  Rb  Rb1  1  0.000000  0.767267  0.666623  1
  Rb  Rb2  1  0.500000  0.732733  0.166623  1
  Rb  Rb3  1  0.500000  0.500000  0.500000  1
  Rb  Rb4  1  0.500000  0.267267  0.833377  1
  Rb  Rb5  1  0.000000  0.000000  0.000000  1
  Nd  Nd6  1  0.000000  0.500000  0.000000  1
  Nd  Nd7  1  0.500000  0.000000  0.500000  1
  B  B8  1  0.000000  0.766265  0.333333  1
  B  B9  1  0.000000  0.233735  0.666667  1
  B  B10  1  0.500000  0.733735  0.833333  1
  B  B11  1  0.500000  0.266265  0.166667  1
  O  O12  1  0.709521  0.306125  0.100617  1
  O  O13  1  0.209521  0.193875  0.600617  1
  O  O14  1  0.500000  0.188750  0.298583  1
  O  O15  1  0.709521  0.693875  0.899383  1
  O  O16  1  0.290479  0.306125  0.100617  1
  O  O17  1  0.209521  0.806125  0.399383  1
  O  O18  1  0.790479  0.193875  0.600617  1
  O  O19  1  0.290479  0.693875  0.899383  1
  O  O20  1  0.790479  0.806125  0.399383  1
  O  O21  1  0.000000  0.311250  0.798583  1
  O  O22  1  0.000000  0.688750  0.201417  1
  O  O23  1  0.500000  0.811250  0.701417  1
