# generated using pymatgen
data_AcTl2P2S7
_symmetry_space_group_name_H-M   'P 1'
_cell_length_a   6.82205499
_cell_length_b   12.28707867
_cell_length_c   17.12396000
_cell_angle_alpha   79.45453138
_cell_angle_beta   78.44296508
_cell_angle_gamma   73.88609581
_symmetry_Int_Tables_number   1
_chemical_formula_structural   AcTl2P2S7
_chemical_formula_sum   'Ac4 Tl8 P8 S28'
_cell_volume   1338.59695475
_cell_formula_units_Z   4
loop_
 _symmetry_equiv_pos_site_id
 _symmetry_equiv_pos_as_xyz
  1  'x, y, z'
loop_
 _atom_site_type_symbol
 _atom_site_label
 _atom_site_symmetry_multiplicity
 _atom_site_fract_x
 _atom_site_fract_y
 _atom_site_fract_z
 _atom_site_occupancy
  Ac  Ac0  1  0.874946  0.078820  0.237223  1
  Ac  Ac1  1  0.125054  0.921180  0.762777  1
  Ac  Ac2  1  0.190940  0.421038  0.262775  1
  Ac  Ac3  1  0.809060  0.578962  0.737225  1
  Tl  Tl4  1  0.538689  0.861201  0.122752  1
  Tl  Tl5  1  0.477209  0.361257  0.622694  1
  Tl  Tl6  1  0.461311  0.138799  0.877248  1
  Tl  Tl7  1  0.835049  0.826115  0.518353  1
  Tl  Tl8  1  0.522791  0.638743  0.377306  1
  Tl  Tl9  1  0.164951  0.173885  0.481647  1
  Tl  Tl10  1  0.177641  0.673846  0.981504  1
  Tl  Tl11  1  0.822359  0.326154  0.018496  1
  P  P12  1  0.069761  0.717102  0.190525  1
  P  P13  1  0.976555  0.782713  0.309417  1
  P  P14  1  0.332907  0.695185  0.630906  1
  P  P15  1  0.930239  0.282898  0.809475  1
  P  P16  1  0.667093  0.304815  0.369094  1
  P  P17  1  0.023445  0.217287  0.690583  1
  P  P18  1  0.342001  0.195040  0.130892  1
  P  P19  1  0.657999  0.804960  0.869108  1
  S  S20  1  0.144442  0.615903  0.595020  1
  S  S21  1  0.354187  0.884152  0.904956  1
  S  S22  1  0.258597  0.866246  0.592284  1
  S  S23  1  0.875295  0.617611  0.189743  1
  S  S24  1  0.124705  0.382389  0.810257  1
  S  S25  1  0.628544  0.619401  0.582016  1
  S  S26  1  0.039150  0.857180  0.107343  1
  S  S27  1  0.960850  0.142820  0.892657  1
  S  S28  1  0.645813  0.115848  0.095044  1
  S  S29  1  0.268411  0.163265  0.255604  1
  S  S30  1  0.317955  0.117732  0.690221  1
  S  S31  1  0.371456  0.380599  0.417984  1
  S  S32  1  0.828575  0.880795  0.918038  1
  S  S33  1  0.855558  0.384097  0.404980  1
  S  S34  1  0.171425  0.119205  0.081962  1
  S  S35  1  0.682045  0.882268  0.309779  1
  S  S36  1  0.998462  0.357363  0.607401  1
  S  S37  1  0.312695  0.663424  0.755624  1
  S  S38  1  0.687305  0.336576  0.244376  1
  S  S39  1  0.716287  0.633878  0.907703  1
  S  S40  1  0.366770  0.621680  0.189113  1
  S  S41  1  0.283713  0.366122  0.092297  1
  S  S42  1  0.823553  0.121868  0.688677  1
  S  S43  1  0.741403  0.133754  0.407716  1
  S  S44  1  0.731589  0.836735  0.744396  1
  S  S45  1  0.633230  0.378320  0.810887  1
  S  S46  1  0.176447  0.878132  0.311323  1
  S  S47  1  0.001538  0.642637  0.392599  1
