# generated using pymatgen
data_Dy5HoBiO12
_symmetry_space_group_name_H-M   'P 1'
_cell_length_a   6.56047905
_cell_length_b   6.56023470
_cell_length_c   6.55935109
_cell_angle_alpha   99.05678621
_cell_angle_beta   99.08428870
_cell_angle_gamma   99.05024690
_symmetry_Int_Tables_number   1
_chemical_formula_structural   Dy5HoBiO12
_chemical_formula_sum   'Dy5 Ho1 Bi1 O12'
_cell_volume   270.44149278
_cell_formula_units_Z   1
loop_
 _symmetry_equiv_pos_site_id
 _symmetry_equiv_pos_as_xyz
  1  'x, y, z'
loop_
 _atom_site_type_symbol
 _atom_site_label
 _atom_site_symmetry_multiplicity
 _atom_site_fract_x
 _atom_site_fract_y
 _atom_site_fract_z
 _atom_site_occupancy
  Dy  Dy0  1  0.140925  0.308051  0.609166  1
  Dy  Dy1  1  0.390731  0.858905  0.691769  1
  Dy  Dy2  1  0.692086  0.391082  0.859343  1
  Dy  Dy3  1  0.308058  0.609250  0.140937  1
  Dy  Dy4  1  0.609349  0.140825  0.307893  1
  Ho  Ho5  1  0.859029  0.691785  0.390806  1
  Bi  Bi6  1  0.999833  0.999697  0.999865  1
  O  O7  1  0.071700  0.315799  0.949189  1
  O  O8  1  0.049962  0.927573  0.683423  1
  O  O9  1  0.414751  0.566753  0.821505  1
  O  O10  1  0.177568  0.585481  0.433029  1
  O  O11  1  0.683991  0.050772  0.928315  1
  O  O12  1  0.433357  0.178571  0.585137  1
  O  O13  1  0.567855  0.820854  0.414853  1
  O  O14  1  0.315963  0.949384  0.071647  1
  O  O15  1  0.821433  0.415862  0.566363  1
  O  O16  1  0.585985  0.433802  0.179099  1
  O  O17  1  0.949303  0.071389  0.315983  1
  O  O18  1  0.928120  0.684167  0.051678  1
