# generated using pymatgen
data_ScFe3SiB
_symmetry_space_group_name_H-M   'P 1'
_cell_length_a   5.01358600
_cell_length_b   5.01536629
_cell_length_c   6.60741700
_cell_angle_alpha   90.00000000
_cell_angle_beta   90.00000000
_cell_angle_gamma   119.98824527
_symmetry_Int_Tables_number   1
_chemical_formula_structural   ScFe3SiB
_chemical_formula_sum   'Sc2 Fe6 Si2 B2'
_cell_volume   143.90136156
_cell_formula_units_Z   2
loop_
 _symmetry_equiv_pos_site_id
 _symmetry_equiv_pos_as_xyz
  1  'x, y, z'
loop_
 _atom_site_type_symbol
 _atom_site_label
 _atom_site_symmetry_multiplicity
 _atom_site_fract_x
 _atom_site_fract_y
 _atom_site_fract_z
 _atom_site_occupancy
  Sc  Sc0  1  0.999985  0.000000  0.000000  1
  Sc  Sc1  1  0.999985  0.000000  0.500000  1
  Fe  Fe2  1  0.499984  0.000000  0.282672  1
  Fe  Fe3  1  0.499984  0.500001  0.282659  1
  Fe  Fe4  1  0.999983  0.499999  0.282659  1
  Fe  Fe5  1  0.499984  0.000000  0.717328  1
  Fe  Fe6  1  0.499984  0.500001  0.717341  1
  Fe  Fe7  1  0.999983  0.499999  0.717341  1
  Si  Si8  1  0.333253  0.666542  0.000000  1
  Si  Si9  1  0.666711  0.333458  0.000000  1
  B  B10  1  0.333289  0.666611  0.500000  1
  B  B11  1  0.666677  0.333389  0.500000  1
