# generated using pymatgen
data_Hf8Co8Si13Ge
_symmetry_space_group_name_H-M   'P 1'
_cell_length_a   9.44375901
_cell_length_b   9.44348474
_cell_length_c   9.43249238
_cell_angle_alpha   94.13304202
_cell_angle_beta   94.13456974
_cell_angle_gamma   148.87018691
_symmetry_Int_Tables_number   1
_chemical_formula_structural   Hf8Co8Si13Ge
_chemical_formula_sum   'Hf8 Co8 Si13 Ge1'
_cell_volume   418.89997200
_cell_formula_units_Z   1
loop_
 _symmetry_equiv_pos_site_id
 _symmetry_equiv_pos_as_xyz
  1  'x, y, z'
loop_
 _atom_site_type_symbol
 _atom_site_label
 _atom_site_symmetry_multiplicity
 _atom_site_fract_x
 _atom_site_fract_y
 _atom_site_fract_z
 _atom_site_occupancy
  Hf  Hf0  1  0.137052  0.137072  0.274117  1
  Hf  Hf1  1  0.863497  0.863508  0.726990  1
  Hf  Hf2  1  0.137122  0.862692  0.999833  1
  Hf  Hf3  1  0.862710  0.137137  0.999831  1
  Hf  Hf4  1  0.303648  0.502323  0.805946  1
  Hf  Hf5  1  0.696068  0.499709  0.195710  1
  Hf  Hf6  1  0.499666  0.696021  0.195731  1
  Hf  Hf7  1  0.502377  0.303636  0.806042  1
  Co  Co8  1  0.102002  0.602012  0.204015  1
  Co  Co9  1  0.398190  0.898200  0.796407  1
  Co  Co10  1  0.893608  0.100509  0.498192  1
  Co  Co11  1  0.604692  0.397739  0.498172  1
  Co  Co12  1  0.601986  0.102005  0.204021  1
  Co  Co13  1  0.898213  0.398239  0.796444  1
  Co  Co14  1  0.100506  0.893533  0.498162  1
  Co  Co15  1  0.397607  0.604533  0.498184  1
  Si  Si16  1  0.709243  0.709252  0.418503  1
  Si  Si17  1  0.290225  0.710526  0.000706  1
  Si  Si18  1  0.710465  0.290180  0.000707  1
  Si  Si19  1  0.091434  0.500312  0.591674  1
  Si  Si20  1  0.908778  0.499546  0.408227  1
  Si  Si21  1  0.499411  0.908655  0.408231  1
  Si  Si22  1  0.500223  0.091369  0.591671  1
  Si  Si23  1  0.251877  0.251878  0.999909  1
  Si  Si24  1  0.748033  0.748028  0.999906  1
  Si  Si25  1  0.299966  0.999500  0.299497  1
  Si  Si26  1  0.699523  0.999964  0.699579  1
  Si  Si27  1  0.000064  0.699606  0.699562  1
  Si  Si28  1  0.999531  0.299999  0.299493  1
  Ge  Ge29  1  0.292284  0.292320  0.584536  1
