# generated using pymatgen
data_ZrRe24MoW3
_symmetry_space_group_name_H-M   'P 1'
_cell_length_a   8.38621357
_cell_length_b   8.38621343
_cell_length_c   8.38621316
_cell_angle_alpha   109.47113210
_cell_angle_beta   109.47113289
_cell_angle_gamma   109.47114360
_symmetry_Int_Tables_number   1
_chemical_formula_structural   ZrRe24MoW3
_chemical_formula_sum   'Zr1 Re24 Mo1 W3'
_cell_volume   454.02230942
_cell_formula_units_Z   1
loop_
 _symmetry_equiv_pos_site_id
 _symmetry_equiv_pos_as_xyz
  1  'x, y, z'
loop_
 _atom_site_type_symbol
 _atom_site_label
 _atom_site_symmetry_multiplicity
 _atom_site_fract_x
 _atom_site_fract_y
 _atom_site_fract_z
 _atom_site_occupancy
  Zr  Zr0  1  0.001400  0.001400  0.001400  1
  Re  Re1  1  0.314821  0.314821  0.716032  1
  Re  Re2  1  0.401923  0.685053  0.999751  1
  Re  Re3  1  0.685053  0.401923  0.999751  1
  Re  Re4  1  0.597774  0.283272  0.597774  1
  Re  Re5  1  0.401923  0.999751  0.685053  1
  Re  Re6  1  0.999751  0.401923  0.685053  1
  Re  Re7  1  0.283272  0.597774  0.597774  1
  Re  Re8  1  0.716032  0.314821  0.314821  1
  Re  Re9  1  0.314821  0.716032  0.314821  1
  Re  Re10  1  0.685053  0.999751  0.401923  1
  Re  Re11  1  0.999751  0.685053  0.401923  1
  Re  Re12  1  0.597774  0.597774  0.283272  1
  Re  Re13  1  0.804817  0.804817  0.182529  1
  Re  Re14  1  0.377255  0.195043  0.999707  1
  Re  Re15  1  0.195043  0.377255  0.999707  1
  Re  Re16  1  0.623038  0.817925  0.623038  1
  Re  Re17  1  0.377255  0.999707  0.195043  1
  Re  Re18  1  0.999707  0.377255  0.195043  1
  Re  Re19  1  0.817925  0.623038  0.623038  1
  Re  Re20  1  0.182529  0.804817  0.804817  1
  Re  Re21  1  0.804817  0.182529  0.804817  1
  Re  Re22  1  0.195043  0.999707  0.377255  1
  Re  Re23  1  0.999707  0.195043  0.377255  1
  Re  Re24  1  0.623038  0.623038  0.817925  1
  Mo  Mo25  1  0.366036  0.366036  0.366036  1
  W  W26  1  0.000121  0.000121  0.634204  1
  W  W27  1  0.634204  0.000121  0.000121  1
  W  W28  1  0.000121  0.634204  0.000121  1
