# generated using pymatgen
data_Te13OsI6
_symmetry_space_group_name_H-M   'P 1'
_cell_length_a   9.72467809
_cell_length_b   9.72467554
_cell_length_c   9.72467808
_cell_angle_alpha   107.52894037
_cell_angle_beta   107.52893109
_cell_angle_gamma   107.52894188
_symmetry_Int_Tables_number   1
_chemical_formula_structural   Te13OsI6
_chemical_formula_sum   'Te13 Os1 I6'
_cell_volume   754.57489727
_cell_formula_units_Z   1
loop_
 _symmetry_equiv_pos_site_id
 _symmetry_equiv_pos_as_xyz
  1  'x, y, z'
loop_
 _atom_site_type_symbol
 _atom_site_label
 _atom_site_symmetry_multiplicity
 _atom_site_fract_x
 _atom_site_fract_y
 _atom_site_fract_z
 _atom_site_occupancy
  Te  Te0  1  0.942379  0.172533  0.191338  1
  Te  Te1  1  0.191338  0.942379  0.172533  1
  Te  Te2  1  0.172533  0.191338  0.942379  1
  Te  Te3  1  0.677873  0.643166  0.393573  1
  Te  Te4  1  0.393573  0.677873  0.643166  1
  Te  Te5  1  0.643166  0.393573  0.677873  1
  Te  Te6  1  0.106427  0.856834  0.822127  1
  Te  Te7  1  0.822127  0.106427  0.856834  1
  Te  Te8  1  0.856834  0.822127  0.106427  1
  Te  Te9  1  0.308662  0.327467  0.557621  1
  Te  Te10  1  0.557621  0.308662  0.327467  1
  Te  Te11  1  0.327467  0.557621  0.308662  1
  Te  Te12  1  0.750000  0.750000  0.750000  1
  Os  Os13  1  0.250000  0.250000  0.250000  1
  I  I14  1  0.978627  0.521373  0.250000  1
  I  I15  1  0.250000  0.978627  0.521373  1
  I  I16  1  0.521373  0.250000  0.978627  1
  I  I17  1  0.750000  0.013219  0.486781  1
  I  I18  1  0.486781  0.750000  0.013219  1
  I  I19  1  0.013219  0.486781  0.750000  1
