# generated using pymatgen
data_K5Rb2TaTl3As5
_symmetry_space_group_name_H-M   'P 1'
_cell_length_a   8.52972077
_cell_length_b   9.50668070
_cell_length_c   14.33209656
_cell_angle_alpha   85.75694299
_cell_angle_beta   82.34613495
_cell_angle_gamma   89.29130107
_symmetry_Int_Tables_number   1
_chemical_formula_structural   K5Rb2TaTl3As5
_chemical_formula_sum   'K10 Rb4 Ta2 Tl6 As10'
_cell_volume   1148.66530754
_cell_formula_units_Z   2
loop_
 _symmetry_equiv_pos_site_id
 _symmetry_equiv_pos_as_xyz
  1  'x, y, z'
loop_
 _atom_site_type_symbol
 _atom_site_label
 _atom_site_symmetry_multiplicity
 _atom_site_fract_x
 _atom_site_fract_y
 _atom_site_fract_z
 _atom_site_occupancy
  K  K0  1  0.850916  0.346423  0.662736  1
  K  K1  1  0.826196  0.803146  0.139518  1
  K  K2  1  0.230997  0.018965  0.473807  1
  K  K3  1  0.265974  0.260382  0.249461  1
  K  K4  1  0.735366  0.493606  0.971933  1
  K  K5  1  0.264492  0.508740  0.024521  1
  K  K6  1  0.667621  0.089197  0.878810  1
  K  K7  1  0.752281  0.990750  0.529671  1
  K  K8  1  0.730287  0.737754  0.748941  1
  K  K9  1  0.347599  0.345466  0.606588  1
  Rb  Rb10  1  0.179862  0.643755  0.349951  1
  Rb  Rb11  1  0.172654  0.192416  0.869628  1
  Rb  Rb12  1  0.325747  0.914942  0.116560  1
  Rb  Rb13  1  0.688798  0.654935  0.397864  1
  Ta  Ta14  1  0.351778  0.609800  0.773143  1
  Ta  Ta15  1  0.649125  0.390515  0.222095  1
  Tl  Tl16  1  0.035712  0.821971  0.878518  1
  Tl  Tl17  1  0.959749  0.172606  0.124328  1
  Tl  Tl18  1  0.368477  0.972473  0.696125  1
  Tl  Tl19  1  0.081932  0.718017  0.614772  1
  Tl  Tl20  1  0.907591  0.280934  0.386659  1
  Tl  Tl21  1  0.620790  0.028241  0.300975  1
  As  As22  1  0.936057  0.456975  0.203740  1
  As  As23  1  0.618622  0.192129  0.116672  1
  As  As24  1  0.065982  0.540581  0.795988  1
  As  As25  1  0.560617  0.297493  0.391332  1
  As  As26  1  0.426122  0.706497  0.603686  1
  As  As27  1  0.002047  0.016000  0.697494  1
  As  As28  1  0.515446  0.406147  0.808759  1
  As  As29  1  0.496366  0.597068  0.180060  1
  As  As30  1  0.381673  0.809572  0.877378  1
  As  As31  1  0.983125  0.982505  0.308289  1
