# generated using pymatgen
data_Tb6AlTcNi
_symmetry_space_group_name_H-M   'P 1'
_cell_length_a   8.40014784
_cell_length_b   8.40014865
_cell_length_c   8.40014775
_cell_angle_alpha   112.87386032
_cell_angle_beta   111.38875134
_cell_angle_gamma   104.27655121
_symmetry_Int_Tables_number   1
_chemical_formula_structural   Tb6AlTcNi
_chemical_formula_sum   'Tb12 Al2 Tc2 Ni2'
_cell_volume   453.42485436
_cell_formula_units_Z   2
loop_
 _symmetry_equiv_pos_site_id
 _symmetry_equiv_pos_as_xyz
  1  'x, y, z'
loop_
 _atom_site_type_symbol
 _atom_site_label
 _atom_site_symmetry_multiplicity
 _atom_site_fract_x
 _atom_site_fract_y
 _atom_site_fract_z
 _atom_site_occupancy
  Tb  Tb0  1  0.052280  0.743466  0.308815  1
  Tb  Tb1  1  0.947720  0.256534  0.691185  1
  Tb  Tb2  1  0.565349  0.256534  0.308815  1
  Tb  Tb3  1  0.434651  0.743466  0.691185  1
  Tb  Tb4  1  0.669919  0.854160  0.184242  1
  Tb  Tb5  1  0.330081  0.514322  0.184242  1
  Tb  Tb6  1  0.330081  0.145840  0.815758  1
  Tb  Tb7  1  0.669919  0.485678  0.815758  1
  Tb  Tb8  1  0.182192  0.219517  0.401709  1
  Tb  Tb9  1  0.817808  0.219517  0.037326  1
  Tb  Tb10  1  0.182192  0.780483  0.962674  1
  Tb  Tb11  1  0.817808  0.780483  0.598291  1
  Al  Al12  1  0.000000  0.500000  0.500000  1
  Al  Al13  1  0.500000  0.000000  0.500000  1
  Tc  Tc14  1  0.683482  0.500000  0.183482  1
  Tc  Tc15  1  0.316518  0.500000  0.816518  1
  Ni  Ni16  1  0.885115  0.885115  0.000000  1
  Ni  Ni17  1  0.114885  0.114885  0.000000  1
