# generated using pymatgen
data_Tb8Co3Si12Au
_symmetry_space_group_name_H-M   'P 1'
_cell_length_a   8.02783000
_cell_length_b   8.02782901
_cell_length_c   8.09670300
_cell_angle_alpha   90.00000000
_cell_angle_beta   90.00000000
_cell_angle_gamma   120.00001231
_symmetry_Int_Tables_number   1
_chemical_formula_structural   Tb8Co3Si12Au
_chemical_formula_sum   'Tb8 Co3 Si12 Au1'
_cell_volume   451.89243154
_cell_formula_units_Z   1
loop_
 _symmetry_equiv_pos_site_id
 _symmetry_equiv_pos_as_xyz
  1  'x, y, z'
loop_
 _atom_site_type_symbol
 _atom_site_label
 _atom_site_symmetry_multiplicity
 _atom_site_fract_x
 _atom_site_fract_y
 _atom_site_fract_z
 _atom_site_occupancy
  Tb  Tb0  1  0.503930  0.007860  0.255371  1
  Tb  Tb1  1  0.503198  0.006399  0.744750  1
  Tb  Tb2  1  0.992140  0.496070  0.255371  1
  Tb  Tb3  1  0.993601  0.496802  0.744750  1
  Tb  Tb4  1  0.503930  0.496070  0.255371  1
  Tb  Tb5  1  0.503198  0.496802  0.744750  1
  Tb  Tb6  1  0.000000  0.000000  0.252689  1
  Tb  Tb7  1  0.000000  0.000000  0.746857  1
  Co  Co8  1  0.666667  0.333333  0.000459  1
  Co  Co9  1  0.666667  0.333333  0.500307  1
  Co  Co10  1  0.333333  0.666667  0.499254  1
  Si  Si11  1  0.159996  0.319993  0.999499  1
  Si  Si12  1  0.826214  0.652429  0.999974  1
  Si  Si13  1  0.680007  0.840004  0.999499  1
  Si  Si14  1  0.829192  0.658385  0.500807  1
  Si  Si15  1  0.347571  0.173786  0.999974  1
  Si  Si16  1  0.172656  0.345312  0.499251  1
  Si  Si17  1  0.159996  0.840004  0.999499  1
  Si  Si18  1  0.341615  0.170808  0.500807  1
  Si  Si19  1  0.826214  0.173786  0.999974  1
  Si  Si20  1  0.654688  0.827344  0.499251  1
  Si  Si21  1  0.829192  0.170808  0.500807  1
  Si  Si22  1  0.172656  0.827344  0.499251  1
  Au  Au23  1  0.333333  0.666667  0.001475  1
