# generated using pymatgen
data_Hf16Co4Re3W
_symmetry_space_group_name_H-M   'P 1'
_cell_length_a   8.64547293
_cell_length_b   8.64713761
_cell_length_c   8.64713900
_cell_angle_alpha   60.00000615
_cell_angle_beta   59.99363646
_cell_angle_gamma   59.99363722
_symmetry_Int_Tables_number   1
_chemical_formula_structural   Hf16Co4Re3W
_chemical_formula_sum   'Hf16 Co4 Re3 W1'
_cell_volume   457.06378424
_cell_formula_units_Z   1
loop_
 _symmetry_equiv_pos_site_id
 _symmetry_equiv_pos_as_xyz
  1  'x, y, z'
loop_
 _atom_site_type_symbol
 _atom_site_label
 _atom_site_symmetry_multiplicity
 _atom_site_fract_x
 _atom_site_fract_y
 _atom_site_fract_z
 _atom_site_occupancy
  Hf  Hf0  1  0.697647  0.100784  0.100784  1
  Hf  Hf1  1  0.100862  0.698138  0.100499  1
  Hf  Hf2  1  0.100862  0.100499  0.698138  1
  Hf  Hf3  1  0.100862  0.100499  0.100499  1
  Hf  Hf4  1  0.313837  0.314301  0.685931  1
  Hf  Hf5  1  0.684124  0.686935  0.314471  1
  Hf  Hf6  1  0.313837  0.685931  0.314301  1
  Hf  Hf7  1  0.684124  0.314471  0.686935  1
  Hf  Hf8  1  0.684124  0.314471  0.314471  1
  Hf  Hf9  1  0.313837  0.685931  0.685931  1
  Hf  Hf10  1  0.953872  0.953025  0.546552  1
  Hf  Hf11  1  0.545569  0.545911  0.954260  1
  Hf  Hf12  1  0.953872  0.546552  0.953025  1
  Hf  Hf13  1  0.545569  0.954260  0.545911  1
  Hf  Hf14  1  0.545569  0.954260  0.954260  1
  Hf  Hf15  1  0.953872  0.546552  0.546552  1
  Co  Co16  1  0.328947  0.890351  0.890351  1
  Co  Co17  1  0.890383  0.329038  0.890289  1
  Co  Co18  1  0.890383  0.890289  0.329038  1
  Co  Co19  1  0.890383  0.890289  0.890289  1
  Re  Re20  1  0.333377  0.000640  0.332992  1
  Re  Re21  1  0.333377  0.332992  0.000640  1
  Re  Re22  1  0.333377  0.332992  0.332992  1
  W  W23  1  0.007334  0.330889  0.330889  1
