# generated using pymatgen
data_Tb10Dy2Si(BBr4)3
_symmetry_space_group_name_H-M   'P 1'
_cell_length_a   9.91683600
_cell_length_b   9.91722433
_cell_length_c   9.91759418
_cell_angle_alpha   109.78180109
_cell_angle_beta   109.80327537
_cell_angle_gamma   109.80492880
_symmetry_Int_Tables_number   1
_chemical_formula_structural   Tb10Dy2Si(BBr4)3
_chemical_formula_sum   'Tb10 Dy2 Si1 B3 Br12'
_cell_volume   741.65543698
_cell_formula_units_Z   1
loop_
 _symmetry_equiv_pos_site_id
 _symmetry_equiv_pos_as_xyz
  1  'x, y, z'
loop_
 _atom_site_type_symbol
 _atom_site_label
 _atom_site_symmetry_multiplicity
 _atom_site_fract_x
 _atom_site_fract_y
 _atom_site_fract_z
 _atom_site_occupancy
  Tb  Tb0  1  0.750007  0.019976  0.480052  1
  Tb  Tb1  1  0.225284  0.468418  0.494458  1
  Tb  Tb2  1  0.271941  0.750032  0.228172  1
  Tb  Tb3  1  0.031690  0.274720  0.005594  1
  Tb  Tb4  1  0.005529  0.031647  0.274667  1
  Tb  Tb5  1  0.480122  0.749995  0.019912  1
  Tb  Tb6  1  0.494506  0.225349  0.468419  1
  Tb  Tb7  1  0.019948  0.480090  0.750034  1
  Tb  Tb8  1  0.274709  0.005563  0.031567  1
  Tb  Tb9  1  0.228102  0.271863  0.749971  1
  Dy  Dy10  1  0.467873  0.494291  0.224975  1
  Dy  Dy11  1  0.750007  0.227822  0.272169  1
  Si  Si12  1  0.250274  0.250276  0.249996  1
  B  B13  1  0.501105  0.999370  0.250006  1
  B  B14  1  0.998913  0.250005  0.500628  1
  B  B15  1  0.250276  0.500880  0.999380  1
  Br  Br16  1  0.250006  0.757545  0.742467  1
  Br  Br17  1  0.512599  0.506864  0.757794  1
  Br  Br18  1  0.987410  0.742213  0.993144  1
  Br  Br19  1  0.742464  0.250002  0.757543  1
  Br  Br20  1  0.993138  0.987408  0.742205  1
  Br  Br21  1  0.250002  0.993582  0.506409  1
  Br  Br22  1  0.757667  0.512425  0.506478  1
  Br  Br23  1  0.506623  0.250255  0.993977  1
  Br  Br24  1  0.757293  0.742200  0.250007  1
  Br  Br25  1  0.742204  0.993371  0.987602  1
  Br  Br26  1  0.993409  0.506249  0.249986  1
  Br  Br27  1  0.506899  0.757589  0.512387  1
