# generated using pymatgen
data_Ho8Si8Pd3Pt5
_symmetry_space_group_name_H-M   'P 1'
_cell_length_a   4.26617100
_cell_length_b   7.49485462
_cell_length_c   13.98725812
_cell_angle_alpha   89.98436587
_cell_angle_beta   90.00000000
_cell_angle_gamma   90.00000000
_symmetry_Int_Tables_number   1
_chemical_formula_structural   Ho8Si8Pd3Pt5
_chemical_formula_sum   'Ho8 Si8 Pd3 Pt5'
_cell_volume   447.23321010
_cell_formula_units_Z   1
loop_
 _symmetry_equiv_pos_site_id
 _symmetry_equiv_pos_as_xyz
  1  'x, y, z'
loop_
 _atom_site_type_symbol
 _atom_site_label
 _atom_site_symmetry_multiplicity
 _atom_site_fract_x
 _atom_site_fract_y
 _atom_site_fract_z
 _atom_site_occupancy
  Ho  Ho0  1  0.000000  0.299578  0.000299  1
  Ho  Ho1  1  0.500000  0.700631  0.500114  1
  Ho  Ho2  1  0.000000  0.292705  0.499675  1
  Ho  Ho3  1  0.500000  0.706732  0.999940  1
  Ho  Ho4  1  0.000000  0.203588  0.249963  1
  Ho  Ho5  1  0.500000  0.795394  0.249799  1
  Ho  Ho6  1  0.000000  0.204133  0.749807  1
  Ho  Ho7  1  0.500000  0.795873  0.750531  1
  Si  Si8  1  0.000000  0.907056  0.592142  1
  Si  Si9  1  0.500000  0.093093  0.908060  1
  Si  Si10  1  0.000000  0.907211  0.408105  1
  Si  Si11  1  0.500000  0.094593  0.092895  1
  Si  Si12  1  0.000000  0.593211  0.144198  1
  Si  Si13  1  0.500000  0.404210  0.353944  1
  Si  Si14  1  0.000000  0.595366  0.857410  1
  Si  Si15  1  0.500000  0.404465  0.643107  1
  Pd  Pd16  1  0.000000  0.580459  0.344090  1
  Pd  Pd17  1  0.500000  0.421228  0.840996  1
  Pd  Pd18  1  0.000000  0.579061  0.657782  1
  Pt  Pt19  1  0.500000  0.074967  0.609169  1
  Pt  Pt20  1  0.000000  0.925126  0.890994  1
  Pt  Pt21  1  0.500000  0.074832  0.391410  1
  Pt  Pt22  1  0.000000  0.923956  0.109051  1
  Pt  Pt23  1  0.500000  0.422529  0.156519  1
