# generated using pymatgen
data_Ta3Mn2PN
_symmetry_space_group_name_H-M   'P 1'
_cell_length_a   7.95481126
_cell_length_b   7.95481072
_cell_length_c   7.95481200
_cell_angle_alpha   60.00000301
_cell_angle_beta   60.00000525
_cell_angle_gamma   60.00000366
_symmetry_Int_Tables_number   1
_chemical_formula_structural   Ta3Mn2PN
_chemical_formula_sum   'Ta12 Mn8 P4 N4'
_cell_volume   355.93827553
_cell_formula_units_Z   4
loop_
 _symmetry_equiv_pos_site_id
 _symmetry_equiv_pos_as_xyz
  1  'x, y, z'
loop_
 _atom_site_type_symbol
 _atom_site_label
 _atom_site_symmetry_multiplicity
 _atom_site_fract_x
 _atom_site_fract_y
 _atom_site_fract_z
 _atom_site_occupancy
  Ta  Ta0  1  0.800968  0.800968  0.199032  1
  Ta  Ta1  1  0.199032  0.199032  0.800968  1
  Ta  Ta2  1  0.800968  0.199032  0.800968  1
  Ta  Ta3  1  0.199032  0.800968  0.199032  1
  Ta  Ta4  1  0.199032  0.800968  0.800968  1
  Ta  Ta5  1  0.800968  0.199032  0.199032  1
  Ta  Ta6  1  0.449032  0.449032  0.050968  1
  Ta  Ta7  1  0.050968  0.050968  0.449032  1
  Ta  Ta8  1  0.449032  0.050968  0.449032  1
  Ta  Ta9  1  0.050968  0.449032  0.050968  1
  Ta  Ta10  1  0.050968  0.449032  0.449032  1
  Ta  Ta11  1  0.449032  0.050968  0.050968  1
  Mn  Mn12  1  0.738562  0.420479  0.420479  1
  Mn  Mn13  1  0.420479  0.738562  0.420479  1
  Mn  Mn14  1  0.420479  0.420479  0.738562  1
  Mn  Mn15  1  0.420479  0.420479  0.420479  1
  Mn  Mn16  1  0.511438  0.829521  0.829521  1
  Mn  Mn17  1  0.829521  0.511438  0.829521  1
  Mn  Mn18  1  0.829521  0.829521  0.511438  1
  Mn  Mn19  1  0.829521  0.829521  0.829521  1
  P  P20  1  0.125000  0.625000  0.625000  1
  P  P21  1  0.625000  0.125000  0.625000  1
  P  P22  1  0.625000  0.625000  0.125000  1
  P  P23  1  0.625000  0.625000  0.625000  1
  N  N24  1  0.625000  0.125000  0.125000  1
  N  N25  1  0.125000  0.625000  0.125000  1
  N  N26  1  0.125000  0.125000  0.625000  1
  N  N27  1  0.125000  0.125000  0.125000  1
