# generated using pymatgen
data_Ba4Cd3Hg(GeSe4)4
_symmetry_space_group_name_H-M   'P 1'
_cell_length_a   6.81884224
_cell_length_b   11.20794925
_cell_length_c   11.56444105
_cell_angle_alpha   90.00288463
_cell_angle_beta   90.01047107
_cell_angle_gamma   89.84516731
_symmetry_Int_Tables_number   1
_chemical_formula_structural   Ba4Cd3Hg(GeSe4)4
_chemical_formula_sum   'Ba4 Cd3 Hg1 Ge4 Se16'
_cell_volume   883.81191456
_cell_formula_units_Z   1
loop_
 _symmetry_equiv_pos_site_id
 _symmetry_equiv_pos_as_xyz
  1  'x, y, z'
loop_
 _atom_site_type_symbol
 _atom_site_label
 _atom_site_symmetry_multiplicity
 _atom_site_fract_x
 _atom_site_fract_y
 _atom_site_fract_z
 _atom_site_occupancy
  Ba  Ba0  1  0.054029  0.999974  0.499813  1
  Ba  Ba1  1  0.554296  0.499443  0.999455  1
  Ba  Ba2  1  0.058238  0.000048  0.000174  1
  Ba  Ba3  1  0.558445  0.499574  0.500626  1
  Cd  Cd4  1  0.487389  0.166823  0.252855  1
  Cd  Cd5  1  0.486483  0.833625  0.747130  1
  Cd  Cd6  1  0.986523  0.333544  0.752816  1
  Hg  Hg7  1  0.991990  0.667649  0.245973  1
  Ge  Ge8  1  0.040543  0.284222  0.249541  1
  Ge  Ge9  1  0.041910  0.715086  0.750422  1
  Ge  Ge10  1  0.541716  0.214951  0.749532  1
  Ge  Ge11  1  0.541065  0.786319  0.250823  1
  Se  Se12  1  0.257299  0.269618  0.085941  1
  Se  Se13  1  0.258310  0.730561  0.914065  1
  Se  Se14  1  0.757995  0.230475  0.586008  1
  Se  Se15  1  0.755467  0.770213  0.414675  1
  Se  Se16  1  0.253357  0.271524  0.415409  1
  Se  Se17  1  0.254048  0.728587  0.584554  1
  Se  Se18  1  0.753926  0.228526  0.915394  1
  Se  Se19  1  0.751628  0.772008  0.084487  1
  Se  Se20  1  0.855272  0.100724  0.249404  1
  Se  Se21  1  0.854590  0.898048  0.750637  1
  Se  Se22  1  0.354543  0.398053  0.749393  1
  Se  Se23  1  0.357374  0.601449  0.250650  1
  Se  Se24  1  0.804305  0.438953  0.248963  1
  Se  Se25  1  0.809397  0.558470  0.751265  1
  Se  Se26  1  0.309162  0.058450  0.748775  1
  Se  Se27  1  0.309101  0.943081  0.251220  1
