# generated using pymatgen
data_Tb3Re(P3Rh4)2
_symmetry_space_group_name_H-M   'P 1'
_cell_length_a   3.93533000
_cell_length_b   11.11708400
_cell_length_c   12.84814000
_cell_angle_alpha   90.00000000
_cell_angle_beta   90.00000000
_cell_angle_gamma   90.00000000
_symmetry_Int_Tables_number   1
_chemical_formula_structural   Tb3Re(P3Rh4)2
_chemical_formula_sum   'Tb6 Re2 P12 Rh16'
_cell_volume   562.09834131
_cell_formula_units_Z   2
loop_
 _symmetry_equiv_pos_site_id
 _symmetry_equiv_pos_as_xyz
  1  'x, y, z'
loop_
 _atom_site_type_symbol
 _atom_site_label
 _atom_site_symmetry_multiplicity
 _atom_site_fract_x
 _atom_site_fract_y
 _atom_site_fract_z
 _atom_site_occupancy
  Tb  Tb0  1  0.000000  0.500000  0.521101  1
  Tb  Tb1  1  0.500000  0.000000  0.478899  1
  Tb  Tb2  1  0.500000  0.816191  0.205093  1
  Tb  Tb3  1  0.500000  0.183809  0.205093  1
  Tb  Tb4  1  0.000000  0.683809  0.794907  1
  Tb  Tb5  1  0.000000  0.316191  0.794907  1
  Re  Re6  1  0.500000  0.500000  0.159146  1
  Re  Re7  1  0.000000  0.000000  0.840854  1
  P  P8  1  0.500000  0.500000  0.876179  1
  P  P9  1  0.000000  0.000000  0.123821  1
  P  P10  1  0.500000  0.500000  0.346561  1
  P  P11  1  0.000000  0.000000  0.653439  1
  P  P12  1  0.500000  0.315459  0.618361  1
  P  P13  1  0.500000  0.684541  0.618361  1
  P  P14  1  0.000000  0.184541  0.381639  1
  P  P15  1  0.000000  0.815459  0.381639  1
  P  P16  1  0.500000  0.848693  0.887362  1
  P  P17  1  0.500000  0.151307  0.887362  1
  P  P18  1  0.000000  0.651307  0.112638  1
  P  P19  1  0.000000  0.348693  0.112638  1
  Rh  Rh20  1  0.500000  0.500000  0.700724  1
  Rh  Rh21  1  0.000000  0.000000  0.299276  1
  Rh  Rh22  1  0.000000  0.500000  0.990632  1
  Rh  Rh23  1  0.500000  0.000000  0.009368  1
  Rh  Rh24  1  0.500000  0.331335  0.983323  1
  Rh  Rh25  1  0.500000  0.668665  0.983323  1
  Rh  Rh26  1  0.000000  0.168665  0.016677  1
  Rh  Rh27  1  0.000000  0.831335  0.016677  1
  Rh  Rh28  1  0.500000  0.295581  0.431913  1
  Rh  Rh29  1  0.500000  0.704419  0.431913  1
  Rh  Rh30  1  0.000000  0.204419  0.568087  1
  Rh  Rh31  1  0.000000  0.795581  0.568087  1
  Rh  Rh32  1  0.500000  0.876028  0.709264  1
  Rh  Rh33  1  0.500000  0.123972  0.709264  1
  Rh  Rh34  1  0.000000  0.623972  0.290736  1
  Rh  Rh35  1  0.000000  0.376028  0.290736  1
