# generated using pymatgen
data_DyTm3(Si5Os3)2
_symmetry_space_group_name_H-M   'P 1'
_cell_length_a   8.10499523
_cell_length_b   8.12350001
_cell_length_c   5.76600913
_cell_angle_alpha   70.65799902
_cell_angle_beta   70.53000175
_cell_angle_gamma   94.14597669
_symmetry_Int_Tables_number   1
_chemical_formula_structural   DyTm3(Si5Os3)2
_chemical_formula_sum   'Dy1 Tm3 Si10 Os6'
_cell_volume   330.52948438
_cell_formula_units_Z   1
loop_
 _symmetry_equiv_pos_site_id
 _symmetry_equiv_pos_as_xyz
  1  'x, y, z'
loop_
 _atom_site_type_symbol
 _atom_site_label
 _atom_site_symmetry_multiplicity
 _atom_site_fract_x
 _atom_site_fract_y
 _atom_site_fract_z
 _atom_site_occupancy
  Dy  Dy0  1  0.599676  0.869157  0.254566  1
  Tm  Tm1  1  0.869329  0.602174  0.751573  1
  Tm  Tm2  1  0.399910  0.131248  0.745598  1
  Tm  Tm3  1  0.131234  0.397359  0.248037  1
  Si  Si4  1  0.068571  0.259908  0.834266  1
  Si  Si5  1  0.736660  0.931237  0.668161  1
  Si  Si6  1  0.931622  0.739481  0.165027  1
  Si  Si7  1  0.263610  0.068747  0.331355  1
  Si  Si8  1  0.207977  0.795684  0.743570  1
  Si  Si9  1  0.793264  0.205408  0.254626  1
  Si  Si10  1  0.513081  0.487895  0.748656  1
  Si  Si11  1  0.486376  0.511432  0.252729  1
  Si  Si12  1  0.774815  0.225101  0.747630  1
  Si  Si13  1  0.224344  0.775215  0.252685  1
  Os  Os14  1  0.253404  0.541692  0.633826  1
  Os  Os15  1  0.453203  0.743248  0.872621  1
  Os  Os16  1  0.746282  0.457553  0.366816  1
  Os  Os17  1  0.546065  0.257599  0.128677  1
  Os  Os18  1  0.002811  0.997360  0.749420  1
  Os  Os19  1  0.997767  0.002501  0.250162  1
