# generated using pymatgen
data_CsWBr6
_symmetry_space_group_name_H-M   'P 1'
_cell_length_a   7.42631398
_cell_length_b   7.42631450
_cell_length_c   13.33779278
_cell_angle_alpha   78.86481426
_cell_angle_beta   78.86481459
_cell_angle_gamma   55.40411413
_symmetry_Int_Tables_number   1
_chemical_formula_structural   CsWBr6
_chemical_formula_sum   'Cs2 W2 Br12'
_cell_volume   590.93309378
_cell_formula_units_Z   2
loop_
 _symmetry_equiv_pos_site_id
 _symmetry_equiv_pos_as_xyz
  1  'x, y, z'
loop_
 _atom_site_type_symbol
 _atom_site_label
 _atom_site_symmetry_multiplicity
 _atom_site_fract_x
 _atom_site_fract_y
 _atom_site_fract_z
 _atom_site_occupancy
  Cs  Cs0  1  0.113732  0.886268  0.250000  1
  Cs  Cs1  1  0.886268  0.113732  0.750000  1
  W  W2  1  0.000000  0.500000  0.000000  1
  W  W3  1  0.500000  0.000000  0.500000  1
  Br  Br4  1  0.199219  0.371183  0.157321  1
  Br  Br5  1  0.628817  0.800781  0.342679  1
  Br  Br6  1  0.800781  0.628817  0.842679  1
  Br  Br7  1  0.371183  0.199219  0.657321  1
  Br  Br8  1  0.796046  0.890368  0.040517  1
  Br  Br9  1  0.109632  0.203954  0.459483  1
  Br  Br10  1  0.203954  0.109632  0.959483  1
  Br  Br11  1  0.890368  0.796046  0.540517  1
  Br  Br12  1  0.699444  0.460581  0.103432  1
  Br  Br13  1  0.539419  0.300556  0.396568  1
  Br  Br14  1  0.300556  0.539419  0.896568  1
  Br  Br15  1  0.460581  0.699444  0.603432  1
