# generated using pymatgen
data_Zr3PaIrRh
_symmetry_space_group_name_H-M   'P 1'
_cell_length_a   5.36658702
_cell_length_b   5.30712624
_cell_length_c   5.64979184
_cell_angle_alpha   104.84073706
_cell_angle_beta   105.29335726
_cell_angle_gamma   116.71934227
_symmetry_Int_Tables_number   1
_chemical_formula_structural   Zr3PaIrRh
_chemical_formula_sum   'Zr3 Pa1 Ir1 Rh1'
_cell_volume   124.84124455
_cell_formula_units_Z   1
loop_
 _symmetry_equiv_pos_site_id
 _symmetry_equiv_pos_as_xyz
  1  'x, y, z'
loop_
 _atom_site_type_symbol
 _atom_site_label
 _atom_site_symmetry_multiplicity
 _atom_site_fract_x
 _atom_site_fract_y
 _atom_site_fract_z
 _atom_site_occupancy
  Zr  Zr0  1  0.358134  0.858134  0.216267  1
  Zr  Zr1  1  0.828732  0.658149  0.488589  1
  Zr  Zr2  1  0.159858  0.330442  0.488589  1
  Pa  Pa3  1  0.674630  0.174630  0.849260  1
  Ir  Ir4  1  0.239503  0.239503  0.979005  1
  Rh  Rh5  1  0.739144  0.739144  0.978287  1
