# generated using pymatgen
data_P(WCl6)2
_symmetry_space_group_name_H-M   'P 1'
_cell_length_a   11.58733500
_cell_length_b   9.73533851
_cell_length_c   9.99870009
_cell_angle_alpha   89.21375163
_cell_angle_beta   90.00000000
_cell_angle_gamma   90.00000000
_symmetry_Int_Tables_number   1
_chemical_formula_structural   P(WCl6)2
_chemical_formula_sum   'P2 W4 Cl24'
_cell_volume   1127.81345071
_cell_formula_units_Z   2
loop_
 _symmetry_equiv_pos_site_id
 _symmetry_equiv_pos_as_xyz
  1  'x, y, z'
loop_
 _atom_site_type_symbol
 _atom_site_label
 _atom_site_symmetry_multiplicity
 _atom_site_fract_x
 _atom_site_fract_y
 _atom_site_fract_z
 _atom_site_occupancy
  P  P0  1  0.250000  0.817374  0.972099  1
  P  P1  1  0.750000  0.182626  0.027901  1
  W  W2  1  0.250000  0.156525  0.608102  1
  W  W3  1  0.750000  0.650086  0.592554  1
  W  W4  1  0.750000  0.843475  0.391898  1
  W  W5  1  0.250000  0.349914  0.407446  1
  Cl  Cl6  1  0.889840  0.622357  0.754178  1
  Cl  Cl7  1  0.612351  0.192779  0.895888  1
  Cl  Cl8  1  0.250000  0.570496  0.475806  1
  Cl  Cl9  1  0.110160  0.377643  0.245822  1
  Cl  Cl10  1  0.110450  0.991777  0.645898  1
  Cl  Cl11  1  0.750000  0.429504  0.524194  1
  Cl  Cl12  1  0.416269  0.303824  0.554705  1
  Cl  Cl13  1  0.112351  0.807221  0.104112  1
  Cl  Cl14  1  0.387649  0.807221  0.104112  1
  Cl  Cl15  1  0.250000  0.619953  0.899166  1
  Cl  Cl16  1  0.250000  0.240110  0.818519  1
  Cl  Cl17  1  0.916269  0.696176  0.445295  1
  Cl  Cl18  1  0.389840  0.377643  0.245822  1
  Cl  Cl19  1  0.750000  0.380047  0.100834  1
  Cl  Cl20  1  0.389550  0.991777  0.645898  1
  Cl  Cl21  1  0.083731  0.303824  0.554705  1
  Cl  Cl22  1  0.750000  0.759890  0.181481  1
  Cl  Cl23  1  0.250000  0.098636  0.366835  1
  Cl  Cl24  1  0.610450  0.008223  0.354102  1
  Cl  Cl25  1  0.887649  0.192779  0.895888  1
  Cl  Cl26  1  0.750000  0.901364  0.633165  1
  Cl  Cl27  1  0.583731  0.696176  0.445295  1
  Cl  Cl28  1  0.610160  0.622357  0.754178  1
  Cl  Cl29  1  0.889550  0.008223  0.354102  1
