# generated using pymatgen
data_Nb2Fe5(CoP)7
_symmetry_space_group_name_H-M   'P 1'
_cell_length_a   8.85407014
_cell_length_b   8.83171026
_cell_length_c   3.55354300
_cell_angle_alpha   90.00000000
_cell_angle_beta   90.00000000
_cell_angle_gamma   119.90187795
_symmetry_Int_Tables_number   1
_chemical_formula_structural   Nb2Fe5(CoP)7
_chemical_formula_sum   'Nb2 Fe5 Co7 P7'
_cell_volume   240.88432187
_cell_formula_units_Z   1
loop_
 _symmetry_equiv_pos_site_id
 _symmetry_equiv_pos_as_xyz
  1  'x, y, z'
loop_
 _atom_site_type_symbol
 _atom_site_label
 _atom_site_symmetry_multiplicity
 _atom_site_fract_x
 _atom_site_fract_y
 _atom_site_fract_z
 _atom_site_occupancy
  Nb  Nb0  1  0.663311  0.331681  0.500000  1
  Nb  Nb1  1  0.336312  0.667662  0.000000  1
  Fe  Fe2  1  0.390524  0.441306  0.500000  1
  Fe  Fe3  1  0.559790  0.950279  0.500000  1
  Fe  Fe4  1  0.218383  0.091553  0.500000  1
  Fe  Fe5  1  0.872548  0.780322  0.500000  1
  Fe  Fe6  1  0.909124  0.126920  0.500000  1
  Co  Co7  1  0.117116  0.836519  0.000000  1
  Co  Co8  1  0.722013  0.883201  0.000000  1
  Co  Co9  1  0.933124  0.369319  0.000000  1
  Co  Co10  1  0.630907  0.565393  0.000000  1
  Co  Co11  1  0.433635  0.065274  0.000000  1
  Co  Co12  1  0.051620  0.609680  0.500000  1
  Co  Co13  1  0.161080  0.279602  0.000000  1
  P  P14  1  0.000449  0.999749  0.000000  1
  P  P15  1  0.592295  0.713979  0.500000  1
  P  P16  1  0.701735  0.117628  0.000000  1
  P  P17  1  0.880851  0.584574  0.000000  1
  P  P18  1  0.414811  0.298090  0.000000  1
  P  P19  1  0.287820  0.879414  0.500000  1
  P  P20  1  0.122550  0.407856  0.500000  1
