# generated using pymatgen
data_Sc4Ta4Co16Si11P
_symmetry_space_group_name_H-M   'P 1'
_cell_length_a   3.65674600
_cell_length_b   10.60107092
_cell_length_c   12.15835308
_cell_angle_alpha   90.04806309
_cell_angle_beta   90.00000000
_cell_angle_gamma   90.00000000
_symmetry_Int_Tables_number   1
_chemical_formula_structural   Sc4Ta4Co16Si11P
_chemical_formula_sum   'Sc4 Ta4 Co16 Si11 P1'
_cell_volume   471.32354274
_cell_formula_units_Z   1
loop_
 _symmetry_equiv_pos_site_id
 _symmetry_equiv_pos_as_xyz
  1  'x, y, z'
loop_
 _atom_site_type_symbol
 _atom_site_label
 _atom_site_symmetry_multiplicity
 _atom_site_fract_x
 _atom_site_fract_y
 _atom_site_fract_z
 _atom_site_occupancy
  Sc  Sc0  1  0.250000  0.578860  0.708685  1
  Sc  Sc1  1  0.250000  0.925429  0.203433  1
  Sc  Sc2  1  0.750000  0.421035  0.292661  1
  Sc  Sc3  1  0.750000  0.078383  0.792044  1
  Ta  Ta4  1  0.250000  0.700680  0.990674  1
  Ta  Ta5  1  0.250000  0.798196  0.491203  1
  Ta  Ta6  1  0.750000  0.298374  0.008808  1
  Ta  Ta7  1  0.750000  0.201800  0.509385  1
  Co  Co8  1  0.250000  0.400956  0.484861  1
  Co  Co9  1  0.250000  0.095714  0.987119  1
  Co  Co10  1  0.750000  0.598359  0.515016  1
  Co  Co11  1  0.750000  0.908478  0.017043  1
  Co  Co12  1  0.250000  0.212939  0.166631  1
  Co  Co13  1  0.250000  0.282821  0.665478  1
  Co  Co14  1  0.750000  0.784618  0.836191  1
  Co  Co15  1  0.750000  0.716382  0.334295  1
  Co  Co16  1  0.250000  0.879172  0.701787  1
  Co  Co17  1  0.250000  0.620994  0.201676  1
  Co  Co18  1  0.750000  0.120154  0.294631  1
  Co  Co19  1  0.750000  0.377851  0.798839  1
  Co  Co20  1  0.250000  0.461236  0.932810  1
  Co  Co21  1  0.250000  0.037664  0.429956  1
  Co  Co22  1  0.750000  0.537452  0.068478  1
  Co  Co23  1  0.750000  0.962091  0.567087  1
  Si  Si24  1  0.250000  0.425195  0.121576  1
  Si  Si25  1  0.250000  0.072596  0.620430  1
  Si  Si26  1  0.750000  0.572746  0.879290  1
  Si  Si27  1  0.750000  0.926247  0.377930  1
  Si  Si28  1  0.250000  0.262556  0.852921  1
  Si  Si29  1  0.250000  0.236047  0.352474  1
  Si  Si30  1  0.750000  0.736879  0.147626  1
  Si  Si31  1  0.750000  0.764245  0.648877  1
  Si  Si32  1  0.250000  0.585402  0.387045  1
  Si  Si33  1  0.250000  0.914264  0.887269  1
  Si  Si34  1  0.750000  0.414779  0.613557  1
  P  P35  1  0.750000  0.089405  0.112212  1
