# generated using pymatgen
data_Tb2ErCu3(Ni5B)2
_symmetry_space_group_name_H-M   'P 1'
_cell_length_a   4.97797000
_cell_length_b   4.97797132
_cell_length_c   10.89195900
_cell_angle_alpha   90.00000000
_cell_angle_beta   90.00000000
_cell_angle_gamma   119.99999125
_symmetry_Int_Tables_number   1
_chemical_formula_structural   Tb2ErCu3(Ni5B)2
_chemical_formula_sum   'Tb2 Er1 Cu3 Ni10 B2'
_cell_volume   233.74446340
_cell_formula_units_Z   1
loop_
 _symmetry_equiv_pos_site_id
 _symmetry_equiv_pos_as_xyz
  1  'x, y, z'
loop_
 _atom_site_type_symbol
 _atom_site_label
 _atom_site_symmetry_multiplicity
 _atom_site_fract_x
 _atom_site_fract_y
 _atom_site_fract_z
 _atom_site_occupancy
  Tb  Tb0  1  0.000000  0.000000  0.334559  1
  Tb  Tb1  1  0.000000  0.000000  0.671247  1
  Er  Er2  1  0.000000  0.000000  0.999985  1
  Cu  Cu3  1  0.333333  0.666667  0.316869  1
  Cu  Cu4  1  0.666667  0.333333  0.316585  1
  Cu  Cu5  1  0.666667  0.333333  0.683213  1
  Ni  Ni6  1  0.499646  0.999291  0.500532  1
  Ni  Ni7  1  0.499646  0.500354  0.500532  1
  Ni  Ni8  1  0.000709  0.500354  0.500532  1
  Ni  Ni9  1  0.333333  0.666667  0.681097  1
  Ni  Ni10  1  0.499945  0.999891  0.129306  1
  Ni  Ni11  1  0.499945  0.500055  0.129306  1
  Ni  Ni12  1  0.000109  0.500055  0.129306  1
  Ni  Ni13  1  0.498855  0.997710  0.869371  1
  Ni  Ni14  1  0.498855  0.501145  0.869371  1
  Ni  Ni15  1  0.002290  0.501145  0.869371  1
  B  B16  1  0.333333  0.666667  0.999787  1
  B  B17  1  0.666667  0.333333  0.999026  1
