# generated using pymatgen
data_Sc10Cd3Ir
_symmetry_space_group_name_H-M   'P 1'
_cell_length_a   9.02254900
_cell_length_b   9.02254769
_cell_length_c   9.13208800
_cell_angle_alpha   90.00000000
_cell_angle_beta   90.00000000
_cell_angle_gamma   119.99999379
_symmetry_Int_Tables_number   1
_chemical_formula_structural   Sc10Cd3Ir
_chemical_formula_sum   'Sc20 Cd6 Ir2'
_cell_volume   643.81217098
_cell_formula_units_Z   2
loop_
 _symmetry_equiv_pos_site_id
 _symmetry_equiv_pos_as_xyz
  1  'x, y, z'
loop_
 _atom_site_type_symbol
 _atom_site_label
 _atom_site_symmetry_multiplicity
 _atom_site_fract_x
 _atom_site_fract_y
 _atom_site_fract_z
 _atom_site_occupancy
  Sc  Sc0  1  0.000000  0.000000  0.500000  1
  Sc  Sc1  1  0.000000  0.000000  0.000000  1
  Sc  Sc2  1  0.209106  0.790894  0.442808  1
  Sc  Sc3  1  0.209106  0.418213  0.442808  1
  Sc  Sc4  1  0.581787  0.790894  0.442808  1
  Sc  Sc5  1  0.790894  0.209106  0.557192  1
  Sc  Sc6  1  0.790894  0.581787  0.557192  1
  Sc  Sc7  1  0.418213  0.209106  0.557192  1
  Sc  Sc8  1  0.790894  0.209106  0.942808  1
  Sc  Sc9  1  0.790894  0.581787  0.942808  1
  Sc  Sc10  1  0.418213  0.209106  0.942808  1
  Sc  Sc11  1  0.209106  0.790894  0.057192  1
  Sc  Sc12  1  0.209106  0.418213  0.057192  1
  Sc  Sc13  1  0.581787  0.790894  0.057192  1
  Sc  Sc14  1  0.540350  0.459650  0.250000  1
  Sc  Sc15  1  0.540350  0.080700  0.250000  1
  Sc  Sc16  1  0.919300  0.459650  0.250000  1
  Sc  Sc17  1  0.459650  0.540350  0.750000  1
  Sc  Sc18  1  0.459650  0.919300  0.750000  1
  Sc  Sc19  1  0.080700  0.540350  0.750000  1
  Cd  Cd20  1  0.884496  0.115504  0.250000  1
  Cd  Cd21  1  0.884496  0.768993  0.250000  1
  Cd  Cd22  1  0.231007  0.115504  0.250000  1
  Cd  Cd23  1  0.115504  0.884496  0.750000  1
  Cd  Cd24  1  0.115504  0.231007  0.750000  1
  Cd  Cd25  1  0.768993  0.884496  0.750000  1
  Ir  Ir26  1  0.333333  0.666667  0.250000  1
  Ir  Ir27  1  0.666667  0.333333  0.750000  1
