# generated using pymatgen
data_Lu8B24MoRhW2
_symmetry_space_group_name_H-M   'P 1'
_cell_length_a   3.56665400
_cell_length_b   9.15908233
_cell_length_c   11.53727613
_cell_angle_alpha   90.15347777
_cell_angle_beta   90.00000000
_cell_angle_gamma   90.00000000
_symmetry_Int_Tables_number   1
_chemical_formula_structural   Lu8B24MoRhW2
_chemical_formula_sum   'Lu8 B24 Mo1 Rh1 W2'
_cell_volume   376.89005021
_cell_formula_units_Z   1
loop_
 _symmetry_equiv_pos_site_id
 _symmetry_equiv_pos_as_xyz
  1  'x, y, z'
loop_
 _atom_site_type_symbol
 _atom_site_label
 _atom_site_symmetry_multiplicity
 _atom_site_fract_x
 _atom_site_fract_y
 _atom_site_fract_z
 _atom_site_occupancy
  Lu  Lu0  1  0.500000  0.317649  0.415445  1
  Lu  Lu1  1  0.500000  0.679096  0.589055  1
  Lu  Lu2  1  0.500000  0.179371  0.912097  1
  Lu  Lu3  1  0.500000  0.823805  0.082424  1
  Lu  Lu4  1  0.500000  0.444768  0.129068  1
  Lu  Lu5  1  0.500000  0.555290  0.872448  1
  Lu  Lu6  1  0.500000  0.055126  0.626915  1
  Lu  Lu7  1  0.500000  0.941981  0.371474  1
  B  B8  1  0.000000  0.099298  0.471736  1
  B  B9  1  0.000000  0.895599  0.526880  1
  B  B10  1  0.000000  0.399296  0.972628  1
  B  B11  1  0.000000  0.602721  0.030055  1
  B  B12  1  0.000000  0.130789  0.319307  1
  B  B13  1  0.000000  0.867996  0.681774  1
  B  B14  1  0.000000  0.369552  0.816461  1
  B  B15  1  0.000000  0.632058  0.183714  1
  B  B16  1  0.000000  0.051908  0.064802  1
  B  B17  1  0.000000  0.949371  0.935213  1
  B  B18  1  0.000000  0.448657  0.563463  1
  B  B19  1  0.000000  0.554854  0.433933  1
  B  B20  1  0.000000  0.483148  0.288659  1
  B  B21  1  0.000000  0.521367  0.712410  1
  B  B22  1  0.000000  0.022758  0.786320  1
  B  B23  1  0.000000  0.976305  0.212560  1
  B  B24  1  0.000000  0.253580  0.078280  1
  B  B25  1  0.000000  0.747941  0.922800  1
  B  B26  1  0.000000  0.247077  0.577572  1
  B  B27  1  0.000000  0.749241  0.420684  1
  B  B28  1  0.000000  0.297466  0.238759  1
  B  B29  1  0.000000  0.703739  0.763732  1
  B  B30  1  0.000000  0.205497  0.735468  1
  B  B31  1  0.000000  0.791306  0.264333  1
  Mo  Mo32  1  0.500000  0.361360  0.677649  1
  Rh  Rh33  1  0.500000  0.639260  0.320418  1
  W  W34  1  0.500000  0.139792  0.181135  1
  W  W35  1  0.500000  0.860977  0.820328  1
