# generated using pymatgen
data_Zr3AuC
_symmetry_space_group_name_H-M   'P 1'
_cell_length_a   6.13810366
_cell_length_b   6.13810283
_cell_length_c   9.14154700
_cell_angle_alpha   90.00000000
_cell_angle_beta   90.00000000
_cell_angle_gamma   147.79038603
_symmetry_Int_Tables_number   1
_chemical_formula_structural   Zr3AuC
_chemical_formula_sum   'Zr6 Au2 C2'
_cell_volume   183.58202622
_cell_formula_units_Z   2
loop_
 _symmetry_equiv_pos_site_id
 _symmetry_equiv_pos_as_xyz
  1  'x, y, z'
loop_
 _atom_site_type_symbol
 _atom_site_label
 _atom_site_symmetry_multiplicity
 _atom_site_fract_x
 _atom_site_fract_y
 _atom_site_fract_z
 _atom_site_occupancy
  Zr  Zr0  1  0.126685  0.873317  0.049887  1
  Zr  Zr1  1  0.451880  0.548121  0.250000  1
  Zr  Zr2  1  0.126685  0.873317  0.450112  1
  Zr  Zr3  1  0.873317  0.126685  0.549887  1
  Zr  Zr4  1  0.548121  0.451880  0.750000  1
  Zr  Zr5  1  0.873317  0.126685  0.950113  1
  Au  Au6  1  0.751357  0.248645  0.250000  1
  Au  Au7  1  0.248645  0.751357  0.750000  1
  C  C8  1  0.500001  0.500001  0.000000  1
  C  C9  1  0.500001  0.500001  0.500000  1
