# generated using pymatgen
data_KDy(AgO2)4
_symmetry_space_group_name_H-M   'P 1'
_cell_length_a   6.70310796
_cell_length_b   6.70310864
_cell_length_c   6.70310800
_cell_angle_alpha   124.84129339
_cell_angle_beta   124.84129746
_cell_angle_gamma   81.80106704
_symmetry_Int_Tables_number   1
_chemical_formula_structural   KDy(AgO2)4
_chemical_formula_sum   'K1 Dy1 Ag4 O8'
_cell_volume   195.18253406
_cell_formula_units_Z   1
loop_
 _symmetry_equiv_pos_site_id
 _symmetry_equiv_pos_as_xyz
  1  'x, y, z'
loop_
 _atom_site_type_symbol
 _atom_site_label
 _atom_site_symmetry_multiplicity
 _atom_site_fract_x
 _atom_site_fract_y
 _atom_site_fract_z
 _atom_site_occupancy
  K  K0  1  0.000000  0.000000  0.000000  1
  Dy  Dy1  1  0.750000  0.250000  0.500000  1
  Ag  Ag2  1  0.870959  0.606459  0.227743  1
  Ag  Ag3  1  0.378716  0.643216  0.772257  1
  Ag  Ag4  1  0.356784  0.129041  0.735499  1
  Ag  Ag5  1  0.393541  0.621284  0.264501  1
  O  O6  1  0.444578  0.854586  0.182736  1
  O  O7  1  0.671852  0.261844  0.817264  1
  O  O8  1  0.385239  0.423826  0.403497  1
  O  O9  1  0.020329  0.981744  0.596503  1
  O  O10  1  0.018256  0.614761  0.038587  1
  O  O11  1  0.576174  0.979671  0.961413  1
  O  O12  1  0.145414  0.328148  0.589992  1
  O  O13  1  0.738156  0.555422  0.410008  1
