# generated using pymatgen
data_Li4Ho3LuSi8
_symmetry_space_group_name_H-M   'P 1'
_cell_length_a   3.77188500
_cell_length_b   7.56496937
_cell_length_c   10.08827938
_cell_angle_alpha   90.02918492
_cell_angle_beta   90.00000000
_cell_angle_gamma   90.00000000
_symmetry_Int_Tables_number   1
_chemical_formula_structural   Li4Ho3LuSi8
_chemical_formula_sum   'Li4 Ho3 Lu1 Si8'
_cell_volume   287.86088851
_cell_formula_units_Z   1
loop_
 _symmetry_equiv_pos_site_id
 _symmetry_equiv_pos_as_xyz
  1  'x, y, z'
loop_
 _atom_site_type_symbol
 _atom_site_label
 _atom_site_symmetry_multiplicity
 _atom_site_fract_x
 _atom_site_fract_y
 _atom_site_fract_z
 _atom_site_occupancy
  Li  Li0  1  0.250000  0.988020  0.392659  1
  Li  Li1  1  0.750000  0.012079  0.606931  1
  Li  Li2  1  0.250000  0.488507  0.108085  1
  Li  Li3  1  0.750000  0.509879  0.892639  1
  Ho  Ho4  1  0.250000  0.140189  0.863398  1
  Ho  Ho5  1  0.750000  0.859660  0.137189  1
  Ho  Ho6  1  0.250000  0.640053  0.636388  1
  Lu  Lu7  1  0.750000  0.362497  0.362912  1
  Si  Si8  1  0.750000  0.267414  0.068849  1
  Si  Si9  1  0.250000  0.732480  0.933130  1
  Si  Si10  1  0.750000  0.765789  0.432910  1
  Si  Si11  1  0.250000  0.235213  0.564120  1
  Si  Si12  1  0.750000  0.844513  0.819578  1
  Si  Si13  1  0.250000  0.155288  0.182137  1
  Si  Si14  1  0.750000  0.345681  0.678959  1
  Si  Si15  1  0.250000  0.652738  0.320116  1
