# generated using pymatgen
data_Zr4In2PdPtAu2
_symmetry_space_group_name_H-M   'P 1'
_cell_length_a   7.57142304
_cell_length_b   7.56544661
_cell_length_c   7.08846866
_cell_angle_alpha   90.00130529
_cell_angle_beta   90.13544542
_cell_angle_gamma   90.19835215
_symmetry_Int_Tables_number   1
_chemical_formula_structural   Zr4In2PdPtAu2
_chemical_formula_sum   'Zr8 In4 Pd2 Pt2 Au4'
_cell_volume   406.03240031
_cell_formula_units_Z   2
loop_
 _symmetry_equiv_pos_site_id
 _symmetry_equiv_pos_as_xyz
  1  'x, y, z'
loop_
 _atom_site_type_symbol
 _atom_site_label
 _atom_site_symmetry_multiplicity
 _atom_site_fract_x
 _atom_site_fract_y
 _atom_site_fract_z
 _atom_site_occupancy
  Zr  Zr0  1  0.143560  0.150405  0.000437  1
  Zr  Zr1  1  0.844581  0.851840  0.994082  1
  Zr  Zr2  1  0.648118  0.356451  0.499953  1
  Zr  Zr3  1  0.360500  0.644246  0.495473  1
  Zr  Zr4  1  0.689464  0.315070  0.000356  1
  Zr  Zr5  1  0.317777  0.687038  0.002812  1
  Zr  Zr6  1  0.801684  0.804092  0.504167  1
  Zr  Zr7  1  0.194335  0.196761  0.496678  1
  In  In8  1  0.500136  0.000115  0.248092  1
  In  In9  1  0.504354  0.998363  0.750476  1
  In  In10  1  0.999700  0.501623  0.248402  1
  In  In11  1  0.995975  0.495591  0.750142  1
  Pd  Pd12  1  0.633350  0.631307  0.207359  1
  Pd  Pd13  1  0.868549  0.130846  0.710130  1
  Pt  Pt14  1  0.371041  0.369962  0.213448  1
  Pt  Pt15  1  0.630141  0.629690  0.788014  1
  Au  Au16  1  0.868518  0.129367  0.295051  1
  Au  Au17  1  0.369091  0.368478  0.795153  1
  Au  Au18  1  0.129465  0.868744  0.291119  1
  Au  Au19  1  0.129659  0.870011  0.708656  1
