# generated using pymatgen
data_La16CdHg3Ir4
_symmetry_space_group_name_H-M   'P 1'
_cell_length_a   10.09956189
_cell_length_b   10.12303583
_cell_length_c   10.12303500
_cell_angle_alpha   59.99999945
_cell_angle_beta   59.92308392
_cell_angle_gamma   59.92308663
_symmetry_Int_Tables_number   1
_chemical_formula_structural   La16CdHg3Ir4
_chemical_formula_sum   'La16 Cd1 Hg3 Ir4'
_cell_volume   730.97609125
_cell_formula_units_Z   1
loop_
 _symmetry_equiv_pos_site_id
 _symmetry_equiv_pos_as_xyz
  1  'x, y, z'
loop_
 _atom_site_type_symbol
 _atom_site_label
 _atom_site_symmetry_multiplicity
 _atom_site_fract_x
 _atom_site_fract_y
 _atom_site_fract_z
 _atom_site_occupancy
  La  La0  1  0.597752  0.597370  0.597370  1
  La  La1  1  0.597752  0.597370  0.207507  1
  La  La2  1  0.597752  0.207507  0.597370  1
  La  La3  1  0.205508  0.598164  0.598164  1
  La  La4  1  0.059466  0.440431  0.440431  1
  La  La5  1  0.439380  0.060310  0.060310  1
  La  La6  1  0.439380  0.060310  0.439999  1
  La  La7  1  0.059466  0.440431  0.059673  1
  La  La8  1  0.439380  0.439999  0.060310  1
  La  La9  1  0.059466  0.059673  0.440431  1
  La  La10  1  0.189273  0.810144  0.810144  1
  La  La11  1  0.809505  0.190290  0.190290  1
  La  La12  1  0.809505  0.190290  0.809914  1
  La  La13  1  0.189273  0.810144  0.190439  1
  La  La14  1  0.809505  0.809914  0.190290  1
  La  La15  1  0.189273  0.190439  0.810144  1
  Cd  Cd16  1  0.513286  0.828904  0.828904  1
  Hg  Hg17  1  0.831790  0.834055  0.834055  1
  Hg  Hg18  1  0.831790  0.834055  0.500100  1
  Hg  Hg19  1  0.831790  0.500100  0.834055  1
  Ir  Ir20  1  0.391233  0.391410  0.391410  1
  Ir  Ir21  1  0.391233  0.391410  0.825948  1
  Ir  Ir22  1  0.391233  0.825948  0.391410  1
  Ir  Ir23  1  0.826009  0.391330  0.391330  1
