# generated using pymatgen
data_Dy3Y(Hg2O)4
_symmetry_space_group_name_H-M   'P 1'
_cell_length_a   5.56390200
_cell_length_b   5.57787722
_cell_length_c   11.06708540
_cell_angle_alpha   86.21644437
_cell_angle_beta   90.00401745
_cell_angle_gamma   89.99897695
_symmetry_Int_Tables_number   1
_chemical_formula_structural   Dy3Y(Hg2O)4
_chemical_formula_sum   'Dy3 Y1 Hg8 O4'
_cell_volume   342.71576502
_cell_formula_units_Z   1
loop_
 _symmetry_equiv_pos_site_id
 _symmetry_equiv_pos_as_xyz
  1  'x, y, z'
loop_
 _atom_site_type_symbol
 _atom_site_label
 _atom_site_symmetry_multiplicity
 _atom_site_fract_x
 _atom_site_fract_y
 _atom_site_fract_z
 _atom_site_occupancy
  Dy  Dy0  1  0.574754  0.487007  0.098141  1
  Dy  Dy1  1  0.074758  0.988180  0.098068  1
  Dy  Dy2  1  0.574730  0.011679  0.901761  1
  Y  Y3  1  0.074706  0.512931  0.900954  1
  Hg  Hg4  1  0.574919  0.968918  0.276120  1
  Hg  Hg5  1  0.075378  0.963991  0.418071  1
  Hg  Hg6  1  0.575310  0.035609  0.581918  1
  Hg  Hg7  1  0.074864  0.032286  0.723936  1
  Hg  Hg8  1  0.075209  0.456047  0.275645  1
  Hg  Hg9  1  0.575716  0.481101  0.417836  1
  Hg  Hg10  1  0.075673  0.519583  0.582211  1
  Hg  Hg11  1  0.575152  0.543038  0.724150  1
  O  O12  1  0.823709  0.249404  0.999640  1
  O  O13  1  0.824352  0.750404  0.000980  1
  O  O14  1  0.325724  0.249408  0.999619  1
  O  O15  1  0.325085  0.750411  0.000952  1
