# generated using pymatgen
data_Yb2PrPa(Pd2Pb)2
_symmetry_space_group_name_H-M   'P 1'
_cell_length_a   7.99198674
_cell_length_b   7.99198688
_cell_length_c   3.67853000
_cell_angle_alpha   90.00000000
_cell_angle_beta   90.00000000
_cell_angle_gamma   91.51319783
_symmetry_Int_Tables_number   1
_chemical_formula_structural   Yb2PrPa(Pd2Pb)2
_chemical_formula_sum   'Yb2 Pr1 Pa1 Pd4 Pb2'
_cell_volume   234.87259211
_cell_formula_units_Z   1
loop_
 _symmetry_equiv_pos_site_id
 _symmetry_equiv_pos_as_xyz
  1  'x, y, z'
loop_
 _atom_site_type_symbol
 _atom_site_label
 _atom_site_symmetry_multiplicity
 _atom_site_fract_x
 _atom_site_fract_y
 _atom_site_fract_z
 _atom_site_occupancy
  Yb  Yb0  1  0.828281  0.670170  0.500000  1
  Yb  Yb1  1  0.170170  0.328281  0.500000  1
  Pr  Pr2  1  0.677745  0.177745  0.500000  1
  Pa  Pa3  1  0.329221  0.829221  0.500000  1
  Pd  Pd4  1  0.887650  0.387650  0.000000  1
  Pd  Pd5  1  0.609143  0.862260  0.000000  1
  Pd  Pd6  1  0.362260  0.109143  0.000000  1
  Pd  Pd7  1  0.139350  0.639350  0.000000  1
  Pb  Pb8  1  0.498002  0.498176  0.000000  1
  Pb  Pb9  1  0.998176  0.998002  0.000000  1
