# generated using pymatgen
data_LiLa4(ZnSb4)2
_symmetry_space_group_name_H-M   'P 1'
_cell_length_a   11.47956531
_cell_length_b   11.47956508
_cell_length_c   11.47956620
_cell_angle_alpha   148.35078410
_cell_angle_beta   148.35078426
_cell_angle_gamma   45.36780251
_symmetry_Int_Tables_number   1
_chemical_formula_structural   LiLa4(ZnSb4)2
_chemical_formula_sum   'Li1 La4 Zn2 Sb8'
_cell_volume   415.16544377
_cell_formula_units_Z   1
loop_
 _symmetry_equiv_pos_site_id
 _symmetry_equiv_pos_as_xyz
  1  'x, y, z'
loop_
 _atom_site_type_symbol
 _atom_site_label
 _atom_site_symmetry_multiplicity
 _atom_site_fract_x
 _atom_site_fract_y
 _atom_site_fract_z
 _atom_site_occupancy
  Li  Li0  1  0.000000  0.000000  0.000000  1
  La  La1  1  0.623225  0.623225  0.500307  1
  La  La2  1  0.122917  0.122917  0.499693  1
  La  La3  1  0.376775  0.877083  0.000000  1
  La  La4  1  0.877083  0.376775  0.000000  1
  Zn  Zn5  1  0.000000  0.500000  0.500000  1
  Zn  Zn6  1  0.500000  0.000000  0.500000  1
  Sb  Sb7  1  0.329992  0.329992  0.506219  1
  Sb  Sb8  1  0.823774  0.823774  0.493781  1
  Sb  Sb9  1  0.670008  0.176226  0.000000  1
  Sb  Sb10  1  0.176226  0.670008  0.000000  1
  Sb  Sb11  1  0.249938  0.249938  0.000000  1
  Sb  Sb12  1  0.750062  0.750062  0.000000  1
  Sb  Sb13  1  0.750000  0.250000  0.500000  1
  Sb  Sb14  1  0.250000  0.750000  0.500000  1
