# generated using pymatgen
data_Ce3Ho(B4Mo)4
_symmetry_space_group_name_H-M   'P 1'
_cell_length_a   3.68912100
_cell_length_b   6.05793092
_cell_length_c   11.70846117
_cell_angle_alpha   89.90959460
_cell_angle_beta   90.00000000
_cell_angle_gamma   90.00000000
_symmetry_Int_Tables_number   1
_chemical_formula_structural   Ce3Ho(B4Mo)4
_chemical_formula_sum   'Ce3 Ho1 B16 Mo4'
_cell_volume   261.66551828
_cell_formula_units_Z   1
loop_
 _symmetry_equiv_pos_site_id
 _symmetry_equiv_pos_as_xyz
  1  'x, y, z'
loop_
 _atom_site_type_symbol
 _atom_site_label
 _atom_site_symmetry_multiplicity
 _atom_site_fract_x
 _atom_site_fract_y
 _atom_site_fract_z
 _atom_site_occupancy
  Ce  Ce0  1  0.000000  0.625313  0.349170  1
  Ce  Ce1  1  0.000000  0.374509  0.651566  1
  Ce  Ce2  1  0.000000  0.124907  0.150170  1
  Ho  Ho3  1  0.000000  0.874758  0.849704  1
  B  B4  1  0.500000  0.787101  0.184470  1
  B  B5  1  0.500000  0.213097  0.814795  1
  B  B6  1  0.500000  0.285631  0.314533  1
  B  B7  1  0.500000  0.713674  0.686140  1
  B  B8  1  0.500000  0.865243  0.031624  1
  B  B9  1  0.500000  0.135036  0.967433  1
  B  B10  1  0.500000  0.364130  0.468280  1
  B  B11  1  0.500000  0.635623  0.532576  1
  B  B12  1  0.500000  0.886164  0.453612  1
  B  B13  1  0.500000  0.113270  0.547615  1
  B  B14  1  0.500000  0.386754  0.046073  1
  B  B15  1  0.500000  0.615663  0.952212  1
  B  B16  1  0.500000  0.975241  0.307848  1
  B  B17  1  0.500000  0.024490  0.693228  1
  B  B18  1  0.500000  0.475156  0.191529  1
  B  B19  1  0.500000  0.523645  0.807654  1
  Mo  Mo20  1  0.000000  0.630158  0.084317  1
  Mo  Mo21  1  0.000000  0.371048  0.914956  1
  Mo  Mo22  1  0.000000  0.130493  0.415069  1
  Mo  Mo23  1  0.000000  0.868896  0.585427  1
