# generated using pymatgen
data_Sc4AlOs5W2
_symmetry_space_group_name_H-M   'P 1'
_cell_length_a   5.37750600
_cell_length_b   5.34050044
_cell_length_c   8.38339100
_cell_angle_alpha   90.00000000
_cell_angle_beta   90.00000000
_cell_angle_gamma   120.22948307
_symmetry_Int_Tables_number   1
_chemical_formula_structural   Sc4AlOs5W2
_chemical_formula_sum   'Sc4 Al1 Os5 W2'
_cell_volume   208.01961479
_cell_formula_units_Z   1
loop_
 _symmetry_equiv_pos_site_id
 _symmetry_equiv_pos_as_xyz
  1  'x, y, z'
loop_
 _atom_site_type_symbol
 _atom_site_label
 _atom_site_symmetry_multiplicity
 _atom_site_fract_x
 _atom_site_fract_y
 _atom_site_fract_z
 _atom_site_occupancy
  Sc  Sc0  1  0.335534  0.671071  0.431279  1
  Sc  Sc1  1  0.666221  0.332441  0.558604  1
  Sc  Sc2  1  0.666221  0.332441  0.941396  1
  Sc  Sc3  1  0.335534  0.671071  0.068721  1
  Al  Al4  1  0.174291  0.348581  0.750000  1
  Os  Os5  1  0.183748  0.839976  0.750000  1
  Os  Os6  1  0.344610  0.175508  0.250000  1
  Os  Os7  1  0.822230  0.644461  0.250000  1
  Os  Os8  1  0.656229  0.839976  0.750000  1
  Os  Os9  1  0.830898  0.175508  0.250000  1
  W  W10  1  0.992242  0.984482  0.003360  1
  W  W11  1  0.992242  0.984482  0.496640  1
