# generated using pymatgen
data_La9Yb3Th4(CdIr)4
_symmetry_space_group_name_H-M   'P 1'
_cell_length_a   10.08315161
_cell_length_b   10.06068885
_cell_length_c   10.01467437
_cell_angle_alpha   60.29940577
_cell_angle_beta   59.95621865
_cell_angle_gamma   59.62420839
_symmetry_Int_Tables_number   1
_chemical_formula_structural   La9Yb3Th4(CdIr)4
_chemical_formula_sum   'La9 Yb3 Th4 Cd4 Ir4'
_cell_volume   717.66366773
_cell_formula_units_Z   1
loop_
 _symmetry_equiv_pos_site_id
 _symmetry_equiv_pos_as_xyz
  1  'x, y, z'
loop_
 _atom_site_type_symbol
 _atom_site_label
 _atom_site_symmetry_multiplicity
 _atom_site_fract_x
 _atom_site_fract_y
 _atom_site_fract_z
 _atom_site_occupancy
  La  La0  1  0.061426  0.438574  0.061426  1
  La  La1  1  0.440128  0.433108  0.065105  1
  La  La2  1  0.065105  0.061660  0.440128  1
  La  La3  1  0.192023  0.809048  0.808974  1
  La  La4  1  0.808974  0.189954  0.192023  1
  La  La5  1  0.808202  0.191798  0.808202  1
  La  La6  1  0.190376  0.809624  0.190376  1
  La  La7  1  0.807390  0.809800  0.191616  1
  La  La8  1  0.191616  0.191194  0.807390  1
  Yb  Yb9  1  0.057486  0.442045  0.444332  1
  Yb  Yb10  1  0.444332  0.056138  0.057486  1
  Yb  Yb11  1  0.441870  0.058130  0.441870  1
  Th  Th12  1  0.597740  0.598134  0.592221  1
  Th  Th13  1  0.594272  0.599760  0.211258  1
  Th  Th14  1  0.592221  0.211905  0.597740  1
  Th  Th15  1  0.211258  0.594711  0.594272  1
  Cd  Cd16  1  0.828185  0.830244  0.829041  1
  Cd  Cd17  1  0.828125  0.828699  0.513612  1
  Cd  Cd18  1  0.829041  0.512528  0.828185  1
  Cd  Cd19  1  0.513612  0.829564  0.828125  1
  Ir  Ir20  1  0.398051  0.397840  0.391812  1
  Ir  Ir21  1  0.394639  0.400653  0.812116  1
  Ir  Ir22  1  0.391812  0.812296  0.398051  1
  Ir  Ir23  1  0.812116  0.392591  0.394639  1
