# generated using pymatgen
data_EuGaIO6
_symmetry_space_group_name_H-M   'P 1'
_cell_length_a   5.23345521
_cell_length_b   5.22978621
_cell_length_c   5.25671042
_cell_angle_alpha   89.88772718
_cell_angle_beta   89.71011810
_cell_angle_gamma   120.18071399
_symmetry_Int_Tables_number   1
_chemical_formula_structural   EuGaIO6
_chemical_formula_sum   'Eu1 Ga1 I1 O6'
_cell_volume   124.36894471
_cell_formula_units_Z   1
loop_
 _symmetry_equiv_pos_site_id
 _symmetry_equiv_pos_as_xyz
  1  'x, y, z'
loop_
 _atom_site_type_symbol
 _atom_site_label
 _atom_site_symmetry_multiplicity
 _atom_site_fract_x
 _atom_site_fract_y
 _atom_site_fract_z
 _atom_site_occupancy
  Eu  Eu0  1  0.666455  0.333715  0.999615  1
  Ga  Ga1  1  0.000195  0.999269  0.499974  1
  I  I2  1  0.333208  0.666984  0.500010  1
  O  O3  1  0.300951  0.343988  0.290735  1
  O  O4  1  0.046383  0.703050  0.289212  1
  O  O5  1  0.660180  0.957888  0.290390  1
  O  O6  1  0.041707  0.340598  0.709306  1
  O  O7  1  0.655204  0.700388  0.710117  1
  O  O8  1  0.295715  0.954116  0.710639  1
