# generated using pymatgen
data_Dy8TaTi10Si16Ag
_symmetry_space_group_name_H-M   'P 1'
_cell_length_a   7.07681650
_cell_length_b   7.07681715
_cell_length_c   12.93729247
_cell_angle_alpha   89.87952947
_cell_angle_beta   90.12046785
_cell_angle_gamma   89.67599231
_symmetry_Int_Tables_number   1
_chemical_formula_structural   Dy8TaTi10Si16Ag
_chemical_formula_sum   'Dy8 Ta1 Ti10 Si16 Ag1'
_cell_volume   647.90365543
_cell_formula_units_Z   1
loop_
 _symmetry_equiv_pos_site_id
 _symmetry_equiv_pos_as_xyz
  1  'x, y, z'
loop_
 _atom_site_type_symbol
 _atom_site_label
 _atom_site_symmetry_multiplicity
 _atom_site_fract_x
 _atom_site_fract_y
 _atom_site_fract_z
 _atom_site_occupancy
  Dy  Dy0  1  0.997955  0.658991  0.032879  1
  Dy  Dy1  1  0.999148  0.343615  0.531623  1
  Dy  Dy2  1  0.658991  0.997955  0.967121  1
  Dy  Dy3  1  0.159462  0.502394  0.783456  1
  Dy  Dy4  1  0.841645  0.498485  0.285411  1
  Dy  Dy5  1  0.502394  0.159462  0.216544  1
  Dy  Dy6  1  0.498485  0.841645  0.714589  1
  Dy  Dy7  1  0.343615  0.999148  0.468377  1
  Ta  Ta8  1  0.326890  0.326890  0.000000  1
  Ti  Ti9  1  0.349206  0.505633  0.376064  1
  Ti  Ti10  1  0.851822  0.991960  0.377072  1
  Ti  Ti11  1  0.008825  0.151624  0.124954  1
  Ti  Ti12  1  0.991960  0.851822  0.622928  1
  Ti  Ti13  1  0.505633  0.349206  0.623936  1
  Ti  Ti14  1  0.151624  0.008825  0.875046  1
  Ti  Ti15  1  0.826145  0.173628  0.749881  1
  Ti  Ti16  1  0.173628  0.826145  0.250119  1
  Ti  Ti17  1  0.491497  0.649458  0.124949  1
  Ti  Ti18  1  0.649458  0.491497  0.875051  1
  Si  Si19  1  0.061800  0.713966  0.433800  1
  Si  Si20  1  0.952760  0.290651  0.935826  1
  Si  Si21  1  0.713966  0.061800  0.566200  1
  Si  Si22  1  0.208260  0.453571  0.186066  1
  Si  Si23  1  0.792211  0.544714  0.690866  1
  Si  Si24  1  0.453571  0.208260  0.813934  1
  Si  Si25  1  0.544714  0.792211  0.309134  1
  Si  Si26  1  0.290651  0.952760  0.064174  1
  Si  Si27  1  0.797985  0.868219  0.184680  1
  Si  Si28  1  0.281482  0.626210  0.570133  1
  Si  Si29  1  0.704904  0.369397  0.066672  1
  Si  Si30  1  0.626210  0.281482  0.429867  1
  Si  Si31  1  0.369397  0.704904  0.933328  1
  Si  Si32  1  0.131788  0.201860  0.317071  1
  Si  Si33  1  0.201860  0.131788  0.682929  1
  Si  Si34  1  0.868219  0.797985  0.815320  1
  Ag  Ag35  1  0.671842  0.671842  0.500000  1
