# generated using pymatgen
data_Sr4Co(TcO4)3
_symmetry_space_group_name_H-M   'P 1'
_cell_length_a   5.62406966
_cell_length_b   5.61398593
_cell_length_c   8.01157121
_cell_angle_alpha   89.97434889
_cell_angle_beta   90.02823422
_cell_angle_gamma   89.98197120
_symmetry_Int_Tables_number   1
_chemical_formula_structural   Sr4Co(TcO4)3
_chemical_formula_sum   'Sr4 Co1 Tc3 O12'
_cell_volume   252.95285798
_cell_formula_units_Z   1
loop_
 _symmetry_equiv_pos_site_id
 _symmetry_equiv_pos_as_xyz
  1  'x, y, z'
loop_
 _atom_site_type_symbol
 _atom_site_label
 _atom_site_symmetry_multiplicity
 _atom_site_fract_x
 _atom_site_fract_y
 _atom_site_fract_z
 _atom_site_occupancy
  Sr  Sr0  1  0.501729  0.482225  0.758347  1
  Sr  Sr1  1  0.995783  0.977956  0.758962  1
  Sr  Sr2  1  0.498271  0.517775  0.241653  1
  Sr  Sr3  1  0.004217  0.022044  0.241038  1
  Co  Co4  1  0.000000  0.500000  0.000000  1
  Tc  Tc5  1  0.500000  0.000000  0.500000  1
  Tc  Tc6  1  0.000000  0.500000  0.500000  1
  Tc  Tc7  1  0.500000  0.000000  0.000000  1
  O  O8  1  0.767780  0.220319  0.975228  1
  O  O9  1  0.722489  0.721110  0.526332  1
  O  O10  1  0.220862  0.777664  0.475142  1
  O  O11  1  0.280234  0.268711  0.026356  1
  O  O12  1  0.232220  0.779681  0.024772  1
  O  O13  1  0.277511  0.278890  0.473668  1
  O  O14  1  0.779138  0.222336  0.524858  1
  O  O15  1  0.719766  0.731289  0.973644  1
  O  O16  1  0.452418  0.005835  0.751132  1
  O  O17  1  0.049371  0.504254  0.737605  1
  O  O18  1  0.547582  0.994165  0.248868  1
  O  O19  1  0.950629  0.495746  0.262395  1
