# generated using pymatgen
data_Yb13Y7Sn16
_symmetry_space_group_name_H-M   'P 1'
_cell_length_a   7.89155744
_cell_length_b   8.38664150
_cell_length_c   16.11171414
_cell_angle_alpha   90.01491050
_cell_angle_beta   90.00316269
_cell_angle_gamma   90.03737310
_symmetry_Int_Tables_number   1
_chemical_formula_structural   Yb13Y7Sn16
_chemical_formula_sum   'Yb13 Y7 Sn16'
_cell_volume   1066.33199652
_cell_formula_units_Z   1
loop_
 _symmetry_equiv_pos_site_id
 _symmetry_equiv_pos_as_xyz
  1  'x, y, z'
loop_
 _atom_site_type_symbol
 _atom_site_label
 _atom_site_symmetry_multiplicity
 _atom_site_fract_x
 _atom_site_fract_y
 _atom_site_fract_z
 _atom_site_occupancy
  Yb  Yb0  1  0.169206  0.332416  0.622608  1
  Yb  Yb1  1  0.501385  0.683316  0.595592  1
  Yb  Yb2  1  0.002991  0.815119  0.905022  1
  Yb  Yb3  1  0.496322  0.315630  0.093984  1
  Yb  Yb4  1  0.998518  0.185800  0.406481  1
  Yb  Yb5  1  0.497260  0.317140  0.406221  1
  Yb  Yb6  1  0.996347  0.184554  0.093944  1
  Yb  Yb7  1  0.502948  0.683898  0.904615  1
  Yb  Yb8  1  0.003703  0.815411  0.594597  1
  Yb  Yb9  1  0.836840  0.507484  0.748603  1
  Yb  Yb10  1  0.334367  0.992223  0.749319  1
  Yb  Yb11  1  0.165115  0.491162  0.250067  1
  Yb  Yb12  1  0.665451  0.008294  0.250522  1
  Y  Y13  1  0.668558  0.167477  0.624512  1
  Y  Y14  1  0.168830  0.332152  0.876795  1
  Y  Y15  1  0.330945  0.832245  0.122552  1
  Y  Y16  1  0.831828  0.666830  0.376682  1
  Y  Y17  1  0.331010  0.832229  0.376882  1
  Y  Y18  1  0.830718  0.667856  0.122446  1
  Y  Y19  1  0.668109  0.168157  0.876676  1
  Sn  Sn20  1  0.672015  0.963193  0.461481  1
  Sn  Sn21  1  0.170463  0.534777  0.039271  1
  Sn  Sn22  1  0.329735  0.035322  0.960801  1
  Sn  Sn23  1  0.826194  0.464870  0.537956  1
  Sn  Sn24  1  0.334407  0.035194  0.538655  1
  Sn  Sn25  1  0.828810  0.465557  0.960365  1
  Sn  Sn26  1  0.670104  0.964909  0.039241  1
  Sn  Sn27  1  0.169369  0.536759  0.459847  1
  Sn  Sn28  1  0.468528  0.381770  0.752134  1
  Sn  Sn29  1  0.966720  0.118191  0.750729  1
  Sn  Sn30  1  0.532717  0.621187  0.249877  1
  Sn  Sn31  1  0.032392  0.878168  0.249345  1
  Sn  Sn32  1  0.711080  0.867734  0.751182  1
  Sn  Sn33  1  0.213636  0.633096  0.751999  1
  Sn  Sn34  1  0.287181  0.130367  0.249644  1
  Sn  Sn35  1  0.786199  0.369513  0.249351  1
