# generated using pymatgen
data_Ca20(Zn3Ag)3
_symmetry_space_group_name_H-M   'P 1'
_cell_length_a   7.92824400
_cell_length_b   7.92824400
_cell_length_c   15.14119900
_cell_angle_alpha   90.00000000
_cell_angle_beta   90.00000000
_cell_angle_gamma   90.00000000
_symmetry_Int_Tables_number   1
_chemical_formula_structural   Ca20(Zn3Ag)3
_chemical_formula_sum   'Ca20 Zn9 Ag3'
_cell_volume   951.73114687
_cell_formula_units_Z   1
loop_
 _symmetry_equiv_pos_site_id
 _symmetry_equiv_pos_as_xyz
  1  'x, y, z'
loop_
 _atom_site_type_symbol
 _atom_site_label
 _atom_site_symmetry_multiplicity
 _atom_site_fract_x
 _atom_site_fract_y
 _atom_site_fract_z
 _atom_site_occupancy
  Ca  Ca0  1  0.669860  0.169209  0.103203  1
  Ca  Ca1  1  0.170163  0.669533  0.603808  1
  Ca  Ca2  1  0.330140  0.830791  0.103203  1
  Ca  Ca3  1  0.829837  0.330467  0.603808  1
  Ca  Ca4  1  0.830791  0.669860  0.103203  1
  Ca  Ca5  1  0.330467  0.170163  0.603808  1
  Ca  Ca6  1  0.169209  0.330140  0.103203  1
  Ca  Ca7  1  0.669533  0.829837  0.603808  1
  Ca  Ca8  1  0.830791  0.330140  0.896797  1
  Ca  Ca9  1  0.330467  0.829837  0.396192  1
  Ca  Ca10  1  0.169209  0.669860  0.896797  1
  Ca  Ca11  1  0.669533  0.170163  0.396192  1
  Ca  Ca12  1  0.669860  0.830791  0.896797  1
  Ca  Ca13  1  0.170163  0.330467  0.396192  1
  Ca  Ca14  1  0.330140  0.169209  0.896797  1
  Ca  Ca15  1  0.829837  0.669533  0.396192  1
  Ca  Ca16  1  0.500000  0.500000  0.751125  1
  Ca  Ca17  1  0.000000  0.000000  0.248955  1
  Ca  Ca18  1  0.000000  0.000000  0.751045  1
  Ca  Ca19  1  0.500000  0.500000  0.248875  1
  Zn  Zn20  1  0.618986  0.119013  0.749665  1
  Zn  Zn21  1  0.119013  0.618986  0.250335  1
  Zn  Zn22  1  0.880987  0.381014  0.250335  1
  Zn  Zn23  1  0.381014  0.880987  0.749665  1
  Zn  Zn24  1  0.880987  0.618986  0.749665  1
  Zn  Zn25  1  0.381014  0.119013  0.250335  1
  Zn  Zn26  1  0.119013  0.381014  0.749665  1
  Zn  Zn27  1  0.618986  0.880987  0.250335  1
  Zn  Zn28  1  0.000000  0.000000  0.000000  1
  Ag  Ag29  1  0.500000  0.500000  0.500000  1
  Ag  Ag30  1  0.500000  0.500000  0.000000  1
  Ag  Ag31  1  0.000000  0.000000  0.500000  1
