# generated using pymatgen
data_Sc22Tc3OsPt4
_symmetry_space_group_name_H-M   'P 1'
_cell_length_a   9.52941211
_cell_length_b   9.57782771
_cell_length_c   9.52941196
_cell_angle_alpha   59.83178890
_cell_angle_beta   60.33641292
_cell_angle_gamma   59.83178977
_symmetry_Int_Tables_number   1
_chemical_formula_structural   Sc22Tc3OsPt4
_chemical_formula_sum   'Sc22 Tc3 Os1 Pt4'
_cell_volume   614.98096017
_cell_formula_units_Z   1
loop_
 _symmetry_equiv_pos_site_id
 _symmetry_equiv_pos_as_xyz
  1  'x, y, z'
loop_
 _atom_site_type_symbol
 _atom_site_label
 _atom_site_symmetry_multiplicity
 _atom_site_fract_x
 _atom_site_fract_y
 _atom_site_fract_z
 _atom_site_occupancy
  Sc  Sc0  1  0.844830  0.839499  0.844830  1
  Sc  Sc1  1  0.529158  0.155170  0.160501  1
  Sc  Sc2  1  0.160501  0.155170  0.529158  1
  Sc  Sc3  1  0.155170  0.529158  0.155170  1
  Sc  Sc4  1  0.839499  0.844830  0.470842  1
  Sc  Sc5  1  0.844830  0.470842  0.844830  1
  Sc  Sc6  1  0.470842  0.844830  0.839499  1
  Sc  Sc7  1  0.155170  0.160501  0.155170  1
  Sc  Sc8  1  0.195925  0.804075  0.195925  1
  Sc  Sc9  1  0.196240  0.803760  0.803760  1
  Sc  Sc10  1  0.803760  0.196240  0.196240  1
  Sc  Sc11  1  0.803760  0.803760  0.196240  1
  Sc  Sc12  1  0.196240  0.196240  0.803760  1
  Sc  Sc13  1  0.804075  0.195925  0.804075  1
  Sc  Sc14  1  0.385363  0.380382  0.385363  1
  Sc  Sc15  1  0.151109  0.614637  0.619618  1
  Sc  Sc16  1  0.614637  0.151109  0.614637  1
  Sc  Sc17  1  0.619618  0.614637  0.151109  1
  Sc  Sc18  1  0.385363  0.848891  0.385363  1
  Sc  Sc19  1  0.380382  0.385363  0.848891  1
  Sc  Sc20  1  0.848891  0.385363  0.380382  1
  Sc  Sc21  1  0.614637  0.619618  0.614637  1
  Tc  Tc22  1  0.500000  0.000000  0.500000  1
  Tc  Tc23  1  0.000000  0.500000  0.000000  1
  Tc  Tc24  1  0.000000  0.000000  0.000000  1
  Os  Os25  1  0.500000  0.500000  0.500000  1
  Pt  Pt26  1  0.500000  0.500000  0.000000  1
  Pt  Pt27  1  0.000000  0.000000  0.500000  1
  Pt  Pt28  1  0.000000  0.500000  0.500000  1
  Pt  Pt29  1  0.500000  0.000000  0.000000  1
