# generated using pymatgen
data_Lu2VTcB8
_symmetry_space_group_name_H-M   'P 1'
_cell_length_a   5.91613000
_cell_length_b   5.91613035
_cell_length_c   3.49799700
_cell_angle_alpha   90.00000000
_cell_angle_beta   90.00000000
_cell_angle_gamma   104.12728550
_symmetry_Int_Tables_number   1
_chemical_formula_structural   Lu2VTcB8
_chemical_formula_sum   'Lu2 V1 Tc1 B8'
_cell_volume   118.72913452
_cell_formula_units_Z   1
loop_
 _symmetry_equiv_pos_site_id
 _symmetry_equiv_pos_as_xyz
  1  'x, y, z'
loop_
 _atom_site_type_symbol
 _atom_site_label
 _atom_site_symmetry_multiplicity
 _atom_site_fract_x
 _atom_site_fract_y
 _atom_site_fract_z
 _atom_site_occupancy
  Lu  Lu0  1  0.199601  0.801630  0.000000  1
  Lu  Lu1  1  0.801630  0.199601  0.000000  1
  V  V2  1  0.332352  0.332352  0.000000  1
  Tc  Tc3  1  0.667101  0.667101  0.000000  1
  B  B4  1  0.883246  0.567410  0.500000  1
  B  B5  1  0.406967  0.592593  0.500000  1
  B  B6  1  0.875705  0.875705  0.500000  1
  B  B7  1  0.567410  0.883246  0.500000  1
  B  B8  1  0.433000  0.116640  0.500000  1
  B  B9  1  0.123756  0.123756  0.500000  1
  B  B10  1  0.592593  0.406967  0.500000  1
  B  B11  1  0.116640  0.433000  0.500000  1
