# generated using pymatgen
data_K4Zn3Ga5Ag12
_symmetry_space_group_name_H-M   'P 1'
_cell_length_a   5.46357109
_cell_length_b   7.28334258
_cell_length_c   14.00172281
_cell_angle_alpha   89.97703706
_cell_angle_beta   89.81765331
_cell_angle_gamma   90.14006819
_symmetry_Int_Tables_number   1
_chemical_formula_structural   K4Zn3Ga5Ag12
_chemical_formula_sum   'K4 Zn3 Ga5 Ag12'
_cell_volume   557.16686205
_cell_formula_units_Z   1
loop_
 _symmetry_equiv_pos_site_id
 _symmetry_equiv_pos_as_xyz
  1  'x, y, z'
loop_
 _atom_site_type_symbol
 _atom_site_label
 _atom_site_symmetry_multiplicity
 _atom_site_fract_x
 _atom_site_fract_y
 _atom_site_fract_z
 _atom_site_occupancy
  K  K0  1  0.249546  0.126400  0.082602  1
  K  K1  1  0.250193  0.373001  0.581492  1
  K  K2  1  0.750515  0.872719  0.918098  1
  K  K3  1  0.749659  0.627452  0.418047  1
  Zn  Zn4  1  0.998696  0.864400  0.648725  1
  Zn  Zn5  1  0.502999  0.636822  0.148789  1
  Zn  Zn6  1  0.498028  0.136240  0.350284  1
  Ga  Ga7  1  0.002134  0.360858  0.848998  1
  Ga  Ga8  1  0.002721  0.137564  0.353098  1
  Ga  Ga9  1  0.497027  0.364991  0.853074  1
  Ga  Ga10  1  0.502806  0.859842  0.648148  1
  Ga  Ga11  1  0.995572  0.639754  0.147256  1
  Ag  Ag12  1  0.251506  0.073387  0.781001  1
  Ag  Ag13  1  0.247694  0.426906  0.281296  1
  Ag  Ag14  1  0.752422  0.926820  0.219017  1
  Ag  Ag15  1  0.749450  0.575489  0.719541  1
  Ag  Ag16  1  0.248182  0.667355  0.781897  1
  Ag  Ag17  1  0.250263  0.832583  0.282808  1
  Ag  Ag18  1  0.749782  0.332576  0.217343  1
  Ag  Ag19  1  0.749038  0.163516  0.717698  1
  Ag  Ag20  1  0.247730  0.569437  0.987152  1
  Ag  Ag21  1  0.253109  0.931906  0.486627  1
  Ag  Ag22  1  0.748602  0.430900  0.013345  1
  Ag  Ag23  1  0.752325  0.069083  0.513661  1
