# generated using pymatgen
data_Tb20Co4Bi7Pb
_symmetry_space_group_name_H-M   'P 1'
_cell_length_a   8.06537521
_cell_length_b   8.90198447
_cell_length_c   12.43067448
_cell_angle_alpha   90.03658576
_cell_angle_beta   90.06256234
_cell_angle_gamma   89.99382282
_symmetry_Int_Tables_number   1
_chemical_formula_structural   Tb20Co4Bi7Pb
_chemical_formula_sum   'Tb20 Co4 Bi7 Pb1'
_cell_volume   892.49491924
_cell_formula_units_Z   1
loop_
 _symmetry_equiv_pos_site_id
 _symmetry_equiv_pos_as_xyz
  1  'x, y, z'
loop_
 _atom_site_type_symbol
 _atom_site_label
 _atom_site_symmetry_multiplicity
 _atom_site_fract_x
 _atom_site_fract_y
 _atom_site_fract_z
 _atom_site_occupancy
  Tb  Tb0  1  0.846570  0.748472  0.801291  1
  Tb  Tb1  1  0.151649  0.250416  0.198082  1
  Tb  Tb2  1  0.349663  0.251426  0.699344  1
  Tb  Tb3  1  0.651036  0.750347  0.302106  1
  Tb  Tb4  1  0.382522  0.748366  0.690346  1
  Tb  Tb5  1  0.619759  0.250198  0.309827  1
  Tb  Tb6  1  0.877448  0.251358  0.809962  1
  Tb  Tb7  1  0.119917  0.749925  0.189999  1
  Tb  Tb8  1  0.955694  0.750436  0.502609  1
  Tb  Tb9  1  0.045757  0.249680  0.497358  1
  Tb  Tb10  1  0.456391  0.252489  0.996039  1
  Tb  Tb11  1  0.545841  0.747718  0.001549  1
  Tb  Tb12  1  0.677707  0.034369  0.562922  1
  Tb  Tb13  1  0.323127  0.966672  0.437127  1
  Tb  Tb14  1  0.176534  0.967596  0.937086  1
  Tb  Tb15  1  0.322962  0.532414  0.436622  1
  Tb  Tb16  1  0.822762  0.033275  0.063195  1
  Tb  Tb17  1  0.676125  0.466358  0.565394  1
  Tb  Tb18  1  0.822293  0.465563  0.062057  1
  Tb  Tb19  1  0.178523  0.532491  0.936768  1
  Co  Co20  1  0.559710  0.749897  0.507822  1
  Co  Co21  1  0.439568  0.249757  0.491505  1
  Co  Co22  1  0.059118  0.249273  0.991876  1
  Co  Co23  1  0.940777  0.750319  0.008416  1
  Bi  Bi24  1  0.428066  0.508037  0.174854  1
  Bi  Bi25  1  0.072281  0.507828  0.673909  1
  Bi  Bi26  1  0.428125  0.992381  0.173696  1
  Bi  Bi27  1  0.928087  0.492551  0.326004  1
  Bi  Bi28  1  0.571251  0.007039  0.825846  1
  Bi  Bi29  1  0.928641  0.007560  0.325535  1
  Bi  Bi30  1  0.071232  0.992532  0.674820  1
  Pb  Pb31  1  0.570863  0.493256  0.826034  1
