# generated using pymatgen
data_Dy3Er17(Bi2Sb)4
_symmetry_space_group_name_H-M   'P 1'
_cell_length_a   8.13820538
_cell_length_b   9.40690000
_cell_length_c   11.90820101
_cell_angle_alpha   90.00000000
_cell_angle_beta   90.02003465
_cell_angle_gamma   90.00000000
_symmetry_Int_Tables_number   1
_chemical_formula_structural   Dy3Er17(Bi2Sb)4
_chemical_formula_sum   'Dy3 Er17 Bi8 Sb4'
_cell_volume   911.63565701
_cell_formula_units_Z   1
loop_
 _symmetry_equiv_pos_site_id
 _symmetry_equiv_pos_as_xyz
  1  'x, y, z'
loop_
 _atom_site_type_symbol
 _atom_site_label
 _atom_site_symmetry_multiplicity
 _atom_site_fract_x
 _atom_site_fract_y
 _atom_site_fract_z
 _atom_site_occupancy
  Dy  Dy0  1  0.815183  0.250000  0.282258  1
  Dy  Dy1  1  0.684656  0.750000  0.782225  1
  Dy  Dy2  1  0.184507  0.750000  0.717784  1
  Er  Er3  1  0.353466  0.750000  0.214601  1
  Er  Er4  1  0.853306  0.750000  0.285265  1
  Er  Er5  1  0.646597  0.250000  0.785569  1
  Er  Er6  1  0.146820  0.250000  0.714622  1
  Er  Er7  1  0.689390  0.563908  0.058381  1
  Er  Er8  1  0.189080  0.936059  0.441496  1
  Er  Er9  1  0.310754  0.063935  0.941779  1
  Er  Er10  1  0.810979  0.435959  0.558355  1
  Er  Er11  1  0.310754  0.436065  0.941779  1
  Er  Er12  1  0.810979  0.064041  0.558355  1
  Er  Er13  1  0.689390  0.936092  0.058381  1
  Er  Er14  1  0.189080  0.563941  0.441496  1
  Er  Er15  1  0.473361  0.250000  0.487940  1
  Er  Er16  1  0.973369  0.250000  0.012150  1
  Er  Er17  1  0.526576  0.750000  0.511714  1
  Er  Er18  1  0.026777  0.750000  0.988305  1
  Er  Er19  1  0.314926  0.250000  0.217208  1
  Bi  Bi20  1  0.565146  0.995488  0.325495  1
  Bi  Bi21  1  0.066549  0.504567  0.174317  1
  Bi  Bi22  1  0.434255  0.495064  0.674174  1
  Bi  Bi23  1  0.934137  0.005063  0.826014  1
  Bi  Bi24  1  0.434255  0.004936  0.674174  1
  Bi  Bi25  1  0.934137  0.494937  0.826014  1
  Bi  Bi26  1  0.565146  0.504512  0.325495  1
  Bi  Bi27  1  0.066549  0.995433  0.174317  1
  Sb  Sb28  1  0.406199  0.750000  0.959033  1
  Sb  Sb29  1  0.905954  0.750000  0.540910  1
  Sb  Sb30  1  0.593326  0.250000  0.041664  1
  Sb  Sb31  1  0.094393  0.250000  0.458729  1
