# generated using pymatgen
data_Tb11DySi(BBr4)3
_symmetry_space_group_name_H-M   'P 1'
_cell_length_a   9.92869949
_cell_length_b   9.92890929
_cell_length_c   9.92941451
_cell_angle_alpha   109.78603572
_cell_angle_beta   109.79079650
_cell_angle_gamma   109.79617248
_symmetry_Int_Tables_number   1
_chemical_formula_structural   Tb11DySi(BBr4)3
_chemical_formula_sum   'Tb11 Dy1 Si1 B3 Br12'
_cell_volume   744.46654899
_cell_formula_units_Z   1
loop_
 _symmetry_equiv_pos_site_id
 _symmetry_equiv_pos_as_xyz
  1  'x, y, z'
loop_
 _atom_site_type_symbol
 _atom_site_label
 _atom_site_symmetry_multiplicity
 _atom_site_fract_x
 _atom_site_fract_y
 _atom_site_fract_z
 _atom_site_occupancy
  Tb  Tb0  1  0.750011  0.228224  0.271779  1
  Tb  Tb1  1  0.750011  0.019806  0.480228  1
  Tb  Tb2  1  0.225440  0.468557  0.494512  1
  Tb  Tb3  1  0.271825  0.749976  0.228246  1
  Tb  Tb4  1  0.031584  0.274613  0.005583  1
  Tb  Tb5  1  0.005559  0.031529  0.274566  1
  Tb  Tb6  1  0.480244  0.749985  0.019825  1
  Tb  Tb7  1  0.494515  0.225461  0.468575  1
  Tb  Tb8  1  0.019872  0.480187  0.750063  1
  Tb  Tb9  1  0.274550  0.005514  0.031421  1
  Tb  Tb10  1  0.228238  0.271800  0.750028  1
  Dy  Dy11  1  0.467827  0.494280  0.224949  1
  Si  Si12  1  0.250375  0.250368  0.250016  1
  B  B13  1  0.500911  0.999060  0.250001  1
  B  B14  1  0.999111  0.250010  0.500933  1
  B  B15  1  0.250396  0.500947  0.999432  1
  Br  Br16  1  0.250012  0.757686  0.742328  1
  Br  Br17  1  0.512819  0.506953  0.757924  1
  Br  Br18  1  0.987189  0.742083  0.993056  1
  Br  Br19  1  0.742325  0.249997  0.757695  1
  Br  Br20  1  0.993058  0.987195  0.742093  1
  Br  Br21  1  0.250001  0.993577  0.506412  1
  Br  Br22  1  0.757707  0.512852  0.506702  1
  Br  Br23  1  0.506460  0.250407  0.993968  1
  Br  Br24  1  0.757292  0.741899  0.250020  1
  Br  Br25  1  0.742084  0.993056  0.987186  1
  Br  Br26  1  0.993588  0.506410  0.249989  1
  Br  Br27  1  0.506996  0.757570  0.512470  1
