# generated using pymatgen
data_Mo4P3SO22
_symmetry_space_group_name_H-M   'P 1'
_cell_length_a   6.44722340
_cell_length_b   7.72852501
_cell_length_c   9.15182871
_cell_angle_alpha   74.03479587
_cell_angle_beta   89.96360152
_cell_angle_gamma   89.96926828
_symmetry_Int_Tables_number   1
_chemical_formula_structural   Mo4P3SO22
_chemical_formula_sum   'Mo4 P3 S1 O22'
_cell_volume   438.42395937
_cell_formula_units_Z   1
loop_
 _symmetry_equiv_pos_site_id
 _symmetry_equiv_pos_as_xyz
  1  'x, y, z'
loop_
 _atom_site_type_symbol
 _atom_site_label
 _atom_site_symmetry_multiplicity
 _atom_site_fract_x
 _atom_site_fract_y
 _atom_site_fract_z
 _atom_site_occupancy
  Mo  Mo0  1  0.248782  0.390877  0.708983  1
  Mo  Mo1  1  0.751240  0.600722  0.292969  1
  Mo  Mo2  1  0.249699  0.168678  0.147657  1
  Mo  Mo3  1  0.750415  0.815539  0.856605  1
  P  P4  1  0.749792  0.491829  0.668801  1
  P  P5  1  0.250670  0.504826  0.326794  1
  P  P6  1  0.250480  0.931859  0.883211  1
  S  S7  1  0.749813  0.073912  0.113611  1
  O  O8  1  0.251888  0.971623  0.038768  1
  O  O9  1  0.246324  0.031696  0.327119  1
  O  O10  1  0.751458  0.916057  0.245030  1
  O  O11  1  0.747843  0.026570  0.964833  1
  O  O12  1  0.057845  0.632175  0.304601  1
  O  O13  1  0.752361  0.372187  0.345086  1
  O  O14  1  0.751582  0.973482  0.686387  1
  O  O15  1  0.249667  0.095843  0.747493  1
  O  O16  1  0.054686  0.809344  0.883676  1
  O  O17  1  0.444321  0.630842  0.305608  1
  O  O18  1  0.751060  0.630856  0.513550  1
  O  O19  1  0.249409  0.344233  0.911627  1
  O  O20  1  0.750623  0.598831  0.794230  1
  O  O21  1  0.750289  0.655554  0.088337  1
  O  O22  1  0.569401  0.194308  0.115511  1
  O  O23  1  0.938446  0.366042  0.698326  1
  O  O24  1  0.250591  0.407805  0.201099  1
  O  O25  1  0.559300  0.368515  0.697607  1
  O  O26  1  0.246740  0.621075  0.652853  1
  O  O27  1  0.249529  0.370452  0.485233  1
  O  O28  1  0.445638  0.809148  0.881890  1
  O  O29  1  0.930109  0.195118  0.112505  1
