# generated using pymatgen
data_RbNp3F13
_symmetry_space_group_name_H-M   'P 1'
_cell_length_a   7.40825100
_cell_length_b   8.02974200
_cell_length_c   8.45618700
_cell_angle_alpha   90.00000000
_cell_angle_beta   90.00000000
_cell_angle_gamma   90.00000000
_symmetry_Int_Tables_number   1
_chemical_formula_structural   RbNp3F13
_chemical_formula_sum   'Rb2 Np6 F26'
_cell_volume   503.02765051
_cell_formula_units_Z   2
loop_
 _symmetry_equiv_pos_site_id
 _symmetry_equiv_pos_as_xyz
  1  'x, y, z'
loop_
 _atom_site_type_symbol
 _atom_site_label
 _atom_site_symmetry_multiplicity
 _atom_site_fract_x
 _atom_site_fract_y
 _atom_site_fract_z
 _atom_site_occupancy
  Rb  Rb0  1  0.393963  0.500000  0.261495  1
  Rb  Rb1  1  0.606037  0.500000  0.761495  1
  Np  Np2  1  0.891783  0.252495  0.126852  1
  Np  Np3  1  0.891783  0.747505  0.126852  1
  Np  Np4  1  0.108217  0.747505  0.626852  1
  Np  Np5  1  0.108217  0.252495  0.626852  1
  Np  Np6  1  0.610959  0.000000  0.470488  1
  Np  Np7  1  0.389041  0.000000  0.970488  1
  F  F8  1  0.810788  0.172256  0.593704  1
  F  F9  1  0.810788  0.827744  0.593704  1
  F  F10  1  0.189212  0.827744  0.093704  1
  F  F11  1  0.189212  0.172256  0.093704  1
  F  F12  1  0.608384  0.194285  0.003465  1
  F  F13  1  0.608384  0.805715  0.003465  1
  F  F14  1  0.391616  0.805715  0.503465  1
  F  F15  1  0.391616  0.194285  0.503465  1
  F  F16  1  0.679024  0.261077  0.316335  1
  F  F17  1  0.679024  0.738923  0.316335  1
  F  F18  1  0.320976  0.738923  0.816335  1
  F  F19  1  0.320976  0.261077  0.816335  1
  F  F20  1  0.045676  0.296206  0.366399  1
  F  F21  1  0.045676  0.703794  0.366399  1
  F  F22  1  0.954324  0.703794  0.866399  1
  F  F23  1  0.954324  0.296206  0.866399  1
  F  F24  1  0.054633  0.500000  0.118769  1
  F  F25  1  0.945367  0.500000  0.618769  1
  F  F26  1  0.725762  0.500000  0.087166  1
  F  F27  1  0.274238  0.500000  0.587166  1
  F  F28  1  0.892674  0.000000  0.003303  1
  F  F29  1  0.107326  0.000000  0.503303  1
  F  F30  1  0.855260  0.000000  0.285195  1
  F  F31  1  0.144740  0.000000  0.785195  1
  F  F32  1  0.464483  0.000000  0.230556  1
  F  F33  1  0.535517  0.000000  0.730556  1
