# generated using pymatgen
data_Cr2FeSb12Au
_symmetry_space_group_name_H-M   'P 1'
_cell_length_a   8.18084023
_cell_length_b   8.27053442
_cell_length_c   8.14577345
_cell_angle_alpha   109.61794111
_cell_angle_beta   109.10418064
_cell_angle_gamma   109.88096226
_symmetry_Int_Tables_number   1
_chemical_formula_structural   Cr2FeSb12Au
_chemical_formula_sum   'Cr2 Fe1 Sb12 Au1'
_cell_volume   423.25980894
_cell_formula_units_Z   1
loop_
 _symmetry_equiv_pos_site_id
 _symmetry_equiv_pos_as_xyz
  1  'x, y, z'
loop_
 _atom_site_type_symbol
 _atom_site_label
 _atom_site_symmetry_multiplicity
 _atom_site_fract_x
 _atom_site_fract_y
 _atom_site_fract_z
 _atom_site_occupancy
  Cr  Cr0  1  0.500000  0.000000  0.000000  1
  Cr  Cr1  1  0.000000  0.000000  0.500000  1
  Fe  Fe2  1  0.000000  0.500000  0.000000  1
  Sb  Sb3  1  0.653901  0.854315  0.497000  1
  Sb  Sb4  1  0.863691  0.506110  0.676508  1
  Sb  Sb5  1  0.499809  0.658024  0.858473  1
  Sb  Sb6  1  0.678455  0.168597  0.825327  1
  Sb  Sb7  1  0.845966  0.187452  0.344531  1
  Sb  Sb8  1  0.154034  0.812548  0.655469  1
  Sb  Sb9  1  0.175413  0.342684  0.853364  1
  Sb  Sb10  1  0.136309  0.493890  0.323492  1
  Sb  Sb11  1  0.346099  0.145685  0.503000  1
  Sb  Sb12  1  0.500191  0.341976  0.141527  1
  Sb  Sb13  1  0.321545  0.831403  0.174673  1
  Sb  Sb14  1  0.824587  0.657316  0.146636  1
  Au  Au15  1  0.500000  0.500000  0.500000  1
