# generated using pymatgen
data_NdLu4Ni19
_symmetry_space_group_name_H-M   'P 1'
_cell_length_a   4.89263370
_cell_length_b   4.89263495
_cell_length_c   16.29316395
_cell_angle_alpha   81.36474109
_cell_angle_beta   81.36473893
_cell_angle_gamma   59.99999973
_symmetry_Int_Tables_number   1
_chemical_formula_structural   NdLu4Ni19
_chemical_formula_sum   'Nd1 Lu4 Ni19'
_cell_volume   332.65538438
_cell_formula_units_Z   1
loop_
 _symmetry_equiv_pos_site_id
 _symmetry_equiv_pos_as_xyz
  1  'x, y, z'
loop_
 _atom_site_type_symbol
 _atom_site_label
 _atom_site_symmetry_multiplicity
 _atom_site_fract_x
 _atom_site_fract_y
 _atom_site_fract_z
 _atom_site_occupancy
  Nd  Nd0  1  0.000000  0.000000  0.000000  1
  Lu  Lu1  1  0.921013  0.921013  0.236963  1
  Lu  Lu2  1  0.078987  0.078987  0.763037  1
  Lu  Lu3  1  0.847882  0.847882  0.456355  1
  Lu  Lu4  1  0.152118  0.152118  0.543645  1
  Ni  Ni5  1  0.500000  0.500000  0.500000  1
  Ni  Ni6  1  0.750079  0.750080  0.749762  1
  Ni  Ni7  1  0.249920  0.249920  0.250239  1
  Ni  Ni8  1  0.666720  0.666720  0.999843  1
  Ni  Ni9  1  0.333280  0.333280  0.000157  1
  Ni  Ni10  1  0.583335  0.583335  0.249995  1
  Ni  Ni11  1  0.416665  0.416665  0.750005  1
  Ni  Ni12  1  0.374803  0.374803  0.373585  1
  Ni  Ni13  1  0.876807  0.374803  0.373585  1
  Ni  Ni14  1  0.374803  0.876807  0.373585  1
  Ni  Ni15  1  0.625197  0.625197  0.626415  1
  Ni  Ni16  1  0.123193  0.625197  0.626415  1
  Ni  Ni17  1  0.625197  0.123193  0.626415  1
  Ni  Ni18  1  0.458168  0.458168  0.125412  1
  Ni  Ni19  1  0.958252  0.458168  0.125412  1
  Ni  Ni20  1  0.458168  0.958252  0.125412  1
  Ni  Ni21  1  0.541832  0.541832  0.874588  1
  Ni  Ni22  1  0.041748  0.541832  0.874588  1
  Ni  Ni23  1  0.541832  0.041748  0.874588  1
