# generated using pymatgen
data_Tb2Yb4Si24OsRu7
_symmetry_space_group_name_H-M   'P 1'
_cell_length_a   10.15694007
_cell_length_b   10.15694014
_cell_length_c   8.14005103
_cell_angle_alpha   90.02104636
_cell_angle_beta   90.02104887
_cell_angle_gamma   132.75783909
_symmetry_Int_Tables_number   1
_chemical_formula_structural   Tb2Yb4Si24OsRu7
_chemical_formula_sum   'Tb2 Yb4 Si24 Os1 Ru7'
_cell_volume   616.57318644
_cell_formula_units_Z   1
loop_
 _symmetry_equiv_pos_site_id
 _symmetry_equiv_pos_as_xyz
  1  'x, y, z'
loop_
 _atom_site_type_symbol
 _atom_site_label
 _atom_site_symmetry_multiplicity
 _atom_site_fract_x
 _atom_site_fract_y
 _atom_site_fract_z
 _atom_site_occupancy
  Tb  Tb0  1  0.499504  0.999635  0.250025  1
  Tb  Tb1  1  0.000365  0.500496  0.749975  1
  Yb  Yb2  1  0.499979  0.500021  0.500000  1
  Yb  Yb3  1  0.999999  0.000001  0.000000  1
  Yb  Yb4  1  0.500889  0.000683  0.749862  1
  Yb  Yb5  1  0.999317  0.499111  0.250138  1
  Si  Si6  1  0.795936  0.204064  0.500000  1
  Si  Si7  1  0.295090  0.704910  0.000000  1
  Si  Si8  1  0.204987  0.795013  0.500000  1
  Si  Si9  1  0.704594  0.295406  0.000000  1
  Si  Si10  1  0.332064  0.335648  0.832153  1
  Si  Si11  1  0.664352  0.667936  0.167847  1
  Si  Si12  1  0.167991  0.164011  0.331778  1
  Si  Si13  1  0.835989  0.832009  0.668222  1
  Si  Si14  1  0.122950  0.890266  0.730530  1
  Si  Si15  1  0.109734  0.877050  0.269470  1
  Si  Si16  1  0.608434  0.375928  0.229282  1
  Si  Si17  1  0.624072  0.391566  0.770718  1
  Si  Si18  1  0.875602  0.108099  0.269218  1
  Si  Si19  1  0.891901  0.124398  0.730782  1
  Si  Si20  1  0.391079  0.623939  0.769731  1
  Si  Si21  1  0.376061  0.608921  0.230269  1
  Si  Si22  1  0.345984  0.113016  0.506624  1
  Si  Si23  1  0.886984  0.654016  0.493376  1
  Si  Si24  1  0.386154  0.153007  0.008188  1
  Si  Si25  1  0.846993  0.613846  0.991812  1
  Si  Si26  1  0.652799  0.885701  0.490904  1
  Si  Si27  1  0.114299  0.347201  0.509096  1
  Si  Si28  1  0.613356  0.846967  0.993401  1
  Si  Si29  1  0.153033  0.386644  0.006599  1
  Os  Os30  1  0.670867  0.329133  0.500000  1
  Ru  Ru31  1  0.170395  0.829605  0.000000  1
  Ru  Ru32  1  0.329753  0.670247  0.500000  1
  Ru  Ru33  1  0.828979  0.171021  0.000000  1
  Ru  Ru34  1  0.126713  0.127337  0.624985  1
  Ru  Ru35  1  0.872663  0.873287  0.375015  1
  Ru  Ru36  1  0.373056  0.372916  0.124883  1
  Ru  Ru37  1  0.627084  0.626944  0.875117  1
