# generated using pymatgen
data_Hf5Sc(ReGe)6
_symmetry_space_group_name_H-M   'P 1'
_cell_length_a   7.88115263
_cell_length_b   7.87174557
_cell_length_c   7.88115208
_cell_angle_alpha   126.58410903
_cell_angle_beta   128.06283957
_cell_angle_gamma   77.75635458
_symmetry_Int_Tables_number   1
_chemical_formula_structural   Hf5Sc(ReGe)6
_chemical_formula_sum   'Hf5 Sc1 Re6 Ge6'
_cell_volume   299.63112401
_cell_formula_units_Z   1
loop_
 _symmetry_equiv_pos_site_id
 _symmetry_equiv_pos_as_xyz
  1  'x, y, z'
loop_
 _atom_site_type_symbol
 _atom_site_label
 _atom_site_symmetry_multiplicity
 _atom_site_fract_x
 _atom_site_fract_y
 _atom_site_fract_z
 _atom_site_occupancy
  Hf  Hf0  1  0.549413  0.252384  0.202972  1
  Hf  Hf1  1  0.750782  0.854564  0.603782  1
  Hf  Hf2  1  0.249138  0.852053  0.102916  1
  Hf  Hf3  1  0.050220  0.253321  0.703100  1
  Hf  Hf4  1  0.950320  0.653201  0.202882  1
  Sc  Sc5  1  0.450824  0.654867  0.704044  1
  Re  Re6  1  0.501027  0.512336  0.016351  1
  Re  Re7  1  0.995987  0.512336  0.511310  1
  Re  Re8  1  0.126823  0.250620  0.118576  1
  Re  Re9  1  0.875372  0.996725  0.129089  1
  Re  Re10  1  0.367636  0.996725  0.621353  1
  Re  Re11  1  0.632044  0.250620  0.623798  1
  Ge  Ge12  1  0.252984  0.259259  0.506275  1
  Ge  Ge13  1  0.749235  0.252154  0.002920  1
  Ge  Ge14  1  0.333146  0.586712  0.255044  1
  Ge  Ge15  1  0.666492  0.917505  0.250616  1
  Ge  Ge16  1  0.166888  0.917505  0.751013  1
  Ge  Ge17  1  0.831668  0.586712  0.753566  1
