# generated using pymatgen
data_Na2Ca3Yb(Fe3N5)2
_symmetry_space_group_name_H-M   'P 1'
_cell_length_a   5.47040297
_cell_length_b   6.75326089
_cell_length_c   8.25475415
_cell_angle_alpha   108.86095502
_cell_angle_beta   103.33090289
_cell_angle_gamma   94.73016563
_symmetry_Int_Tables_number   1
_chemical_formula_structural   Na2Ca3Yb(Fe3N5)2
_chemical_formula_sum   'Na2 Ca3 Yb1 Fe6 N10'
_cell_volume   276.69373902
_cell_formula_units_Z   1
loop_
 _symmetry_equiv_pos_site_id
 _symmetry_equiv_pos_as_xyz
  1  'x, y, z'
loop_
 _atom_site_type_symbol
 _atom_site_label
 _atom_site_symmetry_multiplicity
 _atom_site_fract_x
 _atom_site_fract_y
 _atom_site_fract_z
 _atom_site_occupancy
  Na  Na0  1  0.202283  0.581768  0.391823  1
  Na  Na1  1  0.654559  0.856034  0.871942  1
  Ca  Ca2  1  0.339912  0.127961  0.116978  1
  Ca  Ca3  1  0.668481  0.664854  0.208982  1
  Ca  Ca4  1  0.346571  0.338081  0.799162  1
  Yb  Yb5  1  0.831284  0.426091  0.621847  1
  Fe  Fe6  1  0.913083  0.317674  0.974129  1
  Fe  Fe7  1  0.089652  0.678124  0.023713  1
  Fe  Fe8  1  0.679281  0.955515  0.572618  1
  Fe  Fe9  1  0.313410  0.056099  0.434283  1
  Fe  Fe10  1  0.095875  0.882163  0.699365  1
  Fe  Fe11  1  0.899209  0.118499  0.296981  1
  N  N12  1  0.937568  0.124934  0.772437  1
  N  N13  1  0.071602  0.888195  0.220033  1
  N  N14  1  0.811107  0.712213  0.520296  1
  N  N15  1  0.164624  0.289832  0.490247  1
  N  N16  1  0.754154  0.529499  0.914698  1
  N  N17  1  0.251610  0.463385  0.086239  1
  N  N18  1  0.362519  0.945532  0.615296  1
  N  N19  1  0.631839  0.065609  0.387013  1
  N  N20  1  0.180437  0.760426  0.863220  1
  N  N21  1  0.800938  0.217511  0.118700  1
