# generated using pymatgen
data_Ho3BiIr3RhO14
_symmetry_space_group_name_H-M   'P 1'
_cell_length_a   7.28077710
_cell_length_b   7.27054572
_cell_length_c   7.27054575
_cell_angle_alpha   59.71874286
_cell_angle_beta   59.83377942
_cell_angle_gamma   59.83378502
_symmetry_Int_Tables_number   1
_chemical_formula_structural   Ho3BiIr3RhO14
_chemical_formula_sum   'Ho3 Bi1 Ir3 Rh1 O14'
_cell_volume   270.87820401
_cell_formula_units_Z   1
loop_
 _symmetry_equiv_pos_site_id
 _symmetry_equiv_pos_as_xyz
  1  'x, y, z'
loop_
 _atom_site_type_symbol
 _atom_site_label
 _atom_site_symmetry_multiplicity
 _atom_site_fract_x
 _atom_site_fract_y
 _atom_site_fract_z
 _atom_site_occupancy
  Ho  Ho0  1  0.125000  0.625000  0.125000  1
  Ho  Ho1  1  0.625000  0.125000  0.125000  1
  Ho  Ho2  1  0.125000  0.125000  0.625000  1
  Bi  Bi3  1  0.125000  0.125000  0.125000  1
  Ir  Ir4  1  0.625000  0.625000  0.625000  1
  Ir  Ir5  1  0.625000  0.625000  0.125000  1
  Ir  Ir6  1  0.625000  0.125000  0.625000  1
  Rh  Rh7  1  0.125000  0.625000  0.625000  1
  O  O8  1  0.254771  0.252976  0.252976  1
  O  O9  1  0.290088  0.706604  0.285479  1
  O  O10  1  0.959912  0.964521  0.543396  1
  O  O11  1  0.540374  0.961381  0.536385  1
  O  O12  1  0.709626  0.713615  0.288619  1
  O  O13  1  0.960760  0.536594  0.536594  1
  O  O14  1  0.709626  0.288619  0.713615  1
  O  O15  1  0.290088  0.285479  0.706604  1
  O  O16  1  0.703336  0.289576  0.289576  1
  O  O17  1  0.289240  0.713406  0.713406  1
  O  O18  1  0.959912  0.543396  0.964521  1
  O  O19  1  0.540374  0.536385  0.961381  1
  O  O20  1  0.995229  0.997024  0.997024  1
  O  O21  1  0.546664  0.960424  0.960424  1
