# generated using pymatgen
data_Sr2Cd3AgAu8
_symmetry_space_group_name_H-M   'P 1'
_cell_length_a   5.92541710
_cell_length_b   5.92541687
_cell_length_c   10.33991100
_cell_angle_alpha   90.00000000
_cell_angle_beta   90.00000000
_cell_angle_gamma   123.20140903
_symmetry_Int_Tables_number   1
_chemical_formula_structural   Sr2Cd3AgAu8
_chemical_formula_sum   'Sr2 Cd3 Ag1 Au8'
_cell_volume   303.77413848
_cell_formula_units_Z   1
loop_
 _symmetry_equiv_pos_site_id
 _symmetry_equiv_pos_as_xyz
  1  'x, y, z'
loop_
 _atom_site_type_symbol
 _atom_site_label
 _atom_site_symmetry_multiplicity
 _atom_site_fract_x
 _atom_site_fract_y
 _atom_site_fract_z
 _atom_site_occupancy
  Sr  Sr0  1  0.000000  0.500000  0.753875  1
  Sr  Sr1  1  0.500000  0.000000  0.246125  1
  Cd  Cd2  1  0.000000  0.000000  0.500000  1
  Cd  Cd3  1  0.000000  0.000000  0.000000  1
  Cd  Cd4  1  0.500000  0.500000  0.500000  1
  Ag  Ag5  1  0.500000  0.500000  0.000000  1
  Au  Au6  1  0.000000  0.500000  0.056518  1
  Au  Au7  1  0.500000  0.000000  0.552334  1
  Au  Au8  1  0.500000  0.000000  0.943482  1
  Au  Au9  1  0.000000  0.500000  0.447666  1
  Au  Au10  1  0.193975  0.305608  0.250760  1
  Au  Au11  1  0.694392  0.806025  0.749240  1
  Au  Au12  1  0.305608  0.193975  0.749240  1
  Au  Au13  1  0.806025  0.694392  0.250760  1
