# generated using pymatgen
data_Yb(GdIr)2
_symmetry_space_group_name_H-M   'P 1'
_cell_length_a   7.42859022
_cell_length_b   7.42858806
_cell_length_c   7.42859156
_cell_angle_alpha   70.91938620
_cell_angle_beta   70.91939114
_cell_angle_gamma   70.91937371
_symmetry_Int_Tables_number   1
_chemical_formula_structural   Yb(GdIr)2
_chemical_formula_sum   'Yb3 Gd6 Ir6'
_cell_volume   354.84683297
_cell_formula_units_Z   3
loop_
 _symmetry_equiv_pos_site_id
 _symmetry_equiv_pos_as_xyz
  1  'x, y, z'
loop_
 _atom_site_type_symbol
 _atom_site_label
 _atom_site_symmetry_multiplicity
 _atom_site_fract_x
 _atom_site_fract_y
 _atom_site_fract_z
 _atom_site_occupancy
  Yb  Yb0  1  0.000000  0.000000  0.000000  1
  Yb  Yb1  1  0.802840  0.802840  0.802840  1
  Yb  Yb2  1  0.197160  0.197160  0.197160  1
  Gd  Gd3  1  0.146700  0.396748  0.673854  1
  Gd  Gd4  1  0.673854  0.146700  0.396748  1
  Gd  Gd5  1  0.396748  0.673854  0.146700  1
  Gd  Gd6  1  0.853300  0.603252  0.326146  1
  Gd  Gd7  1  0.326146  0.853300  0.603252  1
  Gd  Gd8  1  0.603252  0.326146  0.853300  1
  Ir  Ir9  1  0.948436  0.176065  0.582309  1
  Ir  Ir10  1  0.582309  0.948436  0.176065  1
  Ir  Ir11  1  0.176065  0.582309  0.948436  1
  Ir  Ir12  1  0.051564  0.823935  0.417691  1
  Ir  Ir13  1  0.417691  0.051564  0.823935  1
  Ir  Ir14  1  0.823935  0.417691  0.051564  1
