# generated using pymatgen
data_Gd4Y2AuO12
_symmetry_space_group_name_H-M   'P 1'
_cell_length_a   6.54379559
_cell_length_b   6.54219433
_cell_length_c   6.57572035
_cell_angle_alpha   98.74854093
_cell_angle_beta   98.96544868
_cell_angle_gamma   98.70165221
_symmetry_Int_Tables_number   1
_chemical_formula_structural   Gd4Y2AuO12
_chemical_formula_sum   'Gd4 Y2 Au1 O12'
_cell_volume   270.38611650
_cell_formula_units_Z   1
loop_
 _symmetry_equiv_pos_site_id
 _symmetry_equiv_pos_as_xyz
  1  'x, y, z'
loop_
 _atom_site_type_symbol
 _atom_site_label
 _atom_site_symmetry_multiplicity
 _atom_site_fract_x
 _atom_site_fract_y
 _atom_site_fract_z
 _atom_site_occupancy
  Gd  Gd0  1  0.304415  0.143079  0.608945  1
  Gd  Gd1  1  0.698857  0.861331  0.392277  1
  Gd  Gd2  1  0.391985  0.695673  0.859770  1
  Gd  Gd3  1  0.139618  0.607660  0.300363  1
  Y  Y4  1  0.857262  0.388838  0.699008  1
  Y  Y5  1  0.609751  0.300624  0.138492  1
  Au  Au6  1  0.999997  0.000156  0.999790  1
  O  O7  1  0.938989  0.047510  0.694364  1
  O  O8  1  0.952615  0.306837  0.059148  1
  O  O9  1  0.592148  0.178388  0.437211  1
  O  O10  1  0.822862  0.561181  0.410465  1
  O  O11  1  0.307643  0.061631  0.956087  1
  O  O12  1  0.563081  0.409668  0.823392  1
  O  O13  1  0.438726  0.588602  0.179271  1
  O  O14  1  0.692930  0.941421  0.045119  1
  O  O15  1  0.174514  0.437484  0.589293  1
  O  O16  1  0.409196  0.823483  0.563096  1
  O  O17  1  0.044750  0.692070  0.938082  1
  O  O18  1  0.060661  0.954363  0.305825  1
