# generated using pymatgen
data_TmHf2Be2Ir5
_symmetry_space_group_name_H-M   'P 1'
_cell_length_a   9.59782200
_cell_length_b   9.59692900
_cell_length_c   3.31098300
_cell_angle_alpha   90.00000000
_cell_angle_beta   90.00000000
_cell_angle_gamma   90.00000000
_symmetry_Int_Tables_number   1
_chemical_formula_structural   TmHf2Be2Ir5
_chemical_formula_sum   'Tm2 Hf4 Be4 Ir10'
_cell_volume   304.97337367
_cell_formula_units_Z   2
loop_
 _symmetry_equiv_pos_site_id
 _symmetry_equiv_pos_as_xyz
  1  'x, y, z'
loop_
 _atom_site_type_symbol
 _atom_site_label
 _atom_site_symmetry_multiplicity
 _atom_site_fract_x
 _atom_site_fract_y
 _atom_site_fract_z
 _atom_site_occupancy
  Tm  Tm0  1  0.175065  0.674997  0.000000  1
  Tm  Tm1  1  0.324935  0.174997  0.000000  1
  Hf  Hf2  1  0.825723  0.324577  0.000000  1
  Hf  Hf3  1  0.499059  0.499056  0.000000  1
  Hf  Hf4  1  0.674277  0.824577  0.000000  1
  Hf  Hf5  1  0.000941  0.999056  0.000000  1
  Be  Be6  1  0.382690  0.880341  0.000000  1
  Be  Be7  1  0.117310  0.380341  0.000000  1
  Be  Be8  1  0.877423  0.619315  0.000000  1
  Be  Be9  1  0.622577  0.119315  0.000000  1
  Ir  Ir10  1  0.219850  0.931108  0.500000  1
  Ir  Ir11  1  0.920634  0.784219  0.500000  1
  Ir  Ir12  1  0.437683  0.718395  0.500000  1
  Ir  Ir13  1  0.579366  0.284219  0.500000  1
  Ir  Ir14  1  0.713996  0.571431  0.500000  1
  Ir  Ir15  1  0.280150  0.431108  0.500000  1
  Ir  Ir16  1  0.062317  0.218395  0.500000  1
  Ir  Ir17  1  0.991645  0.496563  0.500000  1
  Ir  Ir18  1  0.508355  0.996563  0.500000  1
  Ir  Ir19  1  0.786004  0.071431  0.500000  1
