# generated using pymatgen
data_Ca10Hg2Pd3Rh
_symmetry_space_group_name_H-M   'P 1'
_cell_length_a   9.21458896
_cell_length_b   9.21458774
_cell_length_c   9.18270500
_cell_angle_alpha   128.92603775
_cell_angle_beta   128.92603160
_cell_angle_gamma   75.38721540
_symmetry_Int_Tables_number   1
_chemical_formula_structural   Ca10Hg2Pd3Rh
_chemical_formula_sum   'Ca10 Hg2 Pd3 Rh1'
_cell_volume   458.61728925
_cell_formula_units_Z   1
loop_
 _symmetry_equiv_pos_site_id
 _symmetry_equiv_pos_as_xyz
  1  'x, y, z'
loop_
 _atom_site_type_symbol
 _atom_site_label
 _atom_site_symmetry_multiplicity
 _atom_site_fract_x
 _atom_site_fract_y
 _atom_site_fract_z
 _atom_site_occupancy
  Ca  Ca0  1  0.539142  0.039142  0.844198  1
  Ca  Ca1  1  0.197688  0.697688  0.165127  1
  Ca  Ca2  1  0.027692  0.200491  0.495022  1
  Ca  Ca3  1  0.700491  0.527692  0.495022  1
  Ca  Ca4  1  0.467439  0.967439  0.165127  1
  Ca  Ca5  1  0.805056  0.305056  0.844198  1
  Ca  Ca6  1  0.967329  0.794532  0.495022  1
  Ca  Ca7  1  0.294532  0.467329  0.495022  1
  Ca  Ca8  1  0.504968  0.498190  0.003159  1
  Ca  Ca9  1  0.998190  0.004968  0.003159  1
  Hg  Hg10  1  0.249674  0.249674  0.999345  1
  Hg  Hg11  1  0.749674  0.749674  0.999345  1
  Pd  Pd12  1  0.627927  0.871366  0.499294  1
  Pd  Pd13  1  0.371366  0.127927  0.499294  1
  Pd  Pd14  1  0.128365  0.628365  0.756730  1
  Rh  Rh15  1  0.870468  0.370468  0.240935  1
