# generated using pymatgen
data_RbLiPSe3
_symmetry_space_group_name_H-M   'P 1'
_cell_length_a   11.13440400
_cell_length_b   8.44319688
_cell_length_c   20.78886400
_cell_angle_alpha   86.80816242
_cell_angle_beta   90.00000000
_cell_angle_gamma   90.00000000
_symmetry_Int_Tables_number   1
_chemical_formula_structural   RbLiPSe3
_chemical_formula_sum   'Rb12 Li12 P12 Se36'
_cell_volume   1951.32859201
_cell_formula_units_Z   12
loop_
 _symmetry_equiv_pos_site_id
 _symmetry_equiv_pos_as_xyz
  1  'x, y, z'
loop_
 _atom_site_type_symbol
 _atom_site_label
 _atom_site_symmetry_multiplicity
 _atom_site_fract_x
 _atom_site_fract_y
 _atom_site_fract_z
 _atom_site_occupancy
  Rb  Rb0  1  0.840469  0.816788  0.710111  1
  Rb  Rb1  1  0.340469  0.183212  0.789889  1
  Rb  Rb2  1  0.159531  0.183212  0.289889  1
  Rb  Rb3  1  0.659531  0.816788  0.210111  1
  Rb  Rb4  1  0.710097  0.483938  0.012807  1
  Rb  Rb5  1  0.210097  0.516062  0.487193  1
  Rb  Rb6  1  0.289903  0.516062  0.987193  1
  Rb  Rb7  1  0.789903  0.483938  0.512807  1
  Rb  Rb8  1  0.525185  0.145249  0.600817  1
  Rb  Rb9  1  0.025185  0.854751  0.899183  1
  Rb  Rb10  1  0.474815  0.854751  0.399183  1
  Rb  Rb11  1  0.974815  0.145249  0.100817  1
  Li  Li12  1  0.654194  0.462717  0.775748  1
  Li  Li13  1  0.154194  0.537283  0.724252  1
  Li  Li14  1  0.345806  0.537283  0.224252  1
  Li  Li15  1  0.845806  0.462717  0.275748  1
  Li  Li16  1  0.531175  0.809362  0.861426  1
  Li  Li17  1  0.031175  0.190638  0.638574  1
  Li  Li18  1  0.468825  0.190638  0.138574  1
  Li  Li19  1  0.968825  0.809362  0.361426  1
  Li  Li20  1  0.720226  0.140761  0.899540  1
  Li  Li21  1  0.220226  0.859239  0.600460  1
  Li  Li22  1  0.279774  0.859239  0.100460  1
  Li  Li23  1  0.779774  0.140761  0.399540  1
  P  P24  1  0.953790  0.401654  0.856641  1
  P  P25  1  0.453790  0.598346  0.643359  1
  P  P26  1  0.046210  0.598346  0.143359  1
  P  P27  1  0.546210  0.401654  0.356641  1
  P  P28  1  0.920579  0.269647  0.766427  1
  P  P29  1  0.420579  0.730353  0.733573  1
  P  P30  1  0.079421  0.730353  0.233573  1
  P  P31  1  0.579421  0.269647  0.266427  1
  P  P32  1  0.575859  0.932082  0.024575  1
  P  P33  1  0.075859  0.067918  0.475425  1
  P  P34  1  0.424141  0.067918  0.975425  1
  P  P35  1  0.924141  0.932082  0.524575  1
  Se  Se36  1  0.924529  0.230130  0.938738  1
  Se  Se37  1  0.424529  0.769870  0.561262  1
  Se  Se38  1  0.075471  0.769870  0.061262  1
  Se  Se39  1  0.575471  0.230130  0.438738  1
  Se  Se40  1  0.735574  0.178339  0.776890  1
  Se  Se41  1  0.235574  0.821661  0.723110  1
  Se  Se42  1  0.264426  0.821661  0.223110  1
  Se  Se43  1  0.764426  0.178339  0.276890  1
  Se  Se44  1  0.444611  0.552702  0.815633  1
  Se  Se45  1  0.944611  0.447298  0.684367  1
  Se  Se46  1  0.555389  0.447298  0.184367  1
  Se  Se47  1  0.055389  0.552702  0.315633  1
  Se  Se48  1  0.138826  0.488874  0.847342  1
  Se  Se49  1  0.638826  0.511126  0.652658  1
  Se  Se50  1  0.861174  0.511126  0.152658  1
  Se  Se51  1  0.361174  0.488874  0.347342  1
  Se  Se52  1  0.694233  0.855487  0.946279  1
  Se  Se53  1  0.194233  0.144513  0.553721  1
  Se  Se54  1  0.305767  0.144513  0.053721  1
  Se  Se55  1  0.805767  0.855487  0.446279  1
  Se  Se56  1  0.487340  0.731036  0.077958  1
  Se  Se57  1  0.987340  0.268964  0.422042  1
  Se  Se58  1  0.512660  0.268964  0.922042  1
  Se  Se59  1  0.012660  0.731036  0.577958  1
  Se  Se60  1  0.810981  0.584814  0.852931  1
  Se  Se61  1  0.310981  0.415186  0.647069  1
  Se  Se62  1  0.189019  0.415186  0.147069  1
  Se  Se63  1  0.689019  0.584814  0.352931  1
  Se  Se64  1  0.663052  0.098844  0.086763  1
  Se  Se65  1  0.163052  0.901156  0.413237  1
  Se  Se66  1  0.336948  0.901156  0.913237  1
  Se  Se67  1  0.836948  0.098844  0.586763  1
  Se  Se68  1  0.056447  0.082774  0.758279  1
  Se  Se69  1  0.556447  0.917226  0.741721  1
  Se  Se70  1  0.943553  0.917226  0.241721  1
  Se  Se71  1  0.443553  0.082774  0.258279  1
