# generated using pymatgen
data_PrNdAl9Pt2Rh
_symmetry_space_group_name_H-M   'P 1'
_cell_length_a   7.67600801
_cell_length_b   7.67648108
_cell_length_c   9.59881800
_cell_angle_alpha   90.00000000
_cell_angle_beta   90.00000000
_cell_angle_gamma   119.60131891
_symmetry_Int_Tables_number   1
_chemical_formula_structural   PrNdAl9Pt2Rh
_chemical_formula_sum   'Pr2 Nd2 Al18 Pt4 Rh2'
_cell_volume   491.78664938
_cell_formula_units_Z   2
loop_
 _symmetry_equiv_pos_site_id
 _symmetry_equiv_pos_as_xyz
  1  'x, y, z'
loop_
 _atom_site_type_symbol
 _atom_site_label
 _atom_site_symmetry_multiplicity
 _atom_site_fract_x
 _atom_site_fract_y
 _atom_site_fract_z
 _atom_site_occupancy
  Pr  Pr0  1  0.993861  0.666645  0.750000  1
  Pr  Pr1  1  0.006139  0.333355  0.250000  1
  Nd  Nd2  1  0.666687  0.993894  0.750000  1
  Nd  Nd3  1  0.333313  0.006106  0.250000  1
  Al  Al4  1  0.127548  0.127682  0.750000  1
  Al  Al5  1  0.872452  0.872318  0.250000  1
  Al  Al6  1  0.001468  0.330128  0.573577  1
  Al  Al7  1  0.998532  0.669872  0.426423  1
  Al  Al8  1  0.998532  0.669872  0.073577  1
  Al  Al9  1  0.330474  0.001638  0.926569  1
  Al  Al10  1  0.001468  0.330128  0.926423  1
  Al  Al11  1  0.669526  0.998362  0.073431  1
  Al  Al12  1  0.669526  0.998362  0.426569  1
  Al  Al13  1  0.330474  0.001638  0.573431  1
  Al  Al14  1  0.330777  0.330618  0.052039  1
  Al  Al15  1  0.669223  0.669382  0.947961  1
  Al  Al16  1  0.669223  0.669382  0.552039  1
  Al  Al17  1  0.330777  0.330618  0.447961  1
  Al  Al18  1  0.340149  0.543778  0.750000  1
  Al  Al19  1  0.659851  0.456222  0.250000  1
  Al  Al20  1  0.543601  0.339852  0.750000  1
  Al  Al21  1  0.456399  0.660148  0.250000  1
  Pt  Pt22  1  0.671082  0.328681  0.499997  1
  Pt  Pt23  1  0.328918  0.671319  0.500003  1
  Pt  Pt24  1  0.328918  0.671319  0.999997  1
  Pt  Pt25  1  0.671082  0.328681  0.000003  1
  Rh  Rh26  1  0.000000  0.000000  0.500000  1
  Rh  Rh27  1  0.000000  0.000000  0.000000  1
