# generated using pymatgen
data_Ho12TcOs2Pt
_symmetry_space_group_name_H-M   'P 1'
_cell_length_a   6.34524937
_cell_length_b   7.33777227
_cell_length_c   9.05592300
_cell_angle_alpha   90.00000000
_cell_angle_beta   90.00000000
_cell_angle_gamma   89.65867324
_symmetry_Int_Tables_number   1
_chemical_formula_structural   Ho12TcOs2Pt
_chemical_formula_sum   'Ho12 Tc1 Os2 Pt1'
_cell_volume   421.63624630
_cell_formula_units_Z   1
loop_
 _symmetry_equiv_pos_site_id
 _symmetry_equiv_pos_as_xyz
  1  'x, y, z'
loop_
 _atom_site_type_symbol
 _atom_site_label
 _atom_site_symmetry_multiplicity
 _atom_site_fract_x
 _atom_site_fract_y
 _atom_site_fract_z
 _atom_site_occupancy
  Ho  Ho0  1  0.327560  0.676957  0.066790  1
  Ho  Ho1  1  0.167393  0.177726  0.436798  1
  Ho  Ho2  1  0.669024  0.318104  0.559623  1
  Ho  Ho3  1  0.836446  0.827048  0.939809  1
  Ho  Ho4  1  0.669024  0.318104  0.940377  1
  Ho  Ho5  1  0.836446  0.827048  0.560191  1
  Ho  Ho6  1  0.327560  0.676957  0.433210  1
  Ho  Ho7  1  0.167393  0.177726  0.063202  1
  Ho  Ho8  1  0.870762  0.540759  0.250000  1
  Ho  Ho9  1  0.626727  0.037416  0.250000  1
  Ho  Ho10  1  0.126436  0.457150  0.750000  1
  Ho  Ho11  1  0.371262  0.965504  0.750000  1
  Tc  Tc12  1  0.464551  0.386617  0.250000  1
  Os  Os13  1  0.036686  0.884961  0.250000  1
  Os  Os14  1  0.957772  0.114225  0.750000  1
  Pt  Pt15  1  0.544962  0.613694  0.750000  1
