# generated using pymatgen
data_La4Mg7Sn6
_symmetry_space_group_name_H-M   'P 1'
_cell_length_a   9.08938162
_cell_length_b   9.08938148
_cell_length_c   13.08404666
_cell_angle_alpha   59.38116845
_cell_angle_beta   59.38116859
_cell_angle_gamma   30.90501465
_symmetry_Int_Tables_number   1
_chemical_formula_structural   La4Mg7Sn6
_chemical_formula_sum   'La4 Mg7 Sn6'
_cell_volume   471.35348226
_cell_formula_units_Z   1
loop_
 _symmetry_equiv_pos_site_id
 _symmetry_equiv_pos_as_xyz
  1  'x, y, z'
loop_
 _atom_site_type_symbol
 _atom_site_label
 _atom_site_symmetry_multiplicity
 _atom_site_fract_x
 _atom_site_fract_y
 _atom_site_fract_z
 _atom_site_occupancy
  La  La0  1  0.266750  0.266750  0.617340  1
  La  La1  1  0.733250  0.733250  0.382660  1
  La  La2  1  0.377183  0.377183  0.834044  1
  La  La3  1  0.622817  0.622817  0.165956  1
  Mg  Mg4  1  0.040950  0.040950  0.860600  1
  Mg  Mg5  1  0.959050  0.959050  0.139400  1
  Mg  Mg6  1  0.065847  0.065847  0.602719  1
  Mg  Mg7  1  0.934153  0.934153  0.397281  1
  Mg  Mg8  1  0.689681  0.689681  0.845592  1
  Mg  Mg9  1  0.310319  0.310319  0.154408  1
  Mg  Mg10  1  0.500000  0.500000  0.500000  1
  Sn  Sn11  1  0.117417  0.117417  0.350138  1
  Sn  Sn12  1  0.882583  0.882583  0.649862  1
  Sn  Sn13  1  0.152255  0.152255  0.974726  1
  Sn  Sn14  1  0.847745  0.847745  0.025274  1
  Sn  Sn15  1  0.609236  0.609236  0.689941  1
  Sn  Sn16  1  0.390764  0.390764  0.310059  1
