# generated using pymatgen
data_Tb9Pr8Er3Sb16
_symmetry_space_group_name_H-M   'P 1'
_cell_length_a   8.12018500
_cell_length_b   8.20394858
_cell_length_c   15.51705500
_cell_angle_alpha   90.00000000
_cell_angle_beta   90.00000000
_cell_angle_gamma   90.03552026
_symmetry_Int_Tables_number   1
_chemical_formula_structural   Tb9Pr8Er3Sb16
_chemical_formula_sum   'Tb9 Pr8 Er3 Sb16'
_cell_volume   1033.70845685
_cell_formula_units_Z   1
loop_
 _symmetry_equiv_pos_site_id
 _symmetry_equiv_pos_as_xyz
  1  'x, y, z'
loop_
 _atom_site_type_symbol
 _atom_site_label
 _atom_site_symmetry_multiplicity
 _atom_site_fract_x
 _atom_site_fract_y
 _atom_site_fract_z
 _atom_site_occupancy
  Tb  Tb0  1  0.359006  0.848531  0.877786  1
  Tb  Tb1  1  0.859655  0.651182  0.622453  1
  Tb  Tb2  1  0.641144  0.151084  0.377486  1
  Tb  Tb3  1  0.140722  0.348729  0.122879  1
  Tb  Tb4  1  0.641144  0.151084  0.122514  1
  Tb  Tb5  1  0.140722  0.348729  0.377121  1
  Tb  Tb6  1  0.359006  0.848531  0.622214  1
  Tb  Tb7  1  0.859655  0.651182  0.877547  1
  Tb  Tb8  1  0.198215  0.498965  0.750000  1
  Pr  Pr9  1  0.529562  0.324082  0.902588  1
  Pr  Pr10  1  0.030099  0.176100  0.597441  1
  Pr  Pr11  1  0.470079  0.675680  0.402257  1
  Pr  Pr12  1  0.970022  0.824319  0.097412  1
  Pr  Pr13  1  0.470079  0.675680  0.097743  1
  Pr  Pr14  1  0.970022  0.824319  0.402588  1
  Pr  Pr15  1  0.529562  0.324082  0.597412  1
  Pr  Pr16  1  0.030099  0.176100  0.902559  1
  Er  Er17  1  0.698718  0.000655  0.750000  1
  Er  Er18  1  0.801147  0.500815  0.250000  1
  Er  Er19  1  0.301319  0.999369  0.250000  1
  Sb  Sb20  1  0.291349  0.036669  0.048468  1
  Sb  Sb21  1  0.791283  0.463575  0.451634  1
  Sb  Sb22  1  0.708827  0.963472  0.548301  1
  Sb  Sb23  1  0.208747  0.536906  0.952865  1
  Sb  Sb24  1  0.708827  0.963472  0.951699  1
  Sb  Sb25  1  0.208747  0.536906  0.547135  1
  Sb  Sb26  1  0.291349  0.036669  0.451532  1
  Sb  Sb27  1  0.791283  0.463575  0.048366  1
  Sb  Sb28  1  0.558862  0.635794  0.750000  1
  Sb  Sb29  1  0.057803  0.866216  0.750000  1
  Sb  Sb30  1  0.442476  0.364890  0.250000  1
  Sb  Sb31  1  0.942093  0.134943  0.250000  1
  Sb  Sb32  1  0.345050  0.148965  0.750000  1
  Sb  Sb33  1  0.842415  0.348438  0.750000  1
  Sb  Sb34  1  0.655624  0.849218  0.250000  1
  Sb  Sb35  1  0.155294  0.651072  0.250000  1
