# generated using pymatgen
data_Tm4Mn13Co3(MoP3)4
_symmetry_space_group_name_H-M   'P 1'
_cell_length_a   3.65486300
_cell_length_b   10.61570955
_cell_length_c   12.22978372
_cell_angle_alpha   90.17392369
_cell_angle_beta   90.00000000
_cell_angle_gamma   90.00000000
_symmetry_Int_Tables_number   1
_chemical_formula_structural   Tm4Mn13Co3(MoP3)4
_chemical_formula_sum   'Tm4 Mn13 Co3 Mo4 P12'
_cell_volume   474.50075276
_cell_formula_units_Z   1
loop_
 _symmetry_equiv_pos_site_id
 _symmetry_equiv_pos_as_xyz
  1  'x, y, z'
loop_
 _atom_site_type_symbol
 _atom_site_label
 _atom_site_symmetry_multiplicity
 _atom_site_fract_x
 _atom_site_fract_y
 _atom_site_fract_z
 _atom_site_occupancy
  Tm  Tm0  1  0.250000  0.586703  0.706494  1
  Tm  Tm1  1  0.250000  0.914928  0.209248  1
  Tm  Tm2  1  0.750000  0.415468  0.291428  1
  Tm  Tm3  1  0.750000  0.083875  0.791054  1
  Mn  Mn4  1  0.250000  0.409909  0.493441  1
  Mn  Mn5  1  0.250000  0.088752  0.993747  1
  Mn  Mn6  1  0.750000  0.590426  0.506585  1
  Mn  Mn7  1  0.750000  0.909199  0.007174  1
  Mn  Mn8  1  0.250000  0.214322  0.180773  1
  Mn  Mn9  1  0.250000  0.285017  0.679780  1
  Mn  Mn10  1  0.750000  0.787506  0.818990  1
  Mn  Mn11  1  0.750000  0.714749  0.319767  1
  Mn  Mn12  1  0.250000  0.880561  0.695894  1
  Mn  Mn13  1  0.250000  0.619747  0.196627  1
  Mn  Mn14  1  0.750000  0.119785  0.304680  1
  Mn  Mn15  1  0.750000  0.381311  0.805068  1
  Mn  Mn16  1  0.250000  0.464666  0.932481  1
  Co  Co17  1  0.250000  0.036002  0.435094  1
  Co  Co18  1  0.750000  0.536237  0.065015  1
  Co  Co19  1  0.750000  0.964576  0.564568  1
  Mo  Mo20  1  0.250000  0.707562  0.985097  1
  Mo  Mo21  1  0.250000  0.790593  0.484915  1
  Mo  Mo22  1  0.750000  0.288884  0.016130  1
  Mo  Mo23  1  0.750000  0.210055  0.515746  1
  P  P24  1  0.250000  0.420279  0.115602  1
  P  P25  1  0.250000  0.078501  0.614707  1
  P  P26  1  0.750000  0.582709  0.883254  1
  P  P27  1  0.750000  0.921099  0.385286  1
  P  P28  1  0.250000  0.260559  0.870188  1
  P  P29  1  0.250000  0.236074  0.370361  1
  P  P30  1  0.750000  0.735716  0.129967  1
  P  P31  1  0.750000  0.765623  0.629575  1
  P  P32  1  0.250000  0.591121  0.384207  1
  P  P33  1  0.250000  0.908834  0.884129  1
  P  P34  1  0.750000  0.409015  0.616175  1
  P  P35  1  0.750000  0.089635  0.116755  1
