# generated using pymatgen
data_K9AlO4
_symmetry_space_group_name_H-M   'P 1'
_cell_length_a   11.03145322
_cell_length_b   11.03145331
_cell_length_c   11.03145300
_cell_angle_alpha   105.71369772
_cell_angle_beta   105.71369785
_cell_angle_gamma   117.27996983
_symmetry_Int_Tables_number   1
_chemical_formula_structural   K9AlO4
_chemical_formula_sum   'K18 Al2 O8'
_cell_volume   1018.83874167
_cell_formula_units_Z   2
loop_
 _symmetry_equiv_pos_site_id
 _symmetry_equiv_pos_as_xyz
  1  'x, y, z'
loop_
 _atom_site_type_symbol
 _atom_site_label
 _atom_site_symmetry_multiplicity
 _atom_site_fract_x
 _atom_site_fract_y
 _atom_site_fract_z
 _atom_site_occupancy
  K  K0  1  0.081280  0.581282  0.662561  1
  K  K1  1  0.918720  0.418719  0.337439  1
  K  K2  1  0.418720  0.081281  0.500001  1
  K  K3  1  0.581280  0.918719  0.499999  1
  K  K4  1  0.000000  0.000000  0.000000  1
  K  K5  1  0.500000  0.500000  0.000000  1
  K  K6  1  0.249997  0.509921  0.259919  1
  K  K7  1  0.249999  0.990080  0.740077  1
  K  K8  1  0.990078  0.250000  0.740078  1
  K  K9  1  0.509923  0.250000  0.259922  1
  K  K10  1  0.750004  0.490079  0.740081  1
  K  K11  1  0.750002  0.009921  0.259924  1
  K  K12  1  0.009923  0.750001  0.259923  1
  K  K13  1  0.490077  0.750001  0.740078  1
  K  K14  1  0.674814  0.174810  0.849623  1
  K  K15  1  0.325187  0.825190  0.150377  1
  K  K16  1  0.825187  0.674810  0.499996  1
  K  K17  1  0.174813  0.325190  0.500004  1
  Al  Al18  1  0.750003  0.250000  0.500002  1
  Al  Al19  1  0.249998  0.750001  0.499998  1
  O  O20  1  0.736579  0.236579  0.656015  1
  O  O21  1  0.580563  0.080563  0.343984  1
  O  O22  1  0.763421  0.419437  0.500000  1
  O  O23  1  0.919436  0.263421  0.500001  1
  O  O24  1  0.263420  0.763421  0.343984  1
  O  O25  1  0.419437  0.919436  0.656015  1
  O  O26  1  0.080563  0.736578  0.499999  1
  O  O27  1  0.236579  0.580563  0.500000  1
