# generated using pymatgen
data_Lu20GaSb11
_symmetry_space_group_name_H-M   'P 1'
_cell_length_a   7.90643310
_cell_length_b   9.11796200
_cell_length_c   11.57461800
_cell_angle_alpha   90.00000000
_cell_angle_beta   89.84455747
_cell_angle_gamma   90.00000000
_symmetry_Int_Tables_number   1
_chemical_formula_structural   Lu20GaSb11
_chemical_formula_sum   'Lu20 Ga1 Sb11'
_cell_volume   834.41758248
_cell_formula_units_Z   1
loop_
 _symmetry_equiv_pos_site_id
 _symmetry_equiv_pos_as_xyz
  1  'x, y, z'
loop_
 _atom_site_type_symbol
 _atom_site_label
 _atom_site_symmetry_multiplicity
 _atom_site_fract_x
 _atom_site_fract_y
 _atom_site_fract_z
 _atom_site_occupancy
  Lu  Lu0  1  0.187707  0.567523  0.442528  1
  Lu  Lu1  1  0.694897  0.937598  0.061499  1
  Lu  Lu2  1  0.807471  0.050602  0.560473  1
  Lu  Lu3  1  0.305387  0.437804  0.939472  1
  Lu  Lu4  1  0.807471  0.449398  0.560473  1
  Lu  Lu5  1  0.305387  0.062196  0.939472  1
  Lu  Lu6  1  0.187707  0.932477  0.442528  1
  Lu  Lu7  1  0.694897  0.562402  0.061499  1
  Lu  Lu8  1  0.028807  0.750000  0.989657  1
  Lu  Lu9  1  0.537755  0.750000  0.509613  1
  Lu  Lu10  1  0.971784  0.250000  0.010003  1
  Lu  Lu11  1  0.474497  0.250000  0.490444  1
  Lu  Lu12  1  0.175926  0.750000  0.712747  1
  Lu  Lu13  1  0.690246  0.750000  0.777954  1
  Lu  Lu14  1  0.813513  0.250000  0.280470  1
  Lu  Lu15  1  0.312397  0.250000  0.219024  1
  Lu  Lu16  1  0.855718  0.750000  0.292447  1
  Lu  Lu17  1  0.353669  0.750000  0.215126  1
  Lu  Lu18  1  0.146368  0.250000  0.715398  1
  Lu  Lu19  1  0.647225  0.250000  0.783927  1
  Ga  Ga20  1  0.912021  0.750000  0.538415  1
  Sb  Sb21  1  0.934443  0.496557  0.826158  1
  Sb  Sb22  1  0.434101  0.002200  0.674113  1
  Sb  Sb23  1  0.065744  0.996347  0.173900  1
  Sb  Sb24  1  0.565025  0.502545  0.325646  1
  Sb  Sb25  1  0.065744  0.503653  0.173900  1
  Sb  Sb26  1  0.565025  0.997455  0.325646  1
  Sb  Sb27  1  0.934443  0.003443  0.826158  1
  Sb  Sb28  1  0.434101  0.497800  0.674113  1
  Sb  Sb29  1  0.411060  0.750000  0.957529  1
  Sb  Sb30  1  0.089534  0.250000  0.458896  1
  Sb  Sb31  1  0.589933  0.250000  0.040771  1
