# generated using pymatgen
data_Zr6TiAl14ZnSiIr7
_symmetry_space_group_name_H-M   'P 1'
_cell_length_a   8.81351501
_cell_length_b   8.81351417
_cell_length_c   8.81351500
_cell_angle_alpha   120.14670421
_cell_angle_beta   119.78860253
_cell_angle_gamma   90.05631327
_symmetry_Int_Tables_number   1
_chemical_formula_structural   Zr6TiAl14ZnSiIr7
_chemical_formula_sum   'Zr6 Ti1 Al14 Zn1 Si1 Ir7'
_cell_volume   484.32754778
_cell_formula_units_Z   1
loop_
 _symmetry_equiv_pos_site_id
 _symmetry_equiv_pos_as_xyz
  1  'x, y, z'
loop_
 _atom_site_type_symbol
 _atom_site_label
 _atom_site_symmetry_multiplicity
 _atom_site_fract_x
 _atom_site_fract_y
 _atom_site_fract_z
 _atom_site_occupancy
  Zr  Zr0  1  0.789560  0.293242  0.082838  1
  Zr  Zr1  1  0.210404  0.293242  0.503682  1
  Zr  Zr2  1  0.205077  0.711286  0.506208  1
  Zr  Zr3  1  0.203294  0.708524  0.907761  1
  Zr  Zr4  1  0.800763  0.708524  0.505230  1
  Zr  Zr5  1  0.792651  0.294619  0.501969  1
  Ti  Ti6  1  0.378600  0.635373  0.256773  1
  Al  Al7  1  0.160660  0.338274  0.177613  1
  Al  Al8  1  0.165943  0.993539  0.827594  1
  Al  Al9  1  0.162700  0.335840  0.821744  1
  Al  Al10  1  0.514094  0.335840  0.173141  1
  Al  Al11  1  0.836319  0.662149  0.825831  1
  Al  Al12  1  0.838088  0.013009  0.174923  1
  Al  Al13  1  0.837118  0.661627  0.173300  1
  Al  Al14  1  0.488327  0.661627  0.824508  1
  Al  Al15  1  0.380043  0.121265  0.260042  1
  Al  Al16  1  0.861224  0.121265  0.741221  1
  Al  Al17  1  0.620068  0.878076  0.258009  1
  Al  Al18  1  0.619515  0.360967  0.741453  1
  Al  Al19  1  0.618715  0.879408  0.740194  1
  Al  Al20  1  0.139214  0.879408  0.260694  1
  Zn  Zn21  1  0.379705  0.121838  0.742133  1
  Si  Si22  1  0.998941  0.494158  0.495218  1
  Ir  Ir23  1  0.992929  0.997927  0.496739  1
  Ir  Ir24  1  0.501187  0.997927  0.004997  1
  Ir  Ir25  1  0.500835  0.507053  0.006218  1
  Ir  Ir26  1  0.499316  0.500417  0.497340  1
  Ir  Ir27  1  0.003077  0.500417  0.001101  1
  Ir  Ir28  1  0.000707  0.999306  0.998599  1
  Ir  Ir29  1  0.500921  0.993853  0.492932  1
