# generated using pymatgen
data_Er5P12Ir14Rh5
_symmetry_space_group_name_H-M   'P 1'
_cell_length_a   12.72321014
_cell_length_b   12.72781376
_cell_length_c   3.94151300
_cell_angle_alpha   90.00000000
_cell_angle_beta   90.00000000
_cell_angle_gamma   120.01945212
_symmetry_Int_Tables_number   1
_chemical_formula_structural   Er5P12Ir14Rh5
_chemical_formula_sum   'Er5 P12 Ir14 Rh5'
_cell_volume   552.66116313
_cell_formula_units_Z   1
loop_
 _symmetry_equiv_pos_site_id
 _symmetry_equiv_pos_as_xyz
  1  'x, y, z'
loop_
 _atom_site_type_symbol
 _atom_site_label
 _atom_site_symmetry_multiplicity
 _atom_site_fract_x
 _atom_site_fract_y
 _atom_site_fract_z
 _atom_site_occupancy
  Er  Er0  1  0.186881  0.186667  0.500000  1
  Er  Er1  1  0.813283  0.000166  0.500000  1
  Er  Er2  1  0.999931  0.812943  0.500000  1
  Er  Er3  1  0.333332  0.665989  0.000000  1
  Er  Er4  1  0.666762  0.333441  0.000000  1
  P  P5  1  0.822037  0.821515  0.000000  1
  P  P6  1  0.178333  0.000289  0.000000  1
  P  P7  1  0.999283  0.177912  0.000000  1
  P  P8  1  0.169973  0.481939  0.500000  1
  P  P9  1  0.517537  0.687757  0.500000  1
  P  P10  1  0.312110  0.828850  0.500000  1
  P  P11  1  0.688957  0.517434  0.500000  1
  P  P12  1  0.828336  0.310965  0.500000  1
  P  P13  1  0.482906  0.172016  0.500000  1
  P  P14  1  0.362514  0.362532  0.000000  1
  P  P15  1  0.637371  0.999598  0.000000  1
  P  P16  1  0.000066  0.637764  0.000000  1
  Ir  Ir17  1  0.717979  0.717691  0.500000  1
  Ir  Ir18  1  0.281574  0.999980  0.500000  1
  Ir  Ir19  1  0.999566  0.281764  0.500000  1
  Ir  Ir20  1  0.192198  0.818630  0.000000  1
  Ir  Ir21  1  0.807901  0.625852  0.000000  1
  Ir  Ir22  1  0.817829  0.192620  0.000000  1
  Ir  Ir23  1  0.375169  0.181709  0.000000  1
  Ir  Ir24  1  0.359114  0.493865  0.500000  1
  Ir  Ir25  1  0.505853  0.865592  0.500000  1
  Ir  Ir26  1  0.133767  0.639773  0.500000  1
  Ir  Ir27  1  0.867014  0.505270  0.500000  1
  Ir  Ir28  1  0.638548  0.132793  0.500000  1
  Ir  Ir29  1  0.494145  0.362093  0.500000  1
  Ir  Ir30  1  0.000274  0.000183  0.000000  1
  Rh  Rh31  1  0.541252  0.544993  0.000000  1
  Rh  Rh32  1  0.456762  0.999236  0.000000  1
  Rh  Rh33  1  0.003165  0.459242  0.000000  1
  Rh  Rh34  1  0.181034  0.372534  0.000000  1
  Rh  Rh35  1  0.627245  0.808399  0.000000  1
