# generated using pymatgen
data_Tb7YbSbPd24
_symmetry_space_group_name_H-M   'P 1'
_cell_length_a   8.40581200
_cell_length_b   8.40581200
_cell_length_c   8.40581200
_cell_angle_alpha   90.00231749
_cell_angle_beta   90.00231749
_cell_angle_gamma   90.00231749
_symmetry_Int_Tables_number   1
_chemical_formula_structural   Tb7YbSbPd24
_chemical_formula_sum   'Tb7 Yb1 Sb1 Pd24'
_cell_volume   593.93513487
_cell_formula_units_Z   1
loop_
 _symmetry_equiv_pos_site_id
 _symmetry_equiv_pos_as_xyz
  1  'x, y, z'
loop_
 _atom_site_type_symbol
 _atom_site_label
 _atom_site_symmetry_multiplicity
 _atom_site_fract_x
 _atom_site_fract_y
 _atom_site_fract_z
 _atom_site_occupancy
  Tb  Tb0  1  0.745696  0.745696  0.254112  1
  Tb  Tb1  1  0.745696  0.254112  0.745696  1
  Tb  Tb2  1  0.254112  0.745696  0.745696  1
  Tb  Tb3  1  0.746111  0.746111  0.746111  1
  Tb  Tb4  1  0.745735  0.254168  0.254168  1
  Tb  Tb5  1  0.254168  0.254168  0.745735  1
  Tb  Tb6  1  0.254168  0.745735  0.254168  1
  Yb  Yb7  1  0.253088  0.253088  0.253088  1
  Sb  Sb8  1  0.000537  0.000537  0.000537  1
  Pd  Pd9  1  0.000381  0.000381  0.306288  1
  Pd  Pd10  1  0.735528  0.999701  0.500042  1
  Pd  Pd11  1  0.735528  0.500042  0.999701  1
  Pd  Pd12  1  0.500042  0.999701  0.735528  1
  Pd  Pd13  1  0.999701  0.735528  0.500042  1
  Pd  Pd14  1  0.500099  0.999867  0.264725  1
  Pd  Pd15  1  0.999867  0.264725  0.500099  1
  Pd  Pd16  1  0.500042  0.735528  0.999701  1
  Pd  Pd17  1  0.254563  0.499816  0.499816  1
  Pd  Pd18  1  0.500167  0.500167  0.745215  1
  Pd  Pd19  1  0.499816  0.499816  0.254563  1
  Pd  Pd20  1  0.499816  0.254563  0.499816  1
  Pd  Pd21  1  0.500167  0.745215  0.500167  1
  Pd  Pd22  1  0.745215  0.500167  0.500167  1
  Pd  Pd23  1  0.306288  0.000381  0.000381  1
  Pd  Pd24  1  0.000064  0.000064  0.693842  1
  Pd  Pd25  1  0.999867  0.500099  0.264725  1
  Pd  Pd26  1  0.000381  0.306288  0.000381  1
  Pd  Pd27  1  0.000064  0.693842  0.000064  1
  Pd  Pd28  1  0.693842  0.000064  0.000064  1
  Pd  Pd29  1  0.264725  0.500099  0.999867  1
  Pd  Pd30  1  0.264725  0.999867  0.500099  1
  Pd  Pd31  1  0.999701  0.500042  0.735528  1
  Pd  Pd32  1  0.500099  0.264725  0.999867  1
