# generated using pymatgen
data_Tb7Ho3(Bi2Ru)2
_symmetry_space_group_name_H-M   'P 1'
_cell_length_a   8.00257863
_cell_length_b   9.04305990
_cell_length_c   12.50537103
_cell_angle_alpha   89.96304613
_cell_angle_beta   90.02825766
_cell_angle_gamma   90.03545970
_symmetry_Int_Tables_number   1
_chemical_formula_structural   Tb7Ho3(Bi2Ru)2
_chemical_formula_sum   'Tb14 Ho6 Bi8 Ru4'
_cell_volume   904.98569189
_cell_formula_units_Z   2
loop_
 _symmetry_equiv_pos_site_id
 _symmetry_equiv_pos_as_xyz
  1  'x, y, z'
loop_
 _atom_site_type_symbol
 _atom_site_label
 _atom_site_symmetry_multiplicity
 _atom_site_fract_x
 _atom_site_fract_y
 _atom_site_fract_z
 _atom_site_occupancy
  Tb  Tb0  1  0.843563  0.750209  0.792974  1
  Tb  Tb1  1  0.156437  0.249791  0.207026  1
  Tb  Tb2  1  0.343898  0.249894  0.706712  1
  Tb  Tb3  1  0.656102  0.750106  0.293288  1
  Tb  Tb4  1  0.376113  0.750088  0.692273  1
  Tb  Tb5  1  0.623887  0.249912  0.307727  1
  Tb  Tb6  1  0.875830  0.249587  0.807265  1
  Tb  Tb7  1  0.124170  0.750413  0.192735  1
  Tb  Tb8  1  0.946247  0.750019  0.504568  1
  Tb  Tb9  1  0.053753  0.249981  0.495432  1
  Tb  Tb10  1  0.446242  0.249633  0.995523  1
  Tb  Tb11  1  0.553758  0.750367  0.004477  1
  Tb  Tb12  1  0.823633  0.458051  0.064196  1
  Tb  Tb13  1  0.176367  0.541949  0.935804  1
  Ho  Ho14  1  0.674653  0.042020  0.563873  1
  Ho  Ho15  1  0.325347  0.957980  0.436127  1
  Ho  Ho16  1  0.174608  0.958122  0.936158  1
  Ho  Ho17  1  0.325351  0.542009  0.436155  1
  Ho  Ho18  1  0.825392  0.041878  0.063842  1
  Ho  Ho19  1  0.674649  0.457991  0.563845  1
  Bi  Bi20  1  0.570583  0.493331  0.827221  1
  Bi  Bi21  1  0.429417  0.506669  0.172779  1
  Bi  Bi22  1  0.070022  0.506630  0.672366  1
  Bi  Bi23  1  0.429947  0.993404  0.172571  1
  Bi  Bi24  1  0.929978  0.493370  0.327634  1
  Bi  Bi25  1  0.570053  0.006596  0.827429  1
  Bi  Bi26  1  0.929834  0.006637  0.327510  1
  Bi  Bi27  1  0.070166  0.993363  0.672490  1
  Ru  Ru28  1  0.573449  0.749959  0.511335  1
  Ru  Ru29  1  0.426551  0.250041  0.488665  1
  Ru  Ru30  1  0.074055  0.249033  0.988493  1
  Ru  Ru31  1  0.925945  0.750967  0.011507  1
