# generated using pymatgen
data_Y2Er14Cd4Ir3Pd
_symmetry_space_group_name_H-M   'P 1'
_cell_length_a   9.57290933
_cell_length_b   9.57290877
_cell_length_c   9.56950527
_cell_angle_alpha   60.18671079
_cell_angle_beta   60.18671378
_cell_angle_gamma   60.09795655
_symmetry_Int_Tables_number   1
_chemical_formula_structural   Y2Er14Cd4Ir3Pd
_chemical_formula_sum   'Y2 Er14 Cd4 Ir3 Pd1'
_cell_volume   622.30678579
_cell_formula_units_Z   1
loop_
 _symmetry_equiv_pos_site_id
 _symmetry_equiv_pos_as_xyz
  1  'x, y, z'
loop_
 _atom_site_type_symbol
 _atom_site_label
 _atom_site_symmetry_multiplicity
 _atom_site_fract_x
 _atom_site_fract_y
 _atom_site_fract_z
 _atom_site_occupancy
  Y  Y0  1  0.565732  0.565732  0.935823  1
  Y  Y1  1  0.935879  0.935879  0.565527  1
  Er  Er2  1  0.347802  0.347802  0.346089  1
  Er  Er3  1  0.354518  0.354518  0.947176  1
  Er  Er4  1  0.353231  0.946441  0.354927  1
  Er  Er5  1  0.946441  0.353231  0.354927  1
  Er  Er6  1  0.804728  0.190456  0.190300  1
  Er  Er7  1  0.188358  0.810600  0.810562  1
  Er  Er8  1  0.190456  0.804728  0.190300  1
  Er  Er9  1  0.810600  0.188358  0.810562  1
  Er  Er10  1  0.190744  0.190744  0.804873  1
  Er  Er11  1  0.810293  0.810293  0.188722  1
  Er  Er12  1  0.940185  0.561673  0.561921  1
  Er  Er13  1  0.563170  0.939098  0.938921  1
  Er  Er14  1  0.561673  0.940185  0.561921  1
  Er  Er15  1  0.939098  0.563170  0.938921  1
  Cd  Cd16  1  0.580622  0.580622  0.579837  1
  Cd  Cd17  1  0.580653  0.580653  0.255812  1
  Cd  Cd18  1  0.579999  0.256010  0.580824  1
  Cd  Cd19  1  0.256010  0.579999  0.580824  1
  Ir  Ir20  1  0.142262  0.142262  0.574307  1
  Ir  Ir21  1  0.139466  0.574076  0.142080  1
  Ir  Ir22  1  0.574076  0.139466  0.142080  1
  Pd  Pd23  1  0.144005  0.144005  0.142772  1
