# generated using pymatgen
data_Cu3Si4Ni5(Mo3C)4
_symmetry_space_group_name_H-M   'P 1'
_cell_length_a   7.88666647
_cell_length_b   7.88909947
_cell_length_c   7.88666729
_cell_angle_alpha   59.94577685
_cell_angle_beta   59.96676390
_cell_angle_gamma   59.94577409
_symmetry_Int_Tables_number   1
_chemical_formula_structural   Cu3Si4Ni5(Mo3C)4
_chemical_formula_sum   'Cu3 Si4 Ni5 Mo12 C4'
_cell_volume   346.60431611
_cell_formula_units_Z   1
loop_
 _symmetry_equiv_pos_site_id
 _symmetry_equiv_pos_as_xyz
  1  'x, y, z'
loop_
 _atom_site_type_symbol
 _atom_site_label
 _atom_site_symmetry_multiplicity
 _atom_site_fract_x
 _atom_site_fract_y
 _atom_site_fract_z
 _atom_site_occupancy
  Cu  Cu0  1  0.920349  0.918017  0.244434  1
  Cu  Cu1  1  0.331894  0.331409  0.331894  1
  Cu  Cu2  1  0.244434  0.918017  0.920349  1
  Si  Si3  1  0.126344  0.131957  0.126344  1
  Si  Si4  1  0.626348  0.124506  0.119540  1
  Si  Si5  1  0.119540  0.124506  0.626348  1
  Si  Si6  1  0.122544  0.620622  0.122544  1
  Ni  Ni7  1  0.332850  0.003862  0.332850  1
  Ni  Ni8  1  0.002097  0.332869  0.333895  1
  Ni  Ni9  1  0.333895  0.332869  0.002097  1
  Ni  Ni10  1  0.918842  0.916323  0.918842  1
  Ni  Ni11  1  0.919373  0.245682  0.919373  1
  Mo  Mo12  1  0.693681  0.308746  0.307471  1
  Mo  Mo13  1  0.941993  0.942808  0.559330  1
  Mo  Mo14  1  0.689723  0.691028  0.308816  1
  Mo  Mo15  1  0.692900  0.306780  0.692900  1
  Mo  Mo16  1  0.310487  0.691903  0.310487  1
  Mo  Mo17  1  0.558064  0.941324  0.558064  1
  Mo  Mo18  1  0.559330  0.942808  0.941993  1
  Mo  Mo19  1  0.940236  0.557067  0.560594  1
  Mo  Mo20  1  0.940921  0.558830  0.940921  1
  Mo  Mo21  1  0.307471  0.308746  0.693681  1
  Mo  Mo22  1  0.560594  0.557067  0.940236  1
  Mo  Mo23  1  0.308816  0.691028  0.689723  1
  C  C24  1  0.624626  0.624949  0.624626  1
  C  C25  1  0.625081  0.625639  0.122909  1
  C  C26  1  0.122909  0.625639  0.625081  1
  C  C27  1  0.624658  0.124999  0.624658  1
