# generated using pymatgen
data_Zr10TlGa3Bi4
_symmetry_space_group_name_H-M   'P 1'
_cell_length_a   8.77003700
_cell_length_b   8.75743723
_cell_length_c   5.94193100
_cell_angle_alpha   90.00000000
_cell_angle_beta   90.00000000
_cell_angle_gamma   119.85782767
_symmetry_Int_Tables_number   1
_chemical_formula_structural   Zr10TlGa3Bi4
_chemical_formula_sum   'Zr10 Tl1 Ga3 Bi4'
_cell_volume   395.78296166
_cell_formula_units_Z   1
loop_
 _symmetry_equiv_pos_site_id
 _symmetry_equiv_pos_as_xyz
  1  'x, y, z'
loop_
 _atom_site_type_symbol
 _atom_site_label
 _atom_site_symmetry_multiplicity
 _atom_site_fract_x
 _atom_site_fract_y
 _atom_site_fract_z
 _atom_site_occupancy
  Zr  Zr0  1  0.674009  0.334479  0.006704  1
  Zr  Zr1  1  0.326113  0.661405  0.005838  1
  Zr  Zr2  1  0.326113  0.661405  0.494162  1
  Zr  Zr3  1  0.674009  0.334479  0.493296  1
  Zr  Zr4  1  0.740777  0.738813  0.750000  1
  Zr  Zr5  1  0.256432  0.997037  0.750000  1
  Zr  Zr6  1  0.999491  0.258566  0.750000  1
  Zr  Zr7  1  0.259711  0.274738  0.250000  1
  Zr  Zr8  1  0.740268  0.019940  0.250000  1
  Zr  Zr9  1  0.004216  0.721994  0.250000  1
  Tl  Tl10  1  0.382711  0.003427  0.250000  1
  Ga  Ga11  1  0.999849  0.997099  0.015363  1
  Ga  Ga12  1  0.999849  0.997099  0.484637  1
  Ga  Ga13  1  0.001561  0.388511  0.250000  1
  Bi  Bi14  1  0.391943  0.388836  0.750000  1
  Bi  Bi15  1  0.605336  0.997993  0.750000  1
  Bi  Bi16  1  0.000532  0.604684  0.750000  1
  Bi  Bi17  1  0.617084  0.619494  0.250000  1
