# generated using pymatgen
data_TiCu2Ir3S8
_symmetry_space_group_name_H-M   'P 1'
_cell_length_a   6.77945013
_cell_length_b   6.77944955
_cell_length_c   6.77945095
_cell_angle_alpha   64.28860995
_cell_angle_beta   64.28861391
_cell_angle_gamma   64.28861350
_symmetry_Int_Tables_number   1
_chemical_formula_structural   TiCu2Ir3S8
_chemical_formula_sum   'Ti1 Cu2 Ir3 S8'
_cell_volume   241.08757241
_cell_formula_units_Z   1
loop_
 _symmetry_equiv_pos_site_id
 _symmetry_equiv_pos_as_xyz
  1  'x, y, z'
loop_
 _atom_site_type_symbol
 _atom_site_label
 _atom_site_symmetry_multiplicity
 _atom_site_fract_x
 _atom_site_fract_y
 _atom_site_fract_z
 _atom_site_occupancy
  Ti  Ti0  1  0.500000  0.500000  0.500000  1
  Cu  Cu1  1  0.118275  0.118275  0.118275  1
  Cu  Cu2  1  0.881725  0.881725  0.881725  1
  Ir  Ir3  1  0.000000  0.500000  0.500000  1
  Ir  Ir4  1  0.500000  0.500000  0.000000  1
  Ir  Ir5  1  0.500000  0.000000  0.500000  1
  S  S6  1  0.253034  0.729552  0.253034  1
  S  S7  1  0.253034  0.253034  0.729552  1
  S  S8  1  0.729552  0.253034  0.253034  1
  S  S9  1  0.260198  0.260198  0.260198  1
  S  S10  1  0.746966  0.270448  0.746966  1
  S  S11  1  0.746966  0.746966  0.270448  1
  S  S12  1  0.270448  0.746966  0.746966  1
  S  S13  1  0.739802  0.739802  0.739802  1
