# generated using pymatgen
data_Nb8Co7Si14Ru
_symmetry_space_group_name_H-M   'P 1'
_cell_length_a   9.26398474
_cell_length_b   9.26742622
_cell_length_c   9.25815907
_cell_angle_alpha   94.26575817
_cell_angle_beta   94.24598853
_cell_angle_gamma   148.39700721
_symmetry_Int_Tables_number   1
_chemical_formula_structural   Nb8Co7Si14Ru
_chemical_formula_sum   'Nb8 Co7 Si14 Ru1'
_cell_volume   400.75592261
_cell_formula_units_Z   1
loop_
 _symmetry_equiv_pos_site_id
 _symmetry_equiv_pos_as_xyz
  1  'x, y, z'
loop_
 _atom_site_type_symbol
 _atom_site_label
 _atom_site_symmetry_multiplicity
 _atom_site_fract_x
 _atom_site_fract_y
 _atom_site_fract_z
 _atom_site_occupancy
  Nb  Nb0  1  0.309820  0.499468  0.809632  1
  Nb  Nb1  1  0.690603  0.501223  0.192186  1
  Nb  Nb2  1  0.501581  0.690962  0.192186  1
  Nb  Nb3  1  0.499813  0.310165  0.809632  1
  Nb  Nb4  1  0.133598  0.133598  0.267193  1
  Nb  Nb5  1  0.865885  0.865885  0.731772  1
  Nb  Nb6  1  0.134378  0.867445  0.000641  1
  Nb  Nb7  1  0.866263  0.133196  0.000641  1
  Co  Co8  1  0.103647  0.603647  0.207294  1
  Co  Co9  1  0.899768  0.100201  0.497943  1
  Co  Co10  1  0.598175  0.397743  0.497943  1
  Co  Co11  1  0.599667  0.099667  0.199337  1
  Co  Co12  1  0.899757  0.399757  0.799513  1
  Co  Co13  1  0.100832  0.898505  0.499559  1
  Co  Co14  1  0.398726  0.601054  0.499559  1
  Si  Si15  1  0.291865  0.291865  0.583729  1
  Si  Si16  1  0.708365  0.708365  0.416729  1
  Si  Si17  1  0.283557  0.697281  0.005007  1
  Si  Si18  1  0.721450  0.307726  0.005007  1
  Si  Si19  1  0.078771  0.483556  0.589765  1
  Si  Si20  1  0.899786  0.494990  0.405029  1
  Si  Si21  1  0.505243  0.910039  0.405029  1
  Si  Si22  1  0.510994  0.106209  0.589765  1
  Si  Si23  1  0.249197  0.248762  0.000191  1
  Si  Si24  1  0.750995  0.751430  0.000191  1
  Si  Si25  1  0.296969  0.000323  0.295909  1
  Si  Si26  1  0.714137  0.005230  0.702867  1
  Si  Si27  1  0.988729  0.697637  0.702867  1
  Si  Si28  1  0.998940  0.295587  0.295909  1
  Ru  Ru29  1  0.398488  0.898488  0.796977  1
