# generated using pymatgen
data_RbLa3CI6
_symmetry_space_group_name_H-M   'P 1'
_cell_length_a   9.74470965
_cell_length_b   9.77826798
_cell_length_c   10.38200400
_cell_angle_alpha   70.92700446
_cell_angle_beta   84.80809536
_cell_angle_gamma   89.40058176
_symmetry_Int_Tables_number   1
_chemical_formula_structural   RbLa3CI6
_chemical_formula_sum   'Rb2 La6 C2 I12'
_cell_volume   930.92817868
_cell_formula_units_Z   2
loop_
 _symmetry_equiv_pos_site_id
 _symmetry_equiv_pos_as_xyz
  1  'x, y, z'
loop_
 _atom_site_type_symbol
 _atom_site_label
 _atom_site_symmetry_multiplicity
 _atom_site_fract_x
 _atom_site_fract_y
 _atom_site_fract_z
 _atom_site_occupancy
  Rb  Rb0  1  0.465762  0.364222  0.327043  1
  Rb  Rb1  1  0.534239  0.635778  0.672957  1
  La  La2  1  0.917709  0.747127  0.003996  1
  La  La3  1  0.082291  0.252873  0.996003  1
  La  La4  1  0.745463  0.083997  0.001655  1
  La  La5  1  0.254536  0.916003  0.998346  1
  La  La6  1  0.974193  0.892203  0.313882  1
  La  La7  1  0.025806  0.107797  0.686119  1
  C  C8  1  0.005934  0.024543  0.927817  1
  C  C9  1  0.994065  0.975457  0.072183  1
  I  I10  1  0.078712  0.203213  0.327266  1
  I  I11  1  0.921288  0.796787  0.672734  1
  I  I12  1  0.210035  0.587808  0.999871  1
  I  I13  1  0.789966  0.412192  0.000129  1
  I  I14  1  0.408635  0.205602  0.002993  1
  I  I15  1  0.591364  0.794399  0.997006  1
  I  I16  1  0.661663  0.003737  0.330205  1
  I  I17  1  0.338337  0.996263  0.669795  1
  I  I18  1  0.284718  0.772205  0.325014  1
  I  I19  1  0.715282  0.227795  0.674986  1
  I  I20  1  0.845295  0.586406  0.329760  1
  I  I21  1  0.154704  0.413594  0.670240  1
