# generated using pymatgen
data_Yb3Er(Ga2Ag)4
_symmetry_space_group_name_H-M   'P 1'
_cell_length_a   4.33815300
_cell_length_b   6.96516305
_cell_length_c   10.40438752
_cell_angle_alpha   90.56292168
_cell_angle_beta   90.00000000
_cell_angle_gamma   90.00000000
_symmetry_Int_Tables_number   1
_chemical_formula_structural   Yb3Er(Ga2Ag)4
_chemical_formula_sum   'Yb3 Er1 Ga8 Ag4'
_cell_volume   314.36320726
_cell_formula_units_Z   1
loop_
 _symmetry_equiv_pos_site_id
 _symmetry_equiv_pos_as_xyz
  1  'x, y, z'
loop_
 _atom_site_type_symbol
 _atom_site_label
 _atom_site_symmetry_multiplicity
 _atom_site_fract_x
 _atom_site_fract_y
 _atom_site_fract_z
 _atom_site_occupancy
  Yb  Yb0  1  0.750000  0.225079  0.172173  1
  Yb  Yb1  1  0.750000  0.724068  0.327721  1
  Yb  Yb2  1  0.250000  0.275593  0.671575  1
  Er  Er3  1  0.250000  0.778125  0.828547  1
  Ga  Ga4  1  0.250000  0.703652  0.536104  1
  Ga  Ga5  1  0.750000  0.297556  0.464759  1
  Ga  Ga6  1  0.750000  0.795815  0.035805  1
  Ga  Ga7  1  0.250000  0.202571  0.964355  1
  Ga  Ga8  1  0.250000  0.926080  0.149165  1
  Ga  Ga9  1  0.750000  0.072848  0.849152  1
  Ga  Ga10  1  0.750000  0.572741  0.651703  1
  Ga  Ga11  1  0.250000  0.427421  0.348985  1
  Ag  Ag12  1  0.250000  0.539681  0.099682  1
  Ag  Ag13  1  0.750000  0.458742  0.900248  1
  Ag  Ag14  1  0.750000  0.960027  0.599168  1
  Ag  Ag15  1  0.250000  0.040001  0.400859  1
