# generated using pymatgen
data_Pr3Fe(Co4P3)2
_symmetry_space_group_name_H-M   'P 1'
_cell_length_a   3.78094000
_cell_length_b   10.67299200
_cell_length_c   12.39392000
_cell_angle_alpha   90.00000000
_cell_angle_beta   90.00000000
_cell_angle_gamma   90.00000000
_symmetry_Int_Tables_number   1
_chemical_formula_structural   Pr3Fe(Co4P3)2
_chemical_formula_sum   'Pr6 Fe2 Co16 P12'
_cell_volume   500.14353345
_cell_formula_units_Z   2
loop_
 _symmetry_equiv_pos_site_id
 _symmetry_equiv_pos_as_xyz
  1  'x, y, z'
loop_
 _atom_site_type_symbol
 _atom_site_label
 _atom_site_symmetry_multiplicity
 _atom_site_fract_x
 _atom_site_fract_y
 _atom_site_fract_z
 _atom_site_occupancy
  Pr  Pr0  1  0.000000  0.500000  0.521256  1
  Pr  Pr1  1  0.500000  0.000000  0.478744  1
  Pr  Pr2  1  0.500000  0.818235  0.205377  1
  Pr  Pr3  1  0.500000  0.181765  0.205377  1
  Pr  Pr4  1  0.000000  0.681765  0.794623  1
  Pr  Pr5  1  0.000000  0.318235  0.794623  1
  Fe  Fe6  1  0.500000  0.500000  0.155658  1
  Fe  Fe7  1  0.000000  0.000000  0.844342  1
  Co  Co8  1  0.500000  0.500000  0.704319  1
  Co  Co9  1  0.000000  0.000000  0.295681  1
  Co  Co10  1  0.000000  0.500000  0.988563  1
  Co  Co11  1  0.500000  0.000000  0.011437  1
  Co  Co12  1  0.500000  0.333392  0.996497  1
  Co  Co13  1  0.500000  0.666608  0.996497  1
  Co  Co14  1  0.000000  0.166608  0.003503  1
  Co  Co15  1  0.000000  0.833392  0.003503  1
  Co  Co16  1  0.500000  0.296684  0.430428  1
  Co  Co17  1  0.500000  0.703316  0.430428  1
  Co  Co18  1  0.000000  0.203316  0.569572  1
  Co  Co19  1  0.000000  0.796684  0.569572  1
  Co  Co20  1  0.500000  0.881314  0.710287  1
  Co  Co21  1  0.500000  0.118686  0.710287  1
  Co  Co22  1  0.000000  0.618686  0.289713  1
  Co  Co23  1  0.000000  0.381314  0.289713  1
  P  P24  1  0.500000  0.500000  0.887967  1
  P  P25  1  0.000000  0.000000  0.112033  1
  P  P26  1  0.500000  0.500000  0.337766  1
  P  P27  1  0.000000  0.000000  0.662234  1
  P  P28  1  0.500000  0.304467  0.613814  1
  P  P29  1  0.500000  0.695533  0.613814  1
  P  P30  1  0.000000  0.195533  0.386186  1
  P  P31  1  0.000000  0.804467  0.386186  1
  P  P32  1  0.500000  0.848639  0.895136  1
  P  P33  1  0.500000  0.151361  0.895136  1
  P  P34  1  0.000000  0.651361  0.104864  1
  P  P35  1  0.000000  0.348639  0.104864  1
