# generated using pymatgen
data_Ho3Cr(P3Rh4)2
_symmetry_space_group_name_H-M   'P 1'
_cell_length_a   3.89862500
_cell_length_b   11.18852700
_cell_length_c   12.76304100
_cell_angle_alpha   90.00000000
_cell_angle_beta   90.00000000
_cell_angle_gamma   90.00000000
_symmetry_Int_Tables_number   1
_chemical_formula_structural   Ho3Cr(P3Rh4)2
_chemical_formula_sum   'Ho6 Cr2 P12 Rh16'
_cell_volume   556.72220295
_cell_formula_units_Z   2
loop_
 _symmetry_equiv_pos_site_id
 _symmetry_equiv_pos_as_xyz
  1  'x, y, z'
loop_
 _atom_site_type_symbol
 _atom_site_label
 _atom_site_symmetry_multiplicity
 _atom_site_fract_x
 _atom_site_fract_y
 _atom_site_fract_z
 _atom_site_occupancy
  Ho  Ho0  1  0.000000  0.500000  0.519690  1
  Ho  Ho1  1  0.500000  0.000000  0.480310  1
  Ho  Ho2  1  0.500000  0.816847  0.203918  1
  Ho  Ho3  1  0.500000  0.183153  0.203918  1
  Ho  Ho4  1  0.000000  0.683153  0.796082  1
  Ho  Ho5  1  0.000000  0.316847  0.796082  1
  Cr  Cr6  1  0.500000  0.500000  0.162646  1
  Cr  Cr7  1  0.000000  0.000000  0.837354  1
  P  P8  1  0.500000  0.314761  0.618115  1
  P  P9  1  0.500000  0.685239  0.618115  1
  P  P10  1  0.000000  0.185239  0.381885  1
  P  P11  1  0.000000  0.814761  0.381885  1
  P  P12  1  0.500000  0.500000  0.878822  1
  P  P13  1  0.000000  0.000000  0.121178  1
  P  P14  1  0.500000  0.847051  0.889801  1
  P  P15  1  0.500000  0.152949  0.889801  1
  P  P16  1  0.000000  0.652949  0.110199  1
  P  P17  1  0.000000  0.347051  0.110199  1
  P  P18  1  0.500000  0.500000  0.347978  1
  P  P19  1  0.000000  0.000000  0.652022  1
  Rh  Rh20  1  0.000000  0.500000  0.984784  1
  Rh  Rh21  1  0.500000  0.000000  0.015216  1
  Rh  Rh22  1  0.500000  0.293730  0.430967  1
  Rh  Rh23  1  0.500000  0.706270  0.430967  1
  Rh  Rh24  1  0.000000  0.206270  0.569033  1
  Rh  Rh25  1  0.000000  0.793730  0.569033  1
  Rh  Rh26  1  0.500000  0.874641  0.710574  1
  Rh  Rh27  1  0.500000  0.125359  0.710574  1
  Rh  Rh28  1  0.000000  0.625359  0.289426  1
  Rh  Rh29  1  0.000000  0.374641  0.289426  1
  Rh  Rh30  1  0.500000  0.332726  0.991642  1
  Rh  Rh31  1  0.500000  0.667274  0.991642  1
  Rh  Rh32  1  0.000000  0.167274  0.008358  1
  Rh  Rh33  1  0.000000  0.832726  0.008358  1
  Rh  Rh34  1  0.500000  0.500000  0.700827  1
  Rh  Rh35  1  0.000000  0.000000  0.299173  1
