# generated using pymatgen
data_TaTc5Sb14
_symmetry_space_group_name_H-M   'P 1'
_cell_length_a   8.29213187
_cell_length_b   8.29213456
_cell_length_c   8.29213134
_cell_angle_alpha   109.22155428
_cell_angle_beta   109.97172813
_cell_angle_gamma   109.22155784
_symmetry_Int_Tables_number   1
_chemical_formula_structural   TaTc5Sb14
_chemical_formula_sum   'Ta1 Tc5 Sb14'
_cell_volume   438.88612959
_cell_formula_units_Z   1
loop_
 _symmetry_equiv_pos_site_id
 _symmetry_equiv_pos_as_xyz
  1  'x, y, z'
loop_
 _atom_site_type_symbol
 _atom_site_label
 _atom_site_symmetry_multiplicity
 _atom_site_fract_x
 _atom_site_fract_y
 _atom_site_fract_z
 _atom_site_occupancy
  Ta  Ta0  1  0.343819  0.000000  0.343819  1
  Tc  Tc1  1  0.000471  0.342507  0.342977  1
  Tc  Tc2  1  0.000471  0.657494  0.657964  1
  Tc  Tc3  1  0.342977  0.342507  0.000471  1
  Tc  Tc4  1  0.657964  0.657494  0.000471  1
  Tc  Tc5  1  0.663323  0.000000  0.663323  1
  Sb  Sb6  1  0.751270  0.500000  0.251270  1
  Sb  Sb7  1  0.499931  0.747186  0.247117  1
  Sb  Sb8  1  0.499932  0.252814  0.752746  1
  Sb  Sb9  1  0.752746  0.252814  0.499932  1
  Sb  Sb10  1  0.247117  0.747186  0.499931  1
  Sb  Sb11  1  0.251270  0.500000  0.751270  1
  Sb  Sb12  1  0.996762  0.000000  0.325146  1
  Sb  Sb13  1  0.673275  0.000000  0.999172  1
  Sb  Sb14  1  0.996762  0.671616  0.996762  1
  Sb  Sb15  1  0.325146  0.328384  0.325146  1
  Sb  Sb16  1  0.999171  0.325897  0.999171  1
  Sb  Sb17  1  0.673275  0.674103  0.673275  1
  Sb  Sb18  1  0.325146  0.000000  0.996762  1
  Sb  Sb19  1  0.999172  0.000000  0.673275  1
