# generated using pymatgen
data_Dy5Er3C10
_symmetry_space_group_name_H-M   'P 1'
_cell_length_a   3.65530300
_cell_length_b   6.54965938
_cell_length_c   11.90592037
_cell_angle_alpha   89.23092747
_cell_angle_beta   90.00000000
_cell_angle_gamma   90.00000000
_symmetry_Int_Tables_number   1
_chemical_formula_structural   Dy5Er3C10
_chemical_formula_sum   'Dy5 Er3 C10'
_cell_volume   285.01383779
_cell_formula_units_Z   1
loop_
 _symmetry_equiv_pos_site_id
 _symmetry_equiv_pos_as_xyz
  1  'x, y, z'
loop_
 _atom_site_type_symbol
 _atom_site_label
 _atom_site_symmetry_multiplicity
 _atom_site_fract_x
 _atom_site_fract_y
 _atom_site_fract_z
 _atom_site_occupancy
  Dy  Dy0  1  0.500000  0.609175  0.696228  1
  Dy  Dy1  1  0.500000  0.105384  0.803109  1
  Dy  Dy2  1  0.500000  0.895282  0.197342  1
  Dy  Dy3  1  0.000000  0.255887  0.542750  1
  Dy  Dy4  1  0.000000  0.744733  0.456404  1
  Er  Er5  1  0.500000  0.390891  0.304118  1
  Er  Er6  1  0.000000  0.242508  0.041710  1
  Er  Er7  1  0.000000  0.756451  0.958394  1
  C  C8  1  0.500000  0.998792  0.000450  1
  C  C9  1  0.500000  0.500567  0.498913  1
  C  C10  1  0.000000  0.139751  0.233111  1
  C  C11  1  0.000000  0.861421  0.767098  1
  C  C12  1  0.000000  0.358801  0.737942  1
  C  C13  1  0.000000  0.639968  0.261571  1
  C  C14  1  0.000000  0.111058  0.344533  1
  C  C15  1  0.000000  0.894788  0.656045  1
  C  C16  1  0.000000  0.415570  0.845012  1
  C  C17  1  0.000000  0.578976  0.155268  1
