# generated using pymatgen
data_Ho6LuCo17(SiP2)4
_symmetry_space_group_name_H-M   'P 1'
_cell_length_a   3.72969000
_cell_length_b   10.67059300
_cell_length_c   12.38700100
_cell_angle_alpha   90.00000000
_cell_angle_beta   90.00000000
_cell_angle_gamma   90.00000000
_symmetry_Int_Tables_number   1
_chemical_formula_structural   Ho6LuCo17(SiP2)4
_chemical_formula_sum   'Ho6 Lu1 Co17 Si4 P8'
_cell_volume   492.97791542
_cell_formula_units_Z   1
loop_
 _symmetry_equiv_pos_site_id
 _symmetry_equiv_pos_as_xyz
  1  'x, y, z'
loop_
 _atom_site_type_symbol
 _atom_site_label
 _atom_site_symmetry_multiplicity
 _atom_site_fract_x
 _atom_site_fract_y
 _atom_site_fract_z
 _atom_site_occupancy
  Ho  Ho0  1  0.000000  0.500000  0.530654  1
  Ho  Ho1  1  0.500000  0.000000  0.474461  1
  Ho  Ho2  1  0.500000  0.821344  0.207510  1
  Ho  Ho3  1  0.500000  0.178656  0.207510  1
  Ho  Ho4  1  0.000000  0.682577  0.797960  1
  Ho  Ho5  1  0.000000  0.317423  0.797960  1
  Lu  Lu6  1  0.500000  0.500000  0.153051  1
  Co  Co7  1  0.000000  0.500000  0.982409  1
  Co  Co8  1  0.500000  0.000000  0.025591  1
  Co  Co9  1  0.500000  0.292926  0.431606  1
  Co  Co10  1  0.500000  0.707074  0.431606  1
  Co  Co11  1  0.000000  0.195530  0.567889  1
  Co  Co12  1  0.000000  0.804470  0.567889  1
  Co  Co13  1  0.500000  0.884571  0.702541  1
  Co  Co14  1  0.500000  0.115429  0.702541  1
  Co  Co15  1  0.000000  0.622267  0.301391  1
  Co  Co16  1  0.000000  0.377733  0.301391  1
  Co  Co17  1  0.500000  0.324807  0.988813  1
  Co  Co18  1  0.500000  0.675193  0.988813  1
  Co  Co19  1  0.000000  0.158153  0.003927  1
  Co  Co20  1  0.000000  0.841847  0.003927  1
  Co  Co21  1  0.000000  0.000000  0.832568  1
  Co  Co22  1  0.500000  0.500000  0.705052  1
  Co  Co23  1  0.000000  0.000000  0.299499  1
  Si  Si24  1  0.500000  0.306592  0.617314  1
  Si  Si25  1  0.500000  0.693408  0.617314  1
  Si  Si26  1  0.500000  0.861781  0.887846  1
  Si  Si27  1  0.500000  0.138219  0.887846  1
  P  P28  1  0.000000  0.189855  0.386312  1
  P  P29  1  0.000000  0.810145  0.386312  1
  P  P30  1  0.500000  0.500000  0.883748  1
  P  P31  1  0.000000  0.000000  0.119809  1
  P  P32  1  0.000000  0.667843  0.095992  1
  P  P33  1  0.000000  0.332157  0.095992  1
  P  P34  1  0.500000  0.500000  0.362236  1
  P  P35  1  0.000000  0.000000  0.652720  1
