# generated using pymatgen
data_Hf3Zr7Sn3Sb4
_symmetry_space_group_name_H-M   'P 1'
_cell_length_a   5.88297400
_cell_length_b   8.66673495
_cell_length_c   8.66675500
_cell_angle_alpha   119.99998853
_cell_angle_beta   90.00006795
_cell_angle_gamma   89.99994655
_symmetry_Int_Tables_number   1
_chemical_formula_structural   Hf3Zr7Sn3Sb4
_chemical_formula_sum   'Hf3 Zr7 Sn3 Sb4'
_cell_volume   382.68341909
_cell_formula_units_Z   1
loop_
 _symmetry_equiv_pos_site_id
 _symmetry_equiv_pos_as_xyz
  1  'x, y, z'
loop_
 _atom_site_type_symbol
 _atom_site_label
 _atom_site_symmetry_multiplicity
 _atom_site_fract_x
 _atom_site_fract_y
 _atom_site_fract_z
 _atom_site_occupancy
  Hf  Hf0  1  0.499011  0.333333  0.666664  1
  Hf  Hf1  1  0.499597  0.666668  0.333336  1
  Hf  Hf2  1  0.002652  0.666666  0.333332  1
  Zr  Zr3  1  0.001775  0.333334  0.666668  1
  Zr  Zr4  1  0.770119  0.268049  0.000678  1
  Zr  Zr5  1  0.770110  0.732628  0.731950  1
  Zr  Zr6  1  0.770112  0.999321  0.267372  1
  Zr  Zr7  1  0.229245  0.730977  0.000405  1
  Zr  Zr8  1  0.229242  0.269434  0.269029  1
  Zr  Zr9  1  0.229242  0.999596  0.730568  1
  Sn  Sn10  1  0.257025  0.386597  0.000532  1
  Sn  Sn11  1  0.257020  0.613933  0.613402  1
  Sn  Sn12  1  0.257020  0.999471  0.386064  1
  Sb  Sb13  1  0.743622  0.611564  0.000428  1
  Sb  Sb14  1  0.743622  0.388863  0.388439  1
  Sb  Sb15  1  0.743622  0.999570  0.611132  1
  Sb  Sb16  1  0.496963  0.999998  0.000002  1
