# generated using pymatgen
data_Tm5(NiTe)2
_symmetry_space_group_name_H-M   'P 1'
_cell_length_a   7.65748552
_cell_length_b   7.65748503
_cell_length_c   14.70868400
_cell_angle_alpha   90.00000000
_cell_angle_beta   90.00000000
_cell_angle_gamma   149.84119016
_symmetry_Int_Tables_number   1
_chemical_formula_structural   Tm5(NiTe)2
_chemical_formula_sum   'Tm10 Ni4 Te4'
_cell_volume   433.30577803
_cell_formula_units_Z   2
loop_
 _symmetry_equiv_pos_site_id
 _symmetry_equiv_pos_as_xyz
  1  'x, y, z'
loop_
 _atom_site_type_symbol
 _atom_site_label
 _atom_site_symmetry_multiplicity
 _atom_site_fract_x
 _atom_site_fract_y
 _atom_site_fract_z
 _atom_site_occupancy
  Tm  Tm0  1  0.040487  0.959513  0.873655  1
  Tm  Tm1  1  0.959513  0.040487  0.126345  1
  Tm  Tm2  1  0.740041  0.259959  0.629866  1
  Tm  Tm3  1  0.959513  0.040487  0.373655  1
  Tm  Tm4  1  0.393525  0.606475  0.750000  1
  Tm  Tm5  1  0.259959  0.740041  0.370134  1
  Tm  Tm6  1  0.259959  0.740041  0.129866  1
  Tm  Tm7  1  0.740041  0.259959  0.870134  1
  Tm  Tm8  1  0.606475  0.393525  0.250000  1
  Tm  Tm9  1  0.040487  0.959513  0.626345  1
  Ni  Ni10  1  0.413461  0.586539  0.250000  1
  Ni  Ni11  1  0.186209  0.813791  0.750000  1
  Ni  Ni12  1  0.586539  0.413461  0.750000  1
  Ni  Ni13  1  0.813791  0.186209  0.250000  1
  Te  Te14  1  0.384484  0.615516  0.539925  1
  Te  Te15  1  0.615516  0.384484  0.460075  1
  Te  Te16  1  0.384484  0.615516  0.960075  1
  Te  Te17  1  0.615516  0.384484  0.039925  1
