# generated using pymatgen
data_Ir5OsW2
_symmetry_space_group_name_H-M   'P 1'
_cell_length_a   5.55282363
_cell_length_b   5.55282362
_cell_length_c   4.44026600
_cell_angle_alpha   90.00000000
_cell_angle_beta   90.00000000
_cell_angle_gamma   120.29681052
_symmetry_Int_Tables_number   1
_chemical_formula_structural   Ir5OsW2
_chemical_formula_sum   'Ir5 Os1 W2'
_cell_volume   118.21175870
_cell_formula_units_Z   1
loop_
 _symmetry_equiv_pos_site_id
 _symmetry_equiv_pos_as_xyz
  1  'x, y, z'
loop_
 _atom_site_type_symbol
 _atom_site_label
 _atom_site_symmetry_multiplicity
 _atom_site_fract_x
 _atom_site_fract_y
 _atom_site_fract_z
 _atom_site_occupancy
  Ir  Ir0  1  0.165783  0.332959  0.250000  1
  Ir  Ir1  1  0.667042  0.834218  0.250000  1
  Ir  Ir2  1  0.167007  0.832994  0.250000  1
  Ir  Ir3  1  0.833450  0.667491  0.749999  1
  Ir  Ir4  1  0.332509  0.166549  0.749999  1
  Os  Os5  1  0.833829  0.166170  0.749999  1
  W  W6  1  0.332953  0.667049  0.749999  1
  W  W7  1  0.667427  0.332574  0.250000  1
