# generated using pymatgen
data_Nd4I5N
_symmetry_space_group_name_H-M   'P 1'
_cell_length_a   4.04751511
_cell_length_b   8.82963058
_cell_length_c   9.80664392
_cell_angle_alpha   102.98711434
_cell_angle_beta   101.90946793
_cell_angle_gamma   90.00000223
_symmetry_Int_Tables_number   1
_chemical_formula_structural   Nd4I5N
_chemical_formula_sum   'Nd4 I5 N1'
_cell_volume   333.75916410
_cell_formula_units_Z   1
loop_
 _symmetry_equiv_pos_site_id
 _symmetry_equiv_pos_as_xyz
  1  'x, y, z'
loop_
 _atom_site_type_symbol
 _atom_site_label
 _atom_site_symmetry_multiplicity
 _atom_site_fract_x
 _atom_site_fract_y
 _atom_site_fract_z
 _atom_site_occupancy
  Nd  Nd0  1  0.131817  0.065549  0.263634  1
  Nd  Nd1  1  0.868183  0.934451  0.736366  1
  Nd  Nd2  1  0.498490  0.192005  0.996979  1
  Nd  Nd3  1  0.501510  0.807995  0.003021  1
  I  I4  1  0.329513  0.180364  0.659026  1
  I  I5  1  0.670487  0.819636  0.340974  1
  I  I6  1  0.334741  0.653587  0.669484  1
  I  I7  1  0.665259  0.346413  0.330516  1
  I  I8  1  0.000000  0.500000  0.000000  1
  N  N9  1  0.000000  0.000000  0.000000  1
