# generated using pymatgen
data_Cs8Li4LuIn3As8
_symmetry_space_group_name_H-M   'P 1'
_cell_length_a   11.04635946
_cell_length_b   11.04637860
_cell_length_c   6.70297608
_cell_angle_alpha   90.13695043
_cell_angle_beta   89.86303902
_cell_angle_gamma   105.63349793
_symmetry_Int_Tables_number   1
_chemical_formula_structural   Cs8Li4LuIn3As8
_chemical_formula_sum   'Cs8 Li4 Lu1 In3 As8'
_cell_volume   787.65028148
_cell_formula_units_Z   1
loop_
 _symmetry_equiv_pos_site_id
 _symmetry_equiv_pos_as_xyz
  1  'x, y, z'
loop_
 _atom_site_type_symbol
 _atom_site_label
 _atom_site_symmetry_multiplicity
 _atom_site_fract_x
 _atom_site_fract_y
 _atom_site_fract_z
 _atom_site_occupancy
  Cs  Cs0  1  0.078841  0.427264  0.744717  1
  Cs  Cs1  1  0.669978  0.328300  0.778210  1
  Cs  Cs2  1  0.328299  0.669978  0.221791  1
  Cs  Cs3  1  0.576008  0.923520  0.749988  1
  Cs  Cs4  1  0.427265  0.078843  0.255284  1
  Cs  Cs5  1  0.923520  0.576009  0.250010  1
  Cs  Cs6  1  0.824281  0.171302  0.285000  1
  Cs  Cs7  1  0.171303  0.824282  0.715001  1
  Li  Li8  1  0.121581  0.121581  0.500000  1
  Li  Li9  1  0.878294  0.878294  0.500000  1
  Li  Li10  1  0.378965  0.378965  0.000000  1
  Li  Li11  1  0.621495  0.621496  0.999999  1
  Lu  Lu12  1  0.126395  0.126395  0.000000  1
  In  In13  1  0.871478  0.871478  0.000000  1
  In  In14  1  0.368765  0.368765  0.500000  1
  In  In15  1  0.632184  0.632184  0.500000  1
  As  As16  1  0.838014  0.663899  0.752024  1
  As  As17  1  0.086176  0.913033  0.231416  1
  As  As18  1  0.415562  0.585697  0.725549  1
  As  As19  1  0.585700  0.415561  0.274450  1
  As  As20  1  0.663899  0.838014  0.247976  1
  As  As21  1  0.164914  0.334051  0.249803  1
  As  As22  1  0.334051  0.164914  0.750197  1
  As  As23  1  0.913033  0.086176  0.768584  1
