# generated using pymatgen
data_K4Ba(IrN)3
_symmetry_space_group_name_H-M   'P 1'
_cell_length_a   9.14768500
_cell_length_b   9.26721866
_cell_length_c   3.74509300
_cell_angle_alpha   90.00000000
_cell_angle_beta   90.00000000
_cell_angle_gamma   119.57422537
_symmetry_Int_Tables_number   1
_chemical_formula_structural   K4Ba(IrN)3
_chemical_formula_sum   'K4 Ba1 Ir3 N3'
_cell_volume   276.12211957
_cell_formula_units_Z   1
loop_
 _symmetry_equiv_pos_site_id
 _symmetry_equiv_pos_as_xyz
  1  'x, y, z'
loop_
 _atom_site_type_symbol
 _atom_site_label
 _atom_site_symmetry_multiplicity
 _atom_site_fract_x
 _atom_site_fract_y
 _atom_site_fract_z
 _atom_site_occupancy
  K  K0  1  0.257347  0.248353  0.500000  1
  K  K1  1  0.671189  0.358272  0.500000  1
  K  K2  1  0.312918  0.641728  0.500000  1
  K  K3  1  0.008994  0.751648  0.500000  1
  Ba  Ba4  1  0.712044  0.000000  0.500000  1
  Ir  Ir5  1  0.386090  0.000000  0.000000  1
  Ir  Ir6  1  0.984895  0.336967  0.000000  1
  Ir  Ir7  1  0.647927  0.663033  0.000000  1
  N  N8  1  0.385006  0.000000  0.500000  1
  N  N9  1  0.987075  0.340557  0.500000  1
  N  N10  1  0.646518  0.659443  0.500000  1
