# generated using pymatgen
data_Dy3Sc2GaPt3
_symmetry_space_group_name_H-M   'P 1'
_cell_length_a   7.24782394
_cell_length_b   7.24782316
_cell_length_c   4.32522300
_cell_angle_alpha   90.00000000
_cell_angle_beta   90.00000000
_cell_angle_gamma   121.26975205
_symmetry_Int_Tables_number   1
_chemical_formula_structural   Dy3Sc2GaPt3
_chemical_formula_sum   'Dy3 Sc2 Ga1 Pt3'
_cell_volume   194.20221938
_cell_formula_units_Z   1
loop_
 _symmetry_equiv_pos_site_id
 _symmetry_equiv_pos_as_xyz
  1  'x, y, z'
loop_
 _atom_site_type_symbol
 _atom_site_label
 _atom_site_symmetry_multiplicity
 _atom_site_fract_x
 _atom_site_fract_y
 _atom_site_fract_z
 _atom_site_occupancy
  Dy  Dy0  1  0.589092  0.983235  0.000000  1
  Dy  Dy1  1  0.432219  0.432219  0.000000  1
  Dy  Dy2  1  0.983235  0.589093  0.000000  1
  Sc  Sc3  1  0.242023  0.992671  0.500000  1
  Sc  Sc4  1  0.992671  0.242024  0.500000  1
  Ga  Ga5  1  0.755954  0.755953  0.500000  1
  Pt  Pt6  1  0.015351  0.015351  0.000000  1
  Pt  Pt7  1  0.659798  0.329656  0.500000  1
  Pt  Pt8  1  0.329656  0.659799  0.500000  1
