# generated using pymatgen
data_Tb11YNiPd3
_symmetry_space_group_name_H-M   'P 1'
_cell_length_a   6.47208106
_cell_length_b   7.02376589
_cell_length_c   9.71505100
_cell_angle_alpha   90.00000000
_cell_angle_beta   90.00000000
_cell_angle_gamma   90.04414645
_symmetry_Int_Tables_number   1
_chemical_formula_structural   Tb11YNiPd3
_chemical_formula_sum   'Tb11 Y1 Ni1 Pd3'
_cell_volume   441.63037009
_cell_formula_units_Z   1
loop_
 _symmetry_equiv_pos_site_id
 _symmetry_equiv_pos_as_xyz
  1  'x, y, z'
loop_
 _atom_site_type_symbol
 _atom_site_label
 _atom_site_symmetry_multiplicity
 _atom_site_fract_x
 _atom_site_fract_y
 _atom_site_fract_z
 _atom_site_occupancy
  Tb  Tb0  1  0.324085  0.680956  0.058965  1
  Tb  Tb1  1  0.173629  0.179656  0.442119  1
  Tb  Tb2  1  0.672330  0.327849  0.565349  1
  Tb  Tb3  1  0.820025  0.813978  0.935770  1
  Tb  Tb4  1  0.672330  0.327849  0.934651  1
  Tb  Tb5  1  0.820025  0.813978  0.564230  1
  Tb  Tb6  1  0.324085  0.680956  0.441035  1
  Tb  Tb7  1  0.173629  0.179656  0.057881  1
  Tb  Tb8  1  0.634760  0.025704  0.250000  1
  Tb  Tb9  1  0.146678  0.476526  0.750000  1
  Tb  Tb10  1  0.369253  0.962621  0.750000  1
  Y  Y11  1  0.864508  0.526038  0.250000  1
  Ni  Ni12  1  0.560268  0.613093  0.750000  1
  Pd  Pd13  1  0.060479  0.890869  0.250000  1
  Pd  Pd14  1  0.439079  0.389769  0.250000  1
  Pd  Pd15  1  0.944838  0.110503  0.750000  1
