# generated using pymatgen
data_BaNiSb11POs3
_symmetry_space_group_name_H-M   'P 1'
_cell_length_a   8.05648939
_cell_length_b   8.05490950
_cell_length_c   8.08840567
_cell_angle_alpha   109.06395179
_cell_angle_beta   110.28676705
_cell_angle_gamma   108.84999854
_symmetry_Int_Tables_number   1
_chemical_formula_structural   BaNiSb11POs3
_chemical_formula_sum   'Ba1 Ni1 Sb11 P1 Os3'
_cell_volume   405.06411303
_cell_formula_units_Z   1
loop_
 _symmetry_equiv_pos_site_id
 _symmetry_equiv_pos_as_xyz
  1  'x, y, z'
loop_
 _atom_site_type_symbol
 _atom_site_label
 _atom_site_symmetry_multiplicity
 _atom_site_fract_x
 _atom_site_fract_y
 _atom_site_fract_z
 _atom_site_occupancy
  Ba  Ba0  1  0.004645  0.998731  0.994415  1
  Ni  Ni1  1  0.499968  0.502037  0.499945  1
  Sb  Sb2  1  0.663577  0.824636  0.162047  1
  Sb  Sb3  1  0.640743  0.486164  0.843387  1
  Sb  Sb4  1  0.345948  0.488586  0.142983  1
  Sb  Sb5  1  0.186623  0.842702  0.343136  1
  Sb  Sb6  1  0.819377  0.160799  0.661268  1
  Sb  Sb7  1  0.499964  0.841283  0.655501  1
  Sb  Sb8  1  0.500629  0.163306  0.343256  1
  Sb  Sb9  1  0.839133  0.342900  0.182089  1
  Sb  Sb10  1  0.158463  0.659136  0.816515  1
  Sb  Sb11  1  0.839643  0.655912  0.499237  1
  Sb  Sb12  1  0.164455  0.345872  0.505581  1
  P  P13  1  0.328399  0.164972  0.835323  1
  Os  Os14  1  0.020918  0.011110  0.523932  1
  Os  Os15  1  0.487104  0.010947  0.990533  1
  Os  Os16  1  0.000409  0.500905  0.000852  1
