# generated using pymatgen
data_TbEr4(Tl2Rh)2
_symmetry_space_group_name_H-M   'P 1'
_cell_length_a   3.60621300
_cell_length_b   7.98959500
_cell_length_c   18.29800100
_cell_angle_alpha   90.00000000
_cell_angle_beta   90.00000000
_cell_angle_gamma   90.00000000
_symmetry_Int_Tables_number   1
_chemical_formula_structural   TbEr4(Tl2Rh)2
_chemical_formula_sum   'Tb2 Er8 Tl8 Rh4'
_cell_volume   527.20532322
_cell_formula_units_Z   2
loop_
 _symmetry_equiv_pos_site_id
 _symmetry_equiv_pos_as_xyz
  1  'x, y, z'
loop_
 _atom_site_type_symbol
 _atom_site_label
 _atom_site_symmetry_multiplicity
 _atom_site_fract_x
 _atom_site_fract_y
 _atom_site_fract_z
 _atom_site_occupancy
  Tb  Tb0  1  0.000000  0.500000  0.500000  1
  Tb  Tb1  1  0.000000  0.000000  0.000000  1
  Er  Er2  1  0.000000  0.750293  0.279804  1
  Er  Er3  1  0.000000  0.249707  0.720196  1
  Er  Er4  1  0.000000  0.749707  0.779804  1
  Er  Er5  1  0.000000  0.250293  0.220196  1
  Er  Er6  1  0.000000  0.618540  0.090847  1
  Er  Er7  1  0.000000  0.381460  0.909153  1
  Er  Er8  1  0.000000  0.881460  0.590847  1
  Er  Er9  1  0.000000  0.118540  0.409153  1
  Tl  Tl10  1  0.500000  0.701536  0.934997  1
  Tl  Tl11  1  0.500000  0.298464  0.065003  1
  Tl  Tl12  1  0.500000  0.798464  0.434997  1
  Tl  Tl13  1  0.500000  0.201536  0.565003  1
  Tl  Tl14  1  0.500000  0.571274  0.649990  1
  Tl  Tl15  1  0.500000  0.428726  0.350010  1
  Tl  Tl16  1  0.500000  0.928726  0.149990  1
  Tl  Tl17  1  0.500000  0.071274  0.850010  1
  Rh  Rh18  1  0.500000  0.528958  0.195953  1
  Rh  Rh19  1  0.500000  0.471042  0.804047  1
  Rh  Rh20  1  0.500000  0.971042  0.695953  1
  Rh  Rh21  1  0.500000  0.028958  0.304047  1
