# generated using pymatgen
data_CeCrOsBr12
_symmetry_space_group_name_H-M   'P 1'
_cell_length_a   9.46563124
_cell_length_b   9.46563175
_cell_length_c   7.18673632
_cell_angle_alpha   70.89096357
_cell_angle_beta   70.89095274
_cell_angle_gamma   82.24596182
_symmetry_Int_Tables_number   1
_chemical_formula_structural   CeCrOsBr12
_chemical_formula_sum   'Ce1 Cr1 Os1 Br12'
_cell_volume   574.63249789
_cell_formula_units_Z   1
loop_
 _symmetry_equiv_pos_site_id
 _symmetry_equiv_pos_as_xyz
  1  'x, y, z'
loop_
 _atom_site_type_symbol
 _atom_site_label
 _atom_site_symmetry_multiplicity
 _atom_site_fract_x
 _atom_site_fract_y
 _atom_site_fract_z
 _atom_site_occupancy
  Ce  Ce0  1  0.269901  0.269901  0.739354  1
  Cr  Cr1  1  0.730465  0.730465  0.261832  1
  Os  Os2  1  0.001922  0.001922  0.000904  1
  Br  Br3  1  0.956929  0.248833  0.755085  1
  Br  Br4  1  0.248833  0.956929  0.755085  1
  Br  Br5  1  0.016915  0.749527  0.249666  1
  Br  Br6  1  0.749527  0.016915  0.249666  1
  Br  Br7  1  0.202078  0.542434  0.793804  1
  Br  Br8  1  0.542434  0.202078  0.793804  1
  Br  Br9  1  0.784472  0.500487  0.207692  1
  Br  Br10  1  0.500487  0.784472  0.207692  1
  Br  Br11  1  0.120395  0.120395  0.177967  1
  Br  Br12  1  0.866256  0.866256  0.867919  1
  Br  Br13  1  0.659769  0.659769  0.616209  1
  Br  Br14  1  0.349617  0.349617  0.323322  1
