# generated using pymatgen
data_Tb2YPa(Co5P3)4
_symmetry_space_group_name_H-M   'P 1'
_cell_length_a   3.67488700
_cell_length_b   10.32188711
_cell_length_c   11.74327313
_cell_angle_alpha   90.03364764
_cell_angle_beta   90.00000000
_cell_angle_gamma   90.00000000
_symmetry_Int_Tables_number   1
_chemical_formula_structural   Tb2YPa(Co5P3)4
_chemical_formula_sum   'Tb2 Y1 Pa1 Co20 P12'
_cell_volume   445.44304414
_cell_formula_units_Z   1
loop_
 _symmetry_equiv_pos_site_id
 _symmetry_equiv_pos_as_xyz
  1  'x, y, z'
loop_
 _atom_site_type_symbol
 _atom_site_label
 _atom_site_symmetry_multiplicity
 _atom_site_fract_x
 _atom_site_fract_y
 _atom_site_fract_z
 _atom_site_occupancy
  Tb  Tb0  1  0.750000  0.083057  0.798837  1
  Tb  Tb1  1  0.750000  0.416933  0.297348  1
  Y  Y2  1  0.250000  0.583434  0.701775  1
  Pa  Pa3  1  0.250000  0.917505  0.202706  1
  Co  Co4  1  0.250000  0.783849  0.489533  1
  Co  Co5  1  0.750000  0.217040  0.505861  1
  Co  Co6  1  0.750000  0.283999  0.006496  1
  Co  Co7  1  0.250000  0.717848  0.991724  1
  Co  Co8  1  0.250000  0.091872  0.989343  1
  Co  Co9  1  0.750000  0.906787  0.017609  1
  Co  Co10  1  0.750000  0.594319  0.510942  1
  Co  Co11  1  0.250000  0.407248  0.488642  1
  Co  Co12  1  0.250000  0.278336  0.676158  1
  Co  Co13  1  0.750000  0.723475  0.322001  1
  Co  Co14  1  0.750000  0.779153  0.824654  1
  Co  Co15  1  0.250000  0.221519  0.177330  1
  Co  Co16  1  0.250000  0.617661  0.198186  1
  Co  Co17  1  0.750000  0.383536  0.800574  1
  Co  Co18  1  0.750000  0.112236  0.300206  1
  Co  Co19  1  0.250000  0.882381  0.698513  1
  Co  Co20  1  0.250000  0.032079  0.431347  1
  Co  Co21  1  0.750000  0.969058  0.569568  1
  Co  Co22  1  0.750000  0.529826  0.067619  1
  Co  Co23  1  0.250000  0.468337  0.931285  1
  P  P24  1  0.250000  0.081501  0.613060  1
  P  P25  1  0.750000  0.916864  0.391737  1
  P  P26  1  0.750000  0.581317  0.887493  1
  P  P27  1  0.250000  0.418077  0.111796  1
  P  P28  1  0.250000  0.229330  0.371034  1
  P  P29  1  0.750000  0.771666  0.630097  1
  P  P30  1  0.750000  0.723786  0.129146  1
  P  P31  1  0.250000  0.272183  0.869216  1
  P  P32  1  0.250000  0.897433  0.890723  1
  P  P33  1  0.750000  0.106915  0.107903  1
  P  P34  1  0.750000  0.398067  0.607957  1
  P  P35  1  0.250000  0.601374  0.391579  1
