# generated using pymatgen
data_La5TbU4O20
_symmetry_space_group_name_H-M   'P 1'
_cell_length_a   6.81035743
_cell_length_b   7.76158569
_cell_length_c   8.68024555
_cell_angle_alpha   101.69658908
_cell_angle_beta   97.71568733
_cell_angle_gamma   107.12851747
_symmetry_Int_Tables_number   1
_chemical_formula_structural   La5TbU4O20
_chemical_formula_sum   'La5 Tb1 U4 O20'
_cell_volume   420.05032586
_cell_formula_units_Z   1
loop_
 _symmetry_equiv_pos_site_id
 _symmetry_equiv_pos_as_xyz
  1  'x, y, z'
loop_
 _atom_site_type_symbol
 _atom_site_label
 _atom_site_symmetry_multiplicity
 _atom_site_fract_x
 _atom_site_fract_y
 _atom_site_fract_z
 _atom_site_occupancy
  La  La0  1  0.611712  0.703461  0.700121  1
  La  La1  1  0.388288  0.296539  0.299879  1
  La  La2  1  0.199244  0.897925  0.893457  1
  La  La3  1  0.000000  0.500000  0.500000  1
  La  La4  1  0.800756  0.102075  0.106543  1
  Tb  Tb5  1  0.000000  0.000000  0.500000  1
  U  U6  1  0.401894  0.804584  0.302003  1
  U  U7  1  0.198090  0.401244  0.901509  1
  U  U8  1  0.801910  0.598756  0.098491  1
  U  U9  1  0.598106  0.195416  0.697997  1
  O  O10  1  0.437166  0.534937  0.131663  1
  O  O11  1  0.558212  0.996439  0.836322  1
  O  O12  1  0.274363  0.152700  0.741543  1
  O  O13  1  0.360805  0.602490  0.436182  1
  O  O14  1  0.054826  0.734272  0.324963  1
  O  O15  1  0.441788  0.003561  0.163678  1
  O  O16  1  0.150571  0.191785  0.027629  1
  O  O17  1  0.562834  0.465063  0.868337  1
  O  O18  1  0.856407  0.342970  0.949274  1
  O  O19  1  0.254735  0.599083  0.765221  1
  O  O20  1  0.955386  0.779544  0.646575  1
  O  O21  1  0.353774  0.055951  0.455866  1
  O  O22  1  0.646226  0.944049  0.544134  1
  O  O23  1  0.044614  0.220456  0.353425  1
  O  O24  1  0.745265  0.400917  0.234779  1
  O  O25  1  0.143593  0.657030  0.050726  1
  O  O26  1  0.849429  0.808215  0.972371  1
  O  O27  1  0.945174  0.265728  0.675037  1
  O  O28  1  0.639195  0.397510  0.563818  1
  O  O29  1  0.725637  0.847300  0.258457  1
