# generated using pymatgen
data_PtF10
_symmetry_space_group_name_H-M   'P 1'
_cell_length_a   10.61995000
_cell_length_b   5.07840387
_cell_length_c   7.10152621
_cell_angle_alpha   89.47095654
_cell_angle_beta   90.00000000
_cell_angle_gamma   90.00000000
_symmetry_Int_Tables_number   1
_chemical_formula_structural   PtF10
_chemical_formula_sum   'Pt2 F20'
_cell_volume   382.98599087
_cell_formula_units_Z   2
loop_
 _symmetry_equiv_pos_site_id
 _symmetry_equiv_pos_as_xyz
  1  'x, y, z'
loop_
 _atom_site_type_symbol
 _atom_site_label
 _atom_site_symmetry_multiplicity
 _atom_site_fract_x
 _atom_site_fract_y
 _atom_site_fract_z
 _atom_site_occupancy
  Pt  Pt0  1  0.000000  0.500000  0.500000  1
  Pt  Pt1  1  0.500000  0.500000  0.000000  1
  F  F2  1  0.855907  0.787690  0.976468  1
  F  F3  1  0.355907  0.212310  0.523532  1
  F  F4  1  0.144093  0.212310  0.023532  1
  F  F5  1  0.644093  0.787690  0.476468  1
  F  F6  1  0.850923  0.007084  0.100102  1
  F  F7  1  0.350923  0.992916  0.399898  1
  F  F8  1  0.149077  0.992916  0.899898  1
  F  F9  1  0.649077  0.007084  0.600102  1
  F  F10  1  0.075160  0.639265  0.278019  1
  F  F11  1  0.575160  0.360735  0.221981  1
  F  F12  1  0.924840  0.360735  0.721981  1
  F  F13  1  0.424840  0.639265  0.778019  1
  F  F14  1  0.862010  0.374483  0.356128  1
  F  F15  1  0.362010  0.625517  0.143872  1
  F  F16  1  0.137990  0.625517  0.643872  1
  F  F17  1  0.637990  0.374483  0.856128  1
  F  F18  1  0.085790  0.177700  0.459208  1
  F  F19  1  0.585790  0.822300  0.040792  1
  F  F20  1  0.414210  0.177700  0.959208  1
  F  F21  1  0.914210  0.822300  0.540792  1
