# generated using pymatgen
data_Pr5Dy11Cd4Os3Pt
_symmetry_space_group_name_H-M   'P 1'
_cell_length_a   9.77831818
_cell_length_b   9.82969939
_cell_length_c   9.82969837
_cell_angle_alpha   59.56861563
_cell_angle_beta   59.39016852
_cell_angle_gamma   59.39016971
_symmetry_Int_Tables_number   1
_chemical_formula_structural   Pr5Dy11Cd4Os3Pt
_chemical_formula_sum   'Pr5 Dy11 Cd4 Os3 Pt1'
_cell_volume   659.71285423
_cell_formula_units_Z   1
loop_
 _symmetry_equiv_pos_site_id
 _symmetry_equiv_pos_as_xyz
  1  'x, y, z'
loop_
 _atom_site_type_symbol
 _atom_site_label
 _atom_site_symmetry_multiplicity
 _atom_site_fract_x
 _atom_site_fract_y
 _atom_site_fract_z
 _atom_site_occupancy
  Pr  Pr0  1  0.552148  0.943415  0.943415  1
  Pr  Pr1  1  0.556834  0.937413  0.564266  1
  Pr  Pr2  1  0.942161  0.554809  0.941920  1
  Pr  Pr3  1  0.556834  0.564266  0.937413  1
  Pr  Pr4  1  0.942161  0.941920  0.554809  1
  Dy  Dy5  1  0.345767  0.348782  0.348782  1
  Dy  Dy6  1  0.343487  0.351178  0.960471  1
  Dy  Dy7  1  0.343487  0.960471  0.351178  1
  Dy  Dy8  1  0.964994  0.345625  0.345625  1
  Dy  Dy9  1  0.815986  0.187550  0.187550  1
  Dy  Dy10  1  0.183812  0.813445  0.813445  1
  Dy  Dy11  1  0.185884  0.811355  0.189181  1
  Dy  Dy12  1  0.816395  0.189474  0.806216  1
  Dy  Dy13  1  0.185884  0.189181  0.811355  1
  Dy  Dy14  1  0.816395  0.806216  0.189474  1
  Dy  Dy15  1  0.943579  0.554090  0.554090  1
  Cd  Cd16  1  0.582046  0.577595  0.577595  1
  Cd  Cd17  1  0.578183  0.578909  0.262776  1
  Cd  Cd18  1  0.578183  0.262776  0.578909  1
  Cd  Cd19  1  0.259635  0.578550  0.578550  1
  Os  Os20  1  0.143211  0.139049  0.139049  1
  Os  Os21  1  0.142224  0.144008  0.578884  1
  Os  Os22  1  0.142224  0.578884  0.144008  1
  Pt  Pt23  1  0.578487  0.141038  0.141038  1
