# generated using pymatgen
data_Dy3Al3CuSiPd
_symmetry_space_group_name_H-M   'P 1'
_cell_length_a   6.95427800
_cell_length_b   6.95427764
_cell_length_c   4.18897500
_cell_angle_alpha   90.00000000
_cell_angle_beta   90.00000000
_cell_angle_gamma   120.00000170
_symmetry_Int_Tables_number   1
_chemical_formula_structural   Dy3Al3CuSiPd
_chemical_formula_sum   'Dy3 Al3 Cu1 Si1 Pd1'
_cell_volume   175.44559392
_cell_formula_units_Z   1
loop_
 _symmetry_equiv_pos_site_id
 _symmetry_equiv_pos_as_xyz
  1  'x, y, z'
loop_
 _atom_site_type_symbol
 _atom_site_label
 _atom_site_symmetry_multiplicity
 _atom_site_fract_x
 _atom_site_fract_y
 _atom_site_fract_z
 _atom_site_occupancy
  Dy  Dy0  1  0.419636  0.421836  0.500000  1
  Dy  Dy1  1  0.578164  0.997799  0.500000  1
  Dy  Dy2  1  0.002201  0.580364  0.500000  1
  Al  Al3  1  0.010653  0.246036  0.000000  1
  Al  Al4  1  0.753964  0.764616  0.000000  1
  Al  Al5  1  0.235384  0.989347  0.000000  1
  Cu  Cu6  1  0.333333  0.666667  0.000000  1
  Si  Si7  1  0.666667  0.333333  0.000000  1
  Pd  Pd8  1  0.000000  0.000000  0.500000  1
