# generated using pymatgen
data_Ta2Co3Os
_symmetry_space_group_name_H-M   'P 1'
_cell_length_a   4.82178300
_cell_length_b   4.82178226
_cell_length_c   8.06610600
_cell_angle_alpha   90.00000000
_cell_angle_beta   90.00000000
_cell_angle_gamma   119.99999824
_symmetry_Int_Tables_number   1
_chemical_formula_structural   Ta2Co3Os
_chemical_formula_sum   'Ta4 Co6 Os2'
_cell_volume   162.40889829
_cell_formula_units_Z   2
loop_
 _symmetry_equiv_pos_site_id
 _symmetry_equiv_pos_as_xyz
  1  'x, y, z'
loop_
 _atom_site_type_symbol
 _atom_site_label
 _atom_site_symmetry_multiplicity
 _atom_site_fract_x
 _atom_site_fract_y
 _atom_site_fract_z
 _atom_site_occupancy
  Ta  Ta0  1  0.333333  0.666667  0.926804  1
  Ta  Ta1  1  0.666667  0.333333  0.073196  1
  Ta  Ta2  1  0.666667  0.333333  0.426804  1
  Ta  Ta3  1  0.333333  0.666667  0.573196  1
  Co  Co4  1  0.828411  0.171589  0.750000  1
  Co  Co5  1  0.828411  0.656823  0.750000  1
  Co  Co6  1  0.343177  0.171589  0.750000  1
  Co  Co7  1  0.171589  0.828411  0.250000  1
  Co  Co8  1  0.171589  0.343177  0.250000  1
  Co  Co9  1  0.656823  0.828411  0.250000  1
  Os  Os10  1  0.000000  0.000000  0.000000  1
  Os  Os11  1  0.000000  0.000000  0.500000  1
