# generated using pymatgen
data_Yb10ZnCd2Cu2Os
_symmetry_space_group_name_H-M   'P 1'
_cell_length_a   9.12007103
_cell_length_b   9.12007153
_cell_length_c   9.10323193
_cell_angle_alpha   129.43972381
_cell_angle_beta   129.43972683
_cell_angle_gamma   74.44362191
_symmetry_Int_Tables_number   1
_chemical_formula_structural   Yb10ZnCd2Cu2Os
_chemical_formula_sum   'Yb10 Zn1 Cd2 Cu2 Os1'
_cell_volume   439.81615948
_cell_formula_units_Z   1
loop_
 _symmetry_equiv_pos_site_id
 _symmetry_equiv_pos_as_xyz
  1  'x, y, z'
loop_
 _atom_site_type_symbol
 _atom_site_label
 _atom_site_symmetry_multiplicity
 _atom_site_fract_x
 _atom_site_fract_y
 _atom_site_fract_z
 _atom_site_occupancy
  Yb  Yb0  1  0.489441  0.503714  0.993155  1
  Yb  Yb1  1  0.003714  0.989441  0.993155  1
  Yb  Yb2  1  0.525275  0.025275  0.823041  1
  Yb  Yb3  1  0.189122  0.689122  0.143389  1
  Yb  Yb4  1  0.039523  0.206348  0.517246  1
  Yb  Yb5  1  0.706348  0.539523  0.517246  1
  Yb  Yb6  1  0.454268  0.954268  0.143389  1
  Yb  Yb7  1  0.797765  0.297765  0.823041  1
  Yb  Yb8  1  0.977723  0.810897  0.517246  1
  Yb  Yb9  1  0.310897  0.477723  0.517246  1
  Zn  Zn10  1  0.884077  0.384077  0.268152  1
  Cd  Cd11  1  0.254605  0.254605  0.009210  1
  Cd  Cd12  1  0.754605  0.754605  0.009210  1
  Cu  Cu13  1  0.613793  0.882366  0.496160  1
  Cu  Cu14  1  0.382366  0.113793  0.496160  1
  Os  Os15  1  0.116476  0.616476  0.732954  1
