# generated using pymatgen
data_Tb4CBr6
_symmetry_space_group_name_H-M   'P 1'
_cell_length_a   3.89962100
_cell_length_b   13.10877600
_cell_length_c   13.56764900
_cell_angle_alpha   90.00000000
_cell_angle_beta   90.00000000
_cell_angle_gamma   90.00000000
_symmetry_Int_Tables_number   1
_chemical_formula_structural   Tb4CBr6
_chemical_formula_sum   'Tb8 C2 Br12'
_cell_volume   693.56815204
_cell_formula_units_Z   2
loop_
 _symmetry_equiv_pos_site_id
 _symmetry_equiv_pos_as_xyz
  1  'x, y, z'
loop_
 _atom_site_type_symbol
 _atom_site_label
 _atom_site_symmetry_multiplicity
 _atom_site_fract_x
 _atom_site_fract_y
 _atom_site_fract_z
 _atom_site_occupancy
  Tb  Tb0  1  0.000000  0.099390  0.079107  1
  Tb  Tb1  1  0.000000  0.900610  0.920893  1
  Tb  Tb2  1  0.000000  0.599390  0.420893  1
  Tb  Tb3  1  0.000000  0.400610  0.579107  1
  Tb  Tb4  1  0.500000  0.120115  0.858938  1
  Tb  Tb5  1  0.500000  0.879885  0.141062  1
  Tb  Tb6  1  0.500000  0.620115  0.641062  1
  Tb  Tb7  1  0.500000  0.379885  0.358938  1
  C  C8  1  0.500000  0.000000  0.000000  1
  C  C9  1  0.500000  0.500000  0.500000  1
  Br  Br10  1  0.500000  0.268864  0.682470  1
  Br  Br11  1  0.500000  0.731136  0.317530  1
  Br  Br12  1  0.500000  0.768864  0.817530  1
  Br  Br13  1  0.500000  0.231136  0.182470  1
  Br  Br14  1  0.000000  0.261192  0.933220  1
  Br  Br15  1  0.000000  0.738808  0.066780  1
  Br  Br16  1  0.000000  0.482150  0.239367  1
  Br  Br17  1  0.000000  0.517850  0.760633  1
  Br  Br18  1  0.000000  0.982150  0.260633  1
  Br  Br19  1  0.000000  0.017850  0.739367  1
  Br  Br20  1  0.000000  0.238808  0.433220  1
  Br  Br21  1  0.000000  0.761192  0.566780  1
