# generated using pymatgen
data_MgBi3Pt3RhO14
_symmetry_space_group_name_H-M   'P 1'
_cell_length_a   7.34052960
_cell_length_b   7.27019904
_cell_length_c   7.34052900
_cell_angle_alpha   59.67947165
_cell_angle_beta   59.99999822
_cell_angle_gamma   59.67947489
_symmetry_Int_Tables_number   1
_chemical_formula_structural   MgBi3Pt3RhO14
_chemical_formula_sum   'Mg1 Bi3 Pt3 Rh1 O14'
_cell_volume   275.65439428
_cell_formula_units_Z   1
loop_
 _symmetry_equiv_pos_site_id
 _symmetry_equiv_pos_as_xyz
  1  'x, y, z'
loop_
 _atom_site_type_symbol
 _atom_site_label
 _atom_site_symmetry_multiplicity
 _atom_site_fract_x
 _atom_site_fract_y
 _atom_site_fract_z
 _atom_site_occupancy
  Mg  Mg0  1  0.125000  0.625000  0.125000  1
  Bi  Bi1  1  0.125000  0.125000  0.125000  1
  Bi  Bi2  1  0.625000  0.125000  0.125000  1
  Bi  Bi3  1  0.125000  0.125000  0.625000  1
  Pt  Pt4  1  0.625000  0.625000  0.625000  1
  Pt  Pt5  1  0.625000  0.625000  0.125000  1
  Pt  Pt6  1  0.125000  0.625000  0.625000  1
  Rh  Rh7  1  0.625000  0.125000  0.625000  1
  O  O8  1  0.239496  0.281512  0.239496  1
  O  O9  1  0.290155  0.703397  0.290155  1
  O  O10  1  0.958387  0.960854  0.540380  1
  O  O11  1  0.540380  0.960854  0.540380  1
  O  O12  1  0.716292  0.703397  0.290155  1
  O  O13  1  0.959845  0.546603  0.533708  1
  O  O14  1  0.709620  0.289146  0.709620  1
  O  O15  1  0.291613  0.289146  0.709620  1
  O  O16  1  0.709620  0.289146  0.291613  1
  O  O17  1  0.290155  0.703397  0.716292  1
  O  O18  1  0.959845  0.546603  0.959845  1
  O  O19  1  0.533708  0.546603  0.959845  1
  O  O20  1  0.010504  0.968488  0.010504  1
  O  O21  1  0.540380  0.960854  0.958387  1
