# generated using pymatgen
data_Eu3PtO7
_symmetry_space_group_name_H-M   'P 1'
_cell_length_a   6.57336321
_cell_length_b   6.57940069
_cell_length_c   7.59457542
_cell_angle_alpha   89.96952343
_cell_angle_beta   90.03166279
_cell_angle_gamma   109.71762094
_symmetry_Int_Tables_number   1
_chemical_formula_structural   Eu3PtO7
_chemical_formula_sum   'Eu6 Pt2 O14'
_cell_volume   309.19770368
_cell_formula_units_Z   2
loop_
 _symmetry_equiv_pos_site_id
 _symmetry_equiv_pos_as_xyz
  1  'x, y, z'
loop_
 _atom_site_type_symbol
 _atom_site_label
 _atom_site_symmetry_multiplicity
 _atom_site_fract_x
 _atom_site_fract_y
 _atom_site_fract_z
 _atom_site_occupancy
  Eu  Eu0  1  0.001523  0.473896  0.749886  1
  Eu  Eu1  1  0.998515  0.526032  0.249843  1
  Eu  Eu2  1  0.525754  0.998315  0.750151  1
  Eu  Eu3  1  0.474002  0.001646  0.250116  1
  Eu  Eu4  1  0.500141  0.500089  0.499976  1
  Eu  Eu5  1  0.499848  0.499795  0.000033  1
  Pt  Pt6  1  0.999978  0.000007  0.500045  1
  Pt  Pt7  1  0.000110  0.000134  0.999953  1
  O  O8  1  0.634648  0.365055  0.749995  1
  O  O9  1  0.365421  0.634861  0.250001  1
  O  O10  1  0.928076  0.072153  0.749935  1
  O  O11  1  0.071910  0.927951  0.250059  1
  O  O12  1  0.923194  0.677822  0.524528  1
  O  O13  1  0.076818  0.322066  0.024508  1
  O  O14  1  0.322443  0.077011  0.975589  1
  O  O15  1  0.677486  0.923077  0.475668  1
  O  O16  1  0.368165  0.631746  0.749958  1
  O  O17  1  0.631843  0.368133  0.250052  1
  O  O18  1  0.923560  0.678192  0.975204  1
  O  O19  1  0.076526  0.321861  0.475255  1
  O  O20  1  0.322214  0.076709  0.524642  1
  O  O21  1  0.677826  0.923449  0.024604  1
