# generated using pymatgen
data_VIrI18
_symmetry_space_group_name_H-M   'P 1'
_cell_length_a   10.01148831
_cell_length_b   10.04636884
_cell_length_c   9.99381077
_cell_angle_alpha   93.81382502
_cell_angle_beta   93.86925899
_cell_angle_gamma   93.79142035
_symmetry_Int_Tables_number   1
_chemical_formula_structural   VIrI18
_chemical_formula_sum   'V1 Ir1 I18'
_cell_volume   998.13600669
_cell_formula_units_Z   1
loop_
 _symmetry_equiv_pos_site_id
 _symmetry_equiv_pos_as_xyz
  1  'x, y, z'
loop_
 _atom_site_type_symbol
 _atom_site_label
 _atom_site_symmetry_multiplicity
 _atom_site_fract_x
 _atom_site_fract_y
 _atom_site_fract_z
 _atom_site_occupancy
  V  V0  1  0.500000  0.500000  0.500000  1
  Ir  Ir1  1  0.000000  0.000000  0.000000  1
  I  I2  1  0.775314  0.484713  0.520922  1
  I  I3  1  0.520471  0.774048  0.484276  1
  I  I4  1  0.485047  0.521297  0.775719  1
  I  I5  1  0.224686  0.515287  0.479078  1
  I  I6  1  0.479529  0.225952  0.515724  1
  I  I7  1  0.514953  0.478703  0.224281  1
  I  I8  1  0.891321  0.365506  0.761822  1
  I  I9  1  0.761164  0.890029  0.365747  1
  I  I10  1  0.365980  0.761455  0.891286  1
  I  I11  1  0.108679  0.634494  0.238178  1
  I  I12  1  0.238836  0.109971  0.634253  1
  I  I13  1  0.634020  0.238545  0.108714  1
  I  I14  1  0.001594  0.966912  0.731131  1
  I  I15  1  0.731644  0.001773  0.965855  1
  I  I16  1  0.965853  0.732658  0.000511  1
  I  I17  1  0.998406  0.033088  0.268869  1
  I  I18  1  0.268356  0.998227  0.034145  1
  I  I19  1  0.034147  0.267342  0.999489  1
