# generated using pymatgen
data_Rb10Cd4Sn4S17
_symmetry_space_group_name_H-M   'P 1'
_cell_length_a   10.54461259
_cell_length_b   10.54461265
_cell_length_c   10.54461445
_cell_angle_alpha   89.53688922
_cell_angle_beta   89.53688722
_cell_angle_gamma   89.53688521
_symmetry_Int_Tables_number   1
_chemical_formula_structural   Rb10Cd4Sn4S17
_chemical_formula_sum   'Rb10 Cd4 Sn4 S17'
_cell_volume   1172.32932824
_cell_formula_units_Z   1
loop_
 _symmetry_equiv_pos_site_id
 _symmetry_equiv_pos_as_xyz
  1  'x, y, z'
loop_
 _atom_site_type_symbol
 _atom_site_label
 _atom_site_symmetry_multiplicity
 _atom_site_fract_x
 _atom_site_fract_y
 _atom_site_fract_z
 _atom_site_occupancy
  Rb  Rb0  1  0.000446  0.000446  0.499265  1
  Rb  Rb1  1  0.499265  0.000446  0.000446  1
  Rb  Rb2  1  0.000446  0.499265  0.000446  1
  Rb  Rb3  1  0.498285  0.956307  0.498285  1
  Rb  Rb4  1  0.498285  0.498285  0.956307  1
  Rb  Rb5  1  0.956307  0.498285  0.498285  1
  Rb  Rb6  1  0.656529  0.329791  0.329791  1
  Rb  Rb7  1  0.329791  0.656529  0.329791  1
  Rb  Rb8  1  0.329791  0.329791  0.656529  1
  Rb  Rb9  1  0.671562  0.671562  0.671562  1
  Cd  Cd10  1  0.863599  0.136759  0.136759  1
  Cd  Cd11  1  0.136759  0.863599  0.136759  1
  Cd  Cd12  1  0.136759  0.136759  0.863599  1
  Cd  Cd13  1  0.863899  0.863899  0.863899  1
  Sn  Sn14  1  0.224082  0.224082  0.224082  1
  Sn  Sn15  1  0.225987  0.774640  0.774640  1
  Sn  Sn16  1  0.774640  0.774640  0.225987  1
  Sn  Sn17  1  0.774640  0.225987  0.774640  1
  S  S18  1  0.999195  0.999195  0.999195  1
  S  S19  1  0.352644  0.352644  0.352644  1
  S  S20  1  0.363352  0.647338  0.647338  1
  S  S21  1  0.647338  0.647338  0.363352  1
  S  S22  1  0.647338  0.363352  0.647338  1
  S  S23  1  0.275270  0.002809  0.275270  1
  S  S24  1  0.275270  0.275270  0.002809  1
  S  S25  1  0.002809  0.275270  0.275270  1
  S  S26  1  0.275641  0.995137  0.722494  1
  S  S27  1  0.275641  0.722494  0.995137  1
  S  S28  1  0.006145  0.723409  0.723409  1
  S  S29  1  0.722494  0.995137  0.275641  1
  S  S30  1  0.723409  0.723409  0.006145  1
  S  S31  1  0.995137  0.722494  0.275641  1
  S  S32  1  0.723409  0.006145  0.723409  1
  S  S33  1  0.722494  0.275641  0.995137  1
  S  S34  1  0.995137  0.275641  0.722494  1
