# generated using pymatgen
data_Ho2Re(TcB3)2
_symmetry_space_group_name_H-M   'P 1'
_cell_length_a   6.19194738
_cell_length_b   6.19194832
_cell_length_c   7.49208503
_cell_angle_alpha   90.64160051
_cell_angle_beta   90.64159629
_cell_angle_gamma   113.62366635
_symmetry_Int_Tables_number   1
_chemical_formula_structural   Ho2Re(TcB3)2
_chemical_formula_sum   'Ho4 Re2 Tc4 B12'
_cell_volume   263.12092572
_cell_formula_units_Z   2
loop_
 _symmetry_equiv_pos_site_id
 _symmetry_equiv_pos_as_xyz
  1  'x, y, z'
loop_
 _atom_site_type_symbol
 _atom_site_label
 _atom_site_symmetry_multiplicity
 _atom_site_fract_x
 _atom_site_fract_y
 _atom_site_fract_z
 _atom_site_occupancy
  Ho  Ho0  1  0.101180  0.442088  0.322117  1
  Ho  Ho1  1  0.557912  0.898820  0.177883  1
  Ho  Ho2  1  0.898972  0.556778  0.678030  1
  Ho  Ho3  1  0.443222  0.101028  0.821970  1
  Re  Re4  1  0.009730  0.194365  0.910957  1
  Re  Re5  1  0.805635  0.990270  0.589043  1
  Tc  Tc6  1  0.588553  0.411447  0.250000  1
  Tc  Tc7  1  0.411803  0.588197  0.750000  1
  Tc  Tc8  1  0.990246  0.805818  0.089044  1
  Tc  Tc9  1  0.194182  0.009754  0.410956  1
  B  B10  1  0.247066  0.152596  0.128910  1
  B  B11  1  0.847404  0.752934  0.371090  1
  B  B12  1  0.751785  0.847877  0.869413  1
  B  B13  1  0.152123  0.248215  0.630587  1
  B  B14  1  0.585491  0.158668  0.481365  1
  B  B15  1  0.841332  0.414509  0.018635  1
  B  B16  1  0.413309  0.840310  0.518141  1
  B  B17  1  0.159690  0.586691  0.981859  1
  B  B18  1  0.443129  0.349833  0.534903  1
  B  B19  1  0.650167  0.556871  0.965097  1
  B  B20  1  0.555810  0.648740  0.464707  1
  B  B21  1  0.351260  0.444190  0.035293  1
