# generated using pymatgen
data_Nb8CrSnSe16
_symmetry_space_group_name_H-M   'P 1'
_cell_length_a   7.00538100
_cell_length_b   7.00538219
_cell_length_c   13.97315200
_cell_angle_alpha   90.00000000
_cell_angle_beta   90.00000000
_cell_angle_gamma   119.99999908
_symmetry_Int_Tables_number   1
_chemical_formula_structural   Nb8CrSnSe16
_chemical_formula_sum   'Nb8 Cr1 Sn1 Se16'
_cell_volume   593.86620732
_cell_formula_units_Z   1
loop_
 _symmetry_equiv_pos_site_id
 _symmetry_equiv_pos_as_xyz
  1  'x, y, z'
loop_
 _atom_site_type_symbol
 _atom_site_label
 _atom_site_symmetry_multiplicity
 _atom_site_fract_x
 _atom_site_fract_y
 _atom_site_fract_z
 _atom_site_occupancy
  Nb  Nb0  1  0.000000  0.000000  0.223540  1
  Nb  Nb1  1  0.000000  0.000000  0.776460  1
  Nb  Nb2  1  0.506983  0.013965  0.222571  1
  Nb  Nb3  1  0.986035  0.493017  0.222571  1
  Nb  Nb4  1  0.506983  0.493017  0.222571  1
  Nb  Nb5  1  0.493017  0.986035  0.777429  1
  Nb  Nb6  1  0.013965  0.506983  0.777429  1
  Nb  Nb7  1  0.493017  0.506983  0.777429  1
  Cr  Cr8  1  0.000000  0.000000  0.000000  1
  Sn  Sn9  1  0.000000  0.000000  0.500000  1
  Se  Se10  1  0.333333  0.666667  0.900323  1
  Se  Se11  1  0.666667  0.333333  0.099677  1
  Se  Se12  1  0.666667  0.333333  0.346748  1
  Se  Se13  1  0.333333  0.666667  0.653252  1
  Se  Se14  1  0.168403  0.831597  0.342446  1
  Se  Se15  1  0.168403  0.336805  0.342446  1
  Se  Se16  1  0.663195  0.831597  0.342446  1
  Se  Se17  1  0.831597  0.168403  0.657554  1
  Se  Se18  1  0.831597  0.663195  0.657554  1
  Se  Se19  1  0.336805  0.168403  0.657554  1
  Se  Se20  1  0.832424  0.167576  0.894786  1
  Se  Se21  1  0.832424  0.664850  0.894786  1
  Se  Se22  1  0.335150  0.167576  0.894786  1
  Se  Se23  1  0.167576  0.832424  0.105214  1
  Se  Se24  1  0.167576  0.335150  0.105214  1
  Se  Se25  1  0.664850  0.832424  0.105214  1
