# generated using pymatgen
data_Pr3Nd5(Sc3Sn4)4
_symmetry_space_group_name_H-M   'P 1'
_cell_length_a   7.88303506
_cell_length_b   8.09204833
_cell_length_c   15.11513300
_cell_angle_alpha   90.00865238
_cell_angle_beta   90.00733365
_cell_angle_gamma   89.92886105
_symmetry_Int_Tables_number   1
_chemical_formula_structural   Pr3Nd5(Sc3Sn4)4
_chemical_formula_sum   'Pr3 Nd5 Sc12 Sn16'
_cell_volume   964.19207145
_cell_formula_units_Z   1
loop_
 _symmetry_equiv_pos_site_id
 _symmetry_equiv_pos_as_xyz
  1  'x, y, z'
loop_
 _atom_site_type_symbol
 _atom_site_label
 _atom_site_symmetry_multiplicity
 _atom_site_fract_x
 _atom_site_fract_y
 _atom_site_fract_z
 _atom_site_occupancy
  Pr  Pr0  1  0.996189  0.171841  0.405417  1
  Pr  Pr1  1  0.496190  0.328332  0.405281  1
  Pr  Pr2  1  0.503785  0.672137  0.905205  1
  Nd  Nd3  1  0.505264  0.672988  0.596242  1
  Nd  Nd4  1  0.004997  0.827292  0.595654  1
  Nd  Nd5  1  0.004414  0.827281  0.904892  1
  Nd  Nd6  1  0.495290  0.326855  0.095283  1
  Nd  Nd7  1  0.994761  0.173036  0.095214  1
  Sc  Sc8  1  0.335925  0.161779  0.627315  1
  Sc  Sc9  1  0.663369  0.837564  0.372170  1
  Sc  Sc10  1  0.667340  0.004517  0.750053  1
  Sc  Sc11  1  0.163897  0.662117  0.372238  1
  Sc  Sc12  1  0.836811  0.337670  0.872199  1
  Sc  Sc13  1  0.836169  0.338420  0.627622  1
  Sc  Sc14  1  0.832691  0.505215  0.249556  1
  Sc  Sc15  1  0.332342  0.995332  0.249481  1
  Sc  Sc16  1  0.336437  0.162006  0.872400  1
  Sc  Sc17  1  0.163442  0.661754  0.126910  1
  Sc  Sc18  1  0.663942  0.838704  0.126807  1
  Sc  Sc19  1  0.167254  0.495006  0.749967  1
  Sn  Sn20  1  0.308990  0.857513  0.749939  1
  Sn  Sn21  1  0.470698  0.632655  0.249202  1
  Sn  Sn22  1  0.029269  0.131486  0.749863  1
  Sn  Sn23  1  0.529335  0.367408  0.749750  1
  Sn  Sn24  1  0.173703  0.456884  0.544293  1
  Sn  Sn25  1  0.970574  0.867761  0.249627  1
  Sn  Sn26  1  0.690238  0.142555  0.249458  1
  Sn  Sn27  1  0.826430  0.543953  0.043620  1
  Sn  Sn28  1  0.324950  0.956440  0.043619  1
  Sn  Sn29  1  0.172944  0.454312  0.956611  1
  Sn  Sn30  1  0.673442  0.043234  0.544304  1
  Sn  Sn31  1  0.327119  0.953432  0.456950  1
  Sn  Sn32  1  0.826859  0.546398  0.457066  1
  Sn  Sn33  1  0.810304  0.643209  0.750001  1
  Sn  Sn34  1  0.190243  0.357435  0.249460  1
  Sn  Sn35  1  0.674391  0.045479  0.956332  1
