# generated using pymatgen
data_Zr4VTe8
_symmetry_space_group_name_H-M   'P 1'
_cell_length_a   7.84889959
_cell_length_b   7.84889918
_cell_length_c   9.59239488
_cell_angle_alpha   52.89840963
_cell_angle_beta   52.89841235
_cell_angle_gamma   60.80847825
_symmetry_Int_Tables_number   1
_chemical_formula_structural   Zr4VTe8
_chemical_formula_sum   'Zr4 V1 Te8'
_cell_volume   368.71299224
_cell_formula_units_Z   1
loop_
 _symmetry_equiv_pos_site_id
 _symmetry_equiv_pos_as_xyz
  1  'x, y, z'
loop_
 _atom_site_type_symbol
 _atom_site_label
 _atom_site_symmetry_multiplicity
 _atom_site_fract_x
 _atom_site_fract_y
 _atom_site_fract_z
 _atom_site_occupancy
  Zr  Zr0  1  0.737644  0.262356  0.500000  1
  Zr  Zr1  1  0.262356  0.737644  0.500000  1
  Zr  Zr2  1  0.746175  0.746175  0.008691  1
  Zr  Zr3  1  0.253825  0.253825  0.991309  1
  V  V4  1  0.000000  0.000000  0.000000  1
  Te  Te5  1  0.447979  0.447979  0.330298  1
  Te  Te6  1  0.552021  0.552021  0.669702  1
  Te  Te7  1  0.549254  0.053325  0.169006  1
  Te  Te8  1  0.450746  0.946675  0.830994  1
  Te  Te9  1  0.946675  0.450746  0.830994  1
  Te  Te10  1  0.053325  0.549254  0.169006  1
  Te  Te11  1  0.952861  0.952861  0.333692  1
  Te  Te12  1  0.047139  0.047139  0.666308  1
