# generated using pymatgen
data_CsY2HoS5
_symmetry_space_group_name_H-M   'P 1'
_cell_length_a   4.02206200
_cell_length_b   12.05959500
_cell_length_c   21.45132500
_cell_angle_alpha   90.00000000
_cell_angle_beta   90.00000000
_cell_angle_gamma   90.00000000
_symmetry_Int_Tables_number   1
_chemical_formula_structural   CsY2HoS5
_chemical_formula_sum   'Cs4 Y8 Ho4 S20'
_cell_volume   1040.48448032
_cell_formula_units_Z   4
loop_
 _symmetry_equiv_pos_site_id
 _symmetry_equiv_pos_as_xyz
  1  'x, y, z'
loop_
 _atom_site_type_symbol
 _atom_site_label
 _atom_site_symmetry_multiplicity
 _atom_site_fract_x
 _atom_site_fract_y
 _atom_site_fract_z
 _atom_site_occupancy
  Cs  Cs0  1  0.250000  0.853495  0.093536  1
  Cs  Cs1  1  0.750000  0.146505  0.906464  1
  Cs  Cs2  1  0.750000  0.353495  0.406464  1
  Cs  Cs3  1  0.250000  0.646505  0.593536  1
  Y  Y4  1  0.750000  0.797442  0.825761  1
  Y  Y5  1  0.250000  0.202558  0.174239  1
  Y  Y6  1  0.250000  0.297442  0.674239  1
  Y  Y7  1  0.750000  0.702558  0.325761  1
  Y  Y8  1  0.250000  0.958217  0.697161  1
  Y  Y9  1  0.750000  0.041783  0.302839  1
  Y  Y10  1  0.750000  0.458217  0.802839  1
  Y  Y11  1  0.250000  0.541783  0.197161  1
  Ho  Ho12  1  0.750000  0.391211  0.052502  1
  Ho  Ho13  1  0.250000  0.608789  0.947498  1
  Ho  Ho14  1  0.250000  0.891211  0.447498  1
  Ho  Ho15  1  0.750000  0.108789  0.552502  1
  S  S16  1  0.250000  0.952641  0.568281  1
  S  S17  1  0.750000  0.047359  0.431719  1
  S  S18  1  0.750000  0.452641  0.931719  1
  S  S19  1  0.250000  0.547359  0.068281  1
  S  S20  1  0.750000  0.759941  0.952034  1
  S  S21  1  0.250000  0.240059  0.047966  1
  S  S22  1  0.250000  0.259941  0.547966  1
  S  S23  1  0.750000  0.740059  0.452034  1
  S  S24  1  0.250000  0.946652  0.824387  1
  S  S25  1  0.750000  0.053348  0.175613  1
  S  S26  1  0.750000  0.446652  0.675613  1
  S  S27  1  0.250000  0.553348  0.324387  1
  S  S28  1  0.750000  0.126200  0.681766  1
  S  S29  1  0.250000  0.873800  0.318234  1
  S  S30  1  0.250000  0.626200  0.818234  1
  S  S31  1  0.750000  0.373800  0.181766  1
  S  S32  1  0.750000  0.689391  0.198675  1
  S  S33  1  0.250000  0.310609  0.801325  1
  S  S34  1  0.250000  0.189391  0.301325  1
  S  S35  1  0.750000  0.810609  0.698675  1
