# generated using pymatgen
data_Cs2Pr10Ir2Br17
_symmetry_space_group_name_H-M   'P 1'
_cell_length_a   9.66996184
_cell_length_b   11.29623011
_cell_length_c   11.29643100
_cell_angle_alpha   107.83984493
_cell_angle_beta   93.60655744
_cell_angle_gamma   93.61135314
_symmetry_Int_Tables_number   1
_chemical_formula_structural   Cs2Pr10Ir2Br17
_chemical_formula_sum   'Cs2 Pr10 Ir2 Br17'
_cell_volume   1167.89379934
_cell_formula_units_Z   1
loop_
 _symmetry_equiv_pos_site_id
 _symmetry_equiv_pos_as_xyz
  1  'x, y, z'
loop_
 _atom_site_type_symbol
 _atom_site_label
 _atom_site_symmetry_multiplicity
 _atom_site_fract_x
 _atom_site_fract_y
 _atom_site_fract_z
 _atom_site_occupancy
  Cs  Cs0  1  0.999237  0.820078  0.179011  1
  Cs  Cs1  1  0.999231  0.179009  0.820077  1
  Pr  Pr2  1  0.436026  0.164036  0.164027  1
  Pr  Pr3  1  0.574919  0.513396  0.199861  1
  Pr  Pr4  1  0.830572  0.290309  0.290325  1
  Pr  Pr5  1  0.307425  0.435015  0.435024  1
  Pr  Pr6  1  0.425250  0.800942  0.486846  1
  Pr  Pr7  1  0.574824  0.199830  0.513363  1
  Pr  Pr8  1  0.692876  0.565896  0.565886  1
  Pr  Pr9  1  0.169571  0.709205  0.709242  1
  Pr  Pr10  1  0.425281  0.486855  0.800954  1
  Pr  Pr11  1  0.564005  0.836174  0.836151  1
  Ir  Ir12  1  0.571000  0.357936  0.357938  1
  Ir  Ir13  1  0.429337  0.642642  0.642642  1
  Br  Br14  1  0.580432  0.686742  0.020796  1
  Br  Br15  1  0.711864  0.067394  0.067394  1
  Br  Br16  1  0.856723  0.449390  0.120766  1
  Br  Br17  1  0.132287  0.206954  0.206927  1
  Br  Br18  1  0.285575  0.604499  0.255483  1
  Br  Br19  1  0.419654  0.979937  0.311912  1
  Br  Br20  1  0.714687  0.745238  0.396116  1
  Br  Br21  1  0.856667  0.120743  0.449404  1
  Br  Br22  1  0.999614  0.500026  0.500095  1
  Br  Br23  1  0.143191  0.879215  0.549788  1
  Br  Br24  1  0.285523  0.255500  0.604513  1
  Br  Br25  1  0.580386  0.020796  0.686714  1
  Br  Br26  1  0.714682  0.396095  0.745204  1
  Br  Br27  1  0.868094  0.792945  0.792804  1
  Br  Br28  1  0.143205  0.549755  0.879263  1
  Br  Br29  1  0.288187  0.931477  0.931493  1
  Br  Br30  1  0.419681  0.311970  0.979980  1
