# generated using pymatgen
data_La2Pr4CoBr10
_symmetry_space_group_name_H-M   'P 1'
_cell_length_a   7.76195984
_cell_length_b   9.36532572
_cell_length_c   9.81297700
_cell_angle_alpha   108.47979295
_cell_angle_beta   97.49259897
_cell_angle_gamma   105.09021157
_symmetry_Int_Tables_number   1
_chemical_formula_structural   La2Pr4CoBr10
_chemical_formula_sum   'La2 Pr4 Co1 Br10'
_cell_volume   635.32253467
_cell_formula_units_Z   1
loop_
 _symmetry_equiv_pos_site_id
 _symmetry_equiv_pos_as_xyz
  1  'x, y, z'
loop_
 _atom_site_type_symbol
 _atom_site_label
 _atom_site_symmetry_multiplicity
 _atom_site_fract_x
 _atom_site_fract_y
 _atom_site_fract_z
 _atom_site_occupancy
  La  La0  1  0.534309  0.216164  0.414234  1
  La  La1  1  0.465691  0.783836  0.585766  1
  Pr  Pr2  1  0.136389  0.360758  0.315396  1
  Pr  Pr3  1  0.863611  0.639242  0.684604  1
  Pr  Pr4  1  0.626613  0.549518  0.253656  1
  Pr  Pr5  1  0.373387  0.450482  0.746344  1
  Co  Co6  1  0.500000  0.500000  0.500000  1
  Br  Br7  1  0.152586  0.040507  0.229918  1
  Br  Br8  1  0.847414  0.959493  0.770082  1
  Br  Br9  1  0.252203  0.416626  0.049978  1
  Br  Br10  1  0.747797  0.583374  0.950022  1
  Br  Br11  1  0.707315  0.243310  0.155449  1
  Br  Br12  1  0.292685  0.756690  0.844551  1
  Br  Br13  1  0.042313  0.676349  0.421053  1
  Br  Br14  1  0.957687  0.323651  0.578947  1
  Br  Br15  1  0.412697  0.127797  0.670532  1
  Br  Br16  1  0.587303  0.872203  0.329468  1
