# generated using pymatgen
data_Dy2TmSc3CoBi2
_symmetry_space_group_name_H-M   'P 1'
_cell_length_a   7.96500900
_cell_length_b   7.98936634
_cell_length_c   4.10277900
_cell_angle_alpha   90.00000000
_cell_angle_beta   90.00000000
_cell_angle_gamma   119.89920445
_symmetry_Int_Tables_number   1
_chemical_formula_structural   Dy2TmSc3CoBi2
_chemical_formula_sum   'Dy2 Tm1 Sc3 Co1 Bi2'
_cell_volume   226.33283938
_cell_formula_units_Z   1
loop_
 _symmetry_equiv_pos_site_id
 _symmetry_equiv_pos_as_xyz
  1  'x, y, z'
loop_
 _atom_site_type_symbol
 _atom_site_label
 _atom_site_symmetry_multiplicity
 _atom_site_fract_x
 _atom_site_fract_y
 _atom_site_fract_z
 _atom_site_occupancy
  Dy  Dy0  1  0.000637  0.612959  0.500000  1
  Dy  Dy1  1  0.387678  0.387041  0.500000  1
  Tm  Tm2  1  0.619796  0.000000  0.500000  1
  Sc  Sc3  1  0.222295  0.000000  0.000000  1
  Sc  Sc4  1  0.002552  0.224057  0.000000  1
  Sc  Sc5  1  0.778494  0.775943  0.000000  1
  Co  Co6  1  0.984860  0.000000  0.500000  1
  Bi  Bi7  1  0.666931  0.330173  0.000000  1
  Bi  Bi8  1  0.336757  0.669827  0.000000  1
