# generated using pymatgen
data_Er7Sc12Si16Mo
_symmetry_space_group_name_H-M   'P 1'
_cell_length_a   7.00324202
_cell_length_b   7.31674621
_cell_length_c   13.83144144
_cell_angle_alpha   89.88868297
_cell_angle_beta   89.86939733
_cell_angle_gamma   89.72521908
_symmetry_Int_Tables_number   1
_chemical_formula_structural   Er7Sc12Si16Mo
_chemical_formula_sum   'Er7 Sc12 Si16 Mo1'
_cell_volume   708.72480923
_cell_formula_units_Z   1
loop_
 _symmetry_equiv_pos_site_id
 _symmetry_equiv_pos_as_xyz
  1  'x, y, z'
loop_
 _atom_site_type_symbol
 _atom_site_label
 _atom_site_symmetry_multiplicity
 _atom_site_fract_x
 _atom_site_fract_y
 _atom_site_fract_z
 _atom_site_occupancy
  Er  Er0  1  0.991502  0.681267  0.599497  1
  Er  Er1  1  0.014025  0.322532  0.404807  1
  Er  Er2  1  0.512996  0.177224  0.404476  1
  Er  Er3  1  0.013407  0.321230  0.093319  1
  Er  Er4  1  0.485328  0.825344  0.597975  1
  Er  Er5  1  0.989463  0.680080  0.901990  1
  Er  Er6  1  0.484196  0.826121  0.903975  1
  Sc  Sc7  1  0.844560  0.005371  0.248492  1
  Sc  Sc8  1  0.344226  0.495985  0.249125  1
  Sc  Sc9  1  0.655503  0.504559  0.750593  1
  Sc  Sc10  1  0.516849  0.182219  0.099640  1
  Sc  Sc11  1  0.325801  0.321424  0.627447  1
  Sc  Sc12  1  0.672977  0.677098  0.372987  1
  Sc  Sc13  1  0.174966  0.826905  0.375225  1
  Sc  Sc14  1  0.672943  0.676132  0.125510  1
  Sc  Sc15  1  0.826675  0.169522  0.628432  1
  Sc  Sc16  1  0.325599  0.319129  0.874064  1
  Sc  Sc17  1  0.824199  0.169296  0.871887  1
  Sc  Sc18  1  0.175629  0.829613  0.122377  1
  Si  Si19  1  0.028818  0.378938  0.750734  1
  Si  Si20  1  0.974746  0.614154  0.248782  1
  Si  Si21  1  0.472626  0.890234  0.248300  1
  Si  Si22  1  0.518491  0.102831  0.750341  1
  Si  Si23  1  0.281460  0.638890  0.750927  1
  Si  Si24  1  0.717797  0.368121  0.248172  1
  Si  Si25  1  0.219776  0.132199  0.247787  1
  Si  Si26  1  0.790373  0.869360  0.750555  1
  Si  Si27  1  0.155172  0.033497  0.546570  1
  Si  Si28  1  0.844158  0.964883  0.462070  1
  Si  Si29  1  0.345386  0.535482  0.462257  1
  Si  Si30  1  0.837217  0.968226  0.038607  1
  Si  Si31  1  0.658617  0.465756  0.539196  1
  Si  Si32  1  0.150070  0.031396  0.951825  1
  Si  Si33  1  0.657084  0.461442  0.962290  1
  Si  Si34  1  0.347094  0.530593  0.039342  1
  Mo  Mo35  1  0.150271  0.002944  0.750430  1
