# generated using pymatgen
data_Yb3Dy(B4Ru5)2
_symmetry_space_group_name_H-M   'P 1'
_cell_length_a   3.01155600
_cell_length_b   8.72135736
_cell_length_c   10.20048257
_cell_angle_alpha   89.87689024
_cell_angle_beta   90.00000000
_cell_angle_gamma   90.00000000
_symmetry_Int_Tables_number   1
_chemical_formula_structural   Yb3Dy(B4Ru5)2
_chemical_formula_sum   'Yb3 Dy1 B8 Ru10'
_cell_volume   267.91358846
_cell_formula_units_Z   1
loop_
 _symmetry_equiv_pos_site_id
 _symmetry_equiv_pos_as_xyz
  1  'x, y, z'
loop_
 _atom_site_type_symbol
 _atom_site_label
 _atom_site_symmetry_multiplicity
 _atom_site_fract_x
 _atom_site_fract_y
 _atom_site_fract_z
 _atom_site_occupancy
  Yb  Yb0  1  0.500000  0.841865  0.181082  1
  Yb  Yb1  1  0.500000  0.157654  0.817684  1
  Yb  Yb2  1  0.500000  0.658314  0.683321  1
  Dy  Dy3  1  0.500000  0.342042  0.317878  1
  B  B4  1  0.500000  0.964523  0.590020  1
  B  B5  1  0.500000  0.033128  0.411736  1
  B  B6  1  0.500000  0.853352  0.899227  1
  B  B7  1  0.500000  0.146067  0.098176  1
  B  B8  1  0.500000  0.648761  0.400202  1
  B  B9  1  0.500000  0.353045  0.602442  1
  B  B10  1  0.500000  0.466193  0.910104  1
  B  B11  1  0.500000  0.536233  0.087553  1
  Ru  Ru12  1  0.000000  0.656650  0.954437  1
  Ru  Ru13  1  0.000000  0.343035  0.045943  1
  Ru  Ru14  1  0.000000  0.843060  0.454259  1
  Ru  Ru15  1  0.000000  0.156774  0.545444  1
  Ru  Ru16  1  0.000000  0.999798  0.999865  1
  Ru  Ru17  1  0.000000  0.404640  0.760322  1
  Ru  Ru18  1  0.000000  0.597012  0.239402  1
  Ru  Ru19  1  0.000000  0.501094  0.501135  1
  Ru  Ru20  1  0.000000  0.904377  0.740049  1
  Ru  Ru21  1  0.000000  0.092383  0.259721  1
