# generated using pymatgen
data_La7Pr9Cd4TcPd3
_symmetry_space_group_name_H-M   'P 1'
_cell_length_a   10.15016015
_cell_length_b   10.16143455
_cell_length_c   10.20962386
_cell_angle_alpha   59.15217647
_cell_angle_beta   59.38592524
_cell_angle_gamma   59.59124563
_symmetry_Int_Tables_number   1
_chemical_formula_structural   La7Pr9Cd4TcPd3
_chemical_formula_sum   'La7 Pr9 Cd4 Tc1 Pd3'
_cell_volume   734.01016978
_cell_formula_units_Z   1
loop_
 _symmetry_equiv_pos_site_id
 _symmetry_equiv_pos_as_xyz
  1  'x, y, z'
loop_
 _atom_site_type_symbol
 _atom_site_label
 _atom_site_symmetry_multiplicity
 _atom_site_fract_x
 _atom_site_fract_y
 _atom_site_fract_z
 _atom_site_occupancy
  La  La0  1  0.351979  0.353097  0.353508  1
  La  La1  1  0.344918  0.343108  0.958259  1
  La  La2  1  0.347641  0.955168  0.345302  1
  La  La3  1  0.955932  0.346515  0.346042  1
  La  La4  1  0.819988  0.187999  0.186375  1
  La  La5  1  0.188274  0.806502  0.806079  1
  La  La6  1  0.187643  0.820196  0.187337  1
  Pr  Pr7  1  0.804201  0.190775  0.805389  1
  Pr  Pr8  1  0.188857  0.190761  0.812796  1
  Pr  Pr9  1  0.803085  0.804832  0.190477  1
  Pr  Pr10  1  0.931749  0.566810  0.567521  1
  Pr  Pr11  1  0.558424  0.936548  0.934692  1
  Pr  Pr12  1  0.566170  0.934164  0.566472  1
  Pr  Pr13  1  0.936522  0.557835  0.935656  1
  Pr  Pr14  1  0.565722  0.565231  0.934126  1
  Pr  Pr15  1  0.936632  0.937448  0.557444  1
  Cd  Cd16  1  0.580764  0.579065  0.579694  1
  Cd  Cd17  1  0.581409  0.581524  0.257221  1
  Cd  Cd18  1  0.579456  0.257889  0.582367  1
  Cd  Cd19  1  0.257797  0.578680  0.581801  1
  Tc  Tc20  1  0.139720  0.138609  0.147443  1
  Pd  Pd21  1  0.148237  0.143197  0.572949  1
  Pd  Pd22  1  0.149900  0.575101  0.143796  1
  Pd  Pd23  1  0.574980  0.148948  0.147254  1
