# generated using pymatgen
data_Y7Ho(BBr6)2
_symmetry_space_group_name_H-M   'P 1'
_cell_length_a   3.97275200
_cell_length_b   13.18710294
_cell_length_c   13.65615200
_cell_angle_alpha   89.93327202
_cell_angle_beta   90.00000000
_cell_angle_gamma   90.00000000
_symmetry_Int_Tables_number   1
_chemical_formula_structural   Y7Ho(BBr6)2
_chemical_formula_sum   'Y7 Ho1 B2 Br12'
_cell_volume   715.43288542
_cell_formula_units_Z   1
loop_
 _symmetry_equiv_pos_site_id
 _symmetry_equiv_pos_as_xyz
  1  'x, y, z'
loop_
 _atom_site_type_symbol
 _atom_site_label
 _atom_site_symmetry_multiplicity
 _atom_site_fract_x
 _atom_site_fract_y
 _atom_site_fract_z
 _atom_site_occupancy
  Y  Y0  1  0.000000  0.102117  0.081033  1
  Y  Y1  1  0.000000  0.897988  0.918882  1
  Y  Y2  1  0.000000  0.601397  0.419432  1
  Y  Y3  1  0.500000  0.123015  0.855436  1
  Y  Y4  1  0.500000  0.877200  0.144353  1
  Y  Y5  1  0.500000  0.622299  0.644237  1
  Y  Y6  1  0.500000  0.377231  0.356144  1
  Ho  Ho7  1  0.000000  0.398761  0.580446  1
  B  B8  1  0.500000  0.000121  0.999869  1
  B  B9  1  0.500000  0.499202  0.500645  1
  Br  Br10  1  0.500000  0.269557  0.681140  1
  Br  Br11  1  0.500000  0.731921  0.317849  1
  Br  Br12  1  0.500000  0.767743  0.817566  1
  Br  Br13  1  0.500000  0.232177  0.182507  1
  Br  Br14  1  0.000000  0.261134  0.931024  1
  Br  Br15  1  0.000000  0.738995  0.068812  1
  Br  Br16  1  0.000000  0.480712  0.239499  1
  Br  Br17  1  0.000000  0.517741  0.759775  1
  Br  Br18  1  0.000000  0.980694  0.260668  1
  Br  Br19  1  0.000000  0.019575  0.739204  1
  Br  Br20  1  0.000000  0.239602  0.432764  1
  Br  Br21  1  0.000000  0.760816  0.568716  1
