# generated using pymatgen
data_Hf6Al4FeNiC2
_symmetry_space_group_name_H-M   'P 1'
_cell_length_a   8.48779388
_cell_length_b   8.48787920
_cell_length_c   8.50359000
_cell_angle_alpha   59.94097250
_cell_angle_beta   59.94066427
_cell_angle_gamma   59.98128672
_symmetry_Int_Tables_number   1
_chemical_formula_structural   Hf6Al4FeNiC2
_chemical_formula_sum   'Hf12 Al8 Fe2 Ni2 C4'
_cell_volume   432.74385825
_cell_formula_units_Z   2
loop_
 _symmetry_equiv_pos_site_id
 _symmetry_equiv_pos_as_xyz
  1  'x, y, z'
loop_
 _atom_site_type_symbol
 _atom_site_label
 _atom_site_symmetry_multiplicity
 _atom_site_fract_x
 _atom_site_fract_y
 _atom_site_fract_z
 _atom_site_occupancy
  Hf  Hf0  1  0.551265  0.945666  0.556270  1
  Hf  Hf1  1  0.304327  0.698728  0.693748  1
  Hf  Hf2  1  0.698771  0.304329  0.303171  1
  Hf  Hf3  1  0.304319  0.698767  0.303165  1
  Hf  Hf4  1  0.695038  0.695017  0.304962  1
  Hf  Hf5  1  0.302935  0.302939  0.697086  1
  Hf  Hf6  1  0.554962  0.554983  0.945038  1
  Hf  Hf7  1  0.945673  0.551272  0.556252  1
  Hf  Hf8  1  0.551229  0.945671  0.946829  1
  Hf  Hf9  1  0.947065  0.947061  0.552914  1
  Hf  Hf10  1  0.698735  0.304334  0.693730  1
  Hf  Hf11  1  0.945681  0.551233  0.946835  1
  Al  Al12  1  0.921335  0.921361  0.917568  1
  Al  Al13  1  0.011011  0.326929  0.330960  1
  Al  Al14  1  0.326953  0.010989  0.330959  1
  Al  Al15  1  0.328591  0.328563  0.010342  1
  Al  Al16  1  0.923047  0.239011  0.919041  1
  Al  Al17  1  0.921409  0.921437  0.239658  1
  Al  Al18  1  0.238989  0.923071  0.919040  1
  Al  Al19  1  0.328665  0.328639  0.332432  1
  Fe  Fe20  1  0.125000  0.125000  0.125000  1
  Fe  Fe21  1  0.125000  0.125000  0.625000  1
  Ni  Ni22  1  0.625000  0.125000  0.125000  1
  Ni  Ni23  1  0.125000  0.625000  0.125000  1
  C  C24  1  0.625000  0.625000  0.625000  1
  C  C25  1  0.125000  0.625000  0.625000  1
  C  C26  1  0.625000  0.125000  0.625000  1
  C  C27  1  0.625000  0.625000  0.125000  1
