# generated using pymatgen
data_Pa3Mn(Al4Re)3
_symmetry_space_group_name_H-M   'P 1'
_cell_length_a   8.88241800
_cell_length_b   8.88241832
_cell_length_c   9.39495800
_cell_angle_alpha   90.00000000
_cell_angle_beta   90.00000000
_cell_angle_gamma   119.99999882
_symmetry_Int_Tables_number   1
_chemical_formula_structural   Pa3Mn(Al4Re)3
_chemical_formula_sum   'Pa6 Mn2 Al24 Re6'
_cell_volume   641.93034960
_cell_formula_units_Z   2
loop_
 _symmetry_equiv_pos_site_id
 _symmetry_equiv_pos_as_xyz
  1  'x, y, z'
loop_
 _atom_site_type_symbol
 _atom_site_label
 _atom_site_symmetry_multiplicity
 _atom_site_fract_x
 _atom_site_fract_y
 _atom_site_fract_z
 _atom_site_occupancy
  Pa  Pa0  1  0.799417  0.200583  0.750000  1
  Pa  Pa1  1  0.200583  0.799417  0.250000  1
  Pa  Pa2  1  0.401165  0.200583  0.750000  1
  Pa  Pa3  1  0.598835  0.799417  0.250000  1
  Pa  Pa4  1  0.799417  0.598835  0.750000  1
  Pa  Pa5  1  0.200583  0.401165  0.250000  1
  Mn  Mn6  1  0.000000  0.000000  0.000000  1
  Mn  Mn7  1  0.000000  0.000000  0.500000  1
  Al  Al8  1  0.666667  0.333333  0.992189  1
  Al  Al9  1  0.333333  0.666667  0.007811  1
  Al  Al10  1  0.333333  0.666667  0.492189  1
  Al  Al11  1  0.666667  0.333333  0.507811  1
  Al  Al12  1  0.841099  0.158901  0.420292  1
  Al  Al13  1  0.158901  0.841099  0.579708  1
  Al  Al14  1  0.317804  0.158901  0.420292  1
  Al  Al15  1  0.158901  0.841099  0.920292  1
  Al  Al16  1  0.682196  0.841099  0.579708  1
  Al  Al17  1  0.841099  0.158901  0.079708  1
  Al  Al18  1  0.841099  0.682196  0.420292  1
  Al  Al19  1  0.682196  0.841099  0.920292  1
  Al  Al20  1  0.158901  0.317804  0.579708  1
  Al  Al21  1  0.317804  0.158901  0.079708  1
  Al  Al22  1  0.158901  0.317804  0.920292  1
  Al  Al23  1  0.841099  0.682196  0.079708  1
  Al  Al24  1  0.436881  0.563119  0.750000  1
  Al  Al25  1  0.563119  0.436881  0.250000  1
  Al  Al26  1  0.126237  0.563119  0.750000  1
  Al  Al27  1  0.873763  0.436881  0.250000  1
  Al  Al28  1  0.436881  0.873763  0.750000  1
  Al  Al29  1  0.563119  0.126237  0.250000  1
  Al  Al30  1  0.000000  0.000000  0.750000  1
  Al  Al31  1  0.000000  0.000000  0.250000  1
  Re  Re32  1  0.500000  0.500000  0.000000  1
  Re  Re33  1  0.000000  0.500000  0.000000  1
  Re  Re34  1  0.500000  0.500000  0.500000  1
  Re  Re35  1  0.500000  0.000000  0.000000  1
  Re  Re36  1  0.000000  0.500000  0.500000  1
  Re  Re37  1  0.500000  0.000000  0.500000  1
