# generated using pymatgen
data_RbSnPS4
_symmetry_space_group_name_H-M   'P 1'
_cell_length_a   12.27670500
_cell_length_b   7.18333993
_cell_length_c   11.32366539
_cell_angle_alpha   54.93110639
_cell_angle_beta   90.00000000
_cell_angle_gamma   90.00000000
_symmetry_Int_Tables_number   1
_chemical_formula_structural   RbSnPS4
_chemical_formula_sum   'Rb4 Sn4 P4 S16'
_cell_volume   817.32289852
_cell_formula_units_Z   4
loop_
 _symmetry_equiv_pos_site_id
 _symmetry_equiv_pos_as_xyz
  1  'x, y, z'
loop_
 _atom_site_type_symbol
 _atom_site_label
 _atom_site_symmetry_multiplicity
 _atom_site_fract_x
 _atom_site_fract_y
 _atom_site_fract_z
 _atom_site_occupancy
  Rb  Rb0  1  0.404544  0.373073  0.868289  1
  Rb  Rb1  1  0.904544  0.626927  0.631711  1
  Rb  Rb2  1  0.595456  0.626927  0.131711  1
  Rb  Rb3  1  0.095456  0.373073  0.368289  1
  Sn  Sn4  1  0.131012  0.944103  0.885274  1
  Sn  Sn5  1  0.631012  0.055897  0.614726  1
  Sn  Sn6  1  0.868988  0.055897  0.114726  1
  Sn  Sn7  1  0.368988  0.944103  0.385274  1
  P  P8  1  0.337782  0.081468  0.634075  1
  P  P9  1  0.837782  0.918532  0.865925  1
  P  P10  1  0.662218  0.918532  0.365925  1
  P  P11  1  0.162218  0.081468  0.134075  1
  S  S12  1  0.454358  0.927937  0.795623  1
  S  S13  1  0.954358  0.072063  0.704377  1
  S  S14  1  0.545642  0.072063  0.204377  1
  S  S15  1  0.045642  0.927937  0.295623  1
  S  S16  1  0.082505  0.263902  0.935630  1
  S  S17  1  0.582505  0.736098  0.564370  1
  S  S18  1  0.917495  0.736098  0.064370  1
  S  S19  1  0.417495  0.263902  0.435630  1
  S  S20  1  0.248150  0.305561  0.652236  1
  S  S21  1  0.748150  0.694439  0.847764  1
  S  S22  1  0.751850  0.694439  0.347764  1
  S  S23  1  0.251850  0.305561  0.152236  1
  S  S24  1  0.237675  0.849572  0.643487  1
  S  S25  1  0.737675  0.150428  0.856513  1
  S  S26  1  0.762325  0.150428  0.356513  1
  S  S27  1  0.262325  0.849572  0.143487  1
