# generated using pymatgen
data_YbNb5FeB4Ru9
_symmetry_space_group_name_H-M   'P 1'
_cell_length_a   9.44421554
_cell_length_b   9.44421486
_cell_length_c   3.04971700
_cell_angle_alpha   90.00000000
_cell_angle_beta   90.00000000
_cell_angle_gamma   90.04599228
_symmetry_Int_Tables_number   1
_chemical_formula_structural   YbNb5FeB4Ru9
_chemical_formula_sum   'Yb1 Nb5 Fe1 B4 Ru9'
_cell_volume   272.01393301
_cell_formula_units_Z   1
loop_
 _symmetry_equiv_pos_site_id
 _symmetry_equiv_pos_as_xyz
  1  'x, y, z'
loop_
 _atom_site_type_symbol
 _atom_site_label
 _atom_site_symmetry_multiplicity
 _atom_site_fract_x
 _atom_site_fract_y
 _atom_site_fract_z
 _atom_site_occupancy
  Yb  Yb0  1  0.823004  0.676996  0.000000  1
  Nb  Nb1  1  0.179052  0.320948  0.000000  1
  Nb  Nb2  1  0.329266  0.830374  0.000000  1
  Nb  Nb3  1  0.669626  0.170734  0.000000  1
  Nb  Nb4  1  0.503598  0.501785  0.000000  1
  Nb  Nb5  1  0.998215  0.996402  0.000000  1
  Fe  Fe6  1  0.495335  0.004665  0.500000  1
  B  B7  1  0.609856  0.890144  0.000000  1
  B  B8  1  0.386296  0.113704  0.000000  1
  B  B9  1  0.123782  0.619773  0.000000  1
  B  B10  1  0.880227  0.376218  0.000000  1
  Ru  Ru11  1  0.553660  0.731986  0.500000  1
  Ru  Ru12  1  0.430058  0.277969  0.500000  1
  Ru  Ru13  1  0.084546  0.783323  0.500000  1
  Ru  Ru14  1  0.931836  0.214343  0.500000  1
  Ru  Ru15  1  0.285657  0.568164  0.500000  1
  Ru  Ru16  1  0.716677  0.415454  0.500000  1
  Ru  Ru17  1  0.222031  0.069942  0.500000  1
  Ru  Ru18  1  0.768014  0.946340  0.500000  1
  Ru  Ru19  1  0.009261  0.490739  0.500000  1
