# generated using pymatgen
data_Pr16ZnCd4Os3
_symmetry_space_group_name_H-M   'P 1'
_cell_length_a   10.00496091
_cell_length_b   10.12685721
_cell_length_c   10.12685600
_cell_angle_alpha   59.99999741
_cell_angle_beta   59.59614252
_cell_angle_gamma   59.59614492
_symmetry_Int_Tables_number   1
_chemical_formula_structural   Pr16ZnCd4Os3
_chemical_formula_sum   'Pr16 Zn1 Cd4 Os3'
_cell_volume   721.06016628
_cell_formula_units_Z   1
loop_
 _symmetry_equiv_pos_site_id
 _symmetry_equiv_pos_as_xyz
  1  'x, y, z'
loop_
 _atom_site_type_symbol
 _atom_site_label
 _atom_site_symmetry_multiplicity
 _atom_site_fract_x
 _atom_site_fract_y
 _atom_site_fract_z
 _atom_site_occupancy
  Pr  Pr0  1  0.341866  0.353582  0.353582  1
  Pr  Pr1  1  0.341866  0.353582  0.950971  1
  Pr  Pr2  1  0.341866  0.950971  0.353582  1
  Pr  Pr3  1  0.971292  0.342902  0.342902  1
  Pr  Pr4  1  0.818641  0.192615  0.192615  1
  Pr  Pr5  1  0.188960  0.810517  0.810517  1
  Pr  Pr6  1  0.188960  0.810517  0.190006  1
  Pr  Pr7  1  0.818641  0.192615  0.796130  1
  Pr  Pr8  1  0.188960  0.190006  0.810517  1
  Pr  Pr9  1  0.818641  0.796130  0.192615  1
  Pr  Pr10  1  0.933872  0.562871  0.562871  1
  Pr  Pr11  1  0.551038  0.941063  0.941063  1
  Pr  Pr12  1  0.551038  0.941063  0.566836  1
  Pr  Pr13  1  0.933872  0.562871  0.940385  1
  Pr  Pr14  1  0.551038  0.566836  0.941063  1
  Pr  Pr15  1  0.933872  0.940385  0.562871  1
  Zn  Zn16  1  0.577671  0.140776  0.140776  1
  Cd  Cd17  1  0.580855  0.578794  0.578794  1
  Cd  Cd18  1  0.580855  0.578794  0.261555  1
  Cd  Cd19  1  0.580855  0.261555  0.578794  1
  Cd  Cd20  1  0.262170  0.579277  0.579277  1
  Os  Os21  1  0.147723  0.136632  0.136632  1
  Os  Os22  1  0.147723  0.136632  0.579014  1
  Os  Os23  1  0.147723  0.579014  0.136632  1
