# generated using pymatgen
data_Hf10ZnCu(Sn2Bi)2
_symmetry_space_group_name_H-M   'P 1'
_cell_length_a   8.64927013
_cell_length_b   8.64927115
_cell_length_c   5.82480637
_cell_angle_alpha   89.98547179
_cell_angle_beta   89.98545799
_cell_angle_gamma   119.71800251
_symmetry_Int_Tables_number   1
_chemical_formula_structural   Hf10ZnCu(Sn2Bi)2
_chemical_formula_sum   'Hf10 Zn1 Cu1 Sn4 Bi2'
_cell_volume   378.44095590
_cell_formula_units_Z   1
loop_
 _symmetry_equiv_pos_site_id
 _symmetry_equiv_pos_as_xyz
  1  'x, y, z'
loop_
 _atom_site_type_symbol
 _atom_site_label
 _atom_site_symmetry_multiplicity
 _atom_site_fract_x
 _atom_site_fract_y
 _atom_site_fract_z
 _atom_site_occupancy
  Hf  Hf0  1  0.260355  0.989852  0.753533  1
  Hf  Hf1  1  0.739645  0.010148  0.246467  1
  Hf  Hf2  1  0.989852  0.260355  0.753533  1
  Hf  Hf3  1  0.010148  0.739645  0.246467  1
  Hf  Hf4  1  0.738456  0.738456  0.752926  1
  Hf  Hf5  1  0.261544  0.261544  0.247074  1
  Hf  Hf6  1  0.329685  0.670315  0.500000  1
  Hf  Hf7  1  0.670315  0.329685  0.500000  1
  Hf  Hf8  1  0.670668  0.329332  0.000000  1
  Hf  Hf9  1  0.329332  0.670668  0.000000  1
  Zn  Zn10  1  0.000000  0.000000  0.500000  1
  Cu  Cu11  1  0.000000  0.000000  0.000000  1
  Sn  Sn12  1  0.611309  0.996402  0.748379  1
  Sn  Sn13  1  0.388691  0.003598  0.251621  1
  Sn  Sn14  1  0.996402  0.611309  0.748379  1
  Sn  Sn15  1  0.003598  0.388691  0.251621  1
  Bi  Bi16  1  0.382522  0.382522  0.748819  1
  Bi  Bi17  1  0.617478  0.617478  0.251181  1
