# generated using pymatgen
data_Rb6Si2PdO8
_symmetry_space_group_name_H-M   'P 1'
_cell_length_a   6.87241914
_cell_length_b   7.13584443
_cell_length_c   7.98863900
_cell_angle_alpha   85.88127283
_cell_angle_beta   88.73190449
_cell_angle_gamma   68.92337861
_symmetry_Int_Tables_number   1
_chemical_formula_structural   Rb6Si2PdO8
_chemical_formula_sum   'Rb6 Si2 Pd1 O8'
_cell_volume   364.61090511
_cell_formula_units_Z   1
loop_
 _symmetry_equiv_pos_site_id
 _symmetry_equiv_pos_as_xyz
  1  'x, y, z'
loop_
 _atom_site_type_symbol
 _atom_site_label
 _atom_site_symmetry_multiplicity
 _atom_site_fract_x
 _atom_site_fract_y
 _atom_site_fract_z
 _atom_site_occupancy
  Rb  Rb0  1  0.201830  0.698327  0.012981  1
  Rb  Rb1  1  0.712397  0.192977  0.471265  1
  Rb  Rb2  1  0.798170  0.301673  0.987019  1
  Rb  Rb3  1  0.661881  0.828729  0.165635  1
  Rb  Rb4  1  0.338119  0.171271  0.834365  1
  Rb  Rb5  1  0.287603  0.807023  0.528735  1
  Si  Si6  1  0.767171  0.751757  0.736087  1
  Si  Si7  1  0.232829  0.248243  0.263913  1
  Pd  Pd8  1  0.000000  0.500000  0.500000  1
  O  O9  1  0.013494  0.457782  0.243279  1
  O  O10  1  0.746229  0.767932  0.523384  1
  O  O11  1  0.986506  0.542218  0.756721  1
  O  O12  1  0.435543  0.282750  0.172962  1
  O  O13  1  0.803912  0.948706  0.804099  1
  O  O14  1  0.253771  0.232068  0.476616  1
  O  O15  1  0.564457  0.717250  0.827038  1
  O  O16  1  0.196088  0.051294  0.195901  1
