# generated using pymatgen
data_Pr3NdGeI5
_symmetry_space_group_name_H-M   'P 1'
_cell_length_a   10.12676652
_cell_length_b   10.12676572
_cell_length_c   9.11956065
_cell_angle_alpha   77.80031414
_cell_angle_beta   77.80032047
_cell_angle_gamma   24.88893703
_symmetry_Int_Tables_number   1
_chemical_formula_structural   Pr3NdGeI5
_chemical_formula_sum   'Pr3 Nd1 Ge1 I5'
_cell_volume   384.27211395
_cell_formula_units_Z   1
loop_
 _symmetry_equiv_pos_site_id
 _symmetry_equiv_pos_as_xyz
  1  'x, y, z'
loop_
 _atom_site_type_symbol
 _atom_site_label
 _atom_site_symmetry_multiplicity
 _atom_site_fract_x
 _atom_site_fract_y
 _atom_site_fract_z
 _atom_site_occupancy
  Pr  Pr0  1  0.851485  0.851485  0.075089  1
  Pr  Pr1  1  0.148316  0.148316  0.925538  1
  Pr  Pr2  1  0.500444  0.500444  0.215830  1
  Nd  Nd3  1  0.499367  0.499367  0.783797  1
  Ge  Ge4  1  0.999847  0.999847  0.997474  1
  I  I5  1  0.671086  0.671086  0.174879  1
  I  I6  1  0.329202  0.329202  0.825938  1
  I  I7  1  0.665611  0.665611  0.662697  1
  I  I8  1  0.334045  0.334045  0.338573  1
  I  I9  1  0.000598  0.000598  0.500185  1
