# generated using pymatgen
data_Rb6TbInBi4
_symmetry_space_group_name_H-M   'P 1'
_cell_length_a   10.39016929
_cell_length_b   10.39017026
_cell_length_c   10.39017115
_cell_angle_alpha   128.49097829
_cell_angle_beta   69.08849276
_cell_angle_gamma   137.26786576
_symmetry_Int_Tables_number   1
_chemical_formula_structural   Rb6TbInBi4
_chemical_formula_sum   'Rb6 Tb1 In1 Bi4'
_cell_volume   585.04098070
_cell_formula_units_Z   1
loop_
 _symmetry_equiv_pos_site_id
 _symmetry_equiv_pos_as_xyz
  1  'x, y, z'
loop_
 _atom_site_type_symbol
 _atom_site_label
 _atom_site_symmetry_multiplicity
 _atom_site_fract_x
 _atom_site_fract_y
 _atom_site_fract_z
 _atom_site_occupancy
  Rb  Rb0  1  0.250000  0.250000  0.000000  1
  Rb  Rb1  1  0.750000  0.750000  0.000000  1
  Rb  Rb2  1  0.828647  0.315295  0.123394  1
  Rb  Rb3  1  0.671352  0.794749  0.486648  1
  Rb  Rb4  1  0.308099  0.184705  0.513352  1
  Rb  Rb5  1  0.191900  0.705252  0.876606  1
  Tb  Tb6  1  0.750000  0.250000  0.500000  1
  In  In7  1  0.250000  0.750000  0.500000  1
  Bi  Bi8  1  0.392376  0.799152  0.203853  1
  Bi  Bi9  1  0.107624  0.311477  0.406777  1
  Bi  Bi10  1  0.904701  0.700848  0.593224  1
  Bi  Bi11  1  0.595299  0.188523  0.796147  1
