# generated using pymatgen
data_Ho8Ga(Pd11Pt)2
_symmetry_space_group_name_H-M   'P 1'
_cell_length_a   8.33740800
_cell_length_b   8.33216701
_cell_length_c   8.33216701
_cell_angle_alpha   90.00442844
_cell_angle_beta   90.00000000
_cell_angle_gamma   90.00000000
_symmetry_Int_Tables_number   1
_chemical_formula_structural   Ho8Ga(Pd11Pt)2
_chemical_formula_sum   'Ho8 Ga1 Pd22 Pt2'
_cell_volume   578.82460720
_cell_formula_units_Z   1
loop_
 _symmetry_equiv_pos_site_id
 _symmetry_equiv_pos_as_xyz
  1  'x, y, z'
loop_
 _atom_site_type_symbol
 _atom_site_label
 _atom_site_symmetry_multiplicity
 _atom_site_fract_x
 _atom_site_fract_y
 _atom_site_fract_z
 _atom_site_occupancy
  Ho  Ho0  1  0.252209  0.251768  0.748232  1
  Ho  Ho1  1  0.251614  0.748565  0.251435  1
  Ho  Ho2  1  0.748040  0.251497  0.251774  1
  Ho  Ho3  1  0.748040  0.748226  0.748503  1
  Ho  Ho4  1  0.748386  0.748565  0.251435  1
  Ho  Ho5  1  0.747791  0.251768  0.748232  1
  Ho  Ho6  1  0.251960  0.748226  0.748503  1
  Ho  Ho7  1  0.251960  0.251497  0.251774  1
  Ga  Ga8  1  0.000000  0.000112  0.999888  1
  Pd  Pd9  1  0.252982  0.500007  0.499993  1
  Pd  Pd10  1  0.500000  0.499942  0.253102  1
  Pd  Pd11  1  0.500000  0.746898  0.500058  1
  Pd  Pd12  1  0.747018  0.500007  0.499993  1
  Pd  Pd13  1  0.000000  0.999855  0.708278  1
  Pd  Pd14  1  0.000000  0.291722  0.000145  1
  Pd  Pd15  1  0.291648  0.999860  0.000140  1
  Pd  Pd16  1  0.000000  0.999834  0.291766  1
  Pd  Pd17  1  0.000000  0.708234  0.000166  1
  Pd  Pd18  1  0.708352  0.999860  0.000140  1
  Pd  Pd19  1  0.000000  0.500102  0.739633  1
  Pd  Pd20  1  0.500000  0.260263  0.999926  1
  Pd  Pd21  1  0.260281  0.000044  0.499890  1
  Pd  Pd22  1  0.000000  0.260367  0.499898  1
  Pd  Pd23  1  0.500000  0.000074  0.739737  1
  Pd  Pd24  1  0.260281  0.500110  0.999956  1
  Pd  Pd25  1  0.000000  0.500083  0.260277  1
  Pd  Pd26  1  0.500000  0.739759  0.999937  1
  Pd  Pd27  1  0.000000  0.739723  0.499917  1
  Pd  Pd28  1  0.500000  0.000063  0.260241  1
  Pd  Pd29  1  0.739719  0.000044  0.499890  1
  Pd  Pd30  1  0.739719  0.500110  0.999956  1
  Pt  Pt31  1  0.500000  0.499993  0.747180  1
  Pt  Pt32  1  0.500000  0.252820  0.500007  1
