# generated using pymatgen
data_Tb4Tc3B16Ir
_symmetry_space_group_name_H-M   'P 1'
_cell_length_a   3.59807700
_cell_length_b   5.98984206
_cell_length_c   11.58744996
_cell_angle_alpha   90.14049293
_cell_angle_beta   90.00000000
_cell_angle_gamma   90.00000000
_symmetry_Int_Tables_number   1
_chemical_formula_structural   Tb4Tc3B16Ir
_chemical_formula_sum   'Tb4 Tc3 B16 Ir1'
_cell_volume   249.73096216
_cell_formula_units_Z   1
loop_
 _symmetry_equiv_pos_site_id
 _symmetry_equiv_pos_as_xyz
  1  'x, y, z'
loop_
 _atom_site_type_symbol
 _atom_site_label
 _atom_site_symmetry_multiplicity
 _atom_site_fract_x
 _atom_site_fract_y
 _atom_site_fract_z
 _atom_site_occupancy
  Tb  Tb0  1  0.500000  0.372351  0.148065  1
  Tb  Tb1  1  0.500000  0.627249  0.848331  1
  Tb  Tb2  1  0.500000  0.126734  0.651637  1
  Tb  Tb3  1  0.500000  0.874152  0.351024  1
  Tc  Tc4  1  0.500000  0.367098  0.411502  1
  Tc  Tc5  1  0.500000  0.631426  0.586238  1
  Tc  Tc6  1  0.500000  0.138822  0.909774  1
  B  B7  1  0.000000  0.114524  0.046530  1
  B  B8  1  0.000000  0.887550  0.952783  1
  B  B9  1  0.000000  0.386876  0.546349  1
  B  B10  1  0.000000  0.612753  0.452925  1
  B  B11  1  0.000000  0.136250  0.468655  1
  B  B12  1  0.000000  0.863447  0.531384  1
  B  B13  1  0.000000  0.365057  0.969226  1
  B  B14  1  0.000000  0.636719  0.030778  1
  B  B15  1  0.000000  0.027804  0.191846  1
  B  B16  1  0.000000  0.974036  0.808360  1
  B  B17  1  0.000000  0.477405  0.691728  1
  B  B18  1  0.000000  0.524557  0.307894  1
  B  B19  1  0.000000  0.212368  0.314916  1
  B  B20  1  0.000000  0.785661  0.684994  1
  B  B21  1  0.000000  0.287659  0.814557  1
  B  B22  1  0.000000  0.709534  0.185384  1
  Ir  Ir23  1  0.500000  0.859968  0.095121  1
