# generated using pymatgen
data_LaTb(ReH9)2
_symmetry_space_group_name_H-M   'P 1'
_cell_length_a   4.91462800
_cell_length_b   4.91462826
_cell_length_c   8.56695200
_cell_angle_alpha   90.00000000
_cell_angle_beta   90.00000000
_cell_angle_gamma   119.99999824
_symmetry_Int_Tables_number   1
_chemical_formula_structural   LaTb(ReH9)2
_chemical_formula_sum   'La1 Tb1 Re2 H18'
_cell_volume   179.20012048
_cell_formula_units_Z   1
loop_
 _symmetry_equiv_pos_site_id
 _symmetry_equiv_pos_as_xyz
  1  'x, y, z'
loop_
 _atom_site_type_symbol
 _atom_site_label
 _atom_site_symmetry_multiplicity
 _atom_site_fract_x
 _atom_site_fract_y
 _atom_site_fract_z
 _atom_site_occupancy
  La  La0  1  0.000000  0.000000  0.500000  1
  Tb  Tb1  1  0.000000  0.000000  0.000000  1
  Re  Re2  1  0.333333  0.666667  0.244159  1
  Re  Re3  1  0.666667  0.333333  0.755841  1
  H  H4  1  0.479432  0.520568  0.385469  1
  H  H5  1  0.479432  0.958863  0.385469  1
  H  H6  1  0.041137  0.520568  0.385469  1
  H  H7  1  0.944661  0.472330  0.901370  1
  H  H8  1  0.131096  0.262193  0.238704  1
  H  H9  1  0.868904  0.131096  0.761296  1
  H  H10  1  0.262193  0.131096  0.761296  1
  H  H11  1  0.737807  0.868904  0.238704  1
  H  H12  1  0.131096  0.868904  0.238704  1
  H  H13  1  0.868904  0.737807  0.761296  1
  H  H14  1  0.472330  0.944661  0.098630  1
  H  H15  1  0.520568  0.479432  0.614531  1
  H  H16  1  0.958863  0.479432  0.614531  1
  H  H17  1  0.055339  0.527670  0.098630  1
  H  H18  1  0.472330  0.527670  0.098630  1
  H  H19  1  0.527670  0.055339  0.901370  1
  H  H20  1  0.527670  0.472330  0.901370  1
  H  H21  1  0.520568  0.041137  0.614531  1
