# generated using pymatgen
data_La2Pr3Nd3(MoO6)4
_symmetry_space_group_name_H-M   'P 1'
_cell_length_a   10.29735595
_cell_length_b   10.30188618
_cell_length_c   5.63009640
_cell_angle_alpha   75.25662352
_cell_angle_beta   75.28414969
_cell_angle_gamma   68.69958161
_symmetry_Int_Tables_number   1
_chemical_formula_structural   La2Pr3Nd3(MoO6)4
_chemical_formula_sum   'La2 Pr3 Nd3 Mo4 O24'
_cell_volume   529.40889508
_cell_formula_units_Z   1
loop_
 _symmetry_equiv_pos_site_id
 _symmetry_equiv_pos_as_xyz
  1  'x, y, z'
loop_
 _atom_site_type_symbol
 _atom_site_label
 _atom_site_symmetry_multiplicity
 _atom_site_fract_x
 _atom_site_fract_y
 _atom_site_fract_z
 _atom_site_occupancy
  La  La0  1  0.634591  0.365197  0.750147  1
  La  La1  1  0.365561  0.634625  0.249945  1
  Pr  Pr2  1  0.288211  0.056302  0.117644  1
  Pr  Pr3  1  0.056438  0.287697  0.617844  1
  Pr  Pr4  1  0.943009  0.712518  0.382155  1
  Nd  Nd5  1  0.108553  0.891415  0.749961  1
  Nd  Nd6  1  0.890971  0.108636  0.249985  1
  Nd  Nd7  1  0.712870  0.943910  0.880678  1
  Mo  Mo8  1  0.508075  0.799125  0.558699  1
  Mo  Mo9  1  0.492457  0.200756  0.441256  1
  Mo  Mo10  1  0.201043  0.492232  0.940977  1
  Mo  Mo11  1  0.798871  0.508034  0.059037  1
  O  O12  1  0.687205  0.161647  0.583670  1
  O  O13  1  0.313108  0.837498  0.417805  1
  O  O14  1  0.837362  0.313097  0.917960  1
  O  O15  1  0.162443  0.687031  0.082252  1
  O  O16  1  0.385122  0.829508  0.856492  1
  O  O17  1  0.615005  0.170380  0.143207  1
  O  O18  1  0.170449  0.615072  0.642802  1
  O  O19  1  0.829453  0.385048  0.357115  1
  O  O20  1  0.674623  0.788921  0.636916  1
  O  O21  1  0.325357  0.211616  0.364526  1
  O  O22  1  0.211772  0.325265  0.864194  1
  O  O23  1  0.788095  0.675155  0.135175  1
  O  O24  1  0.474783  0.070913  0.734482  1
  O  O25  1  0.526908  0.928275  0.264491  1
  O  O26  1  0.928604  0.525981  0.765814  1
  O  O27  1  0.071347  0.474105  0.234103  1
  O  O28  1  0.545241  0.619019  0.518204  1
  O  O29  1  0.455136  0.380889  0.481861  1
  O  O30  1  0.381267  0.454875  0.981944  1
  O  O31  1  0.618737  0.545095  0.018042  1
  O  O32  1  0.891168  0.924520  0.077346  1
  O  O33  1  0.107445  0.075581  0.922155  1
  O  O34  1  0.075670  0.107447  0.421958  1
  O  O35  1  0.923050  0.892617  0.579155  1
