# generated using pymatgen
data_Sc12Si12OsRu3
_symmetry_space_group_name_H-M   'P 1'
_cell_length_a   3.99231400
_cell_length_b   10.32022808
_cell_length_c   11.73275409
_cell_angle_alpha   90.01449139
_cell_angle_beta   90.00000000
_cell_angle_gamma   90.00000000
_symmetry_Int_Tables_number   1
_chemical_formula_structural   Sc12Si12OsRu3
_chemical_formula_sum   'Sc12 Si12 Os1 Ru3'
_cell_volume   483.40812068
_cell_formula_units_Z   1
loop_
 _symmetry_equiv_pos_site_id
 _symmetry_equiv_pos_as_xyz
  1  'x, y, z'
loop_
 _atom_site_type_symbol
 _atom_site_label
 _atom_site_symmetry_multiplicity
 _atom_site_fract_x
 _atom_site_fract_y
 _atom_site_fract_z
 _atom_site_occupancy
  Sc  Sc0  1  0.250000  0.876988  0.019127  1
  Sc  Sc1  1  0.250000  0.622746  0.519232  1
  Sc  Sc2  1  0.750000  0.122884  0.980939  1
  Sc  Sc3  1  0.750000  0.376905  0.481559  1
  Sc  Sc4  1  0.250000  0.921921  0.604298  1
  Sc  Sc5  1  0.250000  0.578091  0.104268  1
  Sc  Sc6  1  0.750000  0.078098  0.395663  1
  Sc  Sc7  1  0.750000  0.421912  0.894956  1
  Sc  Sc8  1  0.250000  0.660356  0.797987  1
  Sc  Sc9  1  0.250000  0.839948  0.298065  1
  Sc  Sc10  1  0.750000  0.339834  0.201948  1
  Sc  Sc11  1  0.750000  0.160159  0.702082  1
  Si  Si12  1  0.250000  0.015994  0.822520  1
  Si  Si13  1  0.250000  0.484055  0.322255  1
  Si  Si14  1  0.750000  0.983872  0.177500  1
  Si  Si15  1  0.750000  0.516126  0.677719  1
  Si  Si16  1  0.250000  0.251966  0.842917  1
  Si  Si17  1  0.250000  0.247675  0.342892  1
  Si  Si18  1  0.750000  0.747525  0.157254  1
  Si  Si19  1  0.750000  0.752562  0.657010  1
  Si  Si20  1  0.250000  0.194687  0.545889  1
  Si  Si21  1  0.250000  0.305986  0.045395  1
  Si  Si22  1  0.750000  0.805716  0.454476  1
  Si  Si23  1  0.750000  0.694106  0.954524  1
  Os  Os24  1  0.250000  0.390215  0.676894  1
  Ru  Ru25  1  0.250000  0.109824  0.177389  1
  Ru  Ru26  1  0.750000  0.609709  0.322668  1
  Ru  Ru27  1  0.750000  0.890140  0.822575  1
