# generated using pymatgen
data_K3LiCu2(BSe)18
_symmetry_space_group_name_H-M   'P 1'
_cell_length_a   9.91010219
_cell_length_b   10.71850515
_cell_length_c   11.27002700
_cell_angle_alpha   100.13165010
_cell_angle_beta   90.77098178
_cell_angle_gamma   116.36504221
_symmetry_Int_Tables_number   1
_chemical_formula_structural   K3LiCu2(BSe)18
_chemical_formula_sum   'K3 Li1 Cu2 B18 Se18'
_cell_volume   1050.16568812
_cell_formula_units_Z   1
loop_
 _symmetry_equiv_pos_site_id
 _symmetry_equiv_pos_as_xyz
  1  'x, y, z'
loop_
 _atom_site_type_symbol
 _atom_site_label
 _atom_site_symmetry_multiplicity
 _atom_site_fract_x
 _atom_site_fract_y
 _atom_site_fract_z
 _atom_site_occupancy
  K  K0  1  0.803039  0.160441  0.015607  1
  K  K1  1  0.200401  0.853102  0.002759  1
  K  K2  1  0.165179  0.333093  0.467213  1
  Li  Li3  1  0.717782  0.642447  0.628495  1
  Cu  Cu4  1  0.324670  0.326255  0.085553  1
  Cu  Cu5  1  0.684515  0.674124  0.907221  1
  B  B6  1  0.514567  0.161301  0.548633  1
  B  B7  1  0.490581  0.836231  0.445696  1
  B  B8  1  0.668890  0.125681  0.579252  1
  B  B9  1  0.336326  0.872899  0.415626  1
  B  B10  1  0.496136  0.043954  0.647262  1
  B  B11  1  0.509205  0.954674  0.348239  1
  B  B12  1  0.339798  0.003457  0.542601  1
  B  B13  1  0.665749  0.995450  0.452355  1
  B  B14  1  0.415062  0.057020  0.405677  1
  B  B15  1  0.589846  0.941388  0.588574  1
  B  B16  1  0.616738  0.131730  0.429040  1
  B  B17  1  0.388686  0.867024  0.565634  1
  B  B18  1  0.752499  0.422157  0.708026  1
  B  B19  1  0.256738  0.580960  0.280581  1
  B  B20  1  0.271688  0.097927  0.790813  1
  B  B21  1  0.733880  0.903248  0.203842  1
  B  B22  1  0.546305  0.267798  0.248288  1
  B  B23  1  0.457676  0.733008  0.750149  1
  Se  Se24  1  0.548063  0.358774  0.628946  1
  Se  Se25  1  0.454907  0.637618  0.369130  1
  Se  Se26  1  0.847018  0.292654  0.685011  1
  Se  Se27  1  0.159854  0.708488  0.307514  1
  Se  Se28  1  0.469534  0.101698  0.822417  1
  Se  Se29  1  0.535404  0.897139  0.173291  1
  Se  Se30  1  0.169206  0.028424  0.623188  1
  Se  Se31  1  0.837072  0.972278  0.371355  1
  Se  Se32  1  0.341813  0.140335  0.287129  1
  Se  Se33  1  0.663165  0.861027  0.710503  1
  Se  Se34  1  0.728278  0.285865  0.336520  1
  Se  Se35  1  0.276554  0.713874  0.660319  1
  Se  Se36  1  0.866280  0.617601  0.802371  1
  Se  Se37  1  0.144337  0.394492  0.173359  1
  Se  Se38  1  0.161408  0.145578  0.918147  1
  Se  Se39  1  0.842384  0.855816  0.074745  1
  Se  Se40  1  0.574191  0.375307  0.120101  1
  Se  Se41  1  0.434571  0.627664  0.878822  1
