# generated using pymatgen
data_YHo4(In2Rh)2
_symmetry_space_group_name_H-M   'P 1'
_cell_length_a   8.00662900
_cell_length_b   18.33446100
_cell_length_c   3.61537400
_cell_angle_alpha   90.00000000
_cell_angle_beta   90.00000000
_cell_angle_gamma   90.00000000
_symmetry_Int_Tables_number   1
_chemical_formula_structural   YHo4(In2Rh)2
_chemical_formula_sum   'Y2 Ho8 In8 Rh4'
_cell_volume   530.72687828
_cell_formula_units_Z   2
loop_
 _symmetry_equiv_pos_site_id
 _symmetry_equiv_pos_as_xyz
  1  'x, y, z'
loop_
 _atom_site_type_symbol
 _atom_site_label
 _atom_site_symmetry_multiplicity
 _atom_site_fract_x
 _atom_site_fract_y
 _atom_site_fract_z
 _atom_site_occupancy
  Y  Y0  1  0.500000  0.500000  0.000000  1
  Y  Y1  1  0.000000  0.000000  0.000000  1
  Ho  Ho2  1  0.758084  0.278255  0.000000  1
  Ho  Ho3  1  0.241916  0.721745  0.000000  1
  Ho  Ho4  1  0.741916  0.778255  0.000000  1
  Ho  Ho5  1  0.258084  0.221745  0.000000  1
  Ho  Ho6  1  0.623286  0.088710  0.000000  1
  Ho  Ho7  1  0.376714  0.911290  0.000000  1
  Ho  Ho8  1  0.876714  0.588710  0.000000  1
  Ho  Ho9  1  0.123286  0.411290  0.000000  1
  In  In10  1  0.702115  0.931668  0.500000  1
  In  In11  1  0.297885  0.068332  0.500000  1
  In  In12  1  0.797885  0.431668  0.500000  1
  In  In13  1  0.202115  0.568332  0.500000  1
  In  In14  1  0.561269  0.650360  0.500000  1
  In  In15  1  0.438731  0.349640  0.500000  1
  In  In16  1  0.938731  0.150360  0.500000  1
  In  In17  1  0.061269  0.849640  0.500000  1
  Rh  Rh18  1  0.534614  0.195086  0.500000  1
  Rh  Rh19  1  0.465386  0.804914  0.500000  1
  Rh  Rh20  1  0.965386  0.695086  0.500000  1
  Rh  Rh21  1  0.034614  0.304914  0.500000  1
