# generated using pymatgen
data_RbOs2Cl11
_symmetry_space_group_name_H-M   'P 1'
_cell_length_a   7.22566221
_cell_length_b   7.30411851
_cell_length_c   17.56283089
_cell_angle_alpha   79.31601174
_cell_angle_beta   79.27294286
_cell_angle_gamma   89.05334691
_symmetry_Int_Tables_number   1
_chemical_formula_structural   RbOs2Cl11
_chemical_formula_sum   'Rb2 Os4 Cl22'
_cell_volume   894.77442364
_cell_formula_units_Z   2
loop_
 _symmetry_equiv_pos_site_id
 _symmetry_equiv_pos_as_xyz
  1  'x, y, z'
loop_
 _atom_site_type_symbol
 _atom_site_label
 _atom_site_symmetry_multiplicity
 _atom_site_fract_x
 _atom_site_fract_y
 _atom_site_fract_z
 _atom_site_occupancy
  Rb  Rb0  1  0.749402  0.750733  0.503062  1
  Rb  Rb1  1  0.250598  0.249267  0.496938  1
  Os  Os2  1  0.320597  0.817847  0.348202  1
  Os  Os3  1  0.679403  0.182153  0.651798  1
  Os  Os4  1  0.844111  0.340276  0.081608  1
  Os  Os5  1  0.155889  0.659724  0.918392  1
  Cl  Cl6  1  0.253761  0.771960  0.489421  1
  Cl  Cl7  1  0.746239  0.228040  0.510579  1
  Cl  Cl8  1  0.564844  0.019796  0.349075  1
  Cl  Cl9  1  0.435156  0.980204  0.650925  1
  Cl  Cl10  1  0.527008  0.569412  0.358190  1
  Cl  Cl11  1  0.472992  0.430588  0.641810  1
  Cl  Cl12  1  0.381635  0.856970  0.215223  1
  Cl  Cl13  1  0.618365  0.143030  0.784777  1
  Cl  Cl14  1  0.072957  0.610305  0.356263  1
  Cl  Cl15  1  0.927043  0.389695  0.643737  1
  Cl  Cl16  1  0.113218  0.064047  0.345291  1
  Cl  Cl17  1  0.886782  0.935953  0.654709  1
  Cl  Cl18  1  0.893253  0.051590  0.145032  1
  Cl  Cl19  1  0.106747  0.948410  0.854968  1
  Cl  Cl20  1  0.550403  0.376928  0.146498  1
  Cl  Cl21  1  0.449597  0.623072  0.853502  1
  Cl  Cl22  1  0.728824  0.222683  0.987196  1
  Cl  Cl23  1  0.271176  0.777317  0.012804  1
  Cl  Cl24  1  0.972800  0.473285  0.168381  1
  Cl  Cl25  1  0.027200  0.526715  0.831619  1
  Cl  Cl26  1  0.160829  0.346693  0.999510  1
  Cl  Cl27  1  0.839171  0.653307  0.000490  1
