# generated using pymatgen
data_Tb2Si14NiIr5
_symmetry_space_group_name_H-M   'P 1'
_cell_length_a   8.01512845
_cell_length_b   7.97944457
_cell_length_c   7.97944435
_cell_angle_alpha   56.91790817
_cell_angle_beta   57.23657238
_cell_angle_gamma   57.23657546
_symmetry_Int_Tables_number   1
_chemical_formula_structural   Tb2Si14NiIr5
_chemical_formula_sum   'Tb2 Si14 Ni1 Ir5'
_cell_volume   336.99229618
_cell_formula_units_Z   1
loop_
 _symmetry_equiv_pos_site_id
 _symmetry_equiv_pos_as_xyz
  1  'x, y, z'
loop_
 _atom_site_type_symbol
 _atom_site_label
 _atom_site_symmetry_multiplicity
 _atom_site_fract_x
 _atom_site_fract_y
 _atom_site_fract_z
 _atom_site_occupancy
  Tb  Tb0  1  0.500313  0.497608  0.500195  1
  Tb  Tb1  1  0.999687  0.999805  0.002392  1
  Si  Si2  1  0.849989  0.058133  0.670948  1
  Si  Si3  1  0.669844  0.851967  0.069477  1
  Si  Si4  1  0.065380  0.670414  0.853192  1
  Si  Si5  1  0.650011  0.829052  0.441867  1
  Si  Si6  1  0.250000  0.250781  0.249219  1
  Si  Si7  1  0.750000  0.756875  0.743125  1
  Si  Si8  1  0.166150  0.576108  0.351656  1
  Si  Si9  1  0.573032  0.346228  0.176702  1
  Si  Si10  1  0.350055  0.178635  0.560074  1
  Si  Si11  1  0.926968  0.323298  0.153772  1
  Si  Si12  1  0.333850  0.148344  0.923892  1
  Si  Si13  1  0.149945  0.939926  0.321365  1
  Si  Si14  1  0.830156  0.430523  0.648033  1
  Si  Si15  1  0.434620  0.646808  0.829586  1
  Ni  Ni16  1  0.750000  0.067607  0.432393  1
  Ir  Ir17  1  0.434852  0.748775  0.066408  1
  Ir  Ir18  1  0.065148  0.433592  0.751225  1
  Ir  Ir19  1  0.250000  0.928939  0.571061  1
  Ir  Ir20  1  0.570890  0.247900  0.931316  1
  Ir  Ir21  1  0.929110  0.568684  0.252100  1
