# generated using pymatgen
data_Na2NpO3
_symmetry_space_group_name_H-M   'P 1'
_cell_length_a   11.40617443
_cell_length_b   10.85393507
_cell_length_c   5.96333001
_cell_angle_alpha   79.64500708
_cell_angle_beta   69.40426343
_cell_angle_gamma   30.95073590
_symmetry_Int_Tables_number   1
_chemical_formula_structural   Na2NpO3
_chemical_formula_sum   'Na8 Np4 O12'
_cell_volume   343.83641216
_cell_formula_units_Z   4
loop_
 _symmetry_equiv_pos_site_id
 _symmetry_equiv_pos_as_xyz
  1  'x, y, z'
loop_
 _atom_site_type_symbol
 _atom_site_label
 _atom_site_symmetry_multiplicity
 _atom_site_fract_x
 _atom_site_fract_y
 _atom_site_fract_z
 _atom_site_occupancy
  Na  Na0  1  0.995466  0.995466  0.504534  1
  Na  Na1  1  0.421323  0.421323  0.578677  1
  Na  Na2  1  0.828677  0.828677  0.671323  1
  Na  Na3  1  0.254534  0.254534  0.745466  1
  Na  Na4  1  0.745466  0.745466  0.254534  1
  Na  Na5  1  0.671323  0.671323  0.828677  1
  Na  Na6  1  0.578677  0.578677  0.421323  1
  Na  Na7  1  0.504534  0.504534  0.995466  1
  Np  Np8  1  0.916194  0.916194  0.083806  1
  Np  Np9  1  0.333806  0.333806  0.166194  1
  Np  Np10  1  0.166194  0.166194  0.333806  1
  Np  Np11  1  0.083806  0.083806  0.916194  1
  O  O12  1  0.152258  0.665238  0.307623  1
  O  O13  1  0.665238  0.152258  0.874880  1
  O  O14  1  0.097742  0.584762  0.942377  1
  O  O15  1  0.584762  0.097742  0.375120  1
  O  O16  1  0.035518  0.464482  0.464482  1
  O  O17  1  0.464482  0.035518  0.035518  1
  O  O18  1  0.375120  0.942377  0.584762  1
  O  O19  1  0.942377  0.375120  0.097742  1
  O  O20  1  0.874880  0.307623  0.665238  1
  O  O21  1  0.307623  0.874880  0.152258  1
  O  O22  1  0.214482  0.785518  0.785518  1
  O  O23  1  0.785518  0.214482  0.214482  1
