# generated using pymatgen
data_Nb6Ga4CuIrN2
_symmetry_space_group_name_H-M   'P 1'
_cell_length_a   8.33409226
_cell_length_b   8.28329023
_cell_length_c   8.28329065
_cell_angle_alpha   59.53572812
_cell_angle_beta   59.79692152
_cell_angle_gamma   59.79691691
_symmetry_Int_Tables_number   1
_chemical_formula_structural   Nb6Ga4CuIrN2
_chemical_formula_sum   'Nb12 Ga8 Cu2 Ir2 N4'
_cell_volume   401.67191330
_cell_formula_units_Z   2
loop_
 _symmetry_equiv_pos_site_id
 _symmetry_equiv_pos_as_xyz
  1  'x, y, z'
loop_
 _atom_site_type_symbol
 _atom_site_label
 _atom_site_symmetry_multiplicity
 _atom_site_fract_x
 _atom_site_fract_y
 _atom_site_fract_z
 _atom_site_occupancy
  Nb  Nb0  1  0.810258  0.811881  0.186661  1
  Nb  Nb1  1  0.191200  0.186661  0.811881  1
  Nb  Nb2  1  0.810258  0.186661  0.811881  1
  Nb  Nb3  1  0.191200  0.811881  0.186661  1
  Nb  Nb4  1  0.184316  0.815684  0.815684  1
  Nb  Nb5  1  0.806931  0.193069  0.193069  1
  Nb  Nb6  1  0.439742  0.438119  0.063339  1
  Nb  Nb7  1  0.058800  0.063339  0.438119  1
  Nb  Nb8  1  0.439742  0.063339  0.438119  1
  Nb  Nb9  1  0.058800  0.438119  0.063339  1
  Nb  Nb10  1  0.065684  0.434316  0.434316  1
  Nb  Nb11  1  0.443069  0.056931  0.056931  1
  Ga  Ga12  1  0.756820  0.412488  0.412488  1
  Ga  Ga13  1  0.415200  0.759337  0.410264  1
  Ga  Ga14  1  0.415200  0.410264  0.759337  1
  Ga  Ga15  1  0.418204  0.412488  0.412488  1
  Ga  Ga16  1  0.493180  0.837512  0.837512  1
  Ga  Ga17  1  0.834800  0.490663  0.839736  1
  Ga  Ga18  1  0.834800  0.839736  0.490663  1
  Ga  Ga19  1  0.831796  0.837512  0.837512  1
  Cu  Cu20  1  0.625000  0.125000  0.625000  1
  Cu  Cu21  1  0.625000  0.625000  0.125000  1
  Ir  Ir22  1  0.125000  0.625000  0.625000  1
  Ir  Ir23  1  0.625000  0.625000  0.625000  1
  N  N24  1  0.625000  0.125000  0.125000  1
  N  N25  1  0.125000  0.625000  0.125000  1
  N  N26  1  0.125000  0.125000  0.625000  1
  N  N27  1  0.125000  0.125000  0.125000  1
