# generated using pymatgen
data_Lu8Hf12Si15P
_symmetry_space_group_name_H-M   'P 1'
_cell_length_a   7.21147083
_cell_length_b   7.21587003
_cell_length_c   13.24703002
_cell_angle_alpha   89.82851214
_cell_angle_beta   89.92525661
_cell_angle_gamma   90.02208912
_symmetry_Int_Tables_number   1
_chemical_formula_structural   Lu8Hf12Si15P
_chemical_formula_sum   'Lu8 Hf12 Si15 P1'
_cell_volume   689.33245502
_cell_formula_units_Z   1
loop_
 _symmetry_equiv_pos_site_id
 _symmetry_equiv_pos_as_xyz
  1  'x, y, z'
loop_
 _atom_site_type_symbol
 _atom_site_label
 _atom_site_symmetry_multiplicity
 _atom_site_fract_x
 _atom_site_fract_y
 _atom_site_fract_z
 _atom_site_occupancy
  Lu  Lu0  1  0.998163  0.345232  0.215957  1
  Lu  Lu1  1  0.004720  0.655781  0.715257  1
  Lu  Lu2  1  0.154805  0.496821  0.465070  1
  Lu  Lu3  1  0.506538  0.843012  0.033871  1
  Lu  Lu4  1  0.844450  0.503427  0.965152  1
  Lu  Lu5  1  0.495885  0.154842  0.534810  1
  Lu  Lu6  1  0.345361  0.996154  0.784966  1
  Lu  Lu7  1  0.652733  0.005719  0.284399  1
  Hf  Hf8  1  0.174517  0.174852  0.000330  1
  Hf  Hf9  1  0.826337  0.826244  0.499791  1
  Hf  Hf10  1  0.324885  0.674626  0.250442  1
  Hf  Hf11  1  0.674642  0.325561  0.750059  1
  Hf  Hf12  1  0.151229  0.000800  0.372957  1
  Hf  Hf13  1  0.851831  0.002377  0.875168  1
  Hf  Hf14  1  0.502029  0.648837  0.624836  1
  Hf  Hf15  1  0.352379  0.497736  0.875196  1
  Hf  Hf16  1  0.495135  0.348685  0.127755  1
  Hf  Hf17  1  0.647171  0.501428  0.375534  1
  Hf  Hf18  1  0.998230  0.149083  0.625048  1
  Hf  Hf19  1  0.999780  0.849640  0.124325  1
  Si  Si20  1  0.639869  0.705340  0.817768  1
  Si  Si21  1  0.204135  0.861129  0.567059  1
  Si  Si22  1  0.139671  0.794469  0.931365  1
  Si  Si23  1  0.794689  0.140771  0.068447  1
  Si  Si24  1  0.860486  0.204682  0.431671  1
  Si  Si25  1  0.295564  0.359890  0.681843  1
  Si  Si26  1  0.703528  0.638078  0.182694  1
  Si  Si27  1  0.296694  0.040328  0.181188  1
  Si  Si28  1  0.702857  0.951920  0.685538  1
  Si  Si29  1  0.452098  0.798200  0.435714  1
  Si  Si30  1  0.202343  0.547343  0.064530  1
  Si  Si31  1  0.548420  0.202494  0.936188  1
  Si  Si32  1  0.797351  0.452148  0.564746  1
  Si  Si33  1  0.048598  0.297748  0.814241  1
  Si  Si34  1  0.952030  0.702957  0.314979  1
  P  P35  1  0.360846  0.301648  0.321105  1
