# generated using pymatgen
data_Th3MgZn2C
_symmetry_space_group_name_H-M   'P 1'
_cell_length_a   9.61151015
_cell_length_b   9.61150997
_cell_length_c   9.61150900
_cell_angle_alpha   59.99999991
_cell_angle_beta   60.00000051
_cell_angle_gamma   59.99999974
_symmetry_Int_Tables_number   1
_chemical_formula_structural   Th3MgZn2C
_chemical_formula_sum   'Th12 Mg4 Zn8 C4'
_cell_volume   627.85568271
_cell_formula_units_Z   4
loop_
 _symmetry_equiv_pos_site_id
 _symmetry_equiv_pos_as_xyz
  1  'x, y, z'
loop_
 _atom_site_type_symbol
 _atom_site_label
 _atom_site_symmetry_multiplicity
 _atom_site_fract_x
 _atom_site_fract_y
 _atom_site_fract_z
 _atom_site_occupancy
  Th  Th0  1  0.440293  0.440293  0.059707  1
  Th  Th1  1  0.059707  0.440293  0.059707  1
  Th  Th2  1  0.440293  0.059707  0.059707  1
  Th  Th3  1  0.059707  0.059707  0.440293  1
  Th  Th4  1  0.440293  0.059707  0.440293  1
  Th  Th5  1  0.059707  0.440293  0.440293  1
  Th  Th6  1  0.809707  0.809707  0.190293  1
  Th  Th7  1  0.190293  0.809707  0.190293  1
  Th  Th8  1  0.809707  0.190293  0.190293  1
  Th  Th9  1  0.190293  0.190293  0.809707  1
  Th  Th10  1  0.809707  0.190293  0.809707  1
  Th  Th11  1  0.190293  0.809707  0.809707  1
  Mg  Mg12  1  0.625000  0.625000  0.125000  1
  Mg  Mg13  1  0.625000  0.125000  0.625000  1
  Mg  Mg14  1  0.125000  0.625000  0.625000  1
  Mg  Mg15  1  0.625000  0.625000  0.625000  1
  Zn  Zn16  1  0.827739  0.827739  0.516782  1
  Zn  Zn17  1  0.827739  0.516782  0.827739  1
  Zn  Zn18  1  0.516782  0.827739  0.827739  1
  Zn  Zn19  1  0.827739  0.827739  0.827739  1
  Zn  Zn20  1  0.422261  0.422261  0.733218  1
  Zn  Zn21  1  0.422261  0.733218  0.422261  1
  Zn  Zn22  1  0.733218  0.422261  0.422261  1
  Zn  Zn23  1  0.422261  0.422261  0.422261  1
  C  C24  1  0.125000  0.125000  0.625000  1
  C  C25  1  0.125000  0.625000  0.125000  1
  C  C26  1  0.625000  0.125000  0.125000  1
  C  C27  1  0.125000  0.125000  0.125000  1
