# generated using pymatgen
data_Zn22IrPt2
_symmetry_space_group_name_H-M   'P 1'
_cell_length_a   7.81134742
_cell_length_b   7.81134756
_cell_length_c   7.83182038
_cell_angle_alpha   71.95136348
_cell_angle_beta   71.95136606
_cell_angle_gamma   58.44328420
_symmetry_Int_Tables_number   1
_chemical_formula_structural   Zn22IrPt2
_chemical_formula_sum   'Zn22 Ir1 Pt2'
_cell_volume   380.68496871
_cell_formula_units_Z   1
loop_
 _symmetry_equiv_pos_site_id
 _symmetry_equiv_pos_as_xyz
  1  'x, y, z'
loop_
 _atom_site_type_symbol
 _atom_site_label
 _atom_site_symmetry_multiplicity
 _atom_site_fract_x
 _atom_site_fract_y
 _atom_site_fract_z
 _atom_site_occupancy
  Zn  Zn0  1  0.340460  0.740773  0.314528  1
  Zn  Zn1  1  0.659540  0.259227  0.685472  1
  Zn  Zn2  1  0.259227  0.659540  0.685472  1
  Zn  Zn3  1  0.740773  0.340460  0.314528  1
  Zn  Zn4  1  0.682511  0.317489  0.000000  1
  Zn  Zn5  1  0.317489  0.682511  0.000000  1
  Zn  Zn6  1  0.831467  0.831467  0.782869  1
  Zn  Zn7  1  0.168533  0.168533  0.217131  1
  Zn  Zn8  1  0.974655  0.974655  0.172472  1
  Zn  Zn9  1  0.025345  0.025345  0.827528  1
  Zn  Zn10  1  0.352517  0.352517  0.278399  1
  Zn  Zn11  1  0.647483  0.647483  0.721601  1
  Zn  Zn12  1  0.686343  0.686343  0.380986  1
  Zn  Zn13  1  0.313657  0.313657  0.619014  1
  Zn  Zn14  1  0.658203  0.024553  0.457907  1
  Zn  Zn15  1  0.341797  0.975447  0.542093  1
  Zn  Zn16  1  0.975447  0.341797  0.542093  1
  Zn  Zn17  1  0.024553  0.658203  0.457907  1
  Zn  Zn18  1  0.620760  0.999479  0.108069  1
  Zn  Zn19  1  0.379240  0.000521  0.891931  1
  Zn  Zn20  1  0.000521  0.379240  0.891931  1
  Zn  Zn21  1  0.999479  0.620760  0.108069  1
  Ir  Ir22  1  0.000000  0.000000  0.500000  1
  Pt  Pt23  1  0.658153  0.658153  0.055878  1
  Pt  Pt24  1  0.341847  0.341847  0.944122  1
