# generated using pymatgen
data_Ce8Tm12Si15Sb
_symmetry_space_group_name_H-M   'P 1'
_cell_length_a   7.42643500
_cell_length_b   7.70711725
_cell_length_c   14.56575000
_cell_angle_alpha   90.00000000
_cell_angle_beta   90.00000000
_cell_angle_gamma   90.35776282
_symmetry_Int_Tables_number   1
_chemical_formula_structural   Ce8Tm12Si15Sb
_chemical_formula_sum   'Ce8 Tm12 Si15 Sb1'
_cell_volume   833.67491764
_cell_formula_units_Z   1
loop_
 _symmetry_equiv_pos_site_id
 _symmetry_equiv_pos_as_xyz
  1  'x, y, z'
loop_
 _atom_site_type_symbol
 _atom_site_label
 _atom_site_symmetry_multiplicity
 _atom_site_fract_x
 _atom_site_fract_y
 _atom_site_fract_z
 _atom_site_occupancy
  Ce  Ce0  1  0.993746  0.164997  0.089956  1
  Ce  Ce1  1  0.479005  0.325086  0.404802  1
  Ce  Ce2  1  0.516105  0.675713  0.902455  1
  Ce  Ce3  1  0.015392  0.823379  0.598220  1
  Ce  Ce4  1  0.015392  0.823379  0.901780  1
  Ce  Ce5  1  0.516105  0.675713  0.597545  1
  Ce  Ce6  1  0.479005  0.325086  0.095198  1
  Ce  Ce7  1  0.993746  0.164997  0.410044  1
  Tm  Tm8  1  0.654308  0.998449  0.250000  1
  Tm  Tm9  1  0.173094  0.490748  0.250000  1
  Tm  Tm10  1  0.839331  0.515122  0.750000  1
  Tm  Tm11  1  0.338823  0.985687  0.750000  1
  Tm  Tm12  1  0.828622  0.684219  0.121032  1
  Tm  Tm13  1  0.322163  0.823464  0.378888  1
  Tm  Tm14  1  0.672934  0.178998  0.876344  1
  Tm  Tm15  1  0.172713  0.321824  0.624023  1
  Tm  Tm16  1  0.172713  0.321824  0.875977  1
  Tm  Tm17  1  0.672934  0.178998  0.623656  1
  Tm  Tm18  1  0.322163  0.823464  0.121112  1
  Tm  Tm19  1  0.828622  0.684219  0.378968  1
  Si  Si20  1  0.282658  0.126017  0.250000  1
  Si  Si21  1  0.718216  0.876866  0.750000  1
  Si  Si22  1  0.219360  0.623572  0.750000  1
  Si  Si23  1  0.031522  0.889952  0.250000  1
  Si  Si24  1  0.527226  0.630165  0.250000  1
  Si  Si25  1  0.466438  0.391034  0.750000  1
  Si  Si26  1  0.965608  0.108777  0.750000  1
  Si  Si27  1  0.847268  0.468221  0.961524  1
  Si  Si28  1  0.346938  0.031668  0.540258  1
  Si  Si29  1  0.650689  0.971730  0.038501  1
  Si  Si30  1  0.150477  0.530392  0.461716  1
  Si  Si31  1  0.150477  0.530392  0.038284  1
  Si  Si32  1  0.650689  0.971730  0.461499  1
  Si  Si33  1  0.346938  0.031668  0.959742  1
  Si  Si34  1  0.847268  0.468221  0.538476  1
  Sb  Sb35  1  0.791317  0.364233  0.250000  1
