# generated using pymatgen
data_Pr2Y5(LuSb2)3
_symmetry_space_group_name_H-M   'P 1'
_cell_length_a   8.11295100
_cell_length_b   9.29734702
_cell_length_c   11.87642900
_cell_angle_alpha   90.00341408
_cell_angle_beta   90.00000000
_cell_angle_gamma   90.00000000
_symmetry_Int_Tables_number   1
_chemical_formula_structural   Pr2Y5(LuSb2)3
_chemical_formula_sum   'Pr4 Y10 Lu6 Sb12'
_cell_volume   895.82622054
_cell_formula_units_Z   2
loop_
 _symmetry_equiv_pos_site_id
 _symmetry_equiv_pos_as_xyz
  1  'x, y, z'
loop_
 _atom_site_type_symbol
 _atom_site_label
 _atom_site_symmetry_multiplicity
 _atom_site_fract_x
 _atom_site_fract_y
 _atom_site_fract_z
 _atom_site_occupancy
  Pr  Pr0  1  0.182777  0.749768  0.721025  1
  Pr  Pr1  1  0.682777  0.750232  0.778975  1
  Pr  Pr2  1  0.817620  0.249807  0.279238  1
  Pr  Pr3  1  0.317620  0.250193  0.220762  1
  Y  Y4  1  0.691546  0.938917  0.059841  1
  Y  Y5  1  0.191546  0.561083  0.440159  1
  Y  Y6  1  0.692812  0.559536  0.060753  1
  Y  Y7  1  0.192812  0.940464  0.439247  1
  Y  Y8  1  0.307429  0.059411  0.939455  1
  Y  Y9  1  0.807429  0.440589  0.560545  1
  Y  Y10  1  0.353649  0.750316  0.216128  1
  Y  Y11  1  0.853649  0.749684  0.283872  1
  Y  Y12  1  0.647055  0.249637  0.783490  1
  Y  Y13  1  0.147055  0.250363  0.716510  1
  Lu  Lu14  1  0.027113  0.749588  0.988513  1
  Lu  Lu15  1  0.527113  0.750412  0.511487  1
  Lu  Lu16  1  0.974096  0.250408  0.011009  1
  Lu  Lu17  1  0.474096  0.249592  0.488991  1
  Lu  Lu18  1  0.307360  0.436029  0.939235  1
  Lu  Lu19  1  0.807360  0.063971  0.560765  1
  Sb  Sb20  1  0.435427  0.008727  0.668596  1
  Sb  Sb21  1  0.935427  0.491273  0.831404  1
  Sb  Sb22  1  0.565149  0.508850  0.331325  1
  Sb  Sb23  1  0.065149  0.991150  0.168675  1
  Sb  Sb24  1  0.565579  0.991295  0.331741  1
  Sb  Sb25  1  0.065579  0.508705  0.168259  1
  Sb  Sb26  1  0.434219  0.491094  0.668735  1
  Sb  Sb27  1  0.934219  0.008906  0.831265  1
  Sb  Sb28  1  0.405777  0.745198  0.963727  1
  Sb  Sb29  1  0.905777  0.754802  0.536273  1
  Sb  Sb30  1  0.592389  0.250294  0.035044  1
  Sb  Sb31  1  0.092389  0.249706  0.464956  1
