# generated using pymatgen
data_Zr10CuSn4Bi2P
_symmetry_space_group_name_H-M   'P 1'
_cell_length_a   8.70256538
_cell_length_b   8.70799322
_cell_length_c   5.91848663
_cell_angle_alpha   90.06354020
_cell_angle_beta   89.87284027
_cell_angle_gamma   119.97939058
_symmetry_Int_Tables_number   1
_chemical_formula_structural   Zr10CuSn4Bi2P
_chemical_formula_sum   'Zr10 Cu1 Sn4 Bi2 P1'
_cell_volume   388.50424118
_cell_formula_units_Z   1
loop_
 _symmetry_equiv_pos_site_id
 _symmetry_equiv_pos_as_xyz
  1  'x, y, z'
loop_
 _atom_site_type_symbol
 _atom_site_label
 _atom_site_symmetry_multiplicity
 _atom_site_fract_x
 _atom_site_fract_y
 _atom_site_fract_z
 _atom_site_occupancy
  Zr  Zr0  1  0.742755  0.000000  0.256714  1
  Zr  Zr1  1  0.000514  0.744746  0.257219  1
  Zr  Zr2  1  0.255767  0.255254  0.257219  1
  Zr  Zr3  1  0.257372  0.000000  0.742897  1
  Zr  Zr4  1  0.994918  0.251020  0.742232  1
  Zr  Zr5  1  0.743898  0.748980  0.742232  1
  Zr  Zr6  1  0.335454  0.669178  0.496522  1
  Zr  Zr7  1  0.666277  0.330822  0.496522  1
  Zr  Zr8  1  0.666096  0.330518  0.003215  1
  Zr  Zr9  1  0.335577  0.669482  0.003215  1
  Cu  Cu10  1  0.999725  0.000000  0.001913  1
  Sn  Sn11  1  0.392539  0.000000  0.244872  1
  Sn  Sn12  1  0.000341  0.390979  0.245615  1
  Sn  Sn13  1  0.609363  0.609021  0.245615  1
  Sn  Sn14  1  0.606214  0.000000  0.754946  1
  Bi  Bi15  1  0.999650  0.606509  0.755291  1
  Bi  Bi16  1  0.393141  0.393491  0.755291  1
  P  P17  1  0.000399  0.000000  0.498471  1
