# generated using pymatgen
data_TbErU7S17
_symmetry_space_group_name_H-M   'P 1'
_cell_length_a   7.90545607
_cell_length_b   7.90850237
_cell_length_c   10.67495300
_cell_angle_alpha   79.96077979
_cell_angle_beta   79.42827824
_cell_angle_gamma   64.82399235
_symmetry_Int_Tables_number   1
_chemical_formula_structural   TbErU7S17
_chemical_formula_sum   'Tb1 Er1 U7 S17'
_cell_volume   590.26252184
_cell_formula_units_Z   1
loop_
 _symmetry_equiv_pos_site_id
 _symmetry_equiv_pos_as_xyz
  1  'x, y, z'
loop_
 _atom_site_type_symbol
 _atom_site_label
 _atom_site_symmetry_multiplicity
 _atom_site_fract_x
 _atom_site_fract_y
 _atom_site_fract_z
 _atom_site_occupancy
  Tb  Tb0  1  0.811775  0.311126  0.302559  1
  Er  Er1  1  0.997884  0.002733  0.002160  1
  U  U2  1  0.303038  0.819425  0.304154  1
  U  U3  1  0.182024  0.696801  0.694103  1
  U  U4  1  0.697029  0.180475  0.696197  1
  U  U5  1  0.203733  0.204436  0.537394  1
  U  U6  1  0.797019  0.789806  0.462060  1
  U  U7  1  0.674514  0.677734  0.983491  1
  U  U8  1  0.321652  0.327885  0.014407  1
  S  S9  1  0.825375  0.428244  0.536542  1
  S  S10  1  0.432833  0.820834  0.533471  1
  S  S11  1  0.181275  0.564961  0.465816  1
  S  S12  1  0.573606  0.169663  0.470871  1
  S  S13  1  0.944560  0.339308  0.042437  1
  S  S14  1  0.334452  0.948655  0.044955  1
  S  S15  1  0.053069  0.666846  0.951992  1
  S  S16  1  0.662941  0.057488  0.953880  1
  S  S17  1  0.217813  0.207317  0.281731  1
  S  S18  1  0.786462  0.786767  0.720529  1
  S  S19  1  0.061786  0.060469  0.757933  1
  S  S20  1  0.944365  0.934954  0.245823  1
  S  S21  1  0.304118  0.303183  0.750165  1
  S  S22  1  0.692042  0.703687  0.247655  1
  S  S23  1  0.518165  0.520323  0.828081  1
  S  S24  1  0.473501  0.487792  0.165197  1
  S  S25  1  0.004971  0.989090  0.506400  1
