# generated using pymatgen
data_Sc6Ti4Co8Si19Ge
_symmetry_space_group_name_H-M   'P 1'
_cell_length_a   11.89827114
_cell_length_b   11.89827114
_cell_length_c   3.88236300
_cell_angle_alpha   90.00000000
_cell_angle_beta   90.00000000
_cell_angle_gamma   90.01774020
_symmetry_Int_Tables_number   1
_chemical_formula_structural   Sc6Ti4Co8Si19Ge
_chemical_formula_sum   'Sc6 Ti4 Co8 Si19 Ge1'
_cell_volume   549.62166285
_cell_formula_units_Z   1
loop_
 _symmetry_equiv_pos_site_id
 _symmetry_equiv_pos_as_xyz
  1  'x, y, z'
loop_
 _atom_site_type_symbol
 _atom_site_label
 _atom_site_symmetry_multiplicity
 _atom_site_fract_x
 _atom_site_fract_y
 _atom_site_fract_z
 _atom_site_occupancy
  Sc  Sc0  1  0.000227  0.000002  0.000000  1
  Sc  Sc1  1  0.500002  0.500227  0.000000  1
  Sc  Sc2  1  0.887146  0.387146  0.500000  1
  Sc  Sc3  1  0.383616  0.114246  0.500000  1
  Sc  Sc4  1  0.614246  0.883616  0.500000  1
  Sc  Sc5  1  0.112875  0.612875  0.500000  1
  Ti  Ti6  1  0.676848  0.176848  0.500000  1
  Ti  Ti7  1  0.174407  0.325519  0.500000  1
  Ti  Ti8  1  0.825519  0.674407  0.500000  1
  Ti  Ti9  1  0.324387  0.824387  0.500000  1
  Co  Co10  1  0.522051  0.256577  0.000000  1
  Co  Co11  1  0.252667  0.477804  0.000000  1
  Co  Co12  1  0.747237  0.522961  0.000000  1
  Co  Co13  1  0.477663  0.746180  0.000000  1
  Co  Co14  1  0.977804  0.752667  0.000000  1
  Co  Co15  1  0.022961  0.247237  0.000000  1
  Co  Co16  1  0.756577  0.022051  0.000000  1
  Co  Co17  1  0.246180  0.977663  0.000000  1
  Si  Si18  1  0.069435  0.430643  0.000000  1
  Si  Si19  1  0.930643  0.569435  0.000000  1
  Si  Si20  1  0.427753  0.927753  0.000000  1
  Si  Si21  1  0.195790  0.160274  0.000000  1
  Si  Si22  1  0.159704  0.803853  0.000000  1
  Si  Si23  1  0.840886  0.196541  0.000000  1
  Si  Si24  1  0.804783  0.839509  0.000000  1
  Si  Si25  1  0.303853  0.659704  0.000000  1
  Si  Si26  1  0.696541  0.340886  0.000000  1
  Si  Si27  1  0.660274  0.695790  0.000000  1
  Si  Si28  1  0.339509  0.304783  0.000000  1
  Si  Si29  1  0.010541  0.164074  0.500000  1
  Si  Si30  1  0.163302  0.988592  0.500000  1
  Si  Si31  1  0.837582  0.010695  0.500000  1
  Si  Si32  1  0.989466  0.835871  0.500000  1
  Si  Si33  1  0.488592  0.663302  0.500000  1
  Si  Si34  1  0.510695  0.337582  0.500000  1
  Si  Si35  1  0.664074  0.510541  0.500000  1
  Si  Si36  1  0.335871  0.489466  0.500000  1
  Ge  Ge37  1  0.568294  0.068294  0.000000  1
