# generated using pymatgen
data_Ca9Pr2Sm(SiRh)8
_symmetry_space_group_name_H-M   'P 1'
_cell_length_a   5.79001456
_cell_length_b   7.76036535
_cell_length_c   13.34364400
_cell_angle_alpha   90.00000000
_cell_angle_beta   90.00000000
_cell_angle_gamma   90.04237920
_symmetry_Int_Tables_number   1
_chemical_formula_structural   Ca9Pr2Sm(SiRh)8
_chemical_formula_sum   'Ca9 Pr2 Sm1 Si8 Rh8'
_cell_volume   599.56483267
_cell_formula_units_Z   1
loop_
 _symmetry_equiv_pos_site_id
 _symmetry_equiv_pos_as_xyz
  1  'x, y, z'
loop_
 _atom_site_type_symbol
 _atom_site_label
 _atom_site_symmetry_multiplicity
 _atom_site_fract_x
 _atom_site_fract_y
 _atom_site_fract_z
 _atom_site_occupancy
  Ca  Ca0  1  0.637271  0.241714  0.250000  1
  Ca  Ca1  1  0.129929  0.387307  0.101630  1
  Ca  Ca2  1  0.867813  0.608229  0.901780  1
  Ca  Ca3  1  0.867813  0.608229  0.598220  1
  Ca  Ca4  1  0.866026  0.894769  0.399301  1
  Ca  Ca5  1  0.129929  0.387307  0.398370  1
  Ca  Ca6  1  0.132938  0.108959  0.599725  1
  Ca  Ca7  1  0.132938  0.108959  0.900275  1
  Ca  Ca8  1  0.866026  0.894769  0.100699  1
  Pr  Pr9  1  0.360395  0.761389  0.750000  1
  Pr  Pr10  1  0.640255  0.261113  0.750000  1
  Sm  Sm11  1  0.365346  0.737915  0.250000  1
  Si  Si12  1  0.162259  0.087489  0.250000  1
  Si  Si13  1  0.849789  0.902973  0.750000  1
  Si  Si14  1  0.846337  0.593311  0.250000  1
  Si  Si15  1  0.152170  0.404999  0.750000  1
  Si  Si16  1  0.593233  0.251491  0.000414  1
  Si  Si17  1  0.406687  0.750645  0.000291  1
  Si  Si18  1  0.406687  0.750645  0.499709  1
  Si  Si19  1  0.593233  0.251491  0.499586  1
  Rh  Rh20  1  0.369098  0.024674  0.090674  1
  Rh  Rh21  1  0.635239  0.974586  0.910921  1
  Rh  Rh22  1  0.635239  0.974586  0.589079  1
  Rh  Rh23  1  0.627740  0.529239  0.408752  1
  Rh  Rh24  1  0.369098  0.024674  0.409326  1
  Rh  Rh25  1  0.364385  0.474651  0.587859  1
  Rh  Rh26  1  0.364385  0.474651  0.912141  1
  Rh  Rh27  1  0.627740  0.529239  0.091248  1
