# generated using pymatgen
data_Ho4Al18Ir4OsAu
_symmetry_space_group_name_H-M   'P 1'
_cell_length_a   7.58855703
_cell_length_b   7.58855807
_cell_length_c   9.47816700
_cell_angle_alpha   89.99487336
_cell_angle_beta   89.99487336
_cell_angle_gamma   119.75903754
_symmetry_Int_Tables_number   1
_chemical_formula_structural   Ho4Al18Ir4OsAu
_chemical_formula_sum   'Ho4 Al18 Ir4 Os1 Au1'
_cell_volume   473.83031435
_cell_formula_units_Z   1
loop_
 _symmetry_equiv_pos_site_id
 _symmetry_equiv_pos_as_xyz
  1  'x, y, z'
loop_
 _atom_site_type_symbol
 _atom_site_label
 _atom_site_symmetry_multiplicity
 _atom_site_fract_x
 _atom_site_fract_y
 _atom_site_fract_z
 _atom_site_occupancy
  Ho  Ho0  1  0.993627  0.668489  0.250985  1
  Ho  Ho1  1  0.003062  0.329289  0.749468  1
  Ho  Ho2  1  0.670711  0.996938  0.250532  1
  Ho  Ho3  1  0.331511  0.006373  0.749015  1
  Al  Al4  1  0.127473  0.125148  0.250779  1
  Al  Al5  1  0.874852  0.872527  0.749221  1
  Al  Al6  1  0.012440  0.336803  0.077599  1
  Al  Al7  1  0.009108  0.674473  0.922543  1
  Al  Al8  1  0.001357  0.665224  0.573888  1
  Al  Al9  1  0.334776  0.998643  0.426112  1
  Al  Al10  1  0.000916  0.334132  0.424940  1
  Al  Al11  1  0.665868  0.999084  0.575060  1
  Al  Al12  1  0.663197  0.987560  0.922401  1
  Al  Al13  1  0.325527  0.990892  0.077457  1
  Al  Al14  1  0.332154  0.332173  0.551099  1
  Al  Al15  1  0.667827  0.667846  0.448901  1
  Al  Al16  1  0.663901  0.673119  0.058506  1
  Al  Al17  1  0.326881  0.336099  0.941494  1
  Al  Al18  1  0.340601  0.551728  0.250291  1
  Al  Al19  1  0.660305  0.458009  0.742728  1
  Al  Al20  1  0.541991  0.339695  0.257272  1
  Al  Al21  1  0.448272  0.659399  0.749709  1
  Ir  Ir22  1  0.328636  0.671364  0.500000  1
  Ir  Ir23  1  0.672624  0.327376  0.500000  1
  Ir  Ir24  1  0.999793  0.000207  0.000000  1
  Ir  Ir25  1  0.000645  0.999355  0.500000  1
  Os  Os26  1  0.328364  0.671636  0.000000  1
  Au  Au27  1  0.673584  0.326416  0.000000  1
