# generated using pymatgen
data_Np3Ni(Sb2Pt)2
_symmetry_space_group_name_H-M   'P 1'
_cell_length_a   8.44197546
_cell_length_b   8.44197613
_cell_length_c   8.44197600
_cell_angle_alpha   109.46742665
_cell_angle_beta   109.47880956
_cell_angle_gamma   109.46743082
_symmetry_Int_Tables_number   1
_chemical_formula_structural   Np3Ni(Sb2Pt)2
_chemical_formula_sum   'Np6 Ni2 Sb8 Pt4'
_cell_volume   463.13797828
_cell_formula_units_Z   2
loop_
 _symmetry_equiv_pos_site_id
 _symmetry_equiv_pos_as_xyz
  1  'x, y, z'
loop_
 _atom_site_type_symbol
 _atom_site_label
 _atom_site_symmetry_multiplicity
 _atom_site_fract_x
 _atom_site_fract_y
 _atom_site_fract_z
 _atom_site_occupancy
  Np  Np0  1  0.875000  0.250000  0.125000  1
  Np  Np1  1  0.625000  0.750000  0.375000  1
  Np  Np2  1  0.250000  0.125999  0.875999  1
  Np  Np3  1  0.750000  0.374001  0.624001  1
  Np  Np4  1  0.124001  0.874001  0.250000  1
  Np  Np5  1  0.375999  0.625999  0.750000  1
  Ni  Ni6  1  0.375000  0.250000  0.625000  1
  Ni  Ni7  1  0.125000  0.750000  0.875000  1
  Sb  Sb8  1  0.661169  0.491363  0.983659  1
  Sb  Sb9  1  0.492297  0.008637  0.669807  1
  Sb  Sb10  1  0.007703  0.677511  0.516341  1
  Sb  Sb11  1  0.838831  0.822489  0.830193  1
  Sb  Sb12  1  0.483659  0.991363  0.161169  1
  Sb  Sb13  1  0.169807  0.508637  0.992297  1
  Sb  Sb14  1  0.016341  0.177511  0.507703  1
  Sb  Sb15  1  0.330193  0.322489  0.338831  1
  Pt  Pt16  1  0.250000  0.623113  0.373113  1
  Pt  Pt17  1  0.750000  0.876887  0.126887  1
  Pt  Pt18  1  0.626887  0.376887  0.250000  1
  Pt  Pt19  1  0.873113  0.123113  0.750000  1
