# generated using pymatgen
data_Hf4AlN3
_symmetry_space_group_name_H-M   'P 1'
_cell_length_a   3.20103300
_cell_length_b   3.20103234
_cell_length_c   24.75871100
_cell_angle_alpha   90.00000000
_cell_angle_beta   90.00000000
_cell_angle_gamma   119.99997582
_symmetry_Int_Tables_number   1
_chemical_formula_structural   Hf4AlN3
_chemical_formula_sum   'Hf8 Al2 N6'
_cell_volume   219.70451464
_cell_formula_units_Z   2
loop_
 _symmetry_equiv_pos_site_id
 _symmetry_equiv_pos_as_xyz
  1  'x, y, z'
loop_
 _atom_site_type_symbol
 _atom_site_label
 _atom_site_symmetry_multiplicity
 _atom_site_fract_x
 _atom_site_fract_y
 _atom_site_fract_z
 _atom_site_occupancy
  Hf  Hf0  1  0.333333  0.666667  0.445057  1
  Hf  Hf1  1  0.666667  0.333333  0.554943  1
  Hf  Hf2  1  0.666667  0.333333  0.945057  1
  Hf  Hf3  1  0.333333  0.666667  0.054943  1
  Hf  Hf4  1  0.000000  0.000000  0.342037  1
  Hf  Hf5  1  0.000000  0.000000  0.657963  1
  Hf  Hf6  1  0.000000  0.000000  0.842037  1
  Hf  Hf7  1  0.000000  0.000000  0.157963  1
  Al  Al8  1  0.333333  0.666667  0.250000  1
  Al  Al9  1  0.666667  0.333333  0.750000  1
  N  N10  1  0.000000  0.000000  0.500000  1
  N  N11  1  0.000000  0.000000  0.000000  1
  N  N12  1  0.666667  0.333333  0.394471  1
  N  N13  1  0.333333  0.666667  0.605529  1
  N  N14  1  0.333333  0.666667  0.894471  1
  N  N15  1  0.666667  0.333333  0.105529  1
