# generated using pymatgen
data_Dy3TmGaRu7
_symmetry_space_group_name_H-M   'P 1'
_cell_length_a   5.35762225
_cell_length_b   5.35589509
_cell_length_c   8.63796202
_cell_angle_alpha   90.00245586
_cell_angle_beta   90.00464170
_cell_angle_gamma   120.04205283
_symmetry_Int_Tables_number   1
_chemical_formula_structural   Dy3TmGaRu7
_chemical_formula_sum   'Dy3 Tm1 Ga1 Ru7'
_cell_volume   214.56648162
_cell_formula_units_Z   1
loop_
 _symmetry_equiv_pos_site_id
 _symmetry_equiv_pos_as_xyz
  1  'x, y, z'
loop_
 _atom_site_type_symbol
 _atom_site_label
 _atom_site_symmetry_multiplicity
 _atom_site_fract_x
 _atom_site_fract_y
 _atom_site_fract_z
 _atom_site_occupancy
  Dy  Dy0  1  0.666677  0.333377  0.571181  1
  Dy  Dy1  1  0.333330  0.666617  0.429181  1
  Dy  Dy2  1  0.333365  0.666593  0.064220  1
  Tm  Tm3  1  0.666643  0.333393  0.935499  1
  Ga  Ga4  1  0.999977  0.000018  0.499894  1
  Ru  Ru5  1  0.000006  0.999999  0.999790  1
  Ru  Ru6  1  0.171204  0.342506  0.750062  1
  Ru  Ru7  1  0.171346  0.828713  0.750098  1
  Ru  Ru8  1  0.657409  0.828794  0.750079  1
  Ru  Ru9  1  0.828582  0.657121  0.250004  1
  Ru  Ru10  1  0.828504  0.171441  0.250008  1
  Ru  Ru11  1  0.342958  0.171428  0.249983  1
