# generated using pymatgen
data_Y8Zr11Si16Ag
_symmetry_space_group_name_H-M   'P 1'
_cell_length_a   7.10070988
_cell_length_b   7.31212719
_cell_length_c   13.97546000
_cell_angle_alpha   90.00000000
_cell_angle_beta   90.00000000
_cell_angle_gamma   90.28974703
_symmetry_Int_Tables_number   1
_chemical_formula_structural   Y8Zr11Si16Ag
_chemical_formula_sum   'Y8 Zr11 Si16 Ag1'
_cell_volume   725.61468588
_cell_formula_units_Z   1
loop_
 _symmetry_equiv_pos_site_id
 _symmetry_equiv_pos_as_xyz
  1  'x, y, z'
loop_
 _atom_site_type_symbol
 _atom_site_label
 _atom_site_symmetry_multiplicity
 _atom_site_fract_x
 _atom_site_fract_y
 _atom_site_fract_z
 _atom_site_occupancy
  Y  Y0  1  0.518209  0.673053  0.598450  1
  Y  Y1  1  0.014658  0.819436  0.902537  1
  Y  Y2  1  0.486036  0.324959  0.096176  1
  Y  Y3  1  0.986541  0.175709  0.400568  1
  Y  Y4  1  0.486036  0.324959  0.403824  1
  Y  Y5  1  0.986541  0.175709  0.099432  1
  Y  Y6  1  0.518209  0.673053  0.901550  1
  Y  Y7  1  0.014658  0.819436  0.597463  1
  Zr  Zr8  1  0.679023  0.181837  0.626772  1
  Zr  Zr9  1  0.159339  0.321989  0.873758  1
  Zr  Zr10  1  0.328686  0.822824  0.123660  1
  Zr  Zr11  1  0.827647  0.681400  0.375146  1
  Zr  Zr12  1  0.328686  0.822824  0.376340  1
  Zr  Zr13  1  0.827647  0.681400  0.124854  1
  Zr  Zr14  1  0.679023  0.181837  0.873228  1
  Zr  Zr15  1  0.159339  0.321989  0.626242  1
  Zr  Zr16  1  0.345695  0.999375  0.750000  1
  Zr  Zr17  1  0.156247  0.505107  0.250000  1
  Zr  Zr18  1  0.656878  0.998897  0.250000  1
  Si  Si19  1  0.655414  0.969794  0.460854  1
  Si  Si20  1  0.155289  0.532339  0.039735  1
  Si  Si21  1  0.347599  0.033757  0.956950  1
  Si  Si22  1  0.839328  0.461548  0.530895  1
  Si  Si23  1  0.347599  0.033757  0.543050  1
  Si  Si24  1  0.839328  0.461548  0.969105  1
  Si  Si25  1  0.655414  0.969794  0.039146  1
  Si  Si26  1  0.155289  0.532339  0.460265  1
  Si  Si27  1  0.460758  0.377454  0.750000  1
  Si  Si28  1  0.973338  0.095039  0.750000  1
  Si  Si29  1  0.531525  0.618777  0.250000  1
  Si  Si30  1  0.033980  0.883850  0.250000  1
  Si  Si31  1  0.715573  0.879314  0.750000  1
  Si  Si32  1  0.226732  0.623664  0.750000  1
  Si  Si33  1  0.283156  0.126743  0.250000  1
  Si  Si34  1  0.780324  0.375434  0.250000  1
  Ag  Ag35  1  0.840255  0.519056  0.750000  1
