# generated using pymatgen
data_Ti6Be4ZnCuN2
_symmetry_space_group_name_H-M   'P 1'
_cell_length_a   7.75396675
_cell_length_b   7.74748708
_cell_length_c   7.75396619
_cell_angle_alpha   60.02763897
_cell_angle_beta   60.04763152
_cell_angle_gamma   60.02763740
_symmetry_Int_Tables_number   1
_chemical_formula_structural   Ti6Be4ZnCuN2
_chemical_formula_sum   'Ti12 Be8 Zn2 Cu2 N4'
_cell_volume   329.63340976
_cell_formula_units_Z   2
loop_
 _symmetry_equiv_pos_site_id
 _symmetry_equiv_pos_as_xyz
  1  'x, y, z'
loop_
 _atom_site_type_symbol
 _atom_site_label
 _atom_site_symmetry_multiplicity
 _atom_site_fract_x
 _atom_site_fract_y
 _atom_site_fract_z
 _atom_site_occupancy
  Ti  Ti0  1  0.810469  0.810112  0.186841  1
  Ti  Ti1  1  0.186841  0.192578  0.810469  1
  Ti  Ti2  1  0.811207  0.188793  0.811207  1
  Ti  Ti3  1  0.190734  0.809266  0.190734  1
  Ti  Ti4  1  0.186841  0.810112  0.810469  1
  Ti  Ti5  1  0.810469  0.192578  0.186841  1
  Ti  Ti6  1  0.439531  0.439888  0.063159  1
  Ti  Ti7  1  0.063159  0.057422  0.439531  1
  Ti  Ti8  1  0.438793  0.061207  0.438793  1
  Ti  Ti9  1  0.059266  0.440734  0.059266  1
  Ti  Ti10  1  0.063159  0.439888  0.439531  1
  Ti  Ti11  1  0.439531  0.057422  0.063159  1
  Be  Be12  1  0.729038  0.426428  0.418106  1
  Be  Be13  1  0.421453  0.727667  0.421453  1
  Be  Be14  1  0.418106  0.426428  0.729038  1
  Be  Be15  1  0.421453  0.429428  0.421453  1
  Be  Be16  1  0.520962  0.823572  0.831894  1
  Be  Be17  1  0.828547  0.522333  0.828547  1
  Be  Be18  1  0.831894  0.823572  0.520962  1
  Be  Be19  1  0.828547  0.820572  0.828547  1
  Zn  Zn20  1  0.625000  0.125000  0.625000  1
  Zn  Zn21  1  0.625000  0.625000  0.625000  1
  Cu  Cu22  1  0.125000  0.625000  0.625000  1
  Cu  Cu23  1  0.625000  0.625000  0.125000  1
  N  N24  1  0.625000  0.125000  0.125000  1
  N  N25  1  0.125000  0.625000  0.125000  1
  N  N26  1  0.125000  0.125000  0.625000  1
  N  N27  1  0.125000  0.125000  0.125000  1
