# generated using pymatgen
data_Sm3Er3V2(Co4P3)4
_symmetry_space_group_name_H-M   'P 1'
_cell_length_a   3.70687400
_cell_length_b   10.58733500
_cell_length_c   12.27350601
_cell_angle_alpha   90.00326939
_cell_angle_beta   90.00000000
_cell_angle_gamma   90.00000000
_symmetry_Int_Tables_number   1
_chemical_formula_structural   Sm3Er3V2(Co4P3)4
_chemical_formula_sum   'Sm3 Er3 V2 Co16 P12'
_cell_volume   481.68499543
_cell_formula_units_Z   1
loop_
 _symmetry_equiv_pos_site_id
 _symmetry_equiv_pos_as_xyz
  1  'x, y, z'
loop_
 _atom_site_type_symbol
 _atom_site_label
 _atom_site_symmetry_multiplicity
 _atom_site_fract_x
 _atom_site_fract_y
 _atom_site_fract_z
 _atom_site_occupancy
  Sm  Sm0  1  0.000000  0.500428  0.523151  1
  Sm  Sm1  1  0.500000  0.999769  0.476201  1
  Sm  Sm2  1  0.000000  0.318995  0.795611  1
  Er  Er3  1  0.500000  0.818720  0.204401  1
  Er  Er4  1  0.500000  0.181050  0.203156  1
  Er  Er5  1  0.000000  0.682070  0.796427  1
  V  V6  1  0.500000  0.500629  0.153621  1
  V  V7  1  0.000000  0.999125  0.846839  1
  Co  Co8  1  0.500000  0.502552  0.703931  1
  Co  Co9  1  0.000000  0.999362  0.295343  1
  Co  Co10  1  0.000000  0.501540  0.988132  1
  Co  Co11  1  0.500000  0.998866  0.014090  1
  Co  Co12  1  0.500000  0.332620  0.994686  1
  Co  Co13  1  0.500000  0.668587  0.994059  1
  Co  Co14  1  0.000000  0.166569  0.008314  1
  Co  Co15  1  0.000000  0.832296  0.007638  1
  Co  Co16  1  0.500000  0.295221  0.428463  1
  Co  Co17  1  0.500000  0.704755  0.430183  1
  Co  Co18  1  0.000000  0.204053  0.567499  1
  Co  Co19  1  0.000000  0.795691  0.569741  1
  Co  Co20  1  0.500000  0.878237  0.709730  1
  Co  Co21  1  0.500000  0.119461  0.707941  1
  Co  Co22  1  0.000000  0.621285  0.290954  1
  Co  Co23  1  0.000000  0.378521  0.289872  1
  P  P24  1  0.500000  0.502575  0.884142  1
  P  P25  1  0.000000  0.999273  0.117953  1
  P  P26  1  0.500000  0.499829  0.344335  1
  P  P27  1  0.000000  0.999983  0.655428  1
  P  P28  1  0.500000  0.308976  0.613977  1
  P  P29  1  0.500000  0.691205  0.617274  1
  P  P30  1  0.000000  0.189884  0.381193  1
  P  P31  1  0.000000  0.809459  0.382756  1
  P  P32  1  0.500000  0.845406  0.892457  1
  P  P33  1  0.500000  0.152348  0.893871  1
  P  P34  1  0.000000  0.655114  0.108861  1
  P  P35  1  0.000000  0.345549  0.107773  1
