# generated using pymatgen
data_Dy6Al3Tc13O
_symmetry_space_group_name_H-M   'P 1'
_cell_length_a   8.06649999
_cell_length_b   8.04657132
_cell_length_c   8.06649997
_cell_angle_alpha   108.45051966
_cell_angle_beta   108.89164673
_cell_angle_gamma   111.18679754
_symmetry_Int_Tables_number   1
_chemical_formula_structural   Dy6Al3Tc13O
_chemical_formula_sum   'Dy6 Al3 Tc13 O1'
_cell_volume   402.27613519
_cell_formula_units_Z   1
loop_
 _symmetry_equiv_pos_site_id
 _symmetry_equiv_pos_as_xyz
  1  'x, y, z'
loop_
 _atom_site_type_symbol
 _atom_site_label
 _atom_site_symmetry_multiplicity
 _atom_site_fract_x
 _atom_site_fract_y
 _atom_site_fract_z
 _atom_site_occupancy
  Dy  Dy0  1  0.262461  0.003733  0.260170  1
  Dy  Dy1  1  0.001164  0.257552  0.256388  1
  Dy  Dy2  1  0.002757  0.743712  0.740955  1
  Dy  Dy3  1  0.275414  0.275549  0.000134  1
  Dy  Dy4  1  0.732231  0.730550  0.998320  1
  Dy  Dy5  1  0.743563  0.003733  0.741272  1
  Al  Al6  1  0.346341  0.998903  0.652562  1
  Al  Al7  1  0.686801  0.342413  0.345057  1
  Al  Al8  1  0.997355  0.342413  0.655612  1
  Tc  Tc9  1  0.998060  0.997603  0.483911  1
  Tc  Tc10  1  0.513692  0.997603  0.999543  1
  Tc  Tc11  1  0.000839  0.508873  0.998903  1
  Tc  Tc12  1  0.509970  0.508873  0.508034  1
  Tc  Tc13  1  0.651711  0.655691  0.318982  1
  Tc  Tc14  1  0.336708  0.655691  0.003980  1
  Tc  Tc15  1  0.335915  0.686207  0.350291  1
  Tc  Tc16  1  0.656571  0.316683  0.660113  1
  Tc  Tc17  1  0.330025  0.332268  0.675151  1
  Tc  Tc18  1  0.311160  0.654378  0.660039  1
  Tc  Tc19  1  0.657118  0.332268  0.002243  1
  Tc  Tc20  1  0.994339  0.654378  0.343217  1
  Tc  Tc21  1  0.651043  0.997239  0.346196  1
  O  O22  1  0.004761  0.003685  0.998924  1
