# generated using pymatgen
data_DyHoAl20IrRu3
_symmetry_space_group_name_H-M   'P 1'
_cell_length_a   6.85454741
_cell_length_b   6.85909337
_cell_length_c   9.15093216
_cell_angle_alpha   90.06180763
_cell_angle_beta   90.07292636
_cell_angle_gamma   96.73790215
_symmetry_Int_Tables_number   1
_chemical_formula_structural   DyHoAl20IrRu3
_chemical_formula_sum   'Dy1 Ho1 Al20 Ir1 Ru3'
_cell_volume   427.26781730
_cell_formula_units_Z   1
loop_
 _symmetry_equiv_pos_site_id
 _symmetry_equiv_pos_as_xyz
  1  'x, y, z'
loop_
 _atom_site_type_symbol
 _atom_site_label
 _atom_site_symmetry_multiplicity
 _atom_site_fract_x
 _atom_site_fract_y
 _atom_site_fract_z
 _atom_site_occupancy
  Dy  Dy0  1  0.870904  0.127517  0.750372  1
  Ho  Ho1  1  0.129623  0.872233  0.249586  1
  Al  Al2  1  0.620295  0.376356  0.551017  1
  Al  Al3  1  0.379464  0.623849  0.448891  1
  Al  Al4  1  0.377307  0.623430  0.050105  1
  Al  Al5  1  0.622447  0.376798  0.950009  1
  Al  Al6  1  0.226545  0.223456  0.498528  1
  Al  Al7  1  0.773565  0.776407  0.501186  1
  Al  Al8  1  0.774545  0.775243  0.000774  1
  Al  Al9  1  0.225573  0.224634  0.999539  1
  Al  Al10  1  0.844084  0.156426  0.100287  1
  Al  Al11  1  0.156166  0.843314  0.899895  1
  Al  Al12  1  0.157825  0.845046  0.601878  1
  Al  Al13  1  0.842418  0.154654  0.397955  1
  Al  Al14  1  0.857076  0.587783  0.751602  1
  Al  Al15  1  0.143040  0.412653  0.248395  1
  Al  Al16  1  0.413100  0.142075  0.750422  1
  Al  Al17  1  0.586435  0.857815  0.249575  1
  Al  Al18  1  0.221798  0.481415  0.752471  1
  Al  Al19  1  0.778455  0.519045  0.247530  1
  Al  Al20  1  0.518252  0.779449  0.749892  1
  Al  Al21  1  0.481263  0.220290  0.250095  1
  Ir  Ir22  1  0.000023  0.500057  0.499715  1
  Ru  Ru23  1  0.000030  0.500113  0.000294  1
  Ru  Ru24  1  0.499904  0.999971  0.000316  1
  Ru  Ru25  1  0.499863  0.999970  0.499671  1
