# generated using pymatgen
data_Th(IO3)4
_symmetry_space_group_name_H-M   'P 1'
_cell_length_a   10.34899500
_cell_length_b   10.34899500
_cell_length_c   5.46627700
_cell_angle_alpha   90.00000000
_cell_angle_beta   90.00000000
_cell_angle_gamma   90.00000000
_symmetry_Int_Tables_number   1
_chemical_formula_structural   Th(IO3)4
_chemical_formula_sum   'Th2 I8 O24'
_cell_volume   585.44754576
_cell_formula_units_Z   2
loop_
 _symmetry_equiv_pos_site_id
 _symmetry_equiv_pos_as_xyz
  1  'x, y, z'
loop_
 _atom_site_type_symbol
 _atom_site_label
 _atom_site_symmetry_multiplicity
 _atom_site_fract_x
 _atom_site_fract_y
 _atom_site_fract_z
 _atom_site_occupancy
  Th  Th0  1  0.500000  0.500000  0.000000  1
  Th  Th1  1  0.000000  0.000000  0.500000  1
  I  I2  1  0.005550  0.273245  0.968398  1
  I  I3  1  0.505550  0.773245  0.531602  1
  I  I4  1  0.494450  0.226755  0.531602  1
  I  I5  1  0.273245  0.994450  0.031602  1
  I  I6  1  0.226755  0.505550  0.468398  1
  I  I7  1  0.726755  0.005550  0.031602  1
  I  I8  1  0.773245  0.494450  0.468398  1
  I  I9  1  0.994450  0.726755  0.968398  1
  O  O10  1  0.577568  0.693499  0.800118  1
  O  O11  1  0.693499  0.422432  0.199882  1
  O  O12  1  0.902671  0.379349  0.506124  1
  O  O13  1  0.571294  0.654298  0.309378  1
  O  O14  1  0.345702  0.571294  0.690622  1
  O  O15  1  0.193499  0.922432  0.300118  1
  O  O16  1  0.154298  0.928706  0.809378  1
  O  O17  1  0.306501  0.577568  0.199882  1
  O  O18  1  0.806501  0.077568  0.300118  1
  O  O19  1  0.654298  0.428706  0.690622  1
  O  O20  1  0.597329  0.120651  0.993876  1
  O  O21  1  0.097329  0.620651  0.506124  1
  O  O22  1  0.379349  0.097329  0.493876  1
  O  O23  1  0.922432  0.806501  0.699882  1
  O  O24  1  0.077568  0.193499  0.699882  1
  O  O25  1  0.620651  0.902671  0.493876  1
  O  O26  1  0.071294  0.154298  0.190622  1
  O  O27  1  0.428706  0.345702  0.309378  1
  O  O28  1  0.120651  0.402671  0.006124  1
  O  O29  1  0.879349  0.597329  0.006124  1
  O  O30  1  0.402671  0.879349  0.993876  1
  O  O31  1  0.928706  0.845702  0.190622  1
  O  O32  1  0.422432  0.306501  0.800118  1
  O  O33  1  0.845702  0.071294  0.809378  1
