# generated using pymatgen
data_DyY2IrI3
_symmetry_space_group_name_H-M   'P 1'
_cell_length_a   4.29798000
_cell_length_b   8.87294780
_cell_length_c   12.31724960
_cell_angle_alpha   86.65414317
_cell_angle_beta   90.00000000
_cell_angle_gamma   90.00000000
_symmetry_Int_Tables_number   1
_chemical_formula_structural   DyY2IrI3
_chemical_formula_sum   'Dy2 Y4 Ir2 I6'
_cell_volume   468.92689300
_cell_formula_units_Z   2
loop_
 _symmetry_equiv_pos_site_id
 _symmetry_equiv_pos_as_xyz
  1  'x, y, z'
loop_
 _atom_site_type_symbol
 _atom_site_label
 _atom_site_symmetry_multiplicity
 _atom_site_fract_x
 _atom_site_fract_y
 _atom_site_fract_z
 _atom_site_occupancy
  Dy  Dy0  1  0.750000  0.139937  0.129095  1
  Dy  Dy1  1  0.250000  0.860063  0.870905  1
  Y  Y2  1  0.750000  0.096406  0.684230  1
  Y  Y3  1  0.250000  0.903594  0.315770  1
  Y  Y4  1  0.250000  0.250246  0.900224  1
  Y  Y5  1  0.750000  0.749754  0.099776  1
  Ir  Ir6  1  0.750000  0.048008  0.908701  1
  Ir  Ir7  1  0.250000  0.951992  0.091299  1
  I  I8  1  0.250000  0.427515  0.132863  1
  I  I9  1  0.750000  0.572485  0.867137  1
  I  I10  1  0.250000  0.348778  0.639018  1
  I  I11  1  0.750000  0.651222  0.360982  1
  I  I12  1  0.750000  0.141243  0.394106  1
  I  I13  1  0.250000  0.858757  0.605894  1
