# generated using pymatgen
data_K4Ge2PbSe6
_symmetry_space_group_name_H-M   'P 1'
_cell_length_a   7.54046692
_cell_length_b   7.54046731
_cell_length_c   8.75346920
_cell_angle_alpha   81.68398618
_cell_angle_beta   81.68398577
_cell_angle_gamma   119.79727554
_symmetry_Int_Tables_number   1
_chemical_formula_structural   K4Ge2PbSe6
_chemical_formula_sum   'K4 Ge2 Pb1 Se6'
_cell_volume   413.55819687
_cell_formula_units_Z   1
loop_
 _symmetry_equiv_pos_site_id
 _symmetry_equiv_pos_as_xyz
  1  'x, y, z'
loop_
 _atom_site_type_symbol
 _atom_site_label
 _atom_site_symmetry_multiplicity
 _atom_site_fract_x
 _atom_site_fract_y
 _atom_site_fract_z
 _atom_site_occupancy
  K  K0  1  0.504221  0.495779  0.000000  1
  K  K1  1  0.821853  0.178147  0.000000  1
  K  K2  1  0.175445  0.824555  0.000000  1
  K  K3  1  0.665484  0.334516  0.500000  1
  Ge  Ge4  1  0.047945  0.048346  0.352350  1
  Ge  Ge5  1  0.951654  0.952055  0.647650  1
  Pb  Pb6  1  0.335108  0.664892  0.500000  1
  Se  Se7  1  0.763093  0.785568  0.266057  1
  Se  Se8  1  0.214432  0.236907  0.733943  1
  Se  Se9  1  0.097060  0.392223  0.270167  1
  Se  Se10  1  0.371351  0.055424  0.270182  1
  Se  Se11  1  0.944576  0.628649  0.729818  1
  Se  Se12  1  0.607777  0.902940  0.729833  1
