# generated using pymatgen
data_SrPdI18
_symmetry_space_group_name_H-M   'P 1'
_cell_length_a   10.31200384
_cell_length_b   10.31200288
_cell_length_c   10.31200478
_cell_angle_alpha   97.75698015
_cell_angle_beta   97.75698957
_cell_angle_gamma   97.75698384
_symmetry_Int_Tables_number   1
_chemical_formula_structural   SrPdI18
_chemical_formula_sum   'Sr1 Pd1 I18'
_cell_volume   1063.38980427
_cell_formula_units_Z   1
loop_
 _symmetry_equiv_pos_site_id
 _symmetry_equiv_pos_as_xyz
  1  'x, y, z'
loop_
 _atom_site_type_symbol
 _atom_site_label
 _atom_site_symmetry_multiplicity
 _atom_site_fract_x
 _atom_site_fract_y
 _atom_site_fract_z
 _atom_site_occupancy
  Sr  Sr0  1  0.500000  0.500000  0.500000  1
  Pd  Pd1  1  0.000000  0.000000  0.000000  1
  I  I2  1  0.965464  0.975315  0.728450  1
  I  I3  1  0.728450  0.965464  0.975315  1
  I  I4  1  0.975315  0.728450  0.965464  1
  I  I5  1  0.034536  0.024685  0.271550  1
  I  I6  1  0.271550  0.034536  0.024685  1
  I  I7  1  0.024685  0.271550  0.034536  1
  I  I8  1  0.911584  0.370362  0.792923  1
  I  I9  1  0.792923  0.911584  0.370362  1
  I  I10  1  0.370362  0.792923  0.911584  1
  I  I11  1  0.088416  0.629638  0.207077  1
  I  I12  1  0.207077  0.088416  0.629638  1
  I  I13  1  0.629638  0.207077  0.088416  1
  I  I14  1  0.562469  0.820263  0.487165  1
  I  I15  1  0.487165  0.562469  0.820263  1
  I  I16  1  0.820263  0.487165  0.562469  1
  I  I17  1  0.437531  0.179737  0.512835  1
  I  I18  1  0.512835  0.437531  0.179737  1
  I  I19  1  0.179737  0.512835  0.437531  1
