# generated using pymatgen
data_YNb9S16
_symmetry_space_group_name_H-M   'P 1'
_cell_length_a   6.66308000
_cell_length_b   6.66308139
_cell_length_c   13.13231400
_cell_angle_alpha   90.00000000
_cell_angle_beta   90.00000000
_cell_angle_gamma   120.00001295
_symmetry_Int_Tables_number   1
_chemical_formula_structural   YNb9S16
_chemical_formula_sum   'Y1 Nb9 S16'
_cell_volume   504.91930924
_cell_formula_units_Z   1
loop_
 _symmetry_equiv_pos_site_id
 _symmetry_equiv_pos_as_xyz
  1  'x, y, z'
loop_
 _atom_site_type_symbol
 _atom_site_label
 _atom_site_symmetry_multiplicity
 _atom_site_fract_x
 _atom_site_fract_y
 _atom_site_fract_z
 _atom_site_occupancy
  Y  Y0  1  0.000000  0.000000  0.000000  1
  Nb  Nb1  1  0.000000  0.000000  0.260433  1
  Nb  Nb2  1  0.000000  0.000000  0.739567  1
  Nb  Nb3  1  0.504929  0.009859  0.261557  1
  Nb  Nb4  1  0.495071  0.990141  0.738443  1
  Nb  Nb5  1  0.990141  0.495071  0.261557  1
  Nb  Nb6  1  0.009859  0.504929  0.738443  1
  Nb  Nb7  1  0.504929  0.495071  0.261557  1
  Nb  Nb8  1  0.495071  0.504929  0.738443  1
  Nb  Nb9  1  0.000000  0.000000  0.500000  1
  S  S10  1  0.333333  0.666667  0.616659  1
  S  S11  1  0.666667  0.333333  0.383341  1
  S  S12  1  0.666667  0.333333  0.138092  1
  S  S13  1  0.333333  0.666667  0.861908  1
  S  S14  1  0.169814  0.339629  0.141169  1
  S  S15  1  0.830186  0.660371  0.858831  1
  S  S16  1  0.660371  0.830186  0.141169  1
  S  S17  1  0.832064  0.664128  0.618433  1
  S  S18  1  0.339629  0.169814  0.858831  1
  S  S19  1  0.167936  0.335872  0.381567  1
  S  S20  1  0.169814  0.830186  0.141169  1
  S  S21  1  0.335872  0.167936  0.618433  1
  S  S22  1  0.830186  0.169814  0.858831  1
  S  S23  1  0.664128  0.832064  0.381567  1
  S  S24  1  0.832064  0.167936  0.618433  1
  S  S25  1  0.167936  0.832064  0.381567  1
