# generated using pymatgen
data_Tb7Dy3Si5Pb
_symmetry_space_group_name_H-M   'P 1'
_cell_length_a   8.57234701
_cell_length_b   8.60473816
_cell_length_c   6.44728001
_cell_angle_alpha   89.99552513
_cell_angle_beta   89.99960383
_cell_angle_gamma   119.86929733
_symmetry_Int_Tables_number   1
_chemical_formula_structural   Tb7Dy3Si5Pb
_chemical_formula_sum   'Tb7 Dy3 Si5 Pb1'
_cell_volume   412.39657095
_cell_formula_units_Z   1
loop_
 _symmetry_equiv_pos_site_id
 _symmetry_equiv_pos_as_xyz
  1  'x, y, z'
loop_
 _atom_site_type_symbol
 _atom_site_label
 _atom_site_symmetry_multiplicity
 _atom_site_fract_x
 _atom_site_fract_y
 _atom_site_fract_z
 _atom_site_occupancy
  Tb  Tb0  1  0.987634  0.747027  0.749915  1
  Tb  Tb1  1  0.998638  0.242955  0.250066  1
  Tb  Tb2  1  0.755624  0.757112  0.250085  1
  Tb  Tb3  1  0.766321  0.999945  0.749934  1
  Tb  Tb4  1  0.240544  0.253028  0.749948  1
  Tb  Tb5  1  0.240767  0.999944  0.250069  1
  Tb  Tb6  1  0.674833  0.343577  0.004011  1
  Dy  Dy7  1  0.331269  0.656408  0.496016  1
  Dy  Dy8  1  0.331248  0.656396  0.003983  1
  Dy  Dy9  1  0.674860  0.343610  0.495991  1
  Si  Si10  1  0.393584  0.392241  0.250184  1
  Si  Si11  1  0.001793  0.607967  0.250229  1
  Si  Si12  1  0.998663  0.394590  0.749791  1
  Si  Si13  1  0.603845  0.605603  0.749798  1
  Si  Si14  1  0.605748  0.999812  0.250164  1
  Pb  Pb15  1  0.394628  0.999786  0.749815  1
