# generated using pymatgen
data_Cs3Na2ThSb3
_symmetry_space_group_name_H-M   'P 1'
_cell_length_a   12.17704600
_cell_length_b   12.17704605
_cell_length_c   18.13018200
_cell_angle_alpha   90.00000000
_cell_angle_beta   90.00000000
_cell_angle_gamma   143.21525855
_symmetry_Int_Tables_number   1
_chemical_formula_structural   Cs3Na2ThSb3
_chemical_formula_sum   'Cs12 Na8 Th4 Sb12'
_cell_volume   1609.81268303
_cell_formula_units_Z   4
loop_
 _symmetry_equiv_pos_site_id
 _symmetry_equiv_pos_as_xyz
  1  'x, y, z'
loop_
 _atom_site_type_symbol
 _atom_site_label
 _atom_site_symmetry_multiplicity
 _atom_site_fract_x
 _atom_site_fract_y
 _atom_site_fract_z
 _atom_site_occupancy
  Cs  Cs0  1  0.944689  0.603582  0.825212  1
  Cs  Cs1  1  0.555311  0.896418  0.325212  1
  Cs  Cs2  1  0.396418  0.055311  0.174788  1
  Cs  Cs3  1  0.055311  0.396418  0.174788  1
  Cs  Cs4  1  0.896418  0.555311  0.325212  1
  Cs  Cs5  1  0.444689  0.103582  0.674788  1
  Cs  Cs6  1  0.603582  0.944689  0.825212  1
  Cs  Cs7  1  0.278347  0.278347  0.319725  1
  Cs  Cs8  1  0.778347  0.778347  0.180275  1
  Cs  Cs9  1  0.221653  0.221653  0.819725  1
  Cs  Cs10  1  0.721653  0.721653  0.680275  1
  Cs  Cs11  1  0.103582  0.444689  0.674788  1
  Na  Na12  1  0.917494  0.082506  0.000000  1
  Na  Na13  1  0.582506  0.417494  0.500000  1
  Na  Na14  1  0.082506  0.917494  0.000000  1
  Na  Na15  1  0.417494  0.582506  0.500000  1
  Na  Na16  1  0.754462  0.245538  0.000000  1
  Na  Na17  1  0.745538  0.254462  0.500000  1
  Na  Na18  1  0.245538  0.754462  0.000000  1
  Na  Na19  1  0.254462  0.745538  0.500000  1
  Th  Th20  1  0.587329  0.412671  0.000000  1
  Th  Th21  1  0.912671  0.087329  0.500000  1
  Th  Th22  1  0.412671  0.587329  0.000000  1
  Th  Th23  1  0.087329  0.912671  0.500000  1
  Sb  Sb24  1  0.893648  0.569958  0.097788  1
  Sb  Sb25  1  0.430042  0.106352  0.902212  1
  Sb  Sb26  1  0.606352  0.930042  0.597788  1
  Sb  Sb27  1  0.930042  0.606352  0.597788  1
  Sb  Sb28  1  0.106352  0.430042  0.902212  1
  Sb  Sb29  1  0.569958  0.893648  0.097788  1
  Sb  Sb30  1  0.393648  0.069958  0.402212  1
  Sb  Sb31  1  0.225685  0.225685  0.593625  1
  Sb  Sb32  1  0.725685  0.725685  0.906375  1
  Sb  Sb33  1  0.274315  0.274315  0.093625  1
  Sb  Sb34  1  0.069958  0.393648  0.402212  1
  Sb  Sb35  1  0.774315  0.774315  0.406375  1
