# generated using pymatgen
data_TmMg3P6N13
_symmetry_space_group_name_H-M   'P 1'
_cell_length_a   7.12695773
_cell_length_b   7.12695820
_cell_length_c   7.12695793
_cell_angle_alpha   109.33884591
_cell_angle_beta   109.33884492
_cell_angle_gamma   109.33884952
_symmetry_Int_Tables_number   1
_chemical_formula_structural   TmMg3P6N13
_chemical_formula_sum   'Tm1 Mg3 P6 N13'
_cell_volume   280.02774841
_cell_formula_units_Z   1
loop_
 _symmetry_equiv_pos_site_id
 _symmetry_equiv_pos_as_xyz
  1  'x, y, z'
loop_
 _atom_site_type_symbol
 _atom_site_label
 _atom_site_symmetry_multiplicity
 _atom_site_fract_x
 _atom_site_fract_y
 _atom_site_fract_z
 _atom_site_occupancy
  Tm  Tm0  1  0.290736  0.290736  0.290736  1
  Mg  Mg1  1  0.993459  0.698972  0.993459  1
  Mg  Mg2  1  0.698972  0.993459  0.993459  1
  Mg  Mg3  1  0.993459  0.993459  0.698972  1
  P  P4  1  0.503214  0.251197  0.755868  1
  P  P5  1  0.503214  0.755868  0.251197  1
  P  P6  1  0.755868  0.251197  0.503214  1
  P  P7  1  0.251197  0.503214  0.755868  1
  P  P8  1  0.755868  0.503214  0.251197  1
  P  P9  1  0.251197  0.755868  0.503214  1
  N  N10  1  0.988853  0.988853  0.988853  1
  N  N11  1  0.000813  0.733041  0.449498  1
  N  N12  1  0.269760  0.715260  0.269760  1
  N  N13  1  0.278921  0.556778  0.556778  1
  N  N14  1  0.556778  0.556778  0.278921  1
  N  N15  1  0.556778  0.278921  0.556778  1
  N  N16  1  0.733041  0.000813  0.449498  1
  N  N17  1  0.449498  0.000813  0.733041  1
  N  N18  1  0.733041  0.449498  0.000813  1
  N  N19  1  0.269760  0.269760  0.715260  1
  N  N20  1  0.715260  0.269760  0.269760  1
  N  N21  1  0.000813  0.449498  0.733041  1
  N  N22  1  0.449498  0.733041  0.000813  1
