# generated using pymatgen
data_Li12Tb9Pr3(WO6)8
_symmetry_space_group_name_H-M   'P 1'
_cell_length_a   10.81438670
_cell_length_b   10.77750270
_cell_length_c   10.77750300
_cell_angle_alpha   109.40179606
_cell_angle_beta   109.54055261
_cell_angle_gamma   109.54055534
_symmetry_Int_Tables_number   1
_chemical_formula_structural   Li12Tb9Pr3(WO6)8
_chemical_formula_sum   'Li12 Tb9 Pr3 W8 O48'
_cell_volume   966.14872033
_cell_formula_units_Z   1
loop_
 _symmetry_equiv_pos_site_id
 _symmetry_equiv_pos_as_xyz
  1  'x, y, z'
loop_
 _atom_site_type_symbol
 _atom_site_label
 _atom_site_symmetry_multiplicity
 _atom_site_fract_x
 _atom_site_fract_y
 _atom_site_fract_z
 _atom_site_occupancy
  Li  Li0  1  0.250474  0.373811  0.125182  1
  Li  Li1  1  0.874710  0.251370  0.125183  1
  Li  Li2  1  0.376730  0.127538  0.249991  1
  Li  Li3  1  0.873261  0.622453  0.249991  1
  Li  Li4  1  0.626738  0.750008  0.377545  1
  Li  Li5  1  0.750808  0.127538  0.377545  1
  Li  Li6  1  0.249526  0.874818  0.626189  1
  Li  Li7  1  0.376662  0.251370  0.626189  1
  Li  Li8  1  0.123338  0.373811  0.748630  1
  Li  Li9  1  0.625291  0.874819  0.748630  1
  Li  Li10  1  0.749192  0.622454  0.872462  1
  Li  Li11  1  0.123271  0.750008  0.872462  1
  Tb  Tb12  1  0.624530  0.374529  0.249060  1
  Tb  Tb13  1  0.250000  0.623415  0.376586  1
  Tb  Tb14  1  0.126586  0.253171  0.376586  1
  Tb  Tb15  1  0.749999  0.374530  0.625471  1
  Tb  Tb16  1  0.875471  0.750941  0.625472  1
  Tb  Tb17  1  0.373413  0.623414  0.746829  1
  Tb  Tb18  1  0.875230  0.125230  0.750458  1
  Tb  Tb19  1  0.250001  0.125230  0.874771  1
  Tb  Tb20  1  0.624771  0.249542  0.874771  1
  Pr  Pr21  1  0.750000  0.876144  0.123855  1
  Pr  Pr22  1  0.373857  0.747712  0.123856  1
  Pr  Pr23  1  0.126144  0.876145  0.252289  1
  W  W24  1  0.002242  0.003308  0.998912  1
  W  W25  1  0.497758  0.001088  0.996692  1
  W  W26  1  0.498933  0.495603  0.996692  1
  W  W27  1  0.996669  0.495604  0.998912  1
  W  W28  1  0.001066  0.003308  0.504396  1
  W  W29  1  0.503331  0.001088  0.504396  1
  W  W30  1  0.500839  0.500000  0.500000  1
  W  W31  1  0.999161  0.500001  0.500001  1
  O  O32  1  0.111043  0.692700  0.019937  1
  O  O33  1  0.908894  0.827238  0.019937  1
  O  O34  1  0.672232  0.200457  0.079923  1
  O  O35  1  0.407692  0.379466  0.079924  1
  O  O36  1  0.672097  0.470331  0.090009  1
  O  O37  1  0.417913  0.119680  0.090010  1
  O  O38  1  0.924143  0.096906  0.119303  1
  O  O39  1  0.195158  0.522395  0.119303  1
  O  O40  1  0.581656  0.692698  0.172763  1
  O  O41  1  0.591106  0.980065  0.172763  1
  O  O42  1  0.023199  0.611261  0.198528  1
  O  O43  1  0.175331  0.087269  0.198530  1
  O  O44  1  0.388958  0.980063  0.307300  1
  O  O45  1  0.918344  0.827237  0.307302  1
  O  O46  1  0.026717  0.407748  0.327927  1
  O  O47  1  0.301209  0.420179  0.327927  1
  O  O48  1  0.911937  0.087268  0.388740  1
  O  O49  1  0.476801  0.801471  0.388740  1
  O  O50  1  0.880617  0.580410  0.408100  1
  O  O51  1  0.527482  0.327689  0.408100  1
  O  O52  1  0.619382  0.591900  0.419589  1
  O  O53  1  0.800207  0.327689  0.419590  1
  O  O54  1  0.304841  0.880697  0.477603  1
  O  O55  1  0.172763  0.096907  0.477605  1
  O  O56  1  0.827902  0.909989  0.529668  1
  O  O57  1  0.701766  0.119681  0.529670  1
  O  O58  1  0.381029  0.407747  0.579820  1
  O  O59  1  0.198790  0.672072  0.579821  1
  O  O60  1  0.473283  0.672072  0.592251  1
  O  O61  1  0.118971  0.420180  0.592252  1
  O  O62  1  0.092309  0.920076  0.620534  1
  O  O63  1  0.528226  0.200458  0.620534  1
  O  O64  1  0.699792  0.580410  0.672310  1
  O  O65  1  0.972519  0.591900  0.672311  1
  O  O66  1  0.621696  0.029920  0.704012  1
  O  O67  1  0.082317  0.174093  0.704012  1
  O  O68  1  0.827767  0.920076  0.799541  1
  O  O69  1  0.971775  0.379465  0.799542  1
  O  O70  1  0.408223  0.029919  0.825907  1
  O  O71  1  0.417683  0.295988  0.825908  1
  O  O72  1  0.082086  0.909990  0.880319  1
  O  O73  1  0.798233  0.470331  0.880321  1
  O  O74  1  0.327238  0.522397  0.903094  1
  O  O75  1  0.575856  0.880698  0.903094  1
  O  O76  1  0.324668  0.801471  0.912732  1
  O  O77  1  0.588063  0.611260  0.912732  1
  O  O78  1  0.091777  0.174093  0.970080  1
  O  O79  1  0.878304  0.295989  0.970080  1
