# generated using pymatgen
data_Tc5Ir3
_symmetry_space_group_name_H-M   'P 1'
_cell_length_a   5.51533200
_cell_length_b   5.53298351
_cell_length_c   4.37146200
_cell_angle_alpha   90.00000000
_cell_angle_beta   90.00000000
_cell_angle_gamma   119.89452394
_symmetry_Int_Tables_number   1
_chemical_formula_structural   Tc5Ir3
_chemical_formula_sum   'Tc5 Ir3'
_cell_volume   115.65089101
_cell_formula_units_Z   1
loop_
 _symmetry_equiv_pos_site_id
 _symmetry_equiv_pos_as_xyz
  1  'x, y, z'
loop_
 _atom_site_type_symbol
 _atom_site_label
 _atom_site_symmetry_multiplicity
 _atom_site_fract_x
 _atom_site_fract_y
 _atom_site_fract_z
 _atom_site_occupancy
  Tc  Tc0  1  0.671553  0.836479  0.250000  1
  Tc  Tc1  1  0.164927  0.836479  0.250000  1
  Tc  Tc2  1  0.836930  0.673859  0.750000  1
  Tc  Tc3  1  0.327591  0.164038  0.750000  1
  Tc  Tc4  1  0.836447  0.164038  0.750000  1
  Ir  Ir5  1  0.164832  0.329663  0.250000  1
  Ir  Ir6  1  0.332829  0.665660  0.750000  1
  Ir  Ir7  1  0.664891  0.329782  0.250000  1
