# generated using pymatgen
data_Tb16Ag3HgPt4
_symmetry_space_group_name_H-M   'P 1'
_cell_length_a   9.66296275
_cell_length_b   9.66064101
_cell_length_c   9.66064000
_cell_angle_alpha   59.99999662
_cell_angle_beta   60.00794443
_cell_angle_gamma   60.00794526
_symmetry_Int_Tables_number   1
_chemical_formula_structural   Tb16Ag3HgPt4
_chemical_formula_sum   'Tb16 Ag3 Hg1 Pt4'
_cell_volume   637.76294371
_cell_formula_units_Z   1
loop_
 _symmetry_equiv_pos_site_id
 _symmetry_equiv_pos_as_xyz
  1  'x, y, z'
loop_
 _atom_site_type_symbol
 _atom_site_label
 _atom_site_symmetry_multiplicity
 _atom_site_fract_x
 _atom_site_fract_y
 _atom_site_fract_z
 _atom_site_occupancy
  Tb  Tb0  1  0.355322  0.355715  0.355715  1
  Tb  Tb1  1  0.355322  0.355715  0.933249  1
  Tb  Tb2  1  0.355322  0.933249  0.355715  1
  Tb  Tb3  1  0.934053  0.355316  0.355316  1
  Tb  Tb4  1  0.811748  0.188394  0.188394  1
  Tb  Tb5  1  0.189117  0.810919  0.810919  1
  Tb  Tb6  1  0.189117  0.810919  0.189046  1
  Tb  Tb7  1  0.811748  0.188394  0.811464  1
  Tb  Tb8  1  0.189117  0.189046  0.810919  1
  Tb  Tb9  1  0.811748  0.811464  0.188394  1
  Tb  Tb10  1  0.932784  0.565361  0.565361  1
  Tb  Tb11  1  0.565426  0.934622  0.934622  1
  Tb  Tb12  1  0.565426  0.934622  0.565331  1
  Tb  Tb13  1  0.932784  0.565361  0.936495  1
  Tb  Tb14  1  0.565426  0.565331  0.934622  1
  Tb  Tb15  1  0.932784  0.936495  0.565361  1
  Ag  Ag16  1  0.585445  0.584268  0.584268  1
  Ag  Ag17  1  0.585445  0.584268  0.246016  1
  Ag  Ag18  1  0.585445  0.246016  0.584268  1
  Hg  Hg19  1  0.246737  0.584420  0.584420  1
  Pt  Pt20  1  0.144127  0.144307  0.144307  1
  Pt  Pt21  1  0.144127  0.144307  0.567261  1
  Pt  Pt22  1  0.144127  0.567261  0.144307  1
  Pt  Pt23  1  0.567306  0.144232  0.144232  1
