# generated using pymatgen
data_La18Yb2Si11Bi
_symmetry_space_group_name_H-M   'P 1'
_cell_length_a   7.88618200
_cell_length_b   7.88618200
_cell_length_c   14.54029600
_cell_angle_alpha   90.00000000
_cell_angle_beta   90.00000000
_cell_angle_gamma   90.00000000
_symmetry_Int_Tables_number   1
_chemical_formula_structural   La18Yb2Si11Bi
_chemical_formula_sum   'La18 Yb2 Si11 Bi1'
_cell_volume   904.28814824
_cell_formula_units_Z   1
loop_
 _symmetry_equiv_pos_site_id
 _symmetry_equiv_pos_as_xyz
  1  'x, y, z'
loop_
 _atom_site_type_symbol
 _atom_site_label
 _atom_site_symmetry_multiplicity
 _atom_site_fract_x
 _atom_site_fract_y
 _atom_site_fract_z
 _atom_site_occupancy
  La  La0  1  0.323303  0.317041  0.102387  1
  La  La1  1  0.823335  0.815841  0.897151  1
  La  La2  1  0.818684  0.169087  0.389153  1
  La  La3  1  0.176665  0.184159  0.897151  1
  La  La4  1  0.676697  0.682959  0.102387  1
  La  La5  1  0.000000  0.500000  0.742886  1
  La  La6  1  0.809785  0.835938  0.610674  1
  La  La7  1  0.330913  0.318684  0.389153  1
  La  La8  1  0.182959  0.823303  0.102387  1
  La  La9  1  0.190215  0.164062  0.610674  1
  La  La10  1  0.817041  0.176697  0.102387  1
  La  La11  1  0.335938  0.690215  0.610674  1
  La  La12  1  0.500000  0.000000  0.258960  1
  La  La13  1  0.684159  0.323335  0.897151  1
  La  La14  1  0.664062  0.309785  0.610674  1
  La  La15  1  0.315841  0.676665  0.897151  1
  La  La16  1  0.181316  0.830913  0.389153  1
  La  La17  1  0.669087  0.681316  0.389153  1
  Yb  Yb18  1  0.500000  0.000000  0.772319  1
  Yb  Yb19  1  0.000000  0.500000  0.237995  1
  Si  Si20  1  0.612386  0.387707  0.245073  1
  Si  Si21  1  0.889423  0.113685  0.754374  1
  Si  Si22  1  0.500000  0.000000  0.491520  1
  Si  Si23  1  0.887707  0.887614  0.245073  1
  Si  Si24  1  0.000000  0.500000  0.002706  1
  Si  Si25  1  0.110577  0.886315  0.754374  1
  Si  Si26  1  0.386315  0.389423  0.754374  1
  Si  Si27  1  0.112293  0.112386  0.245073  1
  Si  Si28  1  0.387614  0.612293  0.245073  1
  Si  Si29  1  0.613685  0.610577  0.754374  1
  Si  Si30  1  0.500000  0.000000  0.996756  1
  Bi  Bi31  1  0.000000  0.500000  0.501610  1
