# generated using pymatgen
data_Sm3Hf(Co4P3)2
_symmetry_space_group_name_H-M   'P 1'
_cell_length_a   3.75250700
_cell_length_b   10.76387500
_cell_length_c   12.50079200
_cell_angle_alpha   90.00000000
_cell_angle_beta   90.00000000
_cell_angle_gamma   90.00000000
_symmetry_Int_Tables_number   1
_chemical_formula_structural   Sm3Hf(Co4P3)2
_chemical_formula_sum   'Sm6 Hf2 Co16 P12'
_cell_volume   504.92594364
_cell_formula_units_Z   2
loop_
 _symmetry_equiv_pos_site_id
 _symmetry_equiv_pos_as_xyz
  1  'x, y, z'
loop_
 _atom_site_type_symbol
 _atom_site_label
 _atom_site_symmetry_multiplicity
 _atom_site_fract_x
 _atom_site_fract_y
 _atom_site_fract_z
 _atom_site_occupancy
  Sm  Sm0  1  0.000000  0.500000  0.528137  1
  Sm  Sm1  1  0.500000  0.000000  0.471863  1
  Sm  Sm2  1  0.500000  0.821195  0.204879  1
  Sm  Sm3  1  0.500000  0.178805  0.204879  1
  Sm  Sm4  1  0.000000  0.678805  0.795121  1
  Sm  Sm5  1  0.000000  0.321195  0.795121  1
  Hf  Hf6  1  0.500000  0.500000  0.155551  1
  Hf  Hf7  1  0.000000  0.000000  0.844449  1
  Co  Co8  1  0.500000  0.500000  0.703604  1
  Co  Co9  1  0.000000  0.000000  0.296396  1
  Co  Co10  1  0.000000  0.500000  0.987084  1
  Co  Co11  1  0.500000  0.000000  0.012916  1
  Co  Co12  1  0.500000  0.332146  0.993516  1
  Co  Co13  1  0.500000  0.667854  0.993516  1
  Co  Co14  1  0.000000  0.167854  0.006484  1
  Co  Co15  1  0.000000  0.832146  0.006484  1
  Co  Co16  1  0.500000  0.295617  0.432708  1
  Co  Co17  1  0.500000  0.704383  0.432708  1
  Co  Co18  1  0.000000  0.204383  0.567292  1
  Co  Co19  1  0.000000  0.795617  0.567292  1
  Co  Co20  1  0.500000  0.879430  0.703499  1
  Co  Co21  1  0.500000  0.120570  0.703499  1
  Co  Co22  1  0.000000  0.620570  0.296501  1
  Co  Co23  1  0.000000  0.379430  0.296501  1
  P  P24  1  0.500000  0.500000  0.885158  1
  P  P25  1  0.000000  0.000000  0.114842  1
  P  P26  1  0.500000  0.500000  0.358494  1
  P  P27  1  0.000000  0.000000  0.641506  1
  P  P28  1  0.500000  0.307193  0.614620  1
  P  P29  1  0.500000  0.692807  0.614620  1
  P  P30  1  0.000000  0.192807  0.385380  1
  P  P31  1  0.000000  0.807193  0.385380  1
  P  P32  1  0.500000  0.839911  0.895375  1
  P  P33  1  0.500000  0.160089  0.895375  1
  P  P34  1  0.000000  0.660089  0.104625  1
  P  P35  1  0.000000  0.339911  0.104625  1
