# generated using pymatgen
data_Pm4PdSe7
_symmetry_space_group_name_H-M   'P 1'
_cell_length_a   4.04427242
_cell_length_b   8.26112691
_cell_length_c   8.67095025
_cell_angle_alpha   90.03437998
_cell_angle_beta   89.99666608
_cell_angle_gamma   90.00427095
_symmetry_Int_Tables_number   1
_chemical_formula_structural   Pm4PdSe7
_chemical_formula_sum   'Pm4 Pd1 Se7'
_cell_volume   289.69854215
_cell_formula_units_Z   1
loop_
 _symmetry_equiv_pos_site_id
 _symmetry_equiv_pos_as_xyz
  1  'x, y, z'
loop_
 _atom_site_type_symbol
 _atom_site_label
 _atom_site_symmetry_multiplicity
 _atom_site_fract_x
 _atom_site_fract_y
 _atom_site_fract_z
 _atom_site_occupancy
  Pm  Pm0  1  0.249590  0.125994  0.202767  1
  Pm  Pm1  1  0.750205  0.382079  0.771789  1
  Pm  Pm2  1  0.750017  0.867096  0.771766  1
  Pm  Pm3  1  0.249577  0.625983  0.249844  1
  Pd  Pd4  1  0.750590  0.124285  0.499716  1
  Se  Se5  1  0.250580  0.321400  0.497958  1
  Se  Se6  1  0.250324  0.927300  0.497393  1
  Se  Se7  1  0.749770  0.624586  0.506017  1
  Se  Se8  1  0.250084  0.124875  0.861484  1
  Se  Se9  1  0.749673  0.379201  0.132038  1
  Se  Se10  1  0.749592  0.872172  0.132125  1
  Se  Se11  1  0.249996  0.625029  0.877101  1
