# generated using pymatgen
data_Ti5SnIrRh9
_symmetry_space_group_name_H-M   'P 1'
_cell_length_a   4.06988500
_cell_length_b   5.47357378
_cell_length_c   10.77416894
_cell_angle_alpha   90.19434916
_cell_angle_beta   90.00000000
_cell_angle_gamma   90.00000000
_symmetry_Int_Tables_number   1
_chemical_formula_structural   Ti5SnIrRh9
_chemical_formula_sum   'Ti5 Sn1 Ir1 Rh9'
_cell_volume   240.01279647
_cell_formula_units_Z   1
loop_
 _symmetry_equiv_pos_site_id
 _symmetry_equiv_pos_as_xyz
  1  'x, y, z'
loop_
 _atom_site_type_symbol
 _atom_site_label
 _atom_site_symmetry_multiplicity
 _atom_site_fract_x
 _atom_site_fract_y
 _atom_site_fract_z
 _atom_site_occupancy
  Ti  Ti0  1  0.000000  0.502659  0.501590  1
  Ti  Ti1  1  0.500000  0.326568  0.145732  1
  Ti  Ti2  1  0.500000  0.674119  0.853419  1
  Ti  Ti3  1  0.500000  0.829043  0.359372  1
  Ti  Ti4  1  0.500000  0.168787  0.640216  1
  Sn  Sn5  1  0.000000  0.000138  0.999843  1
  Ir  Ir6  1  0.500000  0.308663  0.393389  1
  Rh  Rh7  1  0.000000  0.000455  0.500111  1
  Rh  Rh8  1  0.000000  0.500321  0.999778  1
  Rh  Rh9  1  0.000000  0.072702  0.248767  1
  Rh  Rh10  1  0.000000  0.925575  0.750903  1
  Rh  Rh11  1  0.000000  0.572482  0.259943  1
  Rh  Rh12  1  0.000000  0.426004  0.739945  1
  Rh  Rh13  1  0.500000  0.692098  0.606882  1
  Rh  Rh14  1  0.500000  0.790079  0.120746  1
  Rh  Rh15  1  0.500000  0.210307  0.879363  1
