# generated using pymatgen
data_ZnNiPtO4
_symmetry_space_group_name_H-M   'P 1'
_cell_length_a   6.10097677
_cell_length_b   6.10097758
_cell_length_c   6.10097679
_cell_angle_alpha   121.86621082
_cell_angle_beta   118.92441542
_cell_angle_gamma   89.33575840
_symmetry_Int_Tables_number   1
_chemical_formula_structural   ZnNiPtO4
_chemical_formula_sum   'Zn2 Ni2 Pt2 O8'
_cell_volume   159.47242631
_cell_formula_units_Z   2
loop_
 _symmetry_equiv_pos_site_id
 _symmetry_equiv_pos_as_xyz
  1  'x, y, z'
loop_
 _atom_site_type_symbol
 _atom_site_label
 _atom_site_symmetry_multiplicity
 _atom_site_fract_x
 _atom_site_fract_y
 _atom_site_fract_z
 _atom_site_occupancy
  Zn  Zn0  1  0.600971  0.850971  0.750000  1
  Zn  Zn1  1  0.399029  0.149029  0.250000  1
  Ni  Ni2  1  0.000000  0.000000  0.500000  1
  Ni  Ni3  1  0.000000  0.500000  0.000000  1
  Pt  Pt4  1  0.000000  0.500000  0.500000  1
  Pt  Pt5  1  0.500000  0.500000  0.000000  1
  O  O6  1  0.786002  0.264643  0.521359  1
  O  O7  1  0.243284  0.264643  0.978641  1
  O  O8  1  0.246031  0.268014  0.521983  1
  O  O9  1  0.246031  0.724048  0.978017  1
  O  O10  1  0.753969  0.275952  0.021983  1
  O  O11  1  0.756716  0.735357  0.021359  1
  O  O12  1  0.753969  0.731986  0.478017  1
  O  O13  1  0.213998  0.735357  0.478641  1
