# generated using pymatgen
data_Ti4Be4GaSi3
_symmetry_space_group_name_H-M   'P 1'
_cell_length_a   3.65827600
_cell_length_b   5.98212057
_cell_length_c   6.89495600
_cell_angle_alpha   90.02511309
_cell_angle_beta   90.00000000
_cell_angle_gamma   90.00000000
_symmetry_Int_Tables_number   1
_chemical_formula_structural   Ti4Be4GaSi3
_chemical_formula_sum   'Ti4 Be4 Ga1 Si3'
_cell_volume   150.89091344
_cell_formula_units_Z   1
loop_
 _symmetry_equiv_pos_site_id
 _symmetry_equiv_pos_as_xyz
  1  'x, y, z'
loop_
 _atom_site_type_symbol
 _atom_site_label
 _atom_site_symmetry_multiplicity
 _atom_site_fract_x
 _atom_site_fract_y
 _atom_site_fract_z
 _atom_site_occupancy
  Ti  Ti0  1  0.000000  0.504615  0.690602  1
  Ti  Ti1  1  0.000000  0.994690  0.815740  1
  Ti  Ti2  1  0.500000  0.505647  0.306737  1
  Ti  Ti3  1  0.500000  0.000280  0.187224  1
  Be  Be4  1  0.000000  0.701895  0.093322  1
  Be  Be5  1  0.000000  0.206151  0.402144  1
  Be  Be6  1  0.500000  0.297947  0.909873  1
  Be  Be7  1  0.500000  0.790047  0.594102  1
  Ga  Ga8  1  0.500000  0.197337  0.585907  1
  Si  Si9  1  0.000000  0.296576  0.086856  1
  Si  Si10  1  0.000000  0.802529  0.414353  1
  Si  Si11  1  0.500000  0.702283  0.913142  1
