# generated using pymatgen
data_Rb12Na8Zr3SnAs12
_symmetry_space_group_name_H-M   'P 1'
_cell_length_a   11.01273476
_cell_length_b   11.01273519
_cell_length_c   16.08507473
_cell_angle_alpha   90.03479710
_cell_angle_beta   90.03479759
_cell_angle_gamma   142.81479377
_symmetry_Int_Tables_number   1
_chemical_formula_structural   Rb12Na8Zr3SnAs12
_chemical_formula_sum   'Rb12 Na8 Zr3 Sn1 As12'
_cell_volume   1179.05049847
_cell_formula_units_Z   1
loop_
 _symmetry_equiv_pos_site_id
 _symmetry_equiv_pos_as_xyz
  1  'x, y, z'
loop_
 _atom_site_type_symbol
 _atom_site_label
 _atom_site_symmetry_multiplicity
 _atom_site_fract_x
 _atom_site_fract_y
 _atom_site_fract_z
 _atom_site_occupancy
  Rb  Rb0  1  0.606591  0.945111  0.824370  1
  Rb  Rb1  1  0.277113  0.276831  0.317455  1
  Rb  Rb2  1  0.227001  0.224658  0.816985  1
  Rb  Rb3  1  0.723169  0.722887  0.682545  1
  Rb  Rb4  1  0.445556  0.106868  0.675439  1
  Rb  Rb5  1  0.893132  0.554444  0.324561  1
  Rb  Rb6  1  0.054889  0.393409  0.175630  1
  Rb  Rb7  1  0.398210  0.063150  0.173907  1
  Rb  Rb8  1  0.555037  0.894216  0.323528  1
  Rb  Rb9  1  0.105784  0.444963  0.676472  1
  Rb  Rb10  1  0.936850  0.601790  0.826093  1
  Rb  Rb11  1  0.775342  0.772999  0.183015  1
  Na  Na12  1  0.080814  0.919186  0.000000  1
  Na  Na13  1  0.580388  0.419612  0.500000  1
  Na  Na14  1  0.919185  0.080815  0.000000  1
  Na  Na15  1  0.754009  0.245991  0.000000  1
  Na  Na16  1  0.745288  0.254712  0.500000  1
  Na  Na17  1  0.245726  0.754274  0.000000  1
  Na  Na18  1  0.254812  0.745188  0.500000  1
  Na  Na19  1  0.419623  0.580377  0.500000  1
  Zr  Zr20  1  0.086212  0.913788  0.500000  1
  Zr  Zr21  1  0.417182  0.582818  0.000000  1
  Zr  Zr22  1  0.913898  0.086102  0.500000  1
  Sn  Sn23  1  0.584357  0.415643  0.000000  1
  As  As24  1  0.059739  0.373211  0.402701  1
  As  As25  1  0.877096  0.563806  0.099693  1
  As  As26  1  0.436194  0.122904  0.900307  1
  As  As27  1  0.626789  0.940261  0.597299  1
  As  As28  1  0.940390  0.626821  0.597419  1
  As  As29  1  0.130395  0.441534  0.903409  1
  As  As30  1  0.558466  0.869605  0.096591  1
  As  As31  1  0.373179  0.059610  0.402581  1
  As  As32  1  0.202214  0.202117  0.588793  1
  As  As33  1  0.707769  0.710283  0.906970  1
  As  As34  1  0.289717  0.292231  0.093030  1
  As  As35  1  0.797883  0.797786  0.411207  1
