# generated using pymatgen
data_ThUB6Mo
_symmetry_space_group_name_H-M   'P 1'
_cell_length_a   3.79664500
_cell_length_b   9.38096000
_cell_length_c   11.51544600
_cell_angle_alpha   90.00000000
_cell_angle_beta   90.00000000
_cell_angle_gamma   90.00000000
_symmetry_Int_Tables_number   1
_chemical_formula_structural   ThUB6Mo
_chemical_formula_sum   'Th4 U4 B24 Mo4'
_cell_volume   410.13613855
_cell_formula_units_Z   4
loop_
 _symmetry_equiv_pos_site_id
 _symmetry_equiv_pos_as_xyz
  1  'x, y, z'
loop_
 _atom_site_type_symbol
 _atom_site_label
 _atom_site_symmetry_multiplicity
 _atom_site_fract_x
 _atom_site_fract_y
 _atom_site_fract_z
 _atom_site_occupancy
  Th  Th0  1  0.000000  0.334898  0.407961  1
  Th  Th1  1  0.000000  0.665102  0.592039  1
  Th  Th2  1  0.000000  0.834898  0.092039  1
  Th  Th3  1  0.000000  0.165102  0.907961  1
  U  U4  1  0.000000  0.956437  0.395312  1
  U  U5  1  0.000000  0.043563  0.604688  1
  U  U6  1  0.000000  0.456437  0.104688  1
  U  U7  1  0.000000  0.543563  0.895312  1
  B  B8  1  0.500000  0.555105  0.428903  1
  B  B9  1  0.500000  0.444895  0.571097  1
  B  B10  1  0.500000  0.055105  0.071097  1
  B  B11  1  0.500000  0.944895  0.928903  1
  B  B12  1  0.500000  0.746626  0.421540  1
  B  B13  1  0.500000  0.253374  0.578460  1
  B  B14  1  0.500000  0.246626  0.078460  1
  B  B15  1  0.500000  0.753374  0.921540  1
  B  B16  1  0.500000  0.802763  0.274861  1
  B  B17  1  0.500000  0.197237  0.725139  1
  B  B18  1  0.500000  0.302763  0.225139  1
  B  B19  1  0.500000  0.697237  0.774861  1
  B  B20  1  0.500000  0.642500  0.187539  1
  B  B21  1  0.500000  0.357500  0.812461  1
  B  B22  1  0.500000  0.142500  0.312461  1
  B  B23  1  0.500000  0.857500  0.687539  1
  B  B24  1  0.500000  0.990560  0.221047  1
  B  B25  1  0.500000  0.009440  0.778953  1
  B  B26  1  0.500000  0.490560  0.278953  1
  B  B27  1  0.500000  0.509440  0.721047  1
  B  B28  1  0.500000  0.633809  0.036918  1
  B  B29  1  0.500000  0.366191  0.963082  1
  B  B30  1  0.500000  0.133809  0.463082  1
  B  B31  1  0.500000  0.866191  0.536918  1
  Mo  Mo32  1  0.000000  0.647436  0.317449  1
  Mo  Mo33  1  0.000000  0.352564  0.682551  1
  Mo  Mo34  1  0.000000  0.147436  0.182551  1
  Mo  Mo35  1  0.000000  0.852564  0.817449  1
