# generated using pymatgen
data_Y4Tm4Sc12Si15Ag
_symmetry_space_group_name_H-M   'P 1'
_cell_length_a   7.11190126
_cell_length_b   7.35654537
_cell_length_c   14.04259307
_cell_angle_alpha   89.86865100
_cell_angle_beta   89.59207250
_cell_angle_gamma   90.25757356
_symmetry_Int_Tables_number   1
_chemical_formula_structural   Y4Tm4Sc12Si15Ag
_chemical_formula_sum   'Y4 Tm4 Sc12 Si15 Ag1'
_cell_volume   734.66673863
_cell_formula_units_Z   1
loop_
 _symmetry_equiv_pos_site_id
 _symmetry_equiv_pos_as_xyz
  1  'x, y, z'
loop_
 _atom_site_type_symbol
 _atom_site_label
 _atom_site_symmetry_multiplicity
 _atom_site_fract_x
 _atom_site_fract_y
 _atom_site_fract_z
 _atom_site_occupancy
  Y  Y0  1  0.011173  0.175257  0.097465  1
  Y  Y1  1  0.988655  0.826374  0.904270  1
  Y  Y2  1  0.488385  0.676247  0.904731  1
  Y  Y3  1  0.989907  0.831232  0.597011  1
  Tm  Tm4  1  0.511680  0.322939  0.097072  1
  Tm  Tm5  1  0.007902  0.172314  0.398108  1
  Tm  Tm6  1  0.511044  0.321816  0.400270  1
  Tm  Tm7  1  0.494633  0.678700  0.599837  1
  Sc  Sc8  1  0.164078  0.501569  0.752840  1
  Sc  Sc9  1  0.836276  0.498078  0.251310  1
  Sc  Sc10  1  0.336927  0.000390  0.249208  1
  Sc  Sc11  1  0.665489  0.996694  0.751033  1
  Sc  Sc12  1  0.343600  0.174297  0.626622  1
  Sc  Sc13  1  0.663364  0.822752  0.373567  1
  Sc  Sc14  1  0.166504  0.674607  0.371406  1
  Sc  Sc15  1  0.668899  0.824007  0.125384  1
  Sc  Sc16  1  0.826818  0.325839  0.625099  1
  Sc  Sc17  1  0.329881  0.176048  0.876129  1
  Sc  Sc18  1  0.830780  0.323206  0.875914  1
  Sc  Sc19  1  0.168912  0.675530  0.125718  1
  Si  Si20  1  0.037479  0.121776  0.749973  1
  Si  Si21  1  0.964365  0.883830  0.249114  1
  Si  Si22  1  0.466427  0.612690  0.248130  1
  Si  Si23  1  0.535165  0.387053  0.751883  1
  Si  Si24  1  0.287129  0.873725  0.750227  1
  Si  Si25  1  0.710757  0.129066  0.249060  1
  Si  Si26  1  0.214803  0.369314  0.249054  1
  Si  Si27  1  0.787960  0.627658  0.751855  1
  Si  Si28  1  0.833217  0.535451  0.458853  1
  Si  Si29  1  0.335883  0.962438  0.460654  1
  Si  Si30  1  0.841550  0.534805  0.039581  1
  Si  Si31  1  0.659755  0.036693  0.537201  1
  Si  Si32  1  0.155732  0.464102  0.962143  1
  Si  Si33  1  0.657005  0.036923  0.961417  1
  Si  Si34  1  0.343184  0.965444  0.040337  1
  Ag  Ag35  1  0.164680  0.461133  0.537524  1
