# generated using pymatgen
data_Er3Lu(Co4P3)2
_symmetry_space_group_name_H-M   'P 1'
_cell_length_a   3.72035200
_cell_length_b   10.67549700
_cell_length_c   12.37501800
_cell_angle_alpha   90.00000000
_cell_angle_beta   90.00000000
_cell_angle_gamma   90.00000000
_symmetry_Int_Tables_number   1
_chemical_formula_structural   Er3Lu(Co4P3)2
_chemical_formula_sum   'Er6 Lu2 Co16 P12'
_cell_volume   491.49372176
_cell_formula_units_Z   2
loop_
 _symmetry_equiv_pos_site_id
 _symmetry_equiv_pos_as_xyz
  1  'x, y, z'
loop_
 _atom_site_type_symbol
 _atom_site_label
 _atom_site_symmetry_multiplicity
 _atom_site_fract_x
 _atom_site_fract_y
 _atom_site_fract_z
 _atom_site_occupancy
  Er  Er0  1  0.750000  0.250000  0.469960  1
  Er  Er1  1  0.250000  0.750000  0.530040  1
  Er  Er2  1  0.250000  0.926271  0.793746  1
  Er  Er3  1  0.250000  0.573729  0.793746  1
  Er  Er4  1  0.750000  0.073729  0.206254  1
  Er  Er5  1  0.750000  0.426271  0.206254  1
  Lu  Lu6  1  0.250000  0.250000  0.839925  1
  Lu  Lu7  1  0.750000  0.750000  0.160075  1
  Co  Co8  1  0.250000  0.250000  0.295203  1
  Co  Co9  1  0.750000  0.750000  0.704797  1
  Co  Co10  1  0.750000  0.250000  0.013901  1
  Co  Co11  1  0.250000  0.750000  0.986099  1
  Co  Co12  1  0.250000  0.418626  0.006089  1
  Co  Co13  1  0.250000  0.081374  0.006089  1
  Co  Co14  1  0.750000  0.581374  0.993911  1
  Co  Co15  1  0.750000  0.918626  0.993911  1
  Co  Co16  1  0.250000  0.455175  0.566016  1
  Co  Co17  1  0.250000  0.044825  0.566016  1
  Co  Co18  1  0.750000  0.544825  0.433984  1
  Co  Co19  1  0.750000  0.955175  0.433984  1
  Co  Co20  1  0.250000  0.873134  0.300801  1
  Co  Co21  1  0.250000  0.626866  0.300801  1
  Co  Co22  1  0.750000  0.126866  0.699199  1
  Co  Co23  1  0.750000  0.373134  0.699199  1
  P  P24  1  0.250000  0.250000  0.115451  1
  P  P25  1  0.750000  0.750000  0.884549  1
  P  P26  1  0.250000  0.250000  0.633438  1
  P  P27  1  0.750000  0.750000  0.366562  1
  P  P28  1  0.250000  0.439567  0.384448  1
  P  P29  1  0.250000  0.060433  0.384448  1
  P  P30  1  0.750000  0.560433  0.615552  1
  P  P31  1  0.750000  0.939567  0.615552  1
  P  P32  1  0.250000  0.914043  0.106469  1
  P  P33  1  0.250000  0.585957  0.106469  1
  P  P34  1  0.750000  0.085957  0.893531  1
  P  P35  1  0.750000  0.414043  0.893531  1
