# generated using pymatgen
data_Er10Ag3Os
_symmetry_space_group_name_H-M   'P 1'
_cell_length_a   9.39159600
_cell_length_b   9.39159624
_cell_length_c   9.61570700
_cell_angle_alpha   90.00000000
_cell_angle_beta   90.00000000
_cell_angle_gamma   119.99999914
_symmetry_Int_Tables_number   1
_chemical_formula_structural   Er10Ag3Os
_chemical_formula_sum   'Er20 Ag6 Os2'
_cell_volume   734.49809306
_cell_formula_units_Z   2
loop_
 _symmetry_equiv_pos_site_id
 _symmetry_equiv_pos_as_xyz
  1  'x, y, z'
loop_
 _atom_site_type_symbol
 _atom_site_label
 _atom_site_symmetry_multiplicity
 _atom_site_fract_x
 _atom_site_fract_y
 _atom_site_fract_z
 _atom_site_occupancy
  Er  Er0  1  0.000000  0.000000  0.500000  1
  Er  Er1  1  0.000000  0.000000  0.000000  1
  Er  Er2  1  0.539539  0.460461  0.250000  1
  Er  Er3  1  0.539539  0.079080  0.250000  1
  Er  Er4  1  0.920920  0.460461  0.250000  1
  Er  Er5  1  0.460461  0.539539  0.750000  1
  Er  Er6  1  0.460461  0.920920  0.750000  1
  Er  Er7  1  0.079080  0.539539  0.750000  1
  Er  Er8  1  0.208769  0.791231  0.442546  1
  Er  Er9  1  0.208769  0.417537  0.442546  1
  Er  Er10  1  0.582463  0.791231  0.442546  1
  Er  Er11  1  0.791231  0.208769  0.557454  1
  Er  Er12  1  0.791231  0.582463  0.557454  1
  Er  Er13  1  0.417537  0.208769  0.557454  1
  Er  Er14  1  0.791231  0.208769  0.942546  1
  Er  Er15  1  0.791231  0.582463  0.942546  1
  Er  Er16  1  0.417537  0.208769  0.942546  1
  Er  Er17  1  0.208769  0.791231  0.057454  1
  Er  Er18  1  0.208769  0.417537  0.057454  1
  Er  Er19  1  0.582463  0.791231  0.057454  1
  Ag  Ag20  1  0.883482  0.116518  0.250000  1
  Ag  Ag21  1  0.883482  0.766962  0.250000  1
  Ag  Ag22  1  0.233038  0.116518  0.250000  1
  Ag  Ag23  1  0.116518  0.883482  0.750000  1
  Ag  Ag24  1  0.116518  0.233038  0.750000  1
  Ag  Ag25  1  0.766962  0.883482  0.750000  1
  Os  Os26  1  0.333333  0.666667  0.250000  1
  Os  Os27  1  0.666667  0.333333  0.750000  1
