# generated using pymatgen
data_TbPa(ReN3)2
_symmetry_space_group_name_H-M   'P 1'
_cell_length_a   5.34427600
_cell_length_b   5.76794700
_cell_length_c   7.76196800
_cell_angle_alpha   90.00000000
_cell_angle_beta   90.00000000
_cell_angle_gamma   90.00000000
_symmetry_Int_Tables_number   1
_chemical_formula_structural   TbPa(ReN3)2
_chemical_formula_sum   'Tb2 Pa2 Re4 N12'
_cell_volume   239.26655018
_cell_formula_units_Z   2
loop_
 _symmetry_equiv_pos_site_id
 _symmetry_equiv_pos_as_xyz
  1  'x, y, z'
loop_
 _atom_site_type_symbol
 _atom_site_label
 _atom_site_symmetry_multiplicity
 _atom_site_fract_x
 _atom_site_fract_y
 _atom_site_fract_z
 _atom_site_occupancy
  Tb  Tb0  1  0.517761  0.567163  0.750000  1
  Tb  Tb1  1  0.982239  0.067163  0.750000  1
  Pa  Pa2  1  0.477149  0.424542  0.250000  1
  Pa  Pa3  1  0.022851  0.924542  0.250000  1
  Re  Re4  1  0.509378  0.000799  0.509030  1
  Re  Re5  1  0.990622  0.500799  0.990970  1
  Re  Re6  1  0.990622  0.500799  0.509030  1
  Re  Re7  1  0.509378  0.000799  0.990970  1
  N  N8  1  0.698697  0.292106  0.546719  1
  N  N9  1  0.312204  0.696812  0.062607  1
  N  N10  1  0.187796  0.196812  0.062607  1
  N  N11  1  0.413299  0.984494  0.750000  1
  N  N12  1  0.882450  0.544365  0.250000  1
  N  N13  1  0.312204  0.696812  0.437393  1
  N  N14  1  0.801303  0.792106  0.953281  1
  N  N15  1  0.698697  0.292106  0.953281  1
  N  N16  1  0.801303  0.792106  0.546719  1
  N  N17  1  0.086701  0.484494  0.750000  1
  N  N18  1  0.187796  0.196812  0.437393  1
  N  N19  1  0.617550  0.044365  0.250000  1
