# generated using pymatgen
data_LiY9Cd3Fe
_symmetry_space_group_name_H-M   'P 1'
_cell_length_a   9.45937400
_cell_length_b   9.45937334
_cell_length_c   9.69116400
_cell_angle_alpha   90.00000000
_cell_angle_beta   90.00000000
_cell_angle_gamma   119.99999532
_symmetry_Int_Tables_number   1
_chemical_formula_structural   LiY9Cd3Fe
_chemical_formula_sum   'Li2 Y18 Cd6 Fe2'
_cell_volume   750.98516536
_cell_formula_units_Z   2
loop_
 _symmetry_equiv_pos_site_id
 _symmetry_equiv_pos_as_xyz
  1  'x, y, z'
loop_
 _atom_site_type_symbol
 _atom_site_label
 _atom_site_symmetry_multiplicity
 _atom_site_fract_x
 _atom_site_fract_y
 _atom_site_fract_z
 _atom_site_occupancy
  Li  Li0  1  0.000000  0.000000  0.500000  1
  Li  Li1  1  0.000000  0.000000  0.000000  1
  Y  Y2  1  0.541797  0.458203  0.250000  1
  Y  Y3  1  0.541797  0.083593  0.250000  1
  Y  Y4  1  0.916407  0.458203  0.250000  1
  Y  Y5  1  0.458203  0.541797  0.750000  1
  Y  Y6  1  0.458203  0.916407  0.750000  1
  Y  Y7  1  0.083593  0.541797  0.750000  1
  Y  Y8  1  0.210075  0.789925  0.436881  1
  Y  Y9  1  0.210075  0.420150  0.436881  1
  Y  Y10  1  0.579850  0.789925  0.436881  1
  Y  Y11  1  0.789925  0.210075  0.563119  1
  Y  Y12  1  0.789925  0.579850  0.563119  1
  Y  Y13  1  0.420150  0.210075  0.563119  1
  Y  Y14  1  0.789925  0.210075  0.936881  1
  Y  Y15  1  0.789925  0.579850  0.936881  1
  Y  Y16  1  0.420150  0.210075  0.936881  1
  Y  Y17  1  0.210075  0.789925  0.063119  1
  Y  Y18  1  0.210075  0.420150  0.063119  1
  Y  Y19  1  0.579850  0.789925  0.063119  1
  Cd  Cd20  1  0.891943  0.108057  0.250000  1
  Cd  Cd21  1  0.891943  0.783886  0.250000  1
  Cd  Cd22  1  0.216114  0.108057  0.250000  1
  Cd  Cd23  1  0.108057  0.891943  0.750000  1
  Cd  Cd24  1  0.108057  0.216114  0.750000  1
  Cd  Cd25  1  0.783886  0.891943  0.750000  1
  Fe  Fe26  1  0.333333  0.666667  0.250000  1
  Fe  Fe27  1  0.666667  0.333333  0.750000  1
