# generated using pymatgen
data_Sm2Y3Ho(SiRh2)6
_symmetry_space_group_name_H-M   'P 1'
_cell_length_a   5.60597400
_cell_length_b   5.60597272
_cell_length_c   15.03056200
_cell_angle_alpha   90.00000000
_cell_angle_beta   90.00000000
_cell_angle_gamma   119.99999573
_symmetry_Int_Tables_number   1
_chemical_formula_structural   Sm2Y3Ho(SiRh2)6
_chemical_formula_sum   'Sm2 Y3 Ho1 Si6 Rh12'
_cell_volume   409.07970044
_cell_formula_units_Z   1
loop_
 _symmetry_equiv_pos_site_id
 _symmetry_equiv_pos_as_xyz
  1  'x, y, z'
loop_
 _atom_site_type_symbol
 _atom_site_label
 _atom_site_symmetry_multiplicity
 _atom_site_fract_x
 _atom_site_fract_y
 _atom_site_fract_z
 _atom_site_occupancy
  Sm  Sm0  1  0.666667  0.333333  0.750161  1
  Sm  Sm1  1  0.333333  0.666667  0.249998  1
  Y  Y2  1  0.666667  0.333333  0.536757  1
  Y  Y3  1  0.333333  0.666667  0.036634  1
  Y  Y4  1  0.333333  0.666667  0.463265  1
  Ho  Ho5  1  0.666667  0.333333  0.963438  1
  Si  Si6  1  0.666667  0.333333  0.250002  1
  Si  Si7  1  0.000000  0.000000  0.500016  1
  Si  Si8  1  0.000000  0.000000  0.249927  1
  Si  Si9  1  0.000000  0.000000  0.749995  1
  Si  Si10  1  0.333333  0.666667  0.750012  1
  Si  Si11  1  0.000000  0.000000  0.999994  1
  Rh  Rh12  1  0.166566  0.333133  0.869442  1
  Rh  Rh13  1  0.166614  0.333228  0.630754  1
  Rh  Rh14  1  0.666867  0.833434  0.869442  1
  Rh  Rh15  1  0.333214  0.166607  0.369251  1
  Rh  Rh16  1  0.833393  0.666786  0.369251  1
  Rh  Rh17  1  0.833393  0.166607  0.369251  1
  Rh  Rh18  1  0.833269  0.166731  0.130487  1
  Rh  Rh19  1  0.333462  0.166731  0.130487  1
  Rh  Rh20  1  0.666772  0.833386  0.630754  1
  Rh  Rh21  1  0.166614  0.833386  0.630754  1
  Rh  Rh22  1  0.833269  0.666538  0.130487  1
  Rh  Rh23  1  0.166566  0.833434  0.869442  1
