# generated using pymatgen
data_NdSmGa2(Co3B)2
_symmetry_space_group_name_H-M   'P 1'
_cell_length_a   5.22169702
_cell_length_b   5.22147567
_cell_length_c   6.68403000
_cell_angle_alpha   90.00000000
_cell_angle_beta   90.00000000
_cell_angle_gamma   119.99720237
_symmetry_Int_Tables_number   1
_chemical_formula_structural   NdSmGa2(Co3B)2
_chemical_formula_sum   'Nd1 Sm1 Ga2 Co6 B2'
_cell_volume   157.82877748
_cell_formula_units_Z   1
loop_
 _symmetry_equiv_pos_site_id
 _symmetry_equiv_pos_as_xyz
  1  'x, y, z'
loop_
 _atom_site_type_symbol
 _atom_site_label
 _atom_site_symmetry_multiplicity
 _atom_site_fract_x
 _atom_site_fract_y
 _atom_site_fract_z
 _atom_site_occupancy
  Nd  Nd0  1  0.999971  0.999997  0.000000  1
  Sm  Sm1  1  0.999992  0.000000  0.500000  1
  Ga  Ga2  1  0.333331  0.666699  0.000000  1
  Ga  Ga3  1  0.666619  0.333302  0.000000  1
  Co  Co4  1  0.499989  0.000000  0.295923  1
  Co  Co5  1  0.499987  0.500004  0.295914  1
  Co  Co6  1  0.999984  0.499997  0.295903  1
  Co  Co7  1  0.499989  0.000000  0.704077  1
  Co  Co8  1  0.499987  0.500004  0.704085  1
  Co  Co9  1  0.999984  0.499997  0.704096  1
  B  B10  1  0.333296  0.666665  0.500000  1
  B  B11  1  0.666670  0.333335  0.500000  1
