# generated using pymatgen
data_CsFe2(Sb6Pt)2
_symmetry_space_group_name_H-M   'P 1'
_cell_length_a   8.18682843
_cell_length_b   8.12063736
_cell_length_c   8.12063759
_cell_angle_alpha   109.27093834
_cell_angle_beta   109.40912257
_cell_angle_gamma   109.40457589
_symmetry_Int_Tables_number   1
_chemical_formula_structural   CsFe2(Sb6Pt)2
_chemical_formula_sum   'Cs1 Fe2 Sb12 Pt2'
_cell_volume   417.27703404
_cell_formula_units_Z   1
loop_
 _symmetry_equiv_pos_site_id
 _symmetry_equiv_pos_as_xyz
  1  'x, y, z'
loop_
 _atom_site_type_symbol
 _atom_site_label
 _atom_site_symmetry_multiplicity
 _atom_site_fract_x
 _atom_site_fract_y
 _atom_site_fract_z
 _atom_site_occupancy
  Cs  Cs0  1  0.000000  0.000000  0.000000  1
  Fe  Fe1  1  0.500000  0.000000  0.000000  1
  Fe  Fe2  1  0.500000  0.500000  0.500000  1
  Sb  Sb3  1  0.354203  0.183784  0.851783  1
  Sb  Sb4  1  0.645797  0.816216  0.148217  1
  Sb  Sb5  1  0.645797  0.497580  0.829581  1
  Sb  Sb6  1  0.354203  0.502420  0.170419  1
  Sb  Sb7  1  0.197510  0.846293  0.351216  1
  Sb  Sb8  1  0.802490  0.153707  0.648784  1
  Sb  Sb9  1  0.501567  0.836058  0.665510  1
  Sb  Sb10  1  0.498433  0.163942  0.334490  1
  Sb  Sb11  1  0.830208  0.331790  0.183579  1
  Sb  Sb12  1  0.169792  0.668210  0.816421  1
  Sb  Sb13  1  0.830208  0.646630  0.498417  1
  Sb  Sb14  1  0.169792  0.353370  0.501583  1
  Pt  Pt15  1  0.000000  0.000000  0.500000  1
  Pt  Pt16  1  0.000000  0.500000  0.000000  1
