# generated using pymatgen
data_Nd6Ga4CoIr3
_symmetry_space_group_name_H-M   'P 1'
_cell_length_a   5.74751600
_cell_length_b   8.12806219
_cell_length_c   13.48200021
_cell_angle_alpha   90.06378233
_cell_angle_beta   90.00000000
_cell_angle_gamma   90.00000000
_symmetry_Int_Tables_number   1
_chemical_formula_structural   Nd6Ga4CoIr3
_chemical_formula_sum   'Nd12 Ga8 Co2 Ir6'
_cell_volume   629.82698944
_cell_formula_units_Z   2
loop_
 _symmetry_equiv_pos_site_id
 _symmetry_equiv_pos_as_xyz
  1  'x, y, z'
loop_
 _atom_site_type_symbol
 _atom_site_label
 _atom_site_symmetry_multiplicity
 _atom_site_fract_x
 _atom_site_fract_y
 _atom_site_fract_z
 _atom_site_occupancy
  Nd  Nd0  1  0.373105  0.753562  0.751675  1
  Nd  Nd1  1  0.373105  0.746438  0.248325  1
  Nd  Nd2  1  0.633914  0.257470  0.752098  1
  Nd  Nd3  1  0.633914  0.242530  0.247902  1
  Nd  Nd4  1  0.149185  0.106921  0.399570  1
  Nd  Nd5  1  0.149185  0.393079  0.600430  1
  Nd  Nd6  1  0.847631  0.603506  0.097429  1
  Nd  Nd7  1  0.847631  0.896494  0.902571  1
  Nd  Nd8  1  0.857834  0.898408  0.599882  1
  Nd  Nd9  1  0.857834  0.601592  0.400118  1
  Nd  Nd10  1  0.144395  0.399178  0.905488  1
  Nd  Nd11  1  0.144395  0.100822  0.094512  1
  Ga  Ga12  1  0.870556  0.605672  0.750854  1
  Ga  Ga13  1  0.870556  0.894328  0.249146  1
  Ga  Ga14  1  0.144160  0.102737  0.759200  1
  Ga  Ga15  1  0.144160  0.397263  0.240800  1
  Ga  Ga16  1  0.610505  0.250000  0.000000  1
  Ga  Ga17  1  0.377867  0.750000  0.500000  1
  Ga  Ga18  1  0.363067  0.750000  0.000000  1
  Ga  Ga19  1  0.624977  0.250000  0.500000  1
  Co  Co20  1  0.352594  0.028705  0.914698  1
  Co  Co21  1  0.352594  0.471295  0.085302  1
  Ir  Ir22  1  0.354737  0.466867  0.404984  1
  Ir  Ir23  1  0.354737  0.033133  0.595016  1
  Ir  Ir24  1  0.637268  0.967563  0.091478  1
  Ir  Ir25  1  0.637268  0.532437  0.908522  1
  Ir  Ir26  1  0.646412  0.531409  0.592274  1
  Ir  Ir27  1  0.646412  0.968591  0.407726  1
