# generated using pymatgen
data_Pr4Y5ErSn8
_symmetry_space_group_name_H-M   'P 1'
_cell_length_a   8.08699400
_cell_length_b   8.31570900
_cell_length_c   15.68152700
_cell_angle_alpha   90.00000000
_cell_angle_beta   90.00000000
_cell_angle_gamma   90.00000000
_symmetry_Int_Tables_number   1
_chemical_formula_structural   Pr4Y5ErSn8
_chemical_formula_sum   'Pr8 Y10 Er2 Sn16'
_cell_volume   1054.56840157
_cell_formula_units_Z   2
loop_
 _symmetry_equiv_pos_site_id
 _symmetry_equiv_pos_as_xyz
  1  'x, y, z'
loop_
 _atom_site_type_symbol
 _atom_site_label
 _atom_site_symmetry_multiplicity
 _atom_site_fract_x
 _atom_site_fract_y
 _atom_site_fract_z
 _atom_site_occupancy
  Pr  Pr0  1  0.508035  0.323689  0.904005  1
  Pr  Pr1  1  0.008035  0.176311  0.595995  1
  Pr  Pr2  1  0.491861  0.676163  0.403417  1
  Pr  Pr3  1  0.991861  0.823837  0.096583  1
  Pr  Pr4  1  0.491861  0.676163  0.096583  1
  Pr  Pr5  1  0.991861  0.823837  0.403417  1
  Pr  Pr6  1  0.508035  0.323689  0.595995  1
  Pr  Pr7  1  0.008035  0.176311  0.904005  1
  Y  Y8  1  0.348347  0.835168  0.876137  1
  Y  Y9  1  0.848347  0.664832  0.623863  1
  Y  Y10  1  0.651682  0.164725  0.375337  1
  Y  Y11  1  0.151682  0.335275  0.124663  1
  Y  Y12  1  0.651682  0.164725  0.124663  1
  Y  Y13  1  0.151682  0.335275  0.375337  1
  Y  Y14  1  0.348347  0.835168  0.623863  1
  Y  Y15  1  0.848347  0.664832  0.876137  1
  Y  Y16  1  0.182072  0.500671  0.750000  1
  Y  Y17  1  0.682072  0.999329  0.750000  1
  Er  Er18  1  0.818137  0.498967  0.250000  1
  Er  Er19  1  0.318137  0.001033  0.250000  1
  Sn  Sn20  1  0.313701  0.040325  0.042384  1
  Sn  Sn21  1  0.813701  0.459675  0.457616  1
  Sn  Sn22  1  0.686062  0.959231  0.541292  1
  Sn  Sn23  1  0.186062  0.540769  0.958708  1
  Sn  Sn24  1  0.686062  0.959231  0.958708  1
  Sn  Sn25  1  0.186062  0.540769  0.541292  1
  Sn  Sn26  1  0.313701  0.040325  0.457616  1
  Sn  Sn27  1  0.813701  0.459675  0.042384  1
  Sn  Sn28  1  0.547059  0.622573  0.750000  1
  Sn  Sn29  1  0.047059  0.877427  0.750000  1
  Sn  Sn30  1  0.454178  0.377530  0.250000  1
  Sn  Sn31  1  0.954178  0.122470  0.250000  1
  Sn  Sn32  1  0.314553  0.143730  0.750000  1
  Sn  Sn33  1  0.814553  0.356270  0.750000  1
  Sn  Sn34  1  0.684622  0.855086  0.250000  1
  Sn  Sn35  1  0.184622  0.644914  0.250000  1
