# generated using pymatgen
data_Er3Sc5In3Fe
_symmetry_space_group_name_H-M   'P 1'
_cell_length_a   9.90049305
_cell_length_b   9.90111075
_cell_length_c   6.76418100
_cell_angle_alpha   90.00000000
_cell_angle_beta   90.00000000
_cell_angle_gamma   119.99065304
_symmetry_Int_Tables_number   1
_chemical_formula_structural   Er3Sc5In3Fe
_chemical_formula_sum   'Er6 Sc10 In6 Fe2'
_cell_volume   574.28502346
_cell_formula_units_Z   2
loop_
 _symmetry_equiv_pos_site_id
 _symmetry_equiv_pos_as_xyz
  1  'x, y, z'
loop_
 _atom_site_type_symbol
 _atom_site_label
 _atom_site_symmetry_multiplicity
 _atom_site_fract_x
 _atom_site_fract_y
 _atom_site_fract_z
 _atom_site_occupancy
  Er  Er0  1  0.532670  0.065311  0.519768  1
  Er  Er1  1  0.934741  0.467339  0.519840  1
  Er  Er2  1  0.532640  0.467368  0.519723  1
  Er  Er3  1  0.467330  0.934689  0.019768  1
  Er  Er4  1  0.065259  0.532661  0.019840  1
  Er  Er5  1  0.467360  0.532632  0.019723  1
  Sc  Sc6  1  0.179031  0.358037  0.726187  1
  Sc  Sc7  1  0.641958  0.820958  0.726187  1
  Sc  Sc8  1  0.179043  0.820950  0.726154  1
  Sc  Sc9  1  0.820969  0.641963  0.226187  1
  Sc  Sc10  1  0.358042  0.179042  0.226187  1
  Sc  Sc11  1  0.820957  0.179050  0.226154  1
  Sc  Sc12  1  0.666647  0.333333  0.918156  1
  Sc  Sc13  1  0.333353  0.666667  0.418156  1
  Sc  Sc14  1  0.999996  0.000006  0.510968  1
  Sc  Sc15  1  0.000004  0.999994  0.010968  1
  In  In16  1  0.839498  0.679028  0.774744  1
  In  In17  1  0.320952  0.160502  0.774733  1
  In  In18  1  0.839520  0.160466  0.774799  1
  In  In19  1  0.160502  0.320972  0.274744  1
  In  In20  1  0.679048  0.839498  0.274733  1
  In  In21  1  0.160480  0.839534  0.274799  1
  Fe  Fe22  1  0.666716  0.333370  0.286582  1
  Fe  Fe23  1  0.333284  0.666630  0.786582  1
