# generated using pymatgen
data_Pr19LuSi15Se
_symmetry_space_group_name_H-M   'P 1'
_cell_length_a   7.93385742
_cell_length_b   7.89152009
_cell_length_c   15.32855959
_cell_angle_alpha   89.78468346
_cell_angle_beta   89.21190663
_cell_angle_gamma   89.94262437
_symmetry_Int_Tables_number   1
_chemical_formula_structural   Pr19LuSi15Se
_chemical_formula_sum   'Pr19 Lu1 Si15 Se1'
_cell_volume   959.62611283
_cell_formula_units_Z   1
loop_
 _symmetry_equiv_pos_site_id
 _symmetry_equiv_pos_as_xyz
  1  'x, y, z'
loop_
 _atom_site_type_symbol
 _atom_site_label
 _atom_site_symmetry_multiplicity
 _atom_site_fract_x
 _atom_site_fract_y
 _atom_site_fract_z
 _atom_site_occupancy
  Pr  Pr0  1  0.188748  0.808288  0.249325  1
  Pr  Pr1  1  0.801118  0.190519  0.751821  1
  Pr  Pr2  1  0.687918  0.689470  0.497477  1
  Pr  Pr3  1  0.380135  0.007008  0.443528  1
  Pr  Pr4  1  0.491006  0.875383  0.698612  1
  Pr  Pr5  1  0.509049  0.121906  0.195272  1
  Pr  Pr6  1  0.876770  0.486600  0.300939  1
  Pr  Pr7  1  0.124163  0.509991  0.804221  1
  Pr  Pr8  1  0.629694  0.986186  0.950701  1
  Pr  Pr9  1  0.000499  0.379965  0.548535  1
  Pr  Pr10  1  0.991164  0.621917  0.052972  1
  Pr  Pr11  1  0.136836  0.987868  0.874032  1
  Pr  Pr12  1  0.517544  0.628561  0.125505  1
  Pr  Pr13  1  0.477318  0.371204  0.631182  1
  Pr  Pr14  1  0.631984  0.521226  0.876267  1
  Pr  Pr15  1  0.371234  0.478118  0.373245  1
  Pr  Pr16  1  0.871353  0.019624  0.376444  1
  Pr  Pr17  1  0.982689  0.128707  0.123692  1
  Pr  Pr18  1  0.015325  0.868758  0.621897  1
  Lu  Lu19  1  0.314205  0.310535  0.999688  1
  Si  Si20  1  0.329395  0.693036  0.952302  1
  Si  Si21  1  0.663283  0.304774  0.454374  1
  Si  Si22  1  0.696500  0.333073  0.048898  1
  Si  Si23  1  0.303629  0.667115  0.548968  1
  Si  Si24  1  0.804223  0.831609  0.202279  1
  Si  Si25  1  0.168457  0.194694  0.296328  1
  Si  Si26  1  0.839666  0.804178  0.797327  1
  Si  Si27  1  0.287709  0.926922  0.057703  1
  Si  Si28  1  0.577172  0.786030  0.308433  1
  Si  Si29  1  0.444708  0.213656  0.827799  1
  Si  Si30  1  0.788180  0.578595  0.689389  1
  Si  Si31  1  0.213940  0.419906  0.186292  1
  Si  Si32  1  0.703775  0.075788  0.560982  1
  Si  Si33  1  0.931545  0.290756  0.941400  1
  Si  Si34  1  0.077708  0.711179  0.440418  1
  Se  Se35  1  0.171356  0.176853  0.691747  1
