# generated using pymatgen
data_Tm5Co19(SiP5)2
_symmetry_space_group_name_H-M   'P 1'
_cell_length_a   11.98024636
_cell_length_b   11.97036013
_cell_length_c   3.65896300
_cell_angle_alpha   90.00000000
_cell_angle_beta   90.00000000
_cell_angle_gamma   119.97270580
_symmetry_Int_Tables_number   1
_chemical_formula_structural   Tm5Co19(SiP5)2
_chemical_formula_sum   'Tm5 Co19 Si2 P10'
_cell_volume   454.54930182
_cell_formula_units_Z   1
loop_
 _symmetry_equiv_pos_site_id
 _symmetry_equiv_pos_as_xyz
  1  'x, y, z'
loop_
 _atom_site_type_symbol
 _atom_site_label
 _atom_site_symmetry_multiplicity
 _atom_site_fract_x
 _atom_site_fract_y
 _atom_site_fract_z
 _atom_site_occupancy
  Tm  Tm0  1  0.665766  0.332916  0.000000  1
  Tm  Tm1  1  0.334234  0.667151  0.000000  1
  Tm  Tm2  1  0.184288  0.184394  0.500000  1
  Tm  Tm3  1  0.815712  0.000105  0.500000  1
  Tm  Tm4  1  0.000000  0.812724  0.500000  1
  Co  Co5  1  0.824821  0.203029  0.000000  1
  Co  Co6  1  0.802054  0.622959  0.000000  1
  Co  Co7  1  0.376979  0.174921  0.000000  1
  Co  Co8  1  0.197946  0.820906  0.000000  1
  Co  Co9  1  0.623021  0.797943  0.000000  1
  Co  Co10  1  0.175179  0.378208  0.000000  1
  Co  Co11  1  0.557946  0.555734  0.000000  1
  Co  Co12  1  0.442054  0.997788  0.000000  1
  Co  Co13  1  0.000000  0.448312  0.000000  1
  Co  Co14  1  0.641890  0.127534  0.500000  1
  Co  Co15  1  0.874396  0.516683  0.500000  1
  Co  Co16  1  0.485540  0.357536  0.500000  1
  Co  Co17  1  0.125604  0.642287  0.500000  1
  Co  Co18  1  0.514460  0.871996  0.500000  1
  Co  Co19  1  0.358110  0.485644  0.500000  1
  Co  Co20  1  0.716936  0.715703  0.500000  1
  Co  Co21  1  0.283064  0.998767  0.500000  1
  Co  Co22  1  0.000000  0.285452  0.500000  1
  Co  Co23  1  0.000000  0.000147  0.000000  1
  Si  Si24  1  0.368026  0.368119  0.000000  1
  Si  Si25  1  0.631974  0.000093  0.000000  1
  P  P26  1  0.000000  0.632702  0.000000  1
  P  P27  1  0.833127  0.314465  0.500000  1
  P  P28  1  0.685290  0.519398  0.500000  1
  P  P29  1  0.479779  0.165332  0.500000  1
  P  P30  1  0.314710  0.834108  0.500000  1
  P  P31  1  0.520221  0.685553  0.500000  1
  P  P32  1  0.166873  0.481338  0.500000  1
  P  P33  1  0.819799  0.819272  0.000000  1
  P  P34  1  0.180201  0.999473  0.000000  1
  P  P35  1  0.000000  0.181310  0.000000  1
