# generated using pymatgen
data_SmDy5(Si3Os)8
_symmetry_space_group_name_H-M   'P 1'
_cell_length_a   10.13618863
_cell_length_b   10.13618754
_cell_length_c   8.17534136
_cell_angle_alpha   90.07938266
_cell_angle_beta   89.92061273
_cell_angle_gamma   132.44709886
_symmetry_Int_Tables_number   1
_chemical_formula_structural   SmDy5(Si3Os)8
_chemical_formula_sum   'Sm1 Dy5 Si24 Os8'
_cell_volume   619.80160560
_cell_formula_units_Z   1
loop_
 _symmetry_equiv_pos_site_id
 _symmetry_equiv_pos_as_xyz
  1  'x, y, z'
loop_
 _atom_site_type_symbol
 _atom_site_label
 _atom_site_symmetry_multiplicity
 _atom_site_fract_x
 _atom_site_fract_y
 _atom_site_fract_z
 _atom_site_occupancy
  Sm  Sm0  1  0.501667  0.001667  0.750000  1
  Dy  Dy1  1  0.500041  0.500032  0.499994  1
  Dy  Dy2  1  0.000032  0.000041  0.000006  1
  Dy  Dy3  1  0.999076  0.499076  0.250000  1
  Dy  Dy4  1  0.498742  0.998742  0.250000  1
  Dy  Dy5  1  0.001291  0.501291  0.750000  1
  Si  Si6  1  0.795958  0.205543  0.499141  1
  Si  Si7  1  0.294660  0.704252  0.000792  1
  Si  Si8  1  0.204252  0.794660  0.499208  1
  Si  Si9  1  0.705543  0.295958  0.000859  1
  Si  Si10  1  0.332492  0.332285  0.832817  1
  Si  Si11  1  0.667593  0.667620  0.166954  1
  Si  Si12  1  0.167620  0.167593  0.333046  1
  Si  Si13  1  0.832285  0.832492  0.667183  1
  Si  Si14  1  0.120887  0.886228  0.728100  1
  Si  Si15  1  0.113397  0.879262  0.272200  1
  Si  Si16  1  0.612069  0.377678  0.227675  1
  Si  Si17  1  0.622691  0.387799  0.771362  1
  Si  Si18  1  0.877678  0.112069  0.272325  1
  Si  Si19  1  0.887799  0.122691  0.728638  1
  Si  Si20  1  0.386228  0.620887  0.771900  1
  Si  Si21  1  0.379262  0.613397  0.227800  1
  Si  Si22  1  0.345786  0.111633  0.503233  1
  Si  Si23  1  0.889103  0.655652  0.495716  1
  Si  Si24  1  0.388294  0.153601  0.006005  1
  Si  Si25  1  0.844468  0.611046  0.995163  1
  Si  Si26  1  0.653601  0.888294  0.493995  1
  Si  Si27  1  0.111046  0.344468  0.504837  1
  Si  Si28  1  0.611633  0.845786  0.996767  1
  Si  Si29  1  0.155652  0.389103  0.004284  1
  Os  Os30  1  0.670814  0.333174  0.498261  1
  Os  Os31  1  0.166678  0.829051  0.001013  1
  Os  Os32  1  0.329051  0.666678  0.498987  1
  Os  Os33  1  0.833174  0.170814  0.001739  1
  Os  Os34  1  0.126713  0.126524  0.627755  1
  Os  Os35  1  0.872948  0.873250  0.372661  1
  Os  Os36  1  0.373250  0.372948  0.127339  1
  Os  Os37  1  0.626524  0.626713  0.872245  1
