# generated using pymatgen
data_InCu(Sb4Ru)3
_symmetry_space_group_name_H-M   'P 1'
_cell_length_a   8.15199365
_cell_length_b   8.15199470
_cell_length_c   8.18054400
_cell_angle_alpha   109.54217913
_cell_angle_beta   109.54218175
_cell_angle_gamma   109.40017083
_symmetry_Int_Tables_number   1
_chemical_formula_structural   InCu(Sb4Ru)3
_chemical_formula_sum   'In1 Cu1 Sb12 Ru3'
_cell_volume   418.12575615
_cell_formula_units_Z   1
loop_
 _symmetry_equiv_pos_site_id
 _symmetry_equiv_pos_as_xyz
  1  'x, y, z'
loop_
 _atom_site_type_symbol
 _atom_site_label
 _atom_site_symmetry_multiplicity
 _atom_site_fract_x
 _atom_site_fract_y
 _atom_site_fract_z
 _atom_site_occupancy
  In  In0  1  0.000000  0.000000  0.000000  1
  Cu  Cu1  1  0.000000  0.000000  0.500000  1
  Sb  Sb2  1  0.654187  0.842336  0.502991  1
  Sb  Sb3  1  0.345813  0.157664  0.497009  1
  Sb  Sb4  1  0.842336  0.188148  0.339344  1
  Sb  Sb5  1  0.811852  0.654187  0.151196  1
  Sb  Sb6  1  0.842525  0.504787  0.663413  1
  Sb  Sb7  1  0.188148  0.345813  0.848804  1
  Sb  Sb8  1  0.157664  0.811852  0.660656  1
  Sb  Sb9  1  0.504787  0.662262  0.841374  1
  Sb  Sb10  1  0.495213  0.337738  0.158626  1
  Sb  Sb11  1  0.157475  0.495213  0.336587  1
  Sb  Sb12  1  0.337738  0.842525  0.179112  1
  Sb  Sb13  1  0.662262  0.157475  0.820888  1
  Ru  Ru14  1  0.500000  0.500000  0.500000  1
  Ru  Ru15  1  0.500000  0.000000  0.000000  1
  Ru  Ru16  1  0.000000  0.500000  0.000000  1
