# generated using pymatgen
data_DyCo5Si4Ni
_symmetry_space_group_name_H-M   'P 1'
_cell_length_a   6.62899100
_cell_length_b   6.62899071
_cell_length_c   3.60771900
_cell_angle_alpha   90.00000000
_cell_angle_beta   90.00000000
_cell_angle_gamma   120.41668509
_symmetry_Int_Tables_number   1
_chemical_formula_structural   DyCo5Si4Ni
_chemical_formula_sum   'Dy1 Co5 Si4 Ni1'
_cell_volume   136.71598804
_cell_formula_units_Z   1
loop_
 _symmetry_equiv_pos_site_id
 _symmetry_equiv_pos_as_xyz
  1  'x, y, z'
loop_
 _atom_site_type_symbol
 _atom_site_label
 _atom_site_symmetry_multiplicity
 _atom_site_fract_x
 _atom_site_fract_y
 _atom_site_fract_z
 _atom_site_occupancy
  Dy  Dy0  1  0.997947  0.002053  0.000000  1
  Co  Co1  1  0.534321  0.465679  0.000000  1
  Co  Co2  1  0.532305  0.066788  0.000000  1
  Co  Co3  1  0.933212  0.467695  0.000000  1
  Co  Co4  1  0.204975  0.408614  0.500000  1
  Co  Co5  1  0.591386  0.795025  0.500000  1
  Si  Si6  1  0.801005  0.198995  0.500000  1
  Si  Si7  1  0.797234  0.599861  0.500000  1
  Si  Si8  1  0.400139  0.202766  0.500000  1
  Si  Si9  1  0.336223  0.663777  0.000000  1
  Ni  Ni10  1  0.204586  0.795414  0.500000  1
