# generated using pymatgen
data_DyY17Lu2(Cd3Ru)2
_symmetry_space_group_name_H-M   'P 1'
_cell_length_a   9.59475127
_cell_length_b   9.59475116
_cell_length_c   9.84489327
_cell_angle_alpha   90.02614931
_cell_angle_beta   89.97384362
_cell_angle_gamma   119.84475460
_symmetry_Int_Tables_number   1
_chemical_formula_structural   DyY17Lu2(Cd3Ru)2
_chemical_formula_sum   'Dy1 Y17 Lu2 Cd6 Ru2'
_cell_volume   786.11536985
_cell_formula_units_Z   1
loop_
 _symmetry_equiv_pos_site_id
 _symmetry_equiv_pos_as_xyz
  1  'x, y, z'
loop_
 _atom_site_type_symbol
 _atom_site_label
 _atom_site_symmetry_multiplicity
 _atom_site_fract_x
 _atom_site_fract_y
 _atom_site_fract_z
 _atom_site_occupancy
  Dy  Dy0  1  0.209441  0.790559  0.439534  1
  Y  Y1  1  0.208921  0.417766  0.440214  1
  Y  Y2  1  0.582234  0.791079  0.440214  1
  Y  Y3  1  0.791000  0.209000  0.559928  1
  Y  Y4  1  0.791235  0.582089  0.559908  1
  Y  Y5  1  0.417911  0.208765  0.559908  1
  Y  Y6  1  0.790933  0.209067  0.940005  1
  Y  Y7  1  0.791122  0.582128  0.940028  1
  Y  Y8  1  0.417872  0.208878  0.940028  1
  Y  Y9  1  0.208917  0.791083  0.059818  1
  Y  Y10  1  0.209141  0.418130  0.060032  1
  Y  Y11  1  0.581870  0.790859  0.060032  1
  Y  Y12  1  0.541438  0.458562  0.250038  1
  Y  Y13  1  0.541214  0.082030  0.250095  1
  Y  Y14  1  0.917970  0.458786  0.250095  1
  Y  Y15  1  0.458862  0.541138  0.749998  1
  Y  Y16  1  0.458659  0.917700  0.749804  1
  Y  Y17  1  0.082300  0.541341  0.749804  1
  Lu  Lu18  1  0.000191  0.999809  0.499859  1
  Lu  Lu19  1  0.999977  0.000023  0.000092  1
  Cd  Cd20  1  0.886479  0.113521  0.250048  1
  Cd  Cd21  1  0.885628  0.772597  0.249866  1
  Cd  Cd22  1  0.227403  0.114372  0.249866  1
  Cd  Cd23  1  0.113514  0.886486  0.750152  1
  Cd  Cd24  1  0.114160  0.227442  0.749991  1
  Cd  Cd25  1  0.772558  0.885840  0.749991  1
  Ru  Ru26  1  0.332309  0.667691  0.250710  1
  Ru  Ru27  1  0.666741  0.333259  0.749943  1
