# generated using pymatgen
data_SmNb8SnS16
_symmetry_space_group_name_H-M   'P 1'
_cell_length_a   6.67125700
_cell_length_b   6.67125858
_cell_length_c   13.97806100
_cell_angle_alpha   90.00000000
_cell_angle_beta   90.00000000
_cell_angle_gamma   120.00000702
_symmetry_Int_Tables_number   1
_chemical_formula_structural   SmNb8SnS16
_chemical_formula_sum   'Sm1 Nb8 Sn1 S16'
_cell_volume   538.75706518
_cell_formula_units_Z   1
loop_
 _symmetry_equiv_pos_site_id
 _symmetry_equiv_pos_as_xyz
  1  'x, y, z'
loop_
 _atom_site_type_symbol
 _atom_site_label
 _atom_site_symmetry_multiplicity
 _atom_site_fract_x
 _atom_site_fract_y
 _atom_site_fract_z
 _atom_site_occupancy
  Sm  Sm0  1  0.000000  0.000000  0.000000  1
  Nb  Nb1  1  0.000000  0.000000  0.247345  1
  Nb  Nb2  1  0.000000  0.000000  0.752655  1
  Nb  Nb3  1  0.504631  0.009262  0.250240  1
  Nb  Nb4  1  0.990738  0.495369  0.250240  1
  Nb  Nb5  1  0.504631  0.495369  0.250240  1
  Nb  Nb6  1  0.495369  0.990738  0.749760  1
  Nb  Nb7  1  0.009262  0.504631  0.749760  1
  Nb  Nb8  1  0.495369  0.504631  0.749760  1
  Sn  Sn9  1  0.000000  0.000000  0.500000  1
  S  S10  1  0.333333  0.666667  0.864622  1
  S  S11  1  0.666667  0.333333  0.135378  1
  S  S12  1  0.666667  0.333333  0.364097  1
  S  S13  1  0.333333  0.666667  0.635903  1
  S  S14  1  0.167696  0.832304  0.360212  1
  S  S15  1  0.167696  0.335390  0.360212  1
  S  S16  1  0.664610  0.832304  0.360212  1
  S  S17  1  0.832304  0.167696  0.639788  1
  S  S18  1  0.832304  0.664610  0.639788  1
  S  S19  1  0.335390  0.167696  0.639788  1
  S  S20  1  0.829640  0.170360  0.862679  1
  S  S21  1  0.829640  0.659281  0.862679  1
  S  S22  1  0.340719  0.170360  0.862679  1
  S  S23  1  0.170360  0.829640  0.137321  1
  S  S24  1  0.170360  0.340719  0.137321  1
  S  S25  1  0.659281  0.829640  0.137321  1
