# generated using pymatgen
data_PrNd2Mg3Ge2Ir
_symmetry_space_group_name_H-M   'P 1'
_cell_length_a   7.35296009
_cell_length_b   7.35296024
_cell_length_c   4.48344300
_cell_angle_alpha   90.00000000
_cell_angle_beta   90.00000000
_cell_angle_gamma   120.00931240
_symmetry_Int_Tables_number   1
_chemical_formula_structural   PrNd2Mg3Ge2Ir
_chemical_formula_sum   'Pr1 Nd2 Mg3 Ge2 Ir1'
_cell_volume   209.90653014
_cell_formula_units_Z   1
loop_
 _symmetry_equiv_pos_site_id
 _symmetry_equiv_pos_as_xyz
  1  'x, y, z'
loop_
 _atom_site_type_symbol
 _atom_site_label
 _atom_site_symmetry_multiplicity
 _atom_site_fract_x
 _atom_site_fract_y
 _atom_site_fract_z
 _atom_site_occupancy
  Pr  Pr0  1  0.405472  0.405472  0.000000  1
  Nd  Nd1  1  0.595411  0.000415  0.000000  1
  Nd  Nd2  1  0.000415  0.595411  0.000000  1
  Mg  Mg3  1  0.234449  0.999448  0.500000  1
  Mg  Mg4  1  0.999448  0.234449  0.500000  1
  Mg  Mg5  1  0.765525  0.765525  0.500000  1
  Ge  Ge6  1  0.332854  0.668003  0.500000  1
  Ge  Ge7  1  0.668003  0.332854  0.500000  1
  Ir  Ir8  1  0.998423  0.998423  0.000000  1
