# generated using pymatgen
data_Nd4B16MoW3
_symmetry_space_group_name_H-M   'P 1'
_cell_length_a   3.70276300
_cell_length_b   6.12978263
_cell_length_c   11.86358584
_cell_angle_alpha   90.02012336
_cell_angle_beta   90.00000000
_cell_angle_gamma   90.00000000
_symmetry_Int_Tables_number   1
_chemical_formula_structural   Nd4B16MoW3
_chemical_formula_sum   'Nd4 B16 Mo1 W3'
_cell_volume   269.26936116
_cell_formula_units_Z   1
loop_
 _symmetry_equiv_pos_site_id
 _symmetry_equiv_pos_as_xyz
  1  'x, y, z'
loop_
 _atom_site_type_symbol
 _atom_site_label
 _atom_site_symmetry_multiplicity
 _atom_site_fract_x
 _atom_site_fract_y
 _atom_site_fract_z
 _atom_site_occupancy
  Nd  Nd0  1  0.000000  0.624870  0.349987  1
  Nd  Nd1  1  0.000000  0.375362  0.650241  1
  Nd  Nd2  1  0.000000  0.124842  0.150262  1
  Nd  Nd3  1  0.000000  0.875177  0.849549  1
  B  B4  1  0.500000  0.781607  0.184952  1
  B  B5  1  0.500000  0.218246  0.814806  1
  B  B6  1  0.500000  0.281509  0.315249  1
  B  B7  1  0.500000  0.719080  0.684549  1
  B  B8  1  0.500000  0.862694  0.032210  1
  B  B9  1  0.500000  0.137254  0.967445  1
  B  B10  1  0.500000  0.362963  0.468016  1
  B  B11  1  0.500000  0.637532  0.532623  1
  B  B12  1  0.500000  0.887739  0.454155  1
  B  B13  1  0.500000  0.112042  0.546358  1
  B  B14  1  0.500000  0.387842  0.045907  1
  B  B15  1  0.500000  0.612066  0.953778  1
  B  B16  1  0.500000  0.974683  0.309215  1
  B  B17  1  0.500000  0.024719  0.690914  1
  B  B18  1  0.500000  0.474903  0.190813  1
  B  B19  1  0.500000  0.525109  0.808968  1
  Mo  Mo20  1  0.000000  0.872211  0.583053  1
  W  W21  1  0.000000  0.628250  0.083471  1
  W  W22  1  0.000000  0.371596  0.916426  1
  W  W23  1  0.000000  0.127699  0.417055  1
