# generated using pymatgen
data_Cs6YbTe4
_symmetry_space_group_name_H-M   'P 1'
_cell_length_a   12.19327900
_cell_length_b   12.19327843
_cell_length_c   9.40586300
_cell_angle_alpha   90.00000000
_cell_angle_beta   90.00000000
_cell_angle_gamma   119.99999883
_symmetry_Int_Tables_number   1
_chemical_formula_structural   Cs6YbTe4
_chemical_formula_sum   'Cs12 Yb2 Te8'
_cell_volume   1211.07290449
_cell_formula_units_Z   2
loop_
 _symmetry_equiv_pos_site_id
 _symmetry_equiv_pos_as_xyz
  1  'x, y, z'
loop_
 _atom_site_type_symbol
 _atom_site_label
 _atom_site_symmetry_multiplicity
 _atom_site_fract_x
 _atom_site_fract_y
 _atom_site_fract_z
 _atom_site_occupancy
  Cs  Cs0  1  0.148434  0.296868  0.204487  1
  Cs  Cs1  1  0.148434  0.851566  0.204487  1
  Cs  Cs2  1  0.703132  0.851566  0.204487  1
  Cs  Cs3  1  0.851566  0.703132  0.704487  1
  Cs  Cs4  1  0.851566  0.148434  0.704487  1
  Cs  Cs5  1  0.296868  0.148434  0.704487  1
  Cs  Cs6  1  0.527234  0.054468  0.380253  1
  Cs  Cs7  1  0.527234  0.472766  0.380253  1
  Cs  Cs8  1  0.945532  0.472766  0.380253  1
  Cs  Cs9  1  0.472766  0.945532  0.880253  1
  Cs  Cs10  1  0.472766  0.527234  0.880253  1
  Cs  Cs11  1  0.054468  0.527234  0.880253  1
  Yb  Yb12  1  0.333333  0.666667  0.499203  1
  Yb  Yb13  1  0.666667  0.333333  0.999203  1
  Te  Te14  1  0.333333  0.666667  0.169537  1
  Te  Te15  1  0.666667  0.333333  0.669537  1
  Te  Te16  1  0.806055  0.612109  0.098986  1
  Te  Te17  1  0.806055  0.193945  0.098986  1
  Te  Te18  1  0.387891  0.193945  0.098986  1
  Te  Te19  1  0.193945  0.387891  0.598986  1
  Te  Te20  1  0.193945  0.806055  0.598986  1
  Te  Te21  1  0.612109  0.806055  0.598986  1
