# generated using pymatgen
data_K3OsO4
_symmetry_space_group_name_H-M   'P 1'
_cell_length_a   5.78360383
_cell_length_b   5.90342995
_cell_length_c   5.90520659
_cell_angle_alpha   101.60880558
_cell_angle_beta   114.06627623
_cell_angle_gamma   114.03131075
_symmetry_Int_Tables_number   1
_chemical_formula_structural   K3OsO4
_chemical_formula_sum   'K3 Os1 O4'
_cell_volume   150.95228060
_cell_formula_units_Z   1
loop_
 _symmetry_equiv_pos_site_id
 _symmetry_equiv_pos_as_xyz
  1  'x, y, z'
loop_
 _atom_site_type_symbol
 _atom_site_label
 _atom_site_symmetry_multiplicity
 _atom_site_fract_x
 _atom_site_fract_y
 _atom_site_fract_z
 _atom_site_occupancy
  K  K0  1  0.500504  0.755049  0.256608  1
  K  K1  1  0.500526  0.256546  0.755155  1
  K  K2  1  0.001122  0.507251  0.507325  1
  Os  Os3  1  0.999648  0.003061  0.003080  1
  O  O4  1  0.405952  0.174643  0.174458  1
  O  O5  1  0.998513  0.813666  0.228322  1
  O  O6  1  0.595253  0.761615  0.761450  1
  O  O7  1  0.998485  0.228166  0.813597  1
