# generated using pymatgen
data_Ba6Cd7Hg5
_symmetry_space_group_name_H-M   'P 1'
_cell_length_a   6.67122773
_cell_length_b   6.67122879
_cell_length_c   19.16929784
_cell_angle_alpha   75.71440293
_cell_angle_beta   75.71440124
_cell_angle_gamma   46.48700351
_symmetry_Int_Tables_number   1
_chemical_formula_structural   Ba6Cd7Hg5
_chemical_formula_sum   'Ba6 Cd7 Hg5'
_cell_volume   595.98090729
_cell_formula_units_Z   1
loop_
 _symmetry_equiv_pos_site_id
 _symmetry_equiv_pos_as_xyz
  1  'x, y, z'
loop_
 _atom_site_type_symbol
 _atom_site_label
 _atom_site_symmetry_multiplicity
 _atom_site_fract_x
 _atom_site_fract_y
 _atom_site_fract_z
 _atom_site_occupancy
  Ba  Ba0  1  0.272772  0.272772  0.237993  1
  Ba  Ba1  1  0.607521  0.607521  0.570660  1
  Ba  Ba2  1  0.942218  0.942218  0.900666  1
  Ba  Ba3  1  0.055080  0.055080  0.099062  1
  Ba  Ba4  1  0.389911  0.389911  0.431377  1
  Ba  Ba5  1  0.724057  0.724057  0.764889  1
  Cd  Cd6  1  0.760310  0.760310  0.088975  1
  Cd  Cd7  1  0.091774  0.091774  0.424808  1
  Cd  Cd8  1  0.425623  0.425623  0.757174  1
  Cd  Cd9  1  0.373607  0.373607  0.038168  1
  Cd  Cd10  1  0.965617  0.965617  0.299717  1
  Cd  Cd11  1  0.299923  0.299923  0.632894  1
  Cd  Cd12  1  0.629216  0.629216  0.966641  1
  Hg  Hg13  1  0.710201  0.710201  0.374543  1
  Hg  Hg14  1  0.044818  0.044818  0.706394  1
  Hg  Hg15  1  0.568956  0.568956  0.234032  1
  Hg  Hg16  1  0.901651  0.901651  0.568089  1
  Hg  Hg17  1  0.236753  0.236753  0.903914  1
