# generated using pymatgen
data_Nd3Lu3(BiO7)2
_symmetry_space_group_name_H-M   'P 1'
_cell_length_a   6.58924575
_cell_length_b   6.60655509
_cell_length_c   7.73828409
_cell_angle_alpha   106.97443681
_cell_angle_beta   89.90460206
_cell_angle_gamma   99.20160470
_symmetry_Int_Tables_number   1
_chemical_formula_structural   Nd3Lu3(BiO7)2
_chemical_formula_sum   'Nd3 Lu3 Bi2 O14'
_cell_volume   317.68139495
_cell_formula_units_Z   1
loop_
 _symmetry_equiv_pos_site_id
 _symmetry_equiv_pos_as_xyz
  1  'x, y, z'
loop_
 _atom_site_type_symbol
 _atom_site_label
 _atom_site_symmetry_multiplicity
 _atom_site_fract_x
 _atom_site_fract_y
 _atom_site_fract_z
 _atom_site_occupancy
  Nd  Nd0  1  0.727684  0.459524  0.113128  1
  Nd  Nd1  1  0.737196  0.479781  0.620587  1
  Nd  Nd2  1  0.259741  0.521935  0.383924  1
  Lu  Lu3  1  0.463731  0.005241  0.251471  1
  Lu  Lu4  1  0.532254  0.992050  0.747612  1
  Lu  Lu5  1  0.274139  0.540463  0.884270  1
  Bi  Bi6  1  0.002306  0.004023  0.503260  1
  Bi  Bi7  1  0.004886  0.000479  0.997622  1
  O  O8  1  0.440997  0.658731  0.158687  1
  O  O9  1  0.533919  0.338123  0.830564  1
  O  O10  1  0.307276  0.927936  0.953214  1
  O  O11  1  0.698571  0.064751  0.048664  1
  O  O12  1  0.304385  0.933926  0.514769  1
  O  O13  1  0.699189  0.065174  0.482725  1
  O  O14  1  0.540986  0.352275  0.342281  1
  O  O15  1  0.451080  0.646923  0.668129  1
  O  O16  1  0.938018  0.663046  0.946235  1
  O  O17  1  0.082371  0.334527  0.037314  1
  O  O18  1  0.077791  0.347560  0.627979  1
  O  O19  1  0.927856  0.657668  0.385986  1
  O  O20  1  0.866858  0.914631  0.728034  1
  O  O21  1  0.128766  0.091236  0.273544  1
