# generated using pymatgen
data_AgBi3IrRu3O14
_symmetry_space_group_name_H-M   'P 1'
_cell_length_a   7.37981573
_cell_length_b   7.37981686
_cell_length_c   7.25705589
_cell_angle_alpha   59.43882712
_cell_angle_beta   59.43883388
_cell_angle_gamma   60.00000802
_symmetry_Int_Tables_number   1
_chemical_formula_structural   AgBi3IrRu3O14
_chemical_formula_sum   'Ag1 Bi3 Ir1 Ru3 O14'
_cell_volume   277.07690393
_cell_formula_units_Z   1
loop_
 _symmetry_equiv_pos_site_id
 _symmetry_equiv_pos_as_xyz
  1  'x, y, z'
loop_
 _atom_site_type_symbol
 _atom_site_label
 _atom_site_symmetry_multiplicity
 _atom_site_fract_x
 _atom_site_fract_y
 _atom_site_fract_z
 _atom_site_occupancy
  Ag  Ag0  1  0.125000  0.125000  0.625000  1
  Bi  Bi1  1  0.125000  0.625000  0.125000  1
  Bi  Bi2  1  0.625000  0.125000  0.125000  1
  Bi  Bi3  1  0.125000  0.125000  0.125000  1
  Ir  Ir4  1  0.625000  0.625000  0.125000  1
  Ru  Ru5  1  0.625000  0.125000  0.625000  1
  Ru  Ru6  1  0.125000  0.625000  0.625000  1
  Ru  Ru7  1  0.625000  0.625000  0.625000  1
  O  O8  1  0.245192  0.245192  0.264424  1
  O  O9  1  0.004808  0.004808  0.985576  1
  O  O10  1  0.565997  0.945102  0.543798  1
  O  O11  1  0.296641  0.706244  0.290870  1
  O  O12  1  0.543756  0.543756  0.959130  1
  O  O13  1  0.945102  0.565997  0.543798  1
  O  O14  1  0.543756  0.953359  0.959130  1
  O  O15  1  0.945102  0.945102  0.543798  1
  O  O16  1  0.953359  0.543756  0.959130  1
  O  O17  1  0.706244  0.296641  0.290870  1
  O  O18  1  0.304898  0.684003  0.706202  1
  O  O19  1  0.684003  0.304898  0.706202  1
  O  O20  1  0.304898  0.304898  0.706202  1
  O  O21  1  0.706244  0.706244  0.290870  1
