# generated using pymatgen
data_Nd5Cr3(Ni4As3)4
_symmetry_space_group_name_H-M   'P 1'
_cell_length_a   12.87800500
_cell_length_b   12.87800347
_cell_length_c   3.94886400
_cell_angle_alpha   90.00000000
_cell_angle_beta   90.00000000
_cell_angle_gamma   120.00000137
_symmetry_Int_Tables_number   1
_chemical_formula_structural   Nd5Cr3(Ni4As3)4
_chemical_formula_sum   'Nd5 Cr3 Ni16 As12'
_cell_volume   567.15260290
_cell_formula_units_Z   1
loop_
 _symmetry_equiv_pos_site_id
 _symmetry_equiv_pos_as_xyz
  1  'x, y, z'
loop_
 _atom_site_type_symbol
 _atom_site_label
 _atom_site_symmetry_multiplicity
 _atom_site_fract_x
 _atom_site_fract_y
 _atom_site_fract_z
 _atom_site_occupancy
  Nd  Nd0  1  0.188432  0.188432  0.500000  1
  Nd  Nd1  1  0.811568  0.000000  0.500000  1
  Nd  Nd2  1  0.000000  0.811568  0.500000  1
  Nd  Nd3  1  0.333333  0.666667  0.000000  1
  Nd  Nd4  1  0.666667  0.333333  0.000000  1
  Cr  Cr5  1  0.563284  0.563284  0.000000  1
  Cr  Cr6  1  0.436716  0.000000  0.000000  1
  Cr  Cr7  1  0.000000  0.436716  0.000000  1
  Ni  Ni8  1  0.716988  0.716988  0.500000  1
  Ni  Ni9  1  0.283012  0.000000  0.500000  1
  Ni  Ni10  1  0.000000  0.283012  0.500000  1
  Ni  Ni11  1  0.184063  0.380427  0.000000  1
  Ni  Ni12  1  0.619573  0.803636  0.000000  1
  Ni  Ni13  1  0.196364  0.815937  0.000000  1
  Ni  Ni14  1  0.803636  0.619573  0.000000  1
  Ni  Ni15  1  0.815937  0.196364  0.000000  1
  Ni  Ni16  1  0.380427  0.184063  0.000000  1
  Ni  Ni17  1  0.360764  0.482638  0.500000  1
  Ni  Ni18  1  0.517362  0.878128  0.500000  1
  Ni  Ni19  1  0.121872  0.639236  0.500000  1
  Ni  Ni20  1  0.878128  0.517362  0.500000  1
  Ni  Ni21  1  0.639236  0.121872  0.500000  1
  Ni  Ni22  1  0.482638  0.360764  0.500000  1
  Ni  Ni23  1  0.000000  0.000000  0.000000  1
  As  As24  1  0.819325  0.819325  0.000000  1
  As  As25  1  0.180675  0.000000  0.000000  1
  As  As26  1  0.000000  0.180675  0.000000  1
  As  As27  1  0.165107  0.477286  0.500000  1
  As  As28  1  0.522714  0.687821  0.500000  1
  As  As29  1  0.312179  0.834893  0.500000  1
  As  As30  1  0.687821  0.522714  0.500000  1
  As  As31  1  0.834893  0.312179  0.500000  1
  As  As32  1  0.477286  0.165107  0.500000  1
  As  As33  1  0.367764  0.367764  0.000000  1
  As  As34  1  0.632236  0.000000  0.000000  1
  As  As35  1  0.000000  0.632236  0.000000  1
