# generated using pymatgen
data_Ho2V2C3
_symmetry_space_group_name_H-M   'P 1'
_cell_length_a   5.72293508
_cell_length_b   5.72293485
_cell_length_c   5.54900616
_cell_angle_alpha   73.81237397
_cell_angle_beta   73.81237517
_cell_angle_gamma   34.44882089
_symmetry_Int_Tables_number   1
_chemical_formula_structural   Ho2V2C3
_chemical_formula_sum   'Ho2 V2 C3'
_cell_volume   98.32892282
_cell_formula_units_Z   1
loop_
 _symmetry_equiv_pos_site_id
 _symmetry_equiv_pos_as_xyz
  1  'x, y, z'
loop_
 _atom_site_type_symbol
 _atom_site_label
 _atom_site_symmetry_multiplicity
 _atom_site_fract_x
 _atom_site_fract_y
 _atom_site_fract_z
 _atom_site_occupancy
  Ho  Ho0  1  0.609702  0.609702  0.186262  1
  Ho  Ho1  1  0.390298  0.390298  0.813738  1
  V  V2  1  0.847681  0.847681  0.375850  1
  V  V3  1  0.152319  0.152319  0.624150  1
  C  C4  1  0.277058  0.277058  0.270606  1
  C  C5  1  0.722942  0.722942  0.729394  1
  C  C6  1  0.000000  0.000000  0.500000  1
