# generated using pymatgen
data_Dy4Zr4IrPt3
_symmetry_space_group_name_H-M   'P 1'
_cell_length_a   4.69080800
_cell_length_b   7.17707719
_cell_length_c   8.18913927
_cell_angle_alpha   90.30690527
_cell_angle_beta   90.00000000
_cell_angle_gamma   90.00000000
_symmetry_Int_Tables_number   1
_chemical_formula_structural   Dy4Zr4IrPt3
_chemical_formula_sum   'Dy4 Zr4 Ir1 Pt3'
_cell_volume   275.69399134
_cell_formula_units_Z   1
loop_
 _symmetry_equiv_pos_site_id
 _symmetry_equiv_pos_as_xyz
  1  'x, y, z'
loop_
 _atom_site_type_symbol
 _atom_site_label
 _atom_site_symmetry_multiplicity
 _atom_site_fract_x
 _atom_site_fract_y
 _atom_site_fract_z
 _atom_site_occupancy
  Dy  Dy0  1  0.250000  0.483323  0.179187  1
  Dy  Dy1  1  0.750000  0.520143  0.822954  1
  Dy  Dy2  1  0.750000  0.013933  0.674181  1
  Dy  Dy3  1  0.250000  0.980703  0.324504  1
  Zr  Zr4  1  0.250000  0.853577  0.918616  1
  Zr  Zr5  1  0.750000  0.146947  0.079011  1
  Zr  Zr6  1  0.750000  0.645443  0.422768  1
  Zr  Zr7  1  0.250000  0.358771  0.582303  1
  Ir  Ir8  1  0.250000  0.727340  0.589894  1
  Pt  Pt9  1  0.750000  0.269246  0.405809  1
  Pt  Pt10  1  0.750000  0.772342  0.093615  1
  Pt  Pt11  1  0.250000  0.228232  0.907155  1
