# generated using pymatgen
data_Ho8Sc12Ga13Sb3
_symmetry_space_group_name_H-M   'P 1'
_cell_length_a   7.32668000
_cell_length_b   7.66017865
_cell_length_c   14.44392600
_cell_angle_alpha   90.00000000
_cell_angle_beta   90.00000000
_cell_angle_gamma   89.78357459
_symmetry_Int_Tables_number   1
_chemical_formula_structural   Ho8Sc12Ga13Sb3
_chemical_formula_sum   'Ho8 Sc12 Ga13 Sb3'
_cell_volume   810.64046432
_cell_formula_units_Z   1
loop_
 _symmetry_equiv_pos_site_id
 _symmetry_equiv_pos_as_xyz
  1  'x, y, z'
loop_
 _atom_site_type_symbol
 _atom_site_label
 _atom_site_symmetry_multiplicity
 _atom_site_fract_x
 _atom_site_fract_y
 _atom_site_fract_z
 _atom_site_occupancy
  Ho  Ho0  1  0.011098  0.171915  0.089925  1
  Ho  Ho1  1  0.995600  0.827234  0.908910  1
  Ho  Ho2  1  0.481006  0.680962  0.906587  1
  Ho  Ho3  1  0.995600  0.827234  0.591090  1
  Ho  Ho4  1  0.510892  0.329406  0.088635  1
  Ho  Ho5  1  0.011098  0.171915  0.410075  1
  Ho  Ho6  1  0.510892  0.329406  0.411365  1
  Ho  Ho7  1  0.481006  0.680962  0.593413  1
  Sc  Sc8  1  0.173456  0.501144  0.750000  1
  Sc  Sc9  1  0.828146  0.508958  0.250000  1
  Sc  Sc10  1  0.329829  0.990255  0.250000  1
  Sc  Sc11  1  0.661827  0.007541  0.750000  1
  Sc  Sc12  1  0.326427  0.170494  0.622175  1
  Sc  Sc13  1  0.674050  0.822281  0.380398  1
  Sc  Sc14  1  0.173256  0.677019  0.379593  1
  Sc  Sc15  1  0.674050  0.822281  0.119602  1
  Sc  Sc16  1  0.829184  0.320265  0.620776  1
  Sc  Sc17  1  0.326427  0.170494  0.877825  1
  Sc  Sc18  1  0.829184  0.320265  0.879224  1
  Sc  Sc19  1  0.173256  0.677019  0.120407  1
  Ga  Ga20  1  0.031563  0.118092  0.750000  1
  Ga  Ga21  1  0.973663  0.871753  0.250000  1
  Ga  Ga22  1  0.473559  0.629482  0.250000  1
  Ga  Ga23  1  0.527086  0.372426  0.750000  1
  Ga  Ga24  1  0.285061  0.871673  0.750000  1
  Ga  Ga25  1  0.158541  0.464435  0.541939  1
  Ga  Ga26  1  0.842214  0.532408  0.458724  1
  Ga  Ga27  1  0.342923  0.967804  0.457129  1
  Ga  Ga28  1  0.842214  0.532408  0.041276  1
  Ga  Ga29  1  0.660756  0.032916  0.541592  1
  Ga  Ga30  1  0.158541  0.464435  0.958061  1
  Ga  Ga31  1  0.660756  0.032916  0.958408  1
  Ga  Ga32  1  0.342923  0.967804  0.042871  1
  Sb  Sb33  1  0.707128  0.136628  0.250000  1
  Sb  Sb34  1  0.207412  0.363717  0.250000  1
  Sb  Sb35  1  0.789375  0.634051  0.750000  1
