# generated using pymatgen
data_Tb16In4AgRu3
_symmetry_space_group_name_H-M   'P 1'
_cell_length_a   9.74694101
_cell_length_b   9.74694138
_cell_length_c   9.74694166
_cell_angle_alpha   59.91300700
_cell_angle_beta   59.91300831
_cell_angle_gamma   59.91300657
_symmetry_Int_Tables_number   1
_chemical_formula_structural   Tb16In4AgRu3
_chemical_formula_sum   'Tb16 In4 Ag1 Ru3'
_cell_volume   653.47980165
_cell_formula_units_Z   1
loop_
 _symmetry_equiv_pos_site_id
 _symmetry_equiv_pos_as_xyz
  1  'x, y, z'
loop_
 _atom_site_type_symbol
 _atom_site_label
 _atom_site_symmetry_multiplicity
 _atom_site_fract_x
 _atom_site_fract_y
 _atom_site_fract_z
 _atom_site_occupancy
  Tb  Tb0  1  0.108980  0.692848  0.108980  1
  Tb  Tb1  1  0.941880  0.941880  0.544827  1
  Tb  Tb2  1  0.941880  0.544827  0.941880  1
  Tb  Tb3  1  0.310443  0.691222  0.310443  1
  Tb  Tb4  1  0.940548  0.558117  0.558117  1
  Tb  Tb5  1  0.310443  0.310443  0.691222  1
  Tb  Tb6  1  0.096955  0.096955  0.096955  1
  Tb  Tb7  1  0.558117  0.558117  0.940548  1
  Tb  Tb8  1  0.108980  0.108980  0.692848  1
  Tb  Tb9  1  0.691123  0.314035  0.691123  1
  Tb  Tb10  1  0.691123  0.691123  0.314035  1
  Tb  Tb11  1  0.691222  0.310443  0.310443  1
  Tb  Tb12  1  0.314035  0.691123  0.691123  1
  Tb  Tb13  1  0.558117  0.940548  0.558117  1
  Tb  Tb14  1  0.692848  0.108980  0.108980  1
  Tb  Tb15  1  0.544827  0.941880  0.941880  1
  In  In16  1  0.333843  0.333843  0.333843  1
  In  In17  1  0.002450  0.331656  0.331656  1
  In  In18  1  0.331656  0.002450  0.331656  1
  In  In19  1  0.331656  0.331656  0.002450  1
  Ag  Ag20  1  0.893533  0.893533  0.893533  1
  Ru  Ru21  1  0.889441  0.889441  0.326459  1
  Ru  Ru22  1  0.326459  0.889441  0.889441  1
  Ru  Ru23  1  0.889441  0.326459  0.889441  1
