# generated using pymatgen
data_Hf6GaPN2
_symmetry_space_group_name_H-M   'P 1'
_cell_length_a   5.80425907
_cell_length_b   5.80426085
_cell_length_c   8.52113700
_cell_angle_alpha   90.00000000
_cell_angle_beta   90.00000000
_cell_angle_gamma   146.16524494
_symmetry_Int_Tables_number   1
_chemical_formula_structural   Hf6GaPN2
_chemical_formula_sum   'Hf6 Ga1 P1 N2'
_cell_volume   159.84172503
_cell_formula_units_Z   1
loop_
 _symmetry_equiv_pos_site_id
 _symmetry_equiv_pos_as_xyz
  1  'x, y, z'
loop_
 _atom_site_type_symbol
 _atom_site_label
 _atom_site_symmetry_multiplicity
 _atom_site_fract_x
 _atom_site_fract_y
 _atom_site_fract_z
 _atom_site_occupancy
  Hf  Hf0  1  0.633844  0.366156  0.438505  1
  Hf  Hf1  1  0.370620  0.629380  0.546112  1
  Hf  Hf2  1  0.633844  0.366156  0.061495  1
  Hf  Hf3  1  0.370620  0.629380  0.953888  1
  Hf  Hf4  1  0.935765  0.064235  0.250000  1
  Hf  Hf5  1  0.050470  0.949530  0.750000  1
  Ga  Ga6  1  0.746763  0.253237  0.750000  1
  P  P7  1  0.255995  0.744005  0.250000  1
  N  N8  1  0.001041  0.998959  0.495989  1
  N  N9  1  0.001041  0.998959  0.004011  1
