# generated using pymatgen
data_LaNd2Pa3(Ni3Bi4)2
_symmetry_space_group_name_H-M   'P 1'
_cell_length_a   8.42833876
_cell_length_b   8.43168752
_cell_length_c   8.42833894
_cell_angle_alpha   109.63838374
_cell_angle_beta   109.57470789
_cell_angle_gamma   109.18488725
_symmetry_Int_Tables_number   1
_chemical_formula_structural   LaNd2Pa3(Ni3Bi4)2
_chemical_formula_sum   'La1 Nd2 Pa3 Ni6 Bi8'
_cell_volume   461.16319719
_cell_formula_units_Z   1
loop_
 _symmetry_equiv_pos_site_id
 _symmetry_equiv_pos_as_xyz
  1  'x, y, z'
loop_
 _atom_site_type_symbol
 _atom_site_label
 _atom_site_symmetry_multiplicity
 _atom_site_fract_x
 _atom_site_fract_y
 _atom_site_fract_z
 _atom_site_occupancy
  La  La0  1  0.627945  0.750000  0.377945  1
  Nd  Nd1  1  0.251260  0.127336  0.876778  1
  Nd  Nd2  1  0.749442  0.372664  0.623923  1
  Pa  Pa3  1  0.125665  0.878845  0.249950  1
  Pa  Pa4  1  0.371106  0.621155  0.746821  1
  Pa  Pa5  1  0.870991  0.250000  0.120991  1
  Ni  Ni6  1  0.645045  0.360204  0.235697  1
  Ni  Ni7  1  0.875493  0.139796  0.784842  1
  Ni  Ni8  1  0.366932  0.250000  0.616932  1
  Ni  Ni9  1  0.131374  0.750000  0.881374  1
  Ni  Ni10  1  0.230471  0.611271  0.370086  1
  Ni  Ni11  1  0.758815  0.888729  0.119199  1
  Bi  Bi12  1  0.335191  0.333001  0.332110  1
  Bi  Bi13  1  0.166505  0.503325  0.002053  1
  Bi  Bi14  1  0.999110  0.166999  0.502191  1
  Bi  Bi15  1  0.836385  0.833116  0.834542  1
  Bi  Bi16  1  0.498727  0.996675  0.163180  1
  Bi  Bi17  1  0.665320  0.503833  0.996632  1
  Bi  Bi18  1  0.492799  0.996167  0.661487  1
  Bi  Bi19  1  0.001426  0.666884  0.503269  1
