# generated using pymatgen
data_In4IrRh
_symmetry_space_group_name_H-M   'P 1'
_cell_length_a   10.40167694
_cell_length_b   9.51524916
_cell_length_c   5.67186288
_cell_angle_alpha   82.27167834
_cell_angle_beta   65.02217489
_cell_angle_gamma   32.70614398
_symmetry_Int_Tables_number   1
_chemical_formula_structural   In4IrRh
_chemical_formula_sum   'In8 Ir2 Rh2'
_cell_volume   245.42020510
_cell_formula_units_Z   2
loop_
 _symmetry_equiv_pos_site_id
 _symmetry_equiv_pos_as_xyz
  1  'x, y, z'
loop_
 _atom_site_type_symbol
 _atom_site_label
 _atom_site_symmetry_multiplicity
 _atom_site_fract_x
 _atom_site_fract_y
 _atom_site_fract_z
 _atom_site_occupancy
  In  In0  1  0.593011  0.907220  0.593267  1
  In  In1  1  0.907220  0.593011  0.906502  1
  In  In2  1  0.914092  0.914092  0.085908  1
  In  In3  1  0.343498  0.656733  0.342780  1
  In  In4  1  0.086135  0.086135  0.913865  1
  In  In5  1  0.164092  0.164092  0.335908  1
  In  In6  1  0.656733  0.343498  0.656989  1
  In  In7  1  0.336135  0.336135  0.163865  1
  Ir  Ir8  1  0.879400  0.879400  0.620600  1
  Ir  Ir9  1  0.629400  0.629400  0.370600  1
  Rh  Rh10  1  0.620143  0.620143  0.879857  1
  Rh  Rh11  1  0.370143  0.370143  0.629857  1
