# generated using pymatgen
data_Y9Th(GePb3)2
_symmetry_space_group_name_H-M   'P 1'
_cell_length_a   9.41519511
_cell_length_b   9.41274550
_cell_length_c   6.58825000
_cell_angle_alpha   90.00000000
_cell_angle_beta   90.00000000
_cell_angle_gamma   119.99140395
_symmetry_Int_Tables_number   1
_chemical_formula_structural   Y9Th(GePb3)2
_chemical_formula_sum   'Y9 Th1 Ge2 Pb6'
_cell_volume   505.68952172
_cell_formula_units_Z   1
loop_
 _symmetry_equiv_pos_site_id
 _symmetry_equiv_pos_as_xyz
  1  'x, y, z'
loop_
 _atom_site_type_symbol
 _atom_site_label
 _atom_site_symmetry_multiplicity
 _atom_site_fract_x
 _atom_site_fract_y
 _atom_site_fract_z
 _atom_site_occupancy
  Y  Y0  1  0.666291  0.332860  0.499536  1
  Y  Y1  1  0.333709  0.666570  0.499536  1
  Y  Y2  1  0.333709  0.666570  0.000464  1
  Y  Y3  1  0.666291  0.332860  0.000464  1
  Y  Y4  1  0.747580  0.748180  0.250000  1
  Y  Y5  1  0.252420  0.000600  0.250000  1
  Y  Y6  1  0.000000  0.253489  0.250000  1
  Y  Y7  1  0.250894  0.250448  0.750000  1
  Y  Y8  1  0.749106  0.999555  0.750000  1
  Th  Th9  1  0.000000  0.746879  0.750000  1
  Ge  Ge10  1  0.000000  0.002515  0.495018  1
  Ge  Ge11  1  0.000000  0.002515  0.004982  1
  Pb  Pb12  1  0.392232  0.392068  0.250000  1
  Pb  Pb13  1  0.607768  0.999836  0.250000  1
  Pb  Pb14  1  0.000000  0.608897  0.250000  1
  Pb  Pb15  1  0.602465  0.605184  0.750000  1
  Pb  Pb16  1  0.397535  0.002720  0.750000  1
  Pb  Pb17  1  0.000000  0.388254  0.750000  1
