# generated using pymatgen
data_ErRuF7
_symmetry_space_group_name_H-M   'P 1'
_cell_length_a   5.52480400
_cell_length_b   8.84667114
_cell_length_c   11.89794797
_cell_angle_alpha   63.43574779
_cell_angle_beta   90.00000000
_cell_angle_gamma   90.00000000
_symmetry_Int_Tables_number   1
_chemical_formula_structural   ErRuF7
_chemical_formula_sum   'Er4 Ru4 F28'
_cell_volume   520.13591921
_cell_formula_units_Z   4
loop_
 _symmetry_equiv_pos_site_id
 _symmetry_equiv_pos_as_xyz
  1  'x, y, z'
loop_
 _atom_site_type_symbol
 _atom_site_label
 _atom_site_symmetry_multiplicity
 _atom_site_fract_x
 _atom_site_fract_y
 _atom_site_fract_z
 _atom_site_occupancy
  Er  Er0  1  0.758565  0.811070  0.769385  1
  Er  Er1  1  0.258565  0.188930  0.730615  1
  Er  Er2  1  0.241435  0.188930  0.230615  1
  Er  Er3  1  0.741435  0.811070  0.269385  1
  Ru  Ru4  1  0.755590  0.272607  0.955047  1
  Ru  Ru5  1  0.255590  0.727393  0.544953  1
  Ru  Ru6  1  0.244410  0.727393  0.044953  1
  Ru  Ru7  1  0.744410  0.272607  0.455047  1
  F  F8  1  0.449440  0.704587  0.918375  1
  F  F9  1  0.949440  0.295413  0.581625  1
  F  F10  1  0.550560  0.295413  0.081625  1
  F  F11  1  0.050560  0.704587  0.418375  1
  F  F12  1  0.448800  0.280373  0.546840  1
  F  F13  1  0.948800  0.719627  0.953160  1
  F  F14  1  0.551200  0.719627  0.453160  1
  F  F15  1  0.051200  0.280373  0.046840  1
  F  F16  1  0.769201  0.513009  0.859645  1
  F  F17  1  0.269201  0.486991  0.640355  1
  F  F18  1  0.230799  0.486991  0.140355  1
  F  F19  1  0.730799  0.513009  0.359645  1
  F  F20  1  0.753924  0.033524  0.047886  1
  F  F21  1  0.253924  0.966476  0.452114  1
  F  F22  1  0.246076  0.966476  0.952114  1
  F  F23  1  0.746076  0.033524  0.547886  1
  F  F24  1  0.968192  0.730501  0.641941  1
  F  F25  1  0.468192  0.269499  0.858059  1
  F  F26  1  0.031808  0.269499  0.358059  1
  F  F27  1  0.531808  0.730501  0.141941  1
  F  F28  1  0.042723  0.750519  0.173812  1
  F  F29  1  0.542723  0.249481  0.326188  1
  F  F30  1  0.957277  0.249481  0.826188  1
  F  F31  1  0.457277  0.750519  0.673812  1
  F  F32  1  0.425148  0.973703  0.233387  1
  F  F33  1  0.925148  0.026297  0.266613  1
  F  F34  1  0.574852  0.026297  0.766613  1
  F  F35  1  0.074852  0.973703  0.733387  1
