# generated using pymatgen
data_Pr2Y6Be3Si12Pd
_symmetry_space_group_name_H-M   'P 1'
_cell_length_a   7.96493200
_cell_length_b   7.96493111
_cell_length_c   8.29946200
_cell_angle_alpha   90.00000000
_cell_angle_beta   90.00000000
_cell_angle_gamma   119.99999539
_symmetry_Int_Tables_number   1
_chemical_formula_structural   Pr2Y6Be3Si12Pd
_chemical_formula_sum   'Pr2 Y6 Be3 Si12 Pd1'
_cell_volume   455.97883944
_cell_formula_units_Z   1
loop_
 _symmetry_equiv_pos_site_id
 _symmetry_equiv_pos_as_xyz
  1  'x, y, z'
loop_
 _atom_site_type_symbol
 _atom_site_label
 _atom_site_symmetry_multiplicity
 _atom_site_fract_x
 _atom_site_fract_y
 _atom_site_fract_z
 _atom_site_occupancy
  Pr  Pr0  1  0.000000  0.000000  0.750719  1
  Pr  Pr1  1  0.000000  0.000000  0.249359  1
  Y  Y2  1  0.498475  0.501525  0.752693  1
  Y  Y3  1  0.498558  0.501442  0.247357  1
  Y  Y4  1  0.003049  0.501525  0.752693  1
  Y  Y5  1  0.002885  0.501442  0.247357  1
  Y  Y6  1  0.498475  0.996951  0.752693  1
  Y  Y7  1  0.498558  0.997115  0.247357  1
  Be  Be8  1  0.666667  0.333333  0.999005  1
  Be  Be9  1  0.333333  0.666667  0.000988  1
  Be  Be10  1  0.333333  0.666667  0.499484  1
  Si  Si11  1  0.826061  0.173939  0.000122  1
  Si  Si12  1  0.174029  0.825971  0.999996  1
  Si  Si13  1  0.347876  0.173939  0.000122  1
  Si  Si14  1  0.172456  0.827544  0.499898  1
  Si  Si15  1  0.651943  0.825971  0.999996  1
  Si  Si16  1  0.832697  0.167303  0.500111  1
  Si  Si17  1  0.826061  0.652124  0.000122  1
  Si  Si18  1  0.655087  0.827544  0.499898  1
  Si  Si19  1  0.174029  0.348057  0.999996  1
  Si  Si20  1  0.334606  0.167303  0.500111  1
  Si  Si21  1  0.172456  0.344913  0.499898  1
  Si  Si22  1  0.832697  0.665394  0.500111  1
  Pd  Pd23  1  0.666667  0.333333  0.499921  1
