# generated using pymatgen
data_Ho5P12Ru16Pt3
_symmetry_space_group_name_H-M   'P 1'
_cell_length_a   12.58916400
_cell_length_b   12.58916414
_cell_length_c   3.97844800
_cell_angle_alpha   90.00000000
_cell_angle_beta   90.00000000
_cell_angle_gamma   119.99999963
_symmetry_Int_Tables_number   1
_chemical_formula_structural   Ho5P12Ru16Pt3
_chemical_formula_sum   'Ho5 P12 Ru16 Pt3'
_cell_volume   546.05716069
_cell_formula_units_Z   1
loop_
 _symmetry_equiv_pos_site_id
 _symmetry_equiv_pos_as_xyz
  1  'x, y, z'
loop_
 _atom_site_type_symbol
 _atom_site_label
 _atom_site_symmetry_multiplicity
 _atom_site_fract_x
 _atom_site_fract_y
 _atom_site_fract_z
 _atom_site_occupancy
  Ho  Ho0  1  0.000000  0.181873  0.500000  1
  Ho  Ho1  1  0.818127  0.818127  0.500000  1
  Ho  Ho2  1  0.181873  0.000000  0.500000  1
  Ho  Ho3  1  0.666667  0.333333  0.000000  1
  Ho  Ho4  1  0.333333  0.666667  0.000000  1
  P  P5  1  0.000000  0.815327  0.000000  1
  P  P6  1  0.184673  0.184673  0.000000  1
  P  P7  1  0.815327  0.000000  0.000000  1
  P  P8  1  0.699864  0.180372  0.500000  1
  P  P9  1  0.819628  0.519492  0.500000  1
  P  P10  1  0.480508  0.300136  0.500000  1
  P  P11  1  0.180372  0.699864  0.500000  1
  P  P12  1  0.519492  0.819628  0.500000  1
  P  P13  1  0.300136  0.480508  0.500000  1
  P  P14  1  0.000000  0.365300  0.000000  1
  P  P15  1  0.634700  0.634700  0.000000  1
  P  P16  1  0.365300  0.000000  0.000000  1
  Ru  Ru17  1  0.000000  0.711608  0.500000  1
  Ru  Ru18  1  0.288392  0.288392  0.500000  1
  Ru  Ru19  1  0.711608  0.000000  0.500000  1
  Ru  Ru20  1  0.806803  0.185066  0.000000  1
  Ru  Ru21  1  0.814934  0.621738  0.000000  1
  Ru  Ru22  1  0.378262  0.193197  0.000000  1
  Ru  Ru23  1  0.185066  0.806803  0.000000  1
  Ru  Ru24  1  0.621738  0.814934  0.000000  1
  Ru  Ru25  1  0.193197  0.378262  0.000000  1
  Ru  Ru26  1  0.875186  0.369360  0.500000  1
  Ru  Ru27  1  0.630640  0.505826  0.500000  1
  Ru  Ru28  1  0.494174  0.124814  0.500000  1
  Ru  Ru29  1  0.369360  0.875186  0.500000  1
  Ru  Ru30  1  0.505826  0.630640  0.500000  1
  Ru  Ru31  1  0.124814  0.494174  0.500000  1
  Ru  Ru32  1  0.000000  0.000000  0.000000  1
  Pt  Pt33  1  0.000000  0.551618  0.000000  1
  Pt  Pt34  1  0.448382  0.448382  0.000000  1
  Pt  Pt35  1  0.551618  0.000000  0.000000  1
