# generated using pymatgen
data_SrV4PbO12
_symmetry_space_group_name_H-M   'P 1'
_cell_length_a   3.71382100
_cell_length_b   8.40524354
_cell_length_c   9.64541070
_cell_angle_alpha   107.62067447
_cell_angle_beta   90.00000000
_cell_angle_gamma   102.76323968
_symmetry_Int_Tables_number   1
_chemical_formula_structural   SrV4PbO12
_chemical_formula_sum   'Sr1 V4 Pb1 O12'
_cell_volume   279.14474083
_cell_formula_units_Z   1
loop_
 _symmetry_equiv_pos_site_id
 _symmetry_equiv_pos_as_xyz
  1  'x, y, z'
loop_
 _atom_site_type_symbol
 _atom_site_label
 _atom_site_symmetry_multiplicity
 _atom_site_fract_x
 _atom_site_fract_y
 _atom_site_fract_z
 _atom_site_occupancy
  Sr  Sr0  1  0.873612  0.747225  0.779534  1
  V  V1  1  0.594021  0.188041  0.841708  1
  V  V2  1  0.404284  0.808569  0.155740  1
  V  V3  1  0.835047  0.670095  0.356677  1
  V  V4  1  0.164901  0.329802  0.642075  1
  Pb  Pb5  1  0.128596  0.257190  0.231084  1
  O  O6  1  0.660693  0.321384  0.698052  1
  O  O7  1  0.337735  0.675470  0.298825  1
  O  O8  1  0.892471  0.784942  0.200403  1
  O  O9  1  0.103933  0.207866  0.792544  1
  O  O10  1  0.647772  0.295544  0.019764  1
  O  O11  1  0.356543  0.713086  0.974080  1
  O  O12  1  0.106032  0.212065  0.466470  1
  O  O13  1  0.895571  0.791142  0.528916  1
  O  O14  1  0.486851  0.973702  0.820609  1
  O  O15  1  0.728589  0.457179  0.349138  1
  O  O16  1  0.271063  0.542125  0.656903  1
  O  O17  1  0.512286  0.024571  0.187479  1
