# generated using pymatgen
data_Ta3Ti(GaRh5)2
_symmetry_space_group_name_H-M   'P 1'
_cell_length_a   4.01838400
_cell_length_b   5.48365989
_cell_length_c   10.77809620
_cell_angle_alpha   90.30094284
_cell_angle_beta   90.00000000
_cell_angle_gamma   90.00000000
_symmetry_Int_Tables_number   1
_chemical_formula_structural   Ta3Ti(GaRh5)2
_chemical_formula_sum   'Ta3 Ti1 Ga2 Rh10'
_cell_volume   237.49693655
_cell_formula_units_Z   1
loop_
 _symmetry_equiv_pos_site_id
 _symmetry_equiv_pos_as_xyz
  1  'x, y, z'
loop_
 _atom_site_type_symbol
 _atom_site_label
 _atom_site_symmetry_multiplicity
 _atom_site_fract_x
 _atom_site_fract_y
 _atom_site_fract_z
 _atom_site_occupancy
  Ta  Ta0  1  0.500000  0.313912  0.139130  1
  Ta  Ta1  1  0.500000  0.686221  0.857234  1
  Ta  Ta2  1  0.500000  0.816304  0.363526  1
  Ti  Ti3  1  0.500000  0.185259  0.639877  1
  Ga  Ga4  1  0.000000  0.999212  0.999510  1
  Ga  Ga5  1  0.000000  0.496379  0.501929  1
  Rh  Rh6  1  0.000000  0.002100  0.501038  1
  Rh  Rh7  1  0.000000  0.499254  0.999688  1
  Rh  Rh8  1  0.000000  0.063784  0.245171  1
  Rh  Rh9  1  0.000000  0.935680  0.755316  1
  Rh  Rh10  1  0.000000  0.564034  0.254798  1
  Rh  Rh11  1  0.000000  0.434112  0.744187  1
  Rh  Rh12  1  0.500000  0.302481  0.388726  1
  Rh  Rh13  1  0.500000  0.701319  0.610108  1
  Rh  Rh14  1  0.500000  0.800429  0.110718  1
  Rh  Rh15  1  0.500000  0.199520  0.889044  1
