# generated using pymatgen
data_Zr6Co11Si7Ni5
_symmetry_space_group_name_H-M   'P 1'
_cell_length_a   8.08661012
_cell_length_b   8.08925238
_cell_length_c   8.08925212
_cell_angle_alpha   60.00209466
_cell_angle_beta   60.00850916
_cell_angle_gamma   60.00851062
_symmetry_Int_Tables_number   1
_chemical_formula_structural   Zr6Co11Si7Ni5
_chemical_formula_sum   'Zr6 Co11 Si7 Ni5'
_cell_volume   374.22344329
_cell_formula_units_Z   1
loop_
 _symmetry_equiv_pos_site_id
 _symmetry_equiv_pos_as_xyz
  1  'x, y, z'
loop_
 _atom_site_type_symbol
 _atom_site_label
 _atom_site_symmetry_multiplicity
 _atom_site_fract_x
 _atom_site_fract_y
 _atom_site_fract_z
 _atom_site_occupancy
  Zr  Zr0  1  0.796125  0.203752  0.789673  1
  Zr  Zr1  1  0.796125  0.789673  0.203752  1
  Zr  Zr2  1  0.203246  0.793738  0.793738  1
  Zr  Zr3  1  0.208011  0.207937  0.792242  1
  Zr  Zr4  1  0.794425  0.209105  0.209105  1
  Zr  Zr5  1  0.208011  0.792242  0.207937  1
  Co  Co6  1  0.168157  0.168894  0.168894  1
  Co  Co7  1  0.618665  0.619111  0.142334  1
  Co  Co8  1  0.380166  0.379558  0.379558  1
  Co  Co9  1  0.169273  0.492455  0.169848  1
  Co  Co10  1  0.169273  0.169848  0.492455  1
  Co  Co11  1  0.141644  0.619221  0.619221  1
  Co  Co12  1  0.618665  0.142334  0.619111  1
  Co  Co13  1  0.829693  0.832129  0.832129  1
  Co  Co14  1  0.861854  0.379450  0.379450  1
  Co  Co15  1  0.380206  0.379327  0.861599  1
  Co  Co16  1  0.380206  0.861599  0.379327  1
  Si  Si17  1  0.000516  0.501081  0.998484  1
  Si  Si18  1  0.498924  0.498952  0.498952  1
  Si  Si19  1  0.499060  0.500176  0.001150  1
  Si  Si20  1  0.499060  0.001150  0.500176  1
  Si  Si21  1  0.001371  0.500039  0.500039  1
  Si  Si22  1  0.000516  0.998484  0.501081  1
  Si  Si23  1  0.500040  0.000055  0.000055  1
  Ni  Ni24  1  0.511167  0.830014  0.830014  1
  Ni  Ni25  1  0.617310  0.617861  0.617861  1
  Ni  Ni26  1  0.828582  0.830663  0.511029  1
  Ni  Ni27  1  0.491126  0.170124  0.170124  1
  Ni  Ni28  1  0.828582  0.511029  0.830663  1
