# generated using pymatgen
data_Ho3Al12Ir3Ru
_symmetry_space_group_name_H-M   'P 1'
_cell_length_a   8.80992000
_cell_length_b   8.80992041
_cell_length_c   9.47228700
_cell_angle_alpha   90.00000000
_cell_angle_beta   90.00000000
_cell_angle_gamma   119.99999846
_symmetry_Int_Tables_number   1
_chemical_formula_structural   Ho3Al12Ir3Ru
_chemical_formula_sum   'Ho6 Al24 Ir6 Ru2'
_cell_volume   636.69206366
_cell_formula_units_Z   2
loop_
 _symmetry_equiv_pos_site_id
 _symmetry_equiv_pos_as_xyz
  1  'x, y, z'
loop_
 _atom_site_type_symbol
 _atom_site_label
 _atom_site_symmetry_multiplicity
 _atom_site_fract_x
 _atom_site_fract_y
 _atom_site_fract_z
 _atom_site_occupancy
  Ho  Ho0  1  0.192183  0.384367  0.250000  1
  Ho  Ho1  1  0.807817  0.615633  0.750000  1
  Ho  Ho2  1  0.615633  0.807817  0.250000  1
  Ho  Ho3  1  0.384367  0.192183  0.750000  1
  Ho  Ho4  1  0.192183  0.807817  0.250000  1
  Ho  Ho5  1  0.807817  0.192183  0.750000  1
  Al  Al6  1  0.333333  0.666667  0.032137  1
  Al  Al7  1  0.666667  0.333333  0.967863  1
  Al  Al8  1  0.666667  0.333333  0.532137  1
  Al  Al9  1  0.333333  0.666667  0.467863  1
  Al  Al10  1  0.163120  0.326241  0.576206  1
  Al  Al11  1  0.836880  0.673759  0.423794  1
  Al  Al12  1  0.673759  0.836880  0.576206  1
  Al  Al13  1  0.836880  0.673759  0.076206  1
  Al  Al14  1  0.326241  0.163120  0.423794  1
  Al  Al15  1  0.163120  0.326241  0.923794  1
  Al  Al16  1  0.163120  0.836880  0.576206  1
  Al  Al17  1  0.326241  0.163120  0.076206  1
  Al  Al18  1  0.836880  0.163120  0.423794  1
  Al  Al19  1  0.673759  0.836880  0.923794  1
  Al  Al20  1  0.836880  0.163120  0.076206  1
  Al  Al21  1  0.163120  0.836880  0.923794  1
  Al  Al22  1  0.562114  0.124228  0.250000  1
  Al  Al23  1  0.437886  0.875772  0.750000  1
  Al  Al24  1  0.875772  0.437886  0.250000  1
  Al  Al25  1  0.124228  0.562114  0.750000  1
  Al  Al26  1  0.562114  0.437886  0.250000  1
  Al  Al27  1  0.437886  0.562114  0.750000  1
  Al  Al28  1  0.000000  0.000000  0.250000  1
  Al  Al29  1  0.000000  0.000000  0.750000  1
  Ir  Ir30  1  0.500000  0.000000  0.000000  1
  Ir  Ir31  1  0.000000  0.500000  0.000000  1
  Ir  Ir32  1  0.500000  0.000000  0.500000  1
  Ir  Ir33  1  0.500000  0.500000  0.000000  1
  Ir  Ir34  1  0.000000  0.500000  0.500000  1
  Ir  Ir35  1  0.500000  0.500000  0.500000  1
  Ru  Ru36  1  0.000000  0.000000  0.000000  1
  Ru  Ru37  1  0.000000  0.000000  0.500000  1
