# generated using pymatgen
data_La3ZnAu5
_symmetry_space_group_name_H-M   'P 1'
_cell_length_a   8.77881856
_cell_length_b   8.77881963
_cell_length_c   13.86243800
_cell_angle_alpha   90.00000000
_cell_angle_beta   90.00000000
_cell_angle_gamma   127.37724806
_symmetry_Int_Tables_number   1
_chemical_formula_structural   La3ZnAu5
_chemical_formula_sum   'La12 Zn4 Au20'
_cell_volume   848.96706667
_cell_formula_units_Z   4
loop_
 _symmetry_equiv_pos_site_id
 _symmetry_equiv_pos_as_xyz
  1  'x, y, z'
loop_
 _atom_site_type_symbol
 _atom_site_label
 _atom_site_symmetry_multiplicity
 _atom_site_fract_x
 _atom_site_fract_y
 _atom_site_fract_z
 _atom_site_occupancy
  La  La0  1  0.928564  0.071436  0.250000  1
  La  La1  1  0.071436  0.928564  0.750000  1
  La  La2  1  0.320168  0.679832  0.250000  1
  La  La3  1  0.679832  0.320168  0.750000  1
  La  La4  1  0.629750  0.370250  0.460792  1
  La  La5  1  0.370250  0.629750  0.539208  1
  La  La6  1  0.629750  0.370250  0.039208  1
  La  La7  1  0.370250  0.629750  0.960792  1
  La  La8  1  0.881987  0.118013  0.950750  1
  La  La9  1  0.118013  0.881987  0.049250  1
  La  La10  1  0.881987  0.118013  0.549250  1
  La  La11  1  0.118013  0.881987  0.450750  1
  Zn  Zn12  1  0.720805  0.279195  0.250000  1
  Zn  Zn13  1  0.279195  0.720805  0.750000  1
  Zn  Zn14  1  0.532446  0.467554  0.250000  1
  Zn  Zn15  1  0.467554  0.532446  0.750000  1
  Au  Au16  1  0.321978  0.067639  0.250000  1
  Au  Au17  1  0.067639  0.321978  0.750000  1
  Au  Au18  1  0.678022  0.932361  0.750000  1
  Au  Au19  1  0.932361  0.678022  0.250000  1
  Au  Au20  1  0.569751  0.002833  0.395830  1
  Au  Au21  1  0.002833  0.569751  0.604170  1
  Au  Au22  1  0.569751  0.002833  0.104170  1
  Au  Au23  1  0.002833  0.569751  0.895830  1
  Au  Au24  1  0.430249  0.997167  0.604170  1
  Au  Au25  1  0.997167  0.430249  0.395830  1
  Au  Au26  1  0.430249  0.997167  0.895830  1
  Au  Au27  1  0.997167  0.430249  0.104170  1
  Au  Au28  1  0.685866  0.742289  0.393845  1
  Au  Au29  1  0.742289  0.685866  0.606155  1
  Au  Au30  1  0.685866  0.742289  0.106155  1
  Au  Au31  1  0.742289  0.685866  0.893845  1
  Au  Au32  1  0.314134  0.257711  0.606155  1
  Au  Au33  1  0.257711  0.314134  0.393845  1
  Au  Au34  1  0.314134  0.257711  0.893845  1
  Au  Au35  1  0.257711  0.314134  0.106155  1
