# generated using pymatgen
data_Ti4Mn2(IrRh)5
_symmetry_space_group_name_H-M   'P 1'
_cell_length_a   3.96645000
_cell_length_b   5.42918105
_cell_length_c   10.72001709
_cell_angle_alpha   90.01531333
_cell_angle_beta   90.00000000
_cell_angle_gamma   90.00000000
_symmetry_Int_Tables_number   1
_chemical_formula_structural   Ti4Mn2(IrRh)5
_chemical_formula_sum   'Ti4 Mn2 Ir5 Rh5'
_cell_volume   230.85100573
_cell_formula_units_Z   1
loop_
 _symmetry_equiv_pos_site_id
 _symmetry_equiv_pos_as_xyz
  1  'x, y, z'
loop_
 _atom_site_type_symbol
 _atom_site_label
 _atom_site_symmetry_multiplicity
 _atom_site_fract_x
 _atom_site_fract_y
 _atom_site_fract_z
 _atom_site_occupancy
  Ti  Ti0  1  0.500000  0.300592  0.136593  1
  Ti  Ti1  1  0.500000  0.699461  0.863903  1
  Ti  Ti2  1  0.500000  0.802212  0.362873  1
  Ti  Ti3  1  0.500000  0.197744  0.637586  1
  Mn  Mn4  1  0.000000  0.999952  0.999979  1
  Mn  Mn5  1  0.000000  0.501225  0.499330  1
  Ir  Ir6  1  0.000000  0.047090  0.245242  1
  Ir  Ir7  1  0.000000  0.951603  0.755642  1
  Ir  Ir8  1  0.500000  0.290638  0.385873  1
  Ir  Ir9  1  0.500000  0.709002  0.614263  1
  Ir  Ir10  1  0.500000  0.791794  0.114622  1
  Rh  Rh11  1  0.000000  0.000276  0.500288  1
  Rh  Rh12  1  0.000000  0.500099  0.999703  1
  Rh  Rh13  1  0.000000  0.546107  0.254569  1
  Rh  Rh14  1  0.000000  0.451892  0.744894  1
  Rh  Rh15  1  0.500000  0.210314  0.884641  1
