# generated using pymatgen
data_BaIn3PtPb
_symmetry_space_group_name_H-M   'P 1'
_cell_length_a   9.37799411
_cell_length_b   9.37799472
_cell_length_c   7.69387300
_cell_angle_alpha   90.00000000
_cell_angle_beta   90.00000000
_cell_angle_gamma   150.69109894
_symmetry_Int_Tables_number   1
_chemical_formula_structural   BaIn3PtPb
_chemical_formula_sum   'Ba2 In6 Pt2 Pb2'
_cell_volume   331.23296434
_cell_formula_units_Z   2
loop_
 _symmetry_equiv_pos_site_id
 _symmetry_equiv_pos_as_xyz
  1  'x, y, z'
loop_
 _atom_site_type_symbol
 _atom_site_label
 _atom_site_symmetry_multiplicity
 _atom_site_fract_x
 _atom_site_fract_y
 _atom_site_fract_z
 _atom_site_occupancy
  Ba  Ba0  1  0.117967  0.882033  0.750000  1
  Ba  Ba1  1  0.882033  0.117967  0.250000  1
  In  In2  1  0.691762  0.308238  0.054074  1
  In  In3  1  0.308238  0.691762  0.945926  1
  In  In4  1  0.691762  0.308238  0.445926  1
  In  In5  1  0.077904  0.922096  0.250000  1
  In  In6  1  0.308238  0.691762  0.554074  1
  In  In7  1  0.922096  0.077904  0.750000  1
  Pt  Pt8  1  0.227818  0.772182  0.250000  1
  Pt  Pt9  1  0.772182  0.227818  0.750000  1
  Pb  Pb10  1  0.500000  0.500000  0.000000  1
  Pb  Pb11  1  0.500000  0.500000  0.500000  1
