# generated using pymatgen
data_La5Al2IrOsRu
_symmetry_space_group_name_H-M   'P 1'
_cell_length_a   8.72122414
_cell_length_b   8.67544331
_cell_length_c   8.67762316
_cell_angle_alpha   109.45642471
_cell_angle_beta   109.81530121
_cell_angle_gamma   109.56297773
_symmetry_Int_Tables_number   1
_chemical_formula_structural   La5Al2IrOsRu
_chemical_formula_sum   'La10 Al4 Ir2 Os2 Ru2'
_cell_volume   502.76758574
_cell_formula_units_Z   2
loop_
 _symmetry_equiv_pos_site_id
 _symmetry_equiv_pos_as_xyz
  1  'x, y, z'
loop_
 _atom_site_type_symbol
 _atom_site_label
 _atom_site_symmetry_multiplicity
 _atom_site_fract_x
 _atom_site_fract_y
 _atom_site_fract_z
 _atom_site_occupancy
  La  La0  1  0.251229  0.686684  0.443010  1
  La  La1  1  0.745495  0.810164  0.056834  1
  La  La2  1  0.439142  0.249014  0.688233  1
  La  La3  1  0.685419  0.440822  0.251910  1
  La  La4  1  0.060329  0.750823  0.811163  1
  La  La5  1  0.810626  0.058403  0.744352  1
  La  La6  1  0.212832  0.211901  0.210429  1
  La  La7  1  0.502188  0.000413  0.290249  1
  La  La8  1  0.290837  0.500363  0.000219  1
  La  La9  1  0.001196  0.290747  0.502828  1
  Al  Al10  1  0.499063  0.000970  0.911169  1
  Al  Al11  1  0.589110  0.587614  0.589303  1
  Al  Al12  1  0.910525  0.499768  0.999390  1
  Al  Al13  1  0.001005  0.911471  0.500087  1
  Ir  Ir14  1  0.866566  0.250939  0.116742  1
  Ir  Ir15  1  0.115491  0.865381  0.250509  1
  Os  Os16  1  0.251542  0.118262  0.868198  1
  Os  Os17  1  0.750349  0.382401  0.633117  1
  Ru  Ru18  1  0.633101  0.750172  0.382291  1
  Ru  Ru19  1  0.383956  0.633691  0.749970  1
