# generated using pymatgen
data_Pr5MoPtO12
_symmetry_space_group_name_H-M   'P 1'
_cell_length_a   7.15455535
_cell_length_b   7.15455577
_cell_length_c   7.68144937
_cell_angle_alpha   74.41126296
_cell_angle_beta   74.41126286
_cell_angle_gamma   50.99237545
_symmetry_Int_Tables_number   1
_chemical_formula_structural   Pr5MoPtO12
_chemical_formula_sum   'Pr5 Mo1 Pt1 O12'
_cell_volume   291.68175262
_cell_formula_units_Z   1
loop_
 _symmetry_equiv_pos_site_id
 _symmetry_equiv_pos_as_xyz
  1  'x, y, z'
loop_
 _atom_site_type_symbol
 _atom_site_label
 _atom_site_symmetry_multiplicity
 _atom_site_fract_x
 _atom_site_fract_y
 _atom_site_fract_z
 _atom_site_occupancy
  Pr  Pr0  1  0.291923  0.316323  0.359152  1
  Pr  Pr1  1  0.683677  0.708077  0.640848  1
  Pr  Pr2  1  0.686649  0.699932  0.167763  1
  Pr  Pr3  1  0.300068  0.313351  0.832237  1
  Pr  Pr4  1  0.996654  0.003346  0.500000  1
  Mo  Mo5  1  0.769731  0.230269  0.000000  1
  Pt  Pt6  1  0.257852  0.742148  0.000000  1
  O  O7  1  0.086948  0.599798  0.579254  1
  O  O8  1  0.007640  0.991176  0.177342  1
  O  O9  1  0.400202  0.913052  0.420746  1
  O  O10  1  0.509184  0.491940  0.179170  1
  O  O11  1  0.096826  0.569876  0.081425  1
  O  O12  1  0.896736  0.405277  0.426130  1
  O  O13  1  0.008824  0.992360  0.822658  1
  O  O14  1  0.594723  0.103263  0.573870  1
  O  O15  1  0.508060  0.490816  0.820830  1
  O  O16  1  0.581979  0.107799  0.078447  1
  O  O17  1  0.430124  0.903174  0.918575  1
  O  O18  1  0.892201  0.418021  0.921553  1
