# generated using pymatgen
data_Pm2AlRh3
_symmetry_space_group_name_H-M   'P 1'
_cell_length_a   5.17267592
_cell_length_b   5.73190227
_cell_length_c   5.73435174
_cell_angle_alpha   59.99905477
_cell_angle_beta   56.34298381
_cell_angle_gamma   56.35318056
_symmetry_Int_Tables_number   1
_chemical_formula_structural   Pm2AlRh3
_chemical_formula_sum   'Pm2 Al1 Rh3'
_cell_volume   113.15125131
_cell_formula_units_Z   1
loop_
 _symmetry_equiv_pos_site_id
 _symmetry_equiv_pos_as_xyz
  1  'x, y, z'
loop_
 _atom_site_type_symbol
 _atom_site_label
 _atom_site_symmetry_multiplicity
 _atom_site_fract_x
 _atom_site_fract_y
 _atom_site_fract_z
 _atom_site_occupancy
  Pm  Pm0  1  0.764984  0.745033  0.744981  1
  Pm  Pm1  1  0.985016  0.004967  0.005019  1
  Al  Al2  1  0.875000  0.375000  0.375000  1
  Rh  Rh3  1  0.375000  0.875000  0.375000  1
  Rh  Rh4  1  0.375000  0.375000  0.875000  1
  Rh  Rh5  1  0.375000  0.375000  0.375000  1
