# generated using pymatgen
data_Dy5TaVO12
_symmetry_space_group_name_H-M   'P 1'
_cell_length_a   6.83552776
_cell_length_b   6.83552828
_cell_length_c   7.34446280
_cell_angle_alpha   74.34276057
_cell_angle_beta   74.34276126
_cell_angle_gamma   51.25173310
_symmetry_Int_Tables_number   1
_chemical_formula_structural   Dy5TaVO12
_chemical_formula_sum   'Dy5 Ta1 V1 O12'
_cell_volume   255.36555335
_cell_formula_units_Z   1
loop_
 _symmetry_equiv_pos_site_id
 _symmetry_equiv_pos_as_xyz
  1  'x, y, z'
loop_
 _atom_site_type_symbol
 _atom_site_label
 _atom_site_symmetry_multiplicity
 _atom_site_fract_x
 _atom_site_fract_y
 _atom_site_fract_z
 _atom_site_occupancy
  Dy  Dy0  1  0.308712  0.296874  0.361161  1
  Dy  Dy1  1  0.703126  0.691288  0.638839  1
  Dy  Dy2  1  0.312212  0.305007  0.828113  1
  Dy  Dy3  1  0.694993  0.687788  0.171887  1
  Dy  Dy4  1  0.000227  0.999773  0.500000  1
  Ta  Ta5  1  0.226374  0.773626  0.000000  1
  V  V6  1  0.742446  0.257554  0.000000  1
  O  O7  1  0.898742  0.418259  0.919055  1
  O  O8  1  0.434312  0.899251  0.917219  1
  O  O9  1  0.100749  0.565688  0.082781  1
  O  O10  1  0.581741  0.101258  0.080945  1
  O  O11  1  0.101214  0.591192  0.575934  1
  O  O12  1  0.600229  0.091991  0.574395  1
  O  O13  1  0.908009  0.399771  0.425605  1
  O  O14  1  0.408808  0.898786  0.424066  1
  O  O15  1  0.996044  0.004923  0.811862  1
  O  O16  1  0.995077  0.003956  0.188138  1
  O  O17  1  0.492952  0.505965  0.814354  1
  O  O18  1  0.494035  0.507048  0.185646  1
