# generated using pymatgen
data_Hf3U(Co2Sn)2
_symmetry_space_group_name_H-M   'P 1'
_cell_length_a   7.16788593
_cell_length_b   7.16788593
_cell_length_c   3.31420100
_cell_angle_alpha   90.00000000
_cell_angle_beta   90.00000000
_cell_angle_gamma   92.90989434
_symmetry_Int_Tables_number   1
_chemical_formula_structural   Hf3U(Co2Sn)2
_chemical_formula_sum   'Hf3 U1 Co4 Sn2'
_cell_volume   170.05941333
_cell_formula_units_Z   1
loop_
 _symmetry_equiv_pos_site_id
 _symmetry_equiv_pos_as_xyz
  1  'x, y, z'
loop_
 _atom_site_type_symbol
 _atom_site_label
 _atom_site_symmetry_multiplicity
 _atom_site_fract_x
 _atom_site_fract_y
 _atom_site_fract_z
 _atom_site_occupancy
  Hf  Hf0  1  0.325887  0.825887  0.500000  1
  Hf  Hf1  1  0.834974  0.669036  0.500000  1
  Hf  Hf2  1  0.169036  0.334974  0.500000  1
  U  U3  1  0.667118  0.167118  0.500000  1
  Co  Co4  1  0.390665  0.135436  0.000000  1
  Co  Co5  1  0.853487  0.353487  0.000000  1
  Co  Co6  1  0.117290  0.617290  0.000000  1
  Co  Co7  1  0.635436  0.890665  0.000000  1
  Sn  Sn8  1  0.013529  0.992577  0.000000  1
  Sn  Sn9  1  0.492577  0.513529  0.000000  1
