# generated using pymatgen
data_Tm2Ti4Pb5
_symmetry_space_group_name_H-M   'P 1'
_cell_length_a   5.90299205
_cell_length_b   8.96562729
_cell_length_c   10.91276271
_cell_angle_alpha   114.25424301
_cell_angle_beta   105.69181147
_cell_angle_gamma   89.99999913
_symmetry_Int_Tables_number   1
_chemical_formula_structural   Tm2Ti4Pb5
_chemical_formula_sum   'Tm4 Ti8 Pb10'
_cell_volume   502.86580077
_cell_formula_units_Z   2
loop_
 _symmetry_equiv_pos_site_id
 _symmetry_equiv_pos_as_xyz
  1  'x, y, z'
loop_
 _atom_site_type_symbol
 _atom_site_label
 _atom_site_symmetry_multiplicity
 _atom_site_fract_x
 _atom_site_fract_y
 _atom_site_fract_z
 _atom_site_occupancy
  Tm  Tm0  1  0.144572  0.254695  0.289144  1
  Tm  Tm1  1  0.855428  0.745305  0.710856  1
  Tm  Tm2  1  0.644572  0.034448  0.289144  1
  Tm  Tm3  1  0.355428  0.965552  0.710856  1
  Ti  Ti4  1  0.559632  0.309632  0.619264  1
  Ti  Ti5  1  0.440368  0.690368  0.380736  1
  Ti  Ti6  1  0.940368  0.690368  0.380736  1
  Ti  Ti7  1  0.059632  0.309632  0.619264  1
  Ti  Ti8  1  0.437039  0.675766  0.874079  1
  Ti  Ti9  1  0.562961  0.324234  0.125921  1
  Ti  Ti10  1  0.937039  0.198312  0.874079  1
  Ti  Ti11  1  0.062961  0.801688  0.125921  1
  Pb  Pb12  1  0.290411  0.586648  0.580822  1
  Pb  Pb13  1  0.709589  0.413352  0.419178  1
  Pb  Pb14  1  0.790411  0.994174  0.580822  1
  Pb  Pb15  1  0.209589  0.005826  0.419178  1
  Pb  Pb16  1  0.250000  0.000000  0.000000  1
  Pb  Pb17  1  0.750000  0.000000  0.000000  1
  Pb  Pb18  1  0.069076  0.469834  0.138153  1
  Pb  Pb19  1  0.930924  0.530166  0.861847  1
  Pb  Pb20  1  0.569076  0.668319  0.138153  1
  Pb  Pb21  1  0.430924  0.331681  0.861847  1
