# generated using pymatgen
data_Ca(TiSe2)8
_symmetry_space_group_name_H-M   'P 1'
_cell_length_a   7.08897000
_cell_length_b   7.08896941
_cell_length_c   14.29753500
_cell_angle_alpha   90.00000000
_cell_angle_beta   90.00000000
_cell_angle_gamma   119.99999343
_symmetry_Int_Tables_number   1
_chemical_formula_structural   Ca(TiSe2)8
_chemical_formula_sum   'Ca1 Ti8 Se16'
_cell_volume   622.24020577
_cell_formula_units_Z   1
loop_
 _symmetry_equiv_pos_site_id
 _symmetry_equiv_pos_as_xyz
  1  'x, y, z'
loop_
 _atom_site_type_symbol
 _atom_site_label
 _atom_site_symmetry_multiplicity
 _atom_site_fract_x
 _atom_site_fract_y
 _atom_site_fract_z
 _atom_site_occupancy
  Ca  Ca0  1  0.000000  0.000000  0.000000  1
  Ti  Ti1  1  0.502475  0.497525  0.742805  1
  Ti  Ti2  1  0.497525  0.502475  0.257195  1
  Ti  Ti3  1  0.502475  0.004950  0.742805  1
  Ti  Ti4  1  0.497525  0.995050  0.257195  1
  Ti  Ti5  1  0.995050  0.497525  0.742805  1
  Ti  Ti6  1  0.004950  0.502475  0.257195  1
  Ti  Ti7  1  0.000000  0.000000  0.739591  1
  Ti  Ti8  1  0.000000  0.000000  0.260409  1
  Se  Se9  1  0.832822  0.665645  0.147372  1
  Se  Se10  1  0.832620  0.665241  0.633686  1
  Se  Se11  1  0.832822  0.167178  0.147372  1
  Se  Se12  1  0.832620  0.167380  0.633686  1
  Se  Se13  1  0.333333  0.666667  0.146022  1
  Se  Se14  1  0.333333  0.666667  0.637452  1
  Se  Se15  1  0.334355  0.167178  0.147372  1
  Se  Se16  1  0.334759  0.167380  0.633686  1
  Se  Se17  1  0.665645  0.832822  0.852628  1
  Se  Se18  1  0.665241  0.832620  0.366314  1
  Se  Se19  1  0.666667  0.333333  0.853978  1
  Se  Se20  1  0.666667  0.333333  0.362548  1
  Se  Se21  1  0.167178  0.832822  0.852628  1
  Se  Se22  1  0.167380  0.832620  0.366314  1
  Se  Se23  1  0.167178  0.334355  0.852628  1
  Se  Se24  1  0.167380  0.334759  0.366314  1
