# generated using pymatgen
data_Dy16Lu4(Ir3Ru)3
_symmetry_space_group_name_H-M   'P 1'
_cell_length_a   10.79837100
_cell_length_b   10.79837100
_cell_length_c   6.39604200
_cell_angle_alpha   90.00000000
_cell_angle_beta   90.00000000
_cell_angle_gamma   90.00000000
_symmetry_Int_Tables_number   1
_chemical_formula_structural   Dy16Lu4(Ir3Ru)3
_chemical_formula_sum   'Dy16 Lu4 Ir9 Ru3'
_cell_volume   745.80930216
_cell_formula_units_Z   1
loop_
 _symmetry_equiv_pos_site_id
 _symmetry_equiv_pos_as_xyz
  1  'x, y, z'
loop_
 _atom_site_type_symbol
 _atom_site_label
 _atom_site_symmetry_multiplicity
 _atom_site_fract_x
 _atom_site_fract_y
 _atom_site_fract_z
 _atom_site_occupancy
  Dy  Dy0  1  0.292717  0.086740  0.378495  1
  Dy  Dy1  1  0.292730  0.913607  0.878947  1
  Dy  Dy2  1  0.707270  0.086393  0.878947  1
  Dy  Dy3  1  0.707283  0.913260  0.378495  1
  Dy  Dy4  1  0.586393  0.792730  0.878947  1
  Dy  Dy5  1  0.586740  0.207283  0.378495  1
  Dy  Dy6  1  0.413260  0.792717  0.378495  1
  Dy  Dy7  1  0.413607  0.207270  0.878947  1
  Dy  Dy8  1  0.208866  0.412655  0.622923  1
  Dy  Dy9  1  0.208631  0.587358  0.119952  1
  Dy  Dy10  1  0.791369  0.412642  0.119952  1
  Dy  Dy11  1  0.791134  0.587345  0.622923  1
  Dy  Dy12  1  0.912642  0.708631  0.119952  1
  Dy  Dy13  1  0.912655  0.291134  0.622923  1
  Dy  Dy14  1  0.087345  0.708866  0.622923  1
  Dy  Dy15  1  0.087358  0.291369  0.119952  1
  Lu  Lu16  1  0.000000  0.000000  0.499552  1
  Lu  Lu17  1  0.000000  0.000000  0.999439  1
  Lu  Lu18  1  0.500000  0.500000  0.999439  1
  Lu  Lu19  1  0.500000  0.500000  0.499552  1
  Ir  Ir20  1  0.849762  0.150714  0.249886  1
  Ir  Ir21  1  0.849306  0.849459  0.749602  1
  Ir  Ir22  1  0.150694  0.150541  0.749602  1
  Ir  Ir23  1  0.150238  0.849286  0.249886  1
  Ir  Ir24  1  0.650541  0.349306  0.749602  1
  Ir  Ir25  1  0.650714  0.650238  0.249886  1
  Ir  Ir26  1  0.349286  0.349762  0.249886  1
  Ir  Ir27  1  0.349459  0.650694  0.749602  1
  Ir  Ir28  1  0.000000  0.500000  0.377471  1
  Ru  Ru29  1  0.500000  0.000000  0.124168  1
  Ru  Ru30  1  0.500000  0.000000  0.623986  1
  Ru  Ru31  1  0.000000  0.500000  0.877173  1
