# generated using pymatgen
data_Tb2NdIr4Rh5
_symmetry_space_group_name_H-M   'P 1'
_cell_length_a   5.32868662
_cell_length_b   5.32425381
_cell_length_c   17.52634703
_cell_angle_alpha   90.00000048
_cell_angle_beta   90.00566392
_cell_angle_gamma   119.97248594
_symmetry_Int_Tables_number   1
_chemical_formula_structural   Tb2NdIr4Rh5
_chemical_formula_sum   'Tb4 Nd2 Ir8 Rh10'
_cell_volume   430.74605374
_cell_formula_units_Z   2
loop_
 _symmetry_equiv_pos_site_id
 _symmetry_equiv_pos_as_xyz
  1  'x, y, z'
loop_
 _atom_site_type_symbol
 _atom_site_label
 _atom_site_symmetry_multiplicity
 _atom_site_fract_x
 _atom_site_fract_y
 _atom_site_fract_z
 _atom_site_occupancy
  Tb  Tb0  1  0.333366  0.666684  0.541627  1
  Tb  Tb1  1  0.666663  0.333331  0.041140  1
  Tb  Tb2  1  0.666773  0.333386  0.458716  1
  Tb  Tb3  1  0.332515  0.666258  0.958841  1
  Nd  Nd4  1  0.333468  0.666734  0.750017  1
  Nd  Nd5  1  0.666857  0.333428  0.249364  1
  Ir  Ir6  1  0.167687  0.334886  0.126050  1
  Ir  Ir7  1  0.832649  0.664747  0.625400  1
  Ir  Ir8  1  0.665457  0.832728  0.125880  1
  Ir  Ir9  1  0.167687  0.832800  0.126050  1
  Ir  Ir10  1  0.832649  0.167903  0.625400  1
  Ir  Ir11  1  0.334397  0.167199  0.625786  1
  Ir  Ir12  1  0.834569  0.665580  0.874215  1
  Ir  Ir13  1  0.834569  0.168990  0.874215  1
  Rh  Rh14  1  0.336020  0.168010  0.874607  1
  Rh  Rh15  1  0.665452  0.832725  0.374700  1
  Rh  Rh16  1  0.167021  0.832490  0.374723  1
  Rh  Rh17  1  0.167021  0.334530  0.374723  1
  Rh  Rh18  1  0.000280  0.000140  0.249751  1
  Rh  Rh19  1  0.998164  0.999082  0.749823  1
  Rh  Rh20  1  0.333522  0.666762  0.250015  1
  Rh  Rh21  1  0.666463  0.333231  0.749682  1
  Rh  Rh22  1  0.996524  0.998262  0.999579  1
  Rh  Rh23  1  0.000227  0.000114  0.499694  1
