# generated using pymatgen
data_K2BeTe2
_symmetry_space_group_name_H-M   'P 1'
_cell_length_a   8.52853808
_cell_length_b   8.52853926
_cell_length_c   8.52853833
_cell_angle_alpha   133.66368964
_cell_angle_beta   129.79423915
_cell_angle_gamma   70.70351009
_symmetry_Int_Tables_number   1
_chemical_formula_structural   K2BeTe2
_chemical_formula_sum   'K4 Be2 Te4'
_cell_volume   337.79595752
_cell_formula_units_Z   2
loop_
 _symmetry_equiv_pos_site_id
 _symmetry_equiv_pos_as_xyz
  1  'x, y, z'
loop_
 _atom_site_type_symbol
 _atom_site_label
 _atom_site_symmetry_multiplicity
 _atom_site_fract_x
 _atom_site_fract_y
 _atom_site_fract_z
 _atom_site_occupancy
  K  K0  1  0.176808  0.858621  0.318187  1
  K  K1  1  0.823192  0.141379  0.681813  1
  K  K2  1  0.459566  0.641379  0.818187  1
  K  K3  1  0.540434  0.358621  0.181813  1
  Be  Be4  1  0.000000  0.250000  0.250000  1
  Be  Be5  1  0.000000  0.750000  0.750000  1
  Te  Te6  1  0.921766  0.599452  0.322315  1
  Te  Te7  1  0.078234  0.400548  0.677685  1
  Te  Te8  1  0.722863  0.900548  0.822315  1
  Te  Te9  1  0.277137  0.099452  0.177685  1
