# generated using pymatgen
data_Y20Co2CuAg5
_symmetry_space_group_name_H-M   'P 1'
_cell_length_a   9.58971200
_cell_length_b   9.58278755
_cell_length_c   9.61981800
_cell_angle_alpha   90.00000000
_cell_angle_beta   90.00000000
_cell_angle_gamma   119.97611662
_symmetry_Int_Tables_number   1
_chemical_formula_structural   Y20Co2CuAg5
_chemical_formula_sum   'Y20 Co2 Cu1 Ag5'
_cell_volume   765.77182083
_cell_formula_units_Z   1
loop_
 _symmetry_equiv_pos_site_id
 _symmetry_equiv_pos_as_xyz
  1  'x, y, z'
loop_
 _atom_site_type_symbol
 _atom_site_label
 _atom_site_symmetry_multiplicity
 _atom_site_fract_x
 _atom_site_fract_y
 _atom_site_fract_z
 _atom_site_occupancy
  Y  Y0  1  0.991721  0.995860  0.510226  1
  Y  Y1  1  0.991721  0.995860  0.989774  1
  Y  Y2  1  0.543230  0.456089  0.250000  1
  Y  Y3  1  0.543230  0.087141  0.250000  1
  Y  Y4  1  0.914192  0.457097  0.250000  1
  Y  Y5  1  0.465362  0.549948  0.750000  1
  Y  Y6  1  0.465362  0.915413  0.750000  1
  Y  Y7  1  0.089133  0.544566  0.750000  1
  Y  Y8  1  0.211063  0.790535  0.437785  1
  Y  Y9  1  0.211063  0.420530  0.437785  1
  Y  Y10  1  0.578701  0.789351  0.438451  1
  Y  Y11  1  0.789846  0.211380  0.563064  1
  Y  Y12  1  0.789846  0.578463  0.563064  1
  Y  Y13  1  0.420575  0.210287  0.563524  1
  Y  Y14  1  0.789846  0.211380  0.936936  1
  Y  Y15  1  0.789846  0.578463  0.936936  1
  Y  Y16  1  0.420575  0.210287  0.936476  1
  Y  Y17  1  0.211063  0.790535  0.062215  1
  Y  Y18  1  0.211063  0.420530  0.062215  1
  Y  Y19  1  0.578701  0.789351  0.061549  1
  Co  Co20  1  0.333206  0.666604  0.250000  1
  Co  Co21  1  0.666539  0.333268  0.750000  1
  Cu  Cu22  1  0.758042  0.879021  0.750000  1
  Ag  Ag23  1  0.884156  0.115541  0.250000  1
  Ag  Ag24  1  0.884156  0.768613  0.250000  1
  Ag  Ag25  1  0.228730  0.114365  0.250000  1
  Ag  Ag26  1  0.119519  0.881768  0.750000  1
  Ag  Ag27  1  0.119519  0.237750  0.750000  1
