# generated using pymatgen
data_Zr2Tc3Ir
_symmetry_space_group_name_H-M   'P 1'
_cell_length_a   5.17702700
_cell_length_b   5.17702684
_cell_length_c   8.90885900
_cell_angle_alpha   90.00000000
_cell_angle_beta   90.00000000
_cell_angle_gamma   119.99999464
_symmetry_Int_Tables_number   1
_chemical_formula_structural   Zr2Tc3Ir
_chemical_formula_sum   'Zr4 Tc6 Ir2'
_cell_volume   206.78240731
_cell_formula_units_Z   2
loop_
 _symmetry_equiv_pos_site_id
 _symmetry_equiv_pos_as_xyz
  1  'x, y, z'
loop_
 _atom_site_type_symbol
 _atom_site_label
 _atom_site_symmetry_multiplicity
 _atom_site_fract_x
 _atom_site_fract_y
 _atom_site_fract_z
 _atom_site_occupancy
  Zr  Zr0  1  0.333333  0.666667  0.432583  1
  Zr  Zr1  1  0.666667  0.333333  0.567417  1
  Zr  Zr2  1  0.666667  0.333333  0.932583  1
  Zr  Zr3  1  0.333333  0.666667  0.067417  1
  Tc  Tc4  1  0.828658  0.171342  0.250000  1
  Tc  Tc5  1  0.828658  0.657318  0.250000  1
  Tc  Tc6  1  0.342682  0.171342  0.250000  1
  Tc  Tc7  1  0.171342  0.828658  0.750000  1
  Tc  Tc8  1  0.171342  0.342682  0.750000  1
  Tc  Tc9  1  0.657318  0.828658  0.750000  1
  Ir  Ir10  1  0.000000  0.000000  0.500000  1
  Ir  Ir11  1  0.000000  0.000000  0.000000  1
