# generated using pymatgen
data_Dy4Er6OsRu3
_symmetry_space_group_name_H-M   'P 1'
_cell_length_a   6.32270511
_cell_length_b   7.27363521
_cell_length_c   8.41837516
_cell_angle_alpha   96.77177765
_cell_angle_beta   112.10844596
_cell_angle_gamma   89.99763529
_symmetry_Int_Tables_number   1
_chemical_formula_structural   Dy4Er6OsRu3
_chemical_formula_sum   'Dy4 Er6 Os1 Ru3'
_cell_volume   355.77077720
_cell_formula_units_Z   1
loop_
 _symmetry_equiv_pos_site_id
 _symmetry_equiv_pos_as_xyz
  1  'x, y, z'
loop_
 _atom_site_type_symbol
 _atom_site_label
 _atom_site_symmetry_multiplicity
 _atom_site_fract_x
 _atom_site_fract_y
 _atom_site_fract_z
 _atom_site_occupancy
  Dy  Dy0  1  0.791026  0.582510  0.812290  1
  Dy  Dy1  1  0.975625  0.915896  0.184734  1
  Dy  Dy2  1  0.208771  0.416090  0.187329  1
  Dy  Dy3  1  0.023742  0.083918  0.812965  1
  Er  Er4  1  0.206437  0.685266  0.566476  1
  Er  Er5  1  0.639546  0.816635  0.436215  1
  Er  Er6  1  0.795047  0.315330  0.433879  1
  Er  Er7  1  0.359390  0.183970  0.564931  1
  Er  Er8  1  0.420662  0.749934  0.999161  1
  Er  Er9  1  0.579821  0.250166  0.000000  1
  Os  Os10  1  0.601082  0.924361  0.780446  1
  Ru  Ru11  1  0.822987  0.576539  0.221799  1
  Ru  Ru12  1  0.398238  0.075977  0.220775  1
  Ru  Ru13  1  0.177626  0.423408  0.779002  1
