# generated using pymatgen
data_Y8Tm2Ir3Os
_symmetry_space_group_name_H-M   'P 1'
_cell_length_a   6.49477124
_cell_length_b   7.25931674
_cell_length_c   8.46653884
_cell_angle_alpha   96.54683451
_cell_angle_beta   112.33514271
_cell_angle_gamma   89.96530585
_symmetry_Int_Tables_number   1
_chemical_formula_structural   Y8Tm2Ir3Os
_chemical_formula_sum   'Y8 Tm2 Ir3 Os1'
_cell_volume   366.42506857
_cell_formula_units_Z   1
loop_
 _symmetry_equiv_pos_site_id
 _symmetry_equiv_pos_as_xyz
  1  'x, y, z'
loop_
 _atom_site_type_symbol
 _atom_site_label
 _atom_site_symmetry_multiplicity
 _atom_site_fract_x
 _atom_site_fract_y
 _atom_site_fract_z
 _atom_site_occupancy
  Y  Y0  1  0.969098  0.917087  0.181878  1
  Y  Y1  1  0.788701  0.581153  0.821493  1
  Y  Y2  1  0.030568  0.081749  0.818968  1
  Y  Y3  1  0.211168  0.419253  0.181883  1
  Y  Y4  1  0.654904  0.816827  0.439326  1
  Y  Y5  1  0.210433  0.682033  0.557920  1
  Y  Y6  1  0.346930  0.182446  0.559787  1
  Y  Y7  1  0.786919  0.318551  0.438998  1
  Tm  Tm8  1  0.429517  0.749709  0.000427  1
  Tm  Tm9  1  0.572633  0.251342  0.000643  1
  Ir  Ir10  1  0.605526  0.928531  0.783760  1
  Ir  Ir11  1  0.178388  0.426972  0.784609  1
  Ir  Ir12  1  0.393398  0.072199  0.215596  1
  Os  Os13  1  0.821816  0.572148  0.214711  1
