# generated using pymatgen
data_Nd2Zn9Au8
_symmetry_space_group_name_H-M   'P 1'
_cell_length_a   7.10706219
_cell_length_b   7.10706307
_cell_length_c   6.94806036
_cell_angle_alpha   83.57900610
_cell_angle_beta   83.57900992
_cell_angle_gamma   82.14770174
_symmetry_Int_Tables_number   1
_chemical_formula_structural   Nd2Zn9Au8
_chemical_formula_sum   'Nd2 Zn9 Au8'
_cell_volume   343.81154535
_cell_formula_units_Z   1
loop_
 _symmetry_equiv_pos_site_id
 _symmetry_equiv_pos_as_xyz
  1  'x, y, z'
loop_
 _atom_site_type_symbol
 _atom_site_label
 _atom_site_symmetry_multiplicity
 _atom_site_fract_x
 _atom_site_fract_y
 _atom_site_fract_z
 _atom_site_occupancy
  Nd  Nd0  1  0.338527  0.338527  0.349794  1
  Nd  Nd1  1  0.661473  0.661473  0.650206  1
  Zn  Zn2  1  0.000000  0.000000  0.500000  1
  Zn  Zn3  1  0.000000  0.500000  0.000000  1
  Zn  Zn4  1  0.500000  0.000000  0.000000  1
  Zn  Zn5  1  0.710596  0.289404  0.000000  1
  Zn  Zn6  1  0.289404  0.710596  0.000000  1
  Zn  Zn7  1  0.153510  0.658889  0.655338  1
  Zn  Zn8  1  0.658889  0.153510  0.655338  1
  Zn  Zn9  1  0.341111  0.846490  0.344662  1
  Zn  Zn10  1  0.846490  0.341111  0.344662  1
  Au  Au11  1  0.313769  0.988002  0.692268  1
  Au  Au12  1  0.011998  0.686231  0.307732  1
  Au  Au13  1  0.686231  0.011998  0.307732  1
  Au  Au14  1  0.988002  0.313769  0.692268  1
  Au  Au15  1  0.628472  0.628472  0.167925  1
  Au  Au16  1  0.371528  0.371528  0.832075  1
  Au  Au17  1  0.112074  0.112074  0.108251  1
  Au  Au18  1  0.887926  0.887926  0.891749  1
