# generated using pymatgen
data_Ho2Hf3Si7Pt9
_symmetry_space_group_name_H-M   'P 1'
_cell_length_a   10.03185500
_cell_length_b   10.03185588
_cell_length_c   4.00466000
_cell_angle_alpha   90.00000000
_cell_angle_beta   90.00000000
_cell_angle_gamma   120.00000041
_symmetry_Int_Tables_number   1
_chemical_formula_structural   Ho2Hf3Si7Pt9
_chemical_formula_sum   'Ho2 Hf3 Si7 Pt9'
_cell_volume   349.02682793
_cell_formula_units_Z   1
loop_
 _symmetry_equiv_pos_site_id
 _symmetry_equiv_pos_as_xyz
  1  'x, y, z'
loop_
 _atom_site_type_symbol
 _atom_site_label
 _atom_site_symmetry_multiplicity
 _atom_site_fract_x
 _atom_site_fract_y
 _atom_site_fract_z
 _atom_site_occupancy
  Ho  Ho0  1  0.000000  0.000000  0.000000  1
  Ho  Ho1  1  0.333333  0.666667  0.500000  1
  Hf  Hf2  1  0.892342  0.456266  0.500000  1
  Hf  Hf3  1  0.563924  0.107658  0.500000  1
  Hf  Hf4  1  0.543734  0.436076  0.500000  1
  Si  Si5  1  0.246374  0.196383  0.500000  1
  Si  Si6  1  0.803617  0.049992  0.500000  1
  Si  Si7  1  0.950008  0.753626  0.500000  1
  Si  Si8  1  0.558130  0.647638  0.000000  1
  Si  Si9  1  0.352362  0.910490  0.000000  1
  Si  Si10  1  0.089510  0.441870  0.000000  1
  Si  Si11  1  0.666667  0.333333  0.000000  1
  Pt  Pt12  1  0.218776  0.937181  0.500000  1
  Pt  Pt13  1  0.062819  0.281595  0.500000  1
  Pt  Pt14  1  0.718405  0.781224  0.500000  1
  Pt  Pt15  1  0.315215  0.414368  0.000000  1
  Pt  Pt16  1  0.585632  0.900847  0.000000  1
  Pt  Pt17  1  0.099153  0.684785  0.000000  1
  Pt  Pt18  1  0.387431  0.175389  0.000000  1
  Pt  Pt19  1  0.824611  0.212042  0.000000  1
  Pt  Pt20  1  0.787958  0.612569  0.000000  1
