# generated using pymatgen
data_Y3(Al3Ru)4
_symmetry_space_group_name_H-M   'P 1'
_cell_length_a   8.82208300
_cell_length_b   8.82208239
_cell_length_c   9.58410700
_cell_angle_alpha   90.00000000
_cell_angle_beta   90.00000000
_cell_angle_gamma   120.00000603
_symmetry_Int_Tables_number   1
_chemical_formula_structural   Y3(Al3Ru)4
_chemical_formula_sum   'Y6 Al24 Ru8'
_cell_volume   645.98808512
_cell_formula_units_Z   2
loop_
 _symmetry_equiv_pos_site_id
 _symmetry_equiv_pos_as_xyz
  1  'x, y, z'
loop_
 _atom_site_type_symbol
 _atom_site_label
 _atom_site_symmetry_multiplicity
 _atom_site_fract_x
 _atom_site_fract_y
 _atom_site_fract_z
 _atom_site_occupancy
  Y  Y0  1  0.806470  0.193530  0.750000  1
  Y  Y1  1  0.193530  0.806470  0.250000  1
  Y  Y2  1  0.387061  0.193530  0.750000  1
  Y  Y3  1  0.612939  0.806470  0.250000  1
  Y  Y4  1  0.806470  0.612939  0.750000  1
  Y  Y5  1  0.193530  0.387061  0.250000  1
  Al  Al6  1  0.666667  0.333333  0.984451  1
  Al  Al7  1  0.333333  0.666667  0.015549  1
  Al  Al8  1  0.333333  0.666667  0.484451  1
  Al  Al9  1  0.666667  0.333333  0.515549  1
  Al  Al10  1  0.837837  0.162163  0.422403  1
  Al  Al11  1  0.162163  0.837837  0.577597  1
  Al  Al12  1  0.324326  0.162163  0.422403  1
  Al  Al13  1  0.162163  0.837837  0.922403  1
  Al  Al14  1  0.675674  0.837837  0.577597  1
  Al  Al15  1  0.837837  0.162163  0.077597  1
  Al  Al16  1  0.837837  0.675674  0.422403  1
  Al  Al17  1  0.675674  0.837837  0.922403  1
  Al  Al18  1  0.162163  0.324326  0.577597  1
  Al  Al19  1  0.324326  0.162163  0.077597  1
  Al  Al20  1  0.162163  0.324326  0.922403  1
  Al  Al21  1  0.837837  0.675674  0.077597  1
  Al  Al22  1  0.438844  0.561156  0.750000  1
  Al  Al23  1  0.561156  0.438844  0.250000  1
  Al  Al24  1  0.122312  0.561156  0.750000  1
  Al  Al25  1  0.877688  0.438844  0.250000  1
  Al  Al26  1  0.438844  0.877688  0.750000  1
  Al  Al27  1  0.561156  0.122312  0.250000  1
  Al  Al28  1  0.000000  0.000000  0.750000  1
  Al  Al29  1  0.000000  0.000000  0.250000  1
  Ru  Ru30  1  0.500000  0.500000  0.000000  1
  Ru  Ru31  1  0.000000  0.500000  0.000000  1
  Ru  Ru32  1  0.500000  0.500000  0.500000  1
  Ru  Ru33  1  0.500000  0.000000  0.000000  1
  Ru  Ru34  1  0.000000  0.500000  0.500000  1
  Ru  Ru35  1  0.500000  0.000000  0.500000  1
  Ru  Ru36  1  0.000000  0.000000  0.000000  1
  Ru  Ru37  1  0.000000  0.000000  0.500000  1
