# generated using pymatgen
data_CaPr3(SiPd2)4
_symmetry_space_group_name_H-M   'P 1'
_cell_length_a   5.70256057
_cell_length_b   6.99650800
_cell_length_c   7.57059035
_cell_angle_alpha   90.00000000
_cell_angle_beta   90.19858535
_cell_angle_gamma   90.00000000
_symmetry_Int_Tables_number   1
_chemical_formula_structural   CaPr3(SiPd2)4
_chemical_formula_sum   'Ca1 Pr3 Si4 Pd8'
_cell_volume   302.04968049
_cell_formula_units_Z   1
loop_
 _symmetry_equiv_pos_site_id
 _symmetry_equiv_pos_as_xyz
  1  'x, y, z'
loop_
 _atom_site_type_symbol
 _atom_site_label
 _atom_site_symmetry_multiplicity
 _atom_site_fract_x
 _atom_site_fract_y
 _atom_site_fract_z
 _atom_site_occupancy
  Ca  Ca0  1  0.359123  0.750000  0.028147  1
  Pr  Pr1  1  0.142929  0.750000  0.531118  1
  Pr  Pr2  1  0.638160  0.250000  0.970943  1
  Pr  Pr3  1  0.856207  0.250000  0.471553  1
  Si  Si4  1  0.645182  0.750000  0.369813  1
  Si  Si5  1  0.856462  0.750000  0.878473  1
  Si  Si6  1  0.353745  0.250000  0.624788  1
  Si  Si7  1  0.142551  0.250000  0.124774  1
  Pd  Pd8  1  0.908300  0.553228  0.170343  1
  Pd  Pd9  1  0.597059  0.946487  0.675467  1
  Pd  Pd10  1  0.093050  0.052724  0.827498  1
  Pd  Pd11  1  0.404412  0.447204  0.326886  1
  Pd  Pd12  1  0.093050  0.447276  0.827498  1
  Pd  Pd13  1  0.404412  0.052796  0.326886  1
  Pd  Pd14  1  0.908300  0.946772  0.170343  1
  Pd  Pd15  1  0.597059  0.553513  0.675467  1
