# generated using pymatgen
data_Ca(TcO4)2
_symmetry_space_group_name_H-M   'P 1'
_cell_length_a   6.83674712
_cell_length_b   6.83674622
_cell_length_c   6.83674797
_cell_angle_alpha   123.65339645
_cell_angle_beta   123.65339054
_cell_angle_gamma   83.78065267
_symmetry_Int_Tables_number   1
_chemical_formula_structural   Ca(TcO4)2
_chemical_formula_sum   'Ca1 Tc2 O8'
_cell_volume   212.11471596
_cell_formula_units_Z   1
loop_
 _symmetry_equiv_pos_site_id
 _symmetry_equiv_pos_as_xyz
  1  'x, y, z'
loop_
 _atom_site_type_symbol
 _atom_site_label
 _atom_site_symmetry_multiplicity
 _atom_site_fract_x
 _atom_site_fract_y
 _atom_site_fract_z
 _atom_site_occupancy
  Ca  Ca0  1  0.000000  0.000000  0.000000  1
  Tc  Tc1  1  0.750000  0.250000  0.500000  1
  Tc  Tc2  1  0.250000  0.750000  0.500000  1
  O  O3  1  0.851967  0.139639  0.286435  1
  O  O4  1  0.434469  0.146797  0.286435  1
  O  O5  1  0.860362  0.148033  0.713565  1
  O  O6  1  0.148033  0.434469  0.287671  1
  O  O7  1  0.853203  0.565531  0.713565  1
  O  O8  1  0.565531  0.851967  0.712329  1
  O  O9  1  0.139639  0.853203  0.287671  1
  O  O10  1  0.146797  0.860362  0.712329  1
