# generated using pymatgen
data_Y5(CoO6)2
_symmetry_space_group_name_H-M   'P 1'
_cell_length_a   6.75834043
_cell_length_b   6.75834085
_cell_length_c   7.19909571
_cell_angle_alpha   74.56215416
_cell_angle_beta   74.56215445
_cell_angle_gamma   50.53004081
_symmetry_Int_Tables_number   1
_chemical_formula_structural   Y5(CoO6)2
_chemical_formula_sum   'Y5 Co2 O12'
_cell_volume   242.58971781
_cell_formula_units_Z   1
loop_
 _symmetry_equiv_pos_site_id
 _symmetry_equiv_pos_as_xyz
  1  'x, y, z'
loop_
 _atom_site_type_symbol
 _atom_site_label
 _atom_site_symmetry_multiplicity
 _atom_site_fract_x
 _atom_site_fract_y
 _atom_site_fract_z
 _atom_site_occupancy
  Y  Y0  1  0.306211  0.306211  0.356032  1
  Y  Y1  1  0.693789  0.693789  0.643968  1
  Y  Y2  1  0.692067  0.692067  0.164660  1
  Y  Y3  1  0.307933  0.307933  0.835340  1
  Y  Y4  1  0.000000  0.000000  0.500000  1
  Co  Co5  1  0.755995  0.244005  0.000000  1
  Co  Co6  1  0.244005  0.755995  0.000000  1
  O  O7  1  0.096605  0.598533  0.576572  1
  O  O8  1  0.999144  0.999144  0.170537  1
  O  O9  1  0.401467  0.903395  0.423428  1
  O  O10  1  0.499841  0.499841  0.174255  1
  O  O11  1  0.099423  0.583278  0.078328  1
  O  O12  1  0.903395  0.401467  0.423428  1
  O  O13  1  0.000856  0.000856  0.829463  1
  O  O14  1  0.598533  0.096604  0.576572  1
  O  O15  1  0.500159  0.500159  0.825745  1
  O  O16  1  0.583278  0.099423  0.078328  1
  O  O17  1  0.416722  0.900577  0.921672  1
  O  O18  1  0.900577  0.416722  0.921672  1
