# generated using pymatgen
data_CeCuHgPt3
_symmetry_space_group_name_H-M   'P 1'
_cell_length_a   5.26725847
_cell_length_b   5.26725701
_cell_length_c   5.26725743
_cell_angle_alpha   62.50058713
_cell_angle_beta   62.50059534
_cell_angle_gamma   62.50057356
_symmetry_Int_Tables_number   1
_chemical_formula_structural   CeCuHgPt3
_chemical_formula_sum   'Ce1 Cu1 Hg1 Pt3'
_cell_volume   109.09124278
_cell_formula_units_Z   1
loop_
 _symmetry_equiv_pos_site_id
 _symmetry_equiv_pos_as_xyz
  1  'x, y, z'
loop_
 _atom_site_type_symbol
 _atom_site_label
 _atom_site_symmetry_multiplicity
 _atom_site_fract_x
 _atom_site_fract_y
 _atom_site_fract_z
 _atom_site_occupancy
  Ce  Ce0  1  0.000833  0.000833  0.000833  1
  Cu  Cu1  1  0.623879  0.623879  0.623879  1
  Hg  Hg2  1  0.252070  0.252070  0.252070  1
  Pt  Pt3  1  0.623626  0.623626  0.125965  1
  Pt  Pt4  1  0.623626  0.125965  0.623626  1
  Pt  Pt5  1  0.125965  0.623626  0.623626  1
