# generated using pymatgen
data_Er8B24IrRuW2
_symmetry_space_group_name_H-M   'P 1'
_cell_length_a   3.62160200
_cell_length_b   9.17555265
_cell_length_c   11.55573206
_cell_angle_alpha   90.02858659
_cell_angle_beta   90.00000000
_cell_angle_gamma   90.00000000
_symmetry_Int_Tables_number   1
_chemical_formula_structural   Er8B24IrRuW2
_chemical_formula_sum   'Er8 B24 Ir1 Ru1 W2'
_cell_volume   383.99923769
_cell_formula_units_Z   1
loop_
 _symmetry_equiv_pos_site_id
 _symmetry_equiv_pos_as_xyz
  1  'x, y, z'
loop_
 _atom_site_type_symbol
 _atom_site_label
 _atom_site_symmetry_multiplicity
 _atom_site_fract_x
 _atom_site_fract_y
 _atom_site_fract_z
 _atom_site_occupancy
  Er  Er0  1  0.000000  0.317304  0.414533  1
  Er  Er1  1  0.000000  0.678526  0.589296  1
  Er  Er2  1  0.000000  0.824561  0.083468  1
  Er  Er3  1  0.000000  0.179186  0.913036  1
  Er  Er4  1  0.000000  0.942999  0.373111  1
  Er  Er5  1  0.000000  0.053824  0.628568  1
  Er  Er6  1  0.000000  0.444042  0.126922  1
  Er  Er7  1  0.000000  0.558852  0.873073  1
  B  B8  1  0.500000  0.553848  0.432946  1
  B  B9  1  0.500000  0.449551  0.563502  1
  B  B10  1  0.500000  0.050518  0.063566  1
  B  B11  1  0.500000  0.946284  0.931580  1
  B  B12  1  0.500000  0.748462  0.420681  1
  B  B13  1  0.500000  0.247939  0.578345  1
  B  B14  1  0.500000  0.251682  0.078290  1
  B  B15  1  0.500000  0.752746  0.919259  1
  B  B16  1  0.500000  0.791385  0.265966  1
  B  B17  1  0.500000  0.205246  0.736174  1
  B  B18  1  0.500000  0.294869  0.236266  1
  B  B19  1  0.500000  0.709135  0.766604  1
  B  B20  1  0.500000  0.632906  0.184176  1
  B  B21  1  0.500000  0.369428  0.816932  1
  B  B22  1  0.500000  0.130700  0.317081  1
  B  B23  1  0.500000  0.867372  0.685744  1
  B  B24  1  0.500000  0.977296  0.212510  1
  B  B25  1  0.500000  0.016048  0.786985  1
  B  B26  1  0.500000  0.483259  0.286851  1
  B  B27  1  0.500000  0.523109  0.712919  1
  B  B28  1  0.500000  0.607982  0.029935  1
  B  B29  1  0.500000  0.397904  0.971397  1
  B  B30  1  0.500000  0.101758  0.471448  1
  B  B31  1  0.500000  0.891745  0.529764  1
  Ir  Ir32  1  0.000000  0.637984  0.321167  1
  Ru  Ru33  1  0.000000  0.861267  0.820705  1
  W  W34  1  0.000000  0.362654  0.678239  1
  W  W35  1  0.000000  0.137629  0.178964  1
