# generated using pymatgen
data_Dy6Ho2Nb12Si15Ge
_symmetry_space_group_name_H-M   'P 1'
_cell_length_a   6.88494855
_cell_length_b   7.08524575
_cell_length_c   13.45279006
_cell_angle_alpha   90.03790375
_cell_angle_beta   89.92869331
_cell_angle_gamma   90.02904545
_symmetry_Int_Tables_number   1
_chemical_formula_structural   Dy6Ho2Nb12Si15Ge
_chemical_formula_sum   'Dy6 Ho2 Nb12 Si15 Ge1'
_cell_volume   656.24724861
_cell_formula_units_Z   1
loop_
 _symmetry_equiv_pos_site_id
 _symmetry_equiv_pos_as_xyz
  1  'x, y, z'
loop_
 _atom_site_type_symbol
 _atom_site_label
 _atom_site_symmetry_multiplicity
 _atom_site_fract_x
 _atom_site_fract_y
 _atom_site_fract_z
 _atom_site_occupancy
  Dy  Dy0  1  0.504018  0.328677  0.095875  1
  Dy  Dy1  1  0.003131  0.171021  0.403684  1
  Dy  Dy2  1  0.499137  0.673312  0.596523  1
  Dy  Dy3  1  0.995724  0.828511  0.904744  1
  Dy  Dy4  1  0.495616  0.671203  0.904560  1
  Dy  Dy5  1  0.995854  0.829154  0.596018  1
  Ho  Ho6  1  0.504453  0.327157  0.402961  1
  Ho  Ho7  1  0.003824  0.172013  0.095866  1
  Nb  Nb8  1  0.663319  0.008694  0.750257  1
  Nb  Nb9  1  0.163248  0.490483  0.751872  1
  Nb  Nb10  1  0.336657  0.991713  0.249733  1
  Nb  Nb11  1  0.836743  0.508783  0.249859  1
  Nb  Nb12  1  0.835140  0.324215  0.625814  1
  Nb  Nb13  1  0.336443  0.175204  0.874899  1
  Nb  Nb14  1  0.163371  0.675533  0.125315  1
  Nb  Nb15  1  0.662948  0.825146  0.374035  1
  Nb  Nb16  1  0.161561  0.677723  0.372914  1
  Nb  Nb17  1  0.662327  0.824654  0.125197  1
  Nb  Nb18  1  0.836691  0.323986  0.874962  1
  Nb  Nb19  1  0.339544  0.171818  0.626494  1
  Si  Si20  1  0.795729  0.624999  0.750335  1
  Si  Si21  1  0.294626  0.873741  0.750634  1
  Si  Si22  1  0.204762  0.374678  0.249673  1
  Si  Si23  1  0.705007  0.125614  0.249514  1
  Si  Si24  1  0.541327  0.375955  0.750470  1
  Si  Si25  1  0.041339  0.124043  0.750033  1
  Si  Si26  1  0.458370  0.623986  0.249932  1
  Si  Si27  1  0.957765  0.876804  0.248879  1
  Si  Si28  1  0.663081  0.037573  0.539950  1
  Si  Si29  1  0.161884  0.462910  0.959658  1
  Si  Si30  1  0.336801  0.963780  0.040781  1
  Si  Si31  1  0.833267  0.537302  0.458497  1
  Si  Si32  1  0.337545  0.963124  0.459294  1
  Si  Si33  1  0.838025  0.536384  0.041027  1
  Si  Si34  1  0.662101  0.036746  0.959561  1
  Ge  Ge35  1  0.168622  0.463367  0.540178  1
