# generated using pymatgen
data_La12FeTc3
_symmetry_space_group_name_H-M   'P 1'
_cell_length_a   6.73393710
_cell_length_b   7.30069683
_cell_length_c   10.04878700
_cell_angle_alpha   90.00000000
_cell_angle_beta   90.00000000
_cell_angle_gamma   89.74422313
_symmetry_Int_Tables_number   1
_chemical_formula_structural   La12FeTc3
_chemical_formula_sum   'La12 Fe1 Tc3'
_cell_volume   494.01789794
_cell_formula_units_Z   1
loop_
 _symmetry_equiv_pos_site_id
 _symmetry_equiv_pos_as_xyz
  1  'x, y, z'
loop_
 _atom_site_type_symbol
 _atom_site_label
 _atom_site_symmetry_multiplicity
 _atom_site_fract_x
 _atom_site_fract_y
 _atom_site_fract_z
 _atom_site_occupancy
  La  La0  1  0.830218  0.660978  0.069841  1
  La  La1  1  0.671280  0.165564  0.069206  1
  La  La2  1  0.174190  0.334912  0.931564  1
  La  La3  1  0.328403  0.833421  0.565266  1
  La  La4  1  0.864048  0.937668  0.750000  1
  La  La5  1  0.124735  0.082656  0.250000  1
  La  La6  1  0.174190  0.334912  0.568436  1
  La  La7  1  0.671280  0.165564  0.430794  1
  La  La8  1  0.328403  0.833421  0.934734  1
  La  La9  1  0.830218  0.660978  0.430159  1
  La  La10  1  0.358190  0.565938  0.250000  1
  La  La11  1  0.637713  0.437728  0.750000  1
  Fe  Fe12  1  0.960933  0.363767  0.250000  1
  Tc  Tc13  1  0.542527  0.877811  0.250000  1
  Tc  Tc14  1  0.460583  0.123159  0.750000  1
  Tc  Tc15  1  0.043089  0.621523  0.750000  1
