# generated using pymatgen
data_Ba4Zn5In3Au20
_symmetry_space_group_name_H-M   'P 1'
_cell_length_a   7.39639700
_cell_length_b   9.39715867
_cell_length_c   10.24075000
_cell_angle_alpha   90.09771889
_cell_angle_beta   90.00000000
_cell_angle_gamma   90.00000000
_symmetry_Int_Tables_number   1
_chemical_formula_structural   Ba4Zn5In3Au20
_chemical_formula_sum   'Ba4 Zn5 In3 Au20'
_cell_volume   711.78348325
_cell_formula_units_Z   1
loop_
 _symmetry_equiv_pos_site_id
 _symmetry_equiv_pos_as_xyz
  1  'x, y, z'
loop_
 _atom_site_type_symbol
 _atom_site_label
 _atom_site_symmetry_multiplicity
 _atom_site_fract_x
 _atom_site_fract_y
 _atom_site_fract_z
 _atom_site_occupancy
  Ba  Ba0  1  0.250000  0.248423  0.115650  1
  Ba  Ba1  1  0.250000  0.751415  0.382861  1
  Ba  Ba2  1  0.750000  0.751731  0.883863  1
  Ba  Ba3  1  0.750000  0.251675  0.617580  1
  Zn  Zn4  1  0.250000  0.060650  0.615618  1
  Zn  Zn5  1  0.250000  0.560026  0.879732  1
  Zn  Zn6  1  0.750000  0.942827  0.381479  1
  Zn  Zn7  1  0.750000  0.439928  0.121464  1
  Zn  Zn8  1  0.250000  0.347562  0.481569  1
  In  In9  1  0.250000  0.853130  0.022242  1
  In  In10  1  0.750000  0.648454  0.523074  1
  In  In11  1  0.750000  0.144991  0.977306  1
  Au  Au12  1  0.057482  0.110954  0.396833  1
  Au  Au13  1  0.440538  0.592397  0.108142  1
  Au  Au14  1  0.557945  0.906341  0.603290  1
  Au  Au15  1  0.941277  0.406237  0.892889  1
  Au  Au16  1  0.942055  0.906341  0.603290  1
  Au  Au17  1  0.558723  0.406237  0.892889  1
  Au  Au18  1  0.442518  0.110954  0.396833  1
  Au  Au19  1  0.059462  0.592397  0.108142  1
  Au  Au20  1  0.047534  0.053963  0.844211  1
  Au  Au21  1  0.447872  0.546369  0.642490  1
  Au  Au22  1  0.546152  0.944348  0.158377  1
  Au  Au23  1  0.966343  0.441435  0.355728  1
  Au  Au24  1  0.953848  0.944348  0.158377  1
  Au  Au25  1  0.533657  0.441435  0.355728  1
  Au  Au26  1  0.452466  0.053963  0.844211  1
  Au  Au27  1  0.052128  0.546369  0.642490  1
  Au  Au28  1  0.250000  0.300766  0.744034  1
  Au  Au29  1  0.250000  0.797883  0.748960  1
  Au  Au30  1  0.750000  0.694224  0.253373  1
  Au  Au31  1  0.750000  0.202225  0.247276  1
