# generated using pymatgen
data_Nd7Th(Si3Pt)4
_symmetry_space_group_name_H-M   'P 1'
_cell_length_a   8.21896532
_cell_length_b   8.21896675
_cell_length_c   8.59660900
_cell_angle_alpha   90.00000000
_cell_angle_beta   90.00000000
_cell_angle_gamma   119.79428514
_symmetry_Int_Tables_number   1
_chemical_formula_structural   Nd7Th(Si3Pt)4
_chemical_formula_sum   'Nd7 Th1 Si12 Pt4'
_cell_volume   503.95145974
_cell_formula_units_Z   1
loop_
 _symmetry_equiv_pos_site_id
 _symmetry_equiv_pos_as_xyz
  1  'x, y, z'
loop_
 _atom_site_type_symbol
 _atom_site_label
 _atom_site_symmetry_multiplicity
 _atom_site_fract_x
 _atom_site_fract_y
 _atom_site_fract_z
 _atom_site_occupancy
  Nd  Nd0  1  0.500578  0.499422  0.250000  1
  Nd  Nd1  1  0.001186  0.500590  0.750000  1
  Nd  Nd2  1  0.998698  0.499306  0.250000  1
  Nd  Nd3  1  0.499410  0.998814  0.750000  1
  Nd  Nd4  1  0.500694  0.001302  0.250000  1
  Nd  Nd5  1  0.999966  0.000034  0.750000  1
  Nd  Nd6  1  0.999983  0.000017  0.250000  1
  Th  Th7  1  0.499768  0.500232  0.750000  1
  Si  Si8  1  0.833524  0.166476  0.998531  1
  Si  Si9  1  0.166477  0.833523  0.000736  1
  Si  Si10  1  0.330877  0.164935  0.998369  1
  Si  Si11  1  0.166477  0.833523  0.499264  1
  Si  Si12  1  0.668916  0.834934  0.000163  1
  Si  Si13  1  0.833524  0.166476  0.501469  1
  Si  Si14  1  0.835065  0.669123  0.998369  1
  Si  Si15  1  0.668916  0.834934  0.499837  1
  Si  Si16  1  0.165066  0.331084  0.000163  1
  Si  Si17  1  0.330877  0.164935  0.501631  1
  Si  Si18  1  0.165066  0.331084  0.499837  1
  Si  Si19  1  0.835065  0.669123  0.501631  1
  Pt  Pt20  1  0.665451  0.334549  0.997146  1
  Pt  Pt21  1  0.334482  0.665518  0.999620  1
  Pt  Pt22  1  0.334482  0.665518  0.500380  1
  Pt  Pt23  1  0.665451  0.334549  0.502854  1
