# generated using pymatgen
data_ErHgO
_symmetry_space_group_name_H-M   'P 1'
_cell_length_a   3.87217900
_cell_length_b   3.87217900
_cell_length_c   7.85698800
_cell_angle_alpha   90.00000000
_cell_angle_beta   90.00000000
_cell_angle_gamma   90.00000000
_symmetry_Int_Tables_number   1
_chemical_formula_structural   ErHgO
_chemical_formula_sum   'Er2 Hg2 O2'
_cell_volume   117.80587260
_cell_formula_units_Z   2
loop_
 _symmetry_equiv_pos_site_id
 _symmetry_equiv_pos_as_xyz
  1  'x, y, z'
loop_
 _atom_site_type_symbol
 _atom_site_label
 _atom_site_symmetry_multiplicity
 _atom_site_fract_x
 _atom_site_fract_y
 _atom_site_fract_z
 _atom_site_occupancy
  Er  Er0  1  0.500000  0.500000  0.362817  1
  Er  Er1  1  0.000000  0.000000  0.637184  1
  Hg  Hg2  1  0.000000  0.000000  0.097904  1
  Hg  Hg3  1  0.500000  0.500000  0.902094  1
  O  O4  1  0.500000  0.000000  0.499999  1
  O  O5  1  0.000000  0.500000  0.499999  1
