# generated using pymatgen
data_DyTm5Ni2
_symmetry_space_group_name_H-M   'P 1'
_cell_length_a   6.27894105
_cell_length_b   6.74958705
_cell_length_c   9.43636800
_cell_angle_alpha   90.00000000
_cell_angle_beta   90.00000000
_cell_angle_gamma   90.01401172
_symmetry_Int_Tables_number   1
_chemical_formula_structural   DyTm5Ni2
_chemical_formula_sum   'Dy2 Tm10 Ni4'
_cell_volume   399.91570961
_cell_formula_units_Z   2
loop_
 _symmetry_equiv_pos_site_id
 _symmetry_equiv_pos_as_xyz
  1  'x, y, z'
loop_
 _atom_site_type_symbol
 _atom_site_label
 _atom_site_symmetry_multiplicity
 _atom_site_fract_x
 _atom_site_fract_y
 _atom_site_fract_z
 _atom_site_occupancy
  Dy  Dy0  1  0.636811  0.030368  0.250000  1
  Dy  Dy1  1  0.363189  0.969632  0.750000  1
  Tm  Tm2  1  0.136777  0.467072  0.750000  1
  Tm  Tm3  1  0.863223  0.532928  0.250000  1
  Tm  Tm4  1  0.178989  0.179173  0.066342  1
  Tm  Tm5  1  0.821011  0.820827  0.933658  1
  Tm  Tm6  1  0.681222  0.322762  0.934338  1
  Tm  Tm7  1  0.821011  0.820827  0.566342  1
  Tm  Tm8  1  0.318778  0.677238  0.065662  1
  Tm  Tm9  1  0.178989  0.179173  0.433658  1
  Tm  Tm10  1  0.318778  0.677238  0.434338  1
  Tm  Tm11  1  0.681222  0.322762  0.565662  1
  Ni  Ni12  1  0.449948  0.393114  0.250000  1
  Ni  Ni13  1  0.550052  0.606886  0.750000  1
  Ni  Ni14  1  0.945303  0.109495  0.750000  1
  Ni  Ni15  1  0.054697  0.890505  0.250000  1
