# generated using pymatgen
data_Dy4Er5TmSn8
_symmetry_space_group_name_H-M   'P 1'
_cell_length_a   7.99578400
_cell_length_b   8.13090900
_cell_length_c   15.37452300
_cell_angle_alpha   90.00000000
_cell_angle_beta   90.00000000
_cell_angle_gamma   90.00000000
_symmetry_Int_Tables_number   1
_chemical_formula_structural   Dy4Er5TmSn8
_chemical_formula_sum   'Dy8 Er10 Tm2 Sn16'
_cell_volume   999.54374215
_cell_formula_units_Z   2
loop_
 _symmetry_equiv_pos_site_id
 _symmetry_equiv_pos_as_xyz
  1  'x, y, z'
loop_
 _atom_site_type_symbol
 _atom_site_label
 _atom_site_symmetry_multiplicity
 _atom_site_fract_x
 _atom_site_fract_y
 _atom_site_fract_z
 _atom_site_occupancy
  Dy  Dy0  1  0.521356  0.320578  0.902780  1
  Dy  Dy1  1  0.021356  0.179422  0.597220  1
  Dy  Dy2  1  0.478660  0.679415  0.402755  1
  Dy  Dy3  1  0.978660  0.820585  0.097245  1
  Dy  Dy4  1  0.478660  0.679415  0.097245  1
  Dy  Dy5  1  0.978660  0.820585  0.402755  1
  Dy  Dy6  1  0.521356  0.320578  0.597220  1
  Dy  Dy7  1  0.021356  0.179422  0.902780  1
  Er  Er8  1  0.367482  0.836529  0.877514  1
  Er  Er9  1  0.867482  0.663471  0.622486  1
  Er  Er10  1  0.632464  0.163457  0.377470  1
  Er  Er11  1  0.132464  0.336543  0.122530  1
  Er  Er12  1  0.632464  0.163457  0.122530  1
  Er  Er13  1  0.132464  0.336543  0.377470  1
  Er  Er14  1  0.367482  0.836529  0.622486  1
  Er  Er15  1  0.867482  0.663471  0.877514  1
  Er  Er16  1  0.198355  0.503722  0.750000  1
  Er  Er17  1  0.698355  0.996278  0.750000  1
  Tm  Tm18  1  0.801653  0.496273  0.250000  1
  Tm  Tm19  1  0.301653  0.003727  0.250000  1
  Sn  Sn20  1  0.293546  0.036595  0.041789  1
  Sn  Sn21  1  0.793546  0.463405  0.458211  1
  Sn  Sn22  1  0.706424  0.963373  0.541656  1
  Sn  Sn23  1  0.206424  0.536627  0.958344  1
  Sn  Sn24  1  0.706424  0.963373  0.958344  1
  Sn  Sn25  1  0.206424  0.536627  0.541656  1
  Sn  Sn26  1  0.293546  0.036595  0.458211  1
  Sn  Sn27  1  0.793546  0.463405  0.041789  1
  Sn  Sn28  1  0.564714  0.619991  0.750000  1
  Sn  Sn29  1  0.064714  0.880009  0.750000  1
  Sn  Sn30  1  0.435457  0.379929  0.250000  1
  Sn  Sn31  1  0.935457  0.120071  0.250000  1
  Sn  Sn32  1  0.330206  0.147521  0.750000  1
  Sn  Sn33  1  0.830206  0.352479  0.750000  1
  Sn  Sn34  1  0.669751  0.852356  0.250000  1
  Sn  Sn35  1  0.169751  0.647644  0.250000  1
