# generated using pymatgen
data_Tb5Pd2Ru
_symmetry_space_group_name_H-M   'P 1'
_cell_length_a   11.11361700
_cell_length_b   11.11361700
_cell_length_c   6.41644000
_cell_angle_alpha   90.00000000
_cell_angle_beta   90.00000000
_cell_angle_gamma   90.00000000
_symmetry_Int_Tables_number   1
_chemical_formula_structural   Tb5Pd2Ru
_chemical_formula_sum   'Tb20 Pd8 Ru4'
_cell_volume   792.51043528
_cell_formula_units_Z   4
loop_
 _symmetry_equiv_pos_site_id
 _symmetry_equiv_pos_as_xyz
  1  'x, y, z'
loop_
 _atom_site_type_symbol
 _atom_site_label
 _atom_site_symmetry_multiplicity
 _atom_site_fract_x
 _atom_site_fract_y
 _atom_site_fract_z
 _atom_site_occupancy
  Tb  Tb0  1  0.297979  0.086214  0.373512  1
  Tb  Tb1  1  0.297979  0.913786  0.873512  1
  Tb  Tb2  1  0.702021  0.086214  0.873512  1
  Tb  Tb3  1  0.702021  0.913786  0.373512  1
  Tb  Tb4  1  0.586214  0.797979  0.873512  1
  Tb  Tb5  1  0.586214  0.202021  0.373512  1
  Tb  Tb6  1  0.413786  0.797979  0.373512  1
  Tb  Tb7  1  0.413786  0.202021  0.873512  1
  Tb  Tb8  1  0.202021  0.413786  0.626488  1
  Tb  Tb9  1  0.202021  0.586214  0.126488  1
  Tb  Tb10  1  0.797979  0.413786  0.126488  1
  Tb  Tb11  1  0.797979  0.586214  0.626488  1
  Tb  Tb12  1  0.913786  0.702021  0.126488  1
  Tb  Tb13  1  0.913786  0.297979  0.626488  1
  Tb  Tb14  1  0.086214  0.702021  0.626488  1
  Tb  Tb15  1  0.086214  0.297979  0.126488  1
  Tb  Tb16  1  0.000000  0.000000  0.500000  1
  Tb  Tb17  1  0.000000  0.000000  0.000000  1
  Tb  Tb18  1  0.500000  0.500000  0.000000  1
  Tb  Tb19  1  0.500000  0.500000  0.500000  1
  Pd  Pd20  1  0.846215  0.153785  0.250000  1
  Pd  Pd21  1  0.846215  0.846215  0.750000  1
  Pd  Pd22  1  0.153785  0.153785  0.750000  1
  Pd  Pd23  1  0.153785  0.846215  0.250000  1
  Pd  Pd24  1  0.653785  0.346215  0.750000  1
  Pd  Pd25  1  0.653785  0.653785  0.250000  1
  Pd  Pd26  1  0.346215  0.346215  0.250000  1
  Pd  Pd27  1  0.346215  0.653785  0.750000  1
  Ru  Ru28  1  0.500000  0.000000  0.124201  1
  Ru  Ru29  1  0.500000  0.000000  0.624201  1
  Ru  Ru30  1  0.000000  0.500000  0.875799  1
  Ru  Ru31  1  0.000000  0.500000  0.375799  1
