# generated using pymatgen
data_Nd5MnRhO12
_symmetry_space_group_name_H-M   'P 1'
_cell_length_a   7.05395145
_cell_length_b   7.05395099
_cell_length_c   7.57201876
_cell_angle_alpha   74.44868796
_cell_angle_beta   74.44868987
_cell_angle_gamma   50.47801573
_symmetry_Int_Tables_number   1
_chemical_formula_structural   Nd5MnRhO12
_chemical_formula_sum   'Nd5 Mn1 Rh1 O12'
_cell_volume   277.57362393
_cell_formula_units_Z   1
loop_
 _symmetry_equiv_pos_site_id
 _symmetry_equiv_pos_as_xyz
  1  'x, y, z'
loop_
 _atom_site_type_symbol
 _atom_site_label
 _atom_site_symmetry_multiplicity
 _atom_site_fract_x
 _atom_site_fract_y
 _atom_site_fract_z
 _atom_site_occupancy
  Nd  Nd0  1  0.299752  0.312298  0.356799  1
  Nd  Nd1  1  0.687702  0.700248  0.643201  1
  Nd  Nd2  1  0.692631  0.692782  0.165419  1
  Nd  Nd3  1  0.307218  0.307369  0.834581  1
  Nd  Nd4  1  0.000663  0.999337  0.500000  1
  Mn  Mn5  1  0.248903  0.751097  0.000000  1
  Rh  Rh6  1  0.759956  0.240044  0.000000  1
  O  O7  1  0.093035  0.596689  0.578699  1
  O  O8  1  0.009351  0.989140  0.173196  1
  O  O9  1  0.403311  0.906965  0.421301  1
  O  O10  1  0.493729  0.506847  0.173587  1
  O  O11  1  0.100608  0.583254  0.077733  1
  O  O12  1  0.902104  0.402841  0.423875  1
  O  O13  1  0.010860  0.990649  0.826804  1
  O  O14  1  0.597159  0.097895  0.576125  1
  O  O15  1  0.493153  0.506271  0.826413  1
  O  O16  1  0.582886  0.099767  0.078910  1
  O  O17  1  0.416746  0.899392  0.922267  1
  O  O18  1  0.900233  0.417114  0.921090  1
