# generated using pymatgen
data_Al13Pt12Rh
_symmetry_space_group_name_H-M   'P 1'
_cell_length_a   5.35140589
_cell_length_b   9.28149733
_cell_length_c   9.28149935
_cell_angle_alpha   116.39744194
_cell_angle_beta   101.08056918
_cell_angle_gamma   101.08054905
_symmetry_Int_Tables_number   1
_chemical_formula_structural   Al13Pt12Rh
_chemical_formula_sum   'Al13 Pt12 Rh1'
_cell_volume   384.49398448
_cell_formula_units_Z   1
loop_
 _symmetry_equiv_pos_site_id
 _symmetry_equiv_pos_as_xyz
  1  'x, y, z'
loop_
 _atom_site_type_symbol
 _atom_site_label
 _atom_site_symmetry_multiplicity
 _atom_site_fract_x
 _atom_site_fract_y
 _atom_site_fract_z
 _atom_site_occupancy
  Al  Al0  1  0.000000  0.000000  0.000000  1
  Al  Al1  1  0.442518  0.288242  0.041826  1
  Al  Al2  1  0.247508  0.597911  0.154627  1
  Al  Al3  1  0.400691  0.958173  0.246415  1
  Al  Al4  1  0.845724  0.246416  0.288242  1
  Al  Al5  1  0.649597  0.556717  0.402089  1
  Al  Al6  1  0.092880  0.845373  0.443282  1
  Al  Al7  1  0.907120  0.154627  0.556717  1
  Al  Al8  1  0.350404  0.443283  0.597911  1
  Al  Al9  1  0.154276  0.753584  0.711757  1
  Al  Al10  1  0.599307  0.041825  0.753584  1
  Al  Al11  1  0.752490  0.402088  0.845372  1
  Al  Al12  1  0.557483  0.711758  0.958174  1
  Pt  Pt13  1  0.936839  0.285764  0.038115  1
  Pt  Pt14  1  0.743982  0.595883  0.153149  1
  Pt  Pt15  1  0.898723  0.961885  0.247649  1
  Pt  Pt16  1  0.348925  0.247648  0.285763  1
  Pt  Pt17  1  0.148100  0.557267  0.404117  1
  Pt  Pt18  1  0.590832  0.846851  0.442733  1
  Pt  Pt19  1  0.409166  0.153148  0.557267  1
  Pt  Pt20  1  0.851900  0.442733  0.595883  1
  Pt  Pt21  1  0.651075  0.752352  0.714236  1
  Pt  Pt22  1  0.101275  0.038114  0.752350  1
  Pt  Pt23  1  0.256019  0.404117  0.846850  1
  Pt  Pt24  1  0.063162  0.714236  0.961885  1
  Rh  Rh25  1  0.500001  0.000000  0.000000  1
