# generated using pymatgen
data_Ho3Sn2Rh3Pb
_symmetry_space_group_name_H-M   'P 1'
_cell_length_a   7.72037861
_cell_length_b   7.72037830
_cell_length_c   3.72150300
_cell_angle_alpha   90.00000000
_cell_angle_beta   90.00000000
_cell_angle_gamma   119.79288895
_symmetry_Int_Tables_number   1
_chemical_formula_structural   Ho3Sn2Rh3Pb
_chemical_formula_sum   'Ho3 Sn2 Rh3 Pb1'
_cell_volume   192.49913164
_cell_formula_units_Z   1
loop_
 _symmetry_equiv_pos_site_id
 _symmetry_equiv_pos_as_xyz
  1  'x, y, z'
loop_
 _atom_site_type_symbol
 _atom_site_label
 _atom_site_symmetry_multiplicity
 _atom_site_fract_x
 _atom_site_fract_y
 _atom_site_fract_z
 _atom_site_occupancy
  Ho  Ho0  1  0.996848  0.403454  0.000000  1
  Ho  Ho1  1  0.599456  0.599456  0.000000  1
  Ho  Ho2  1  0.403454  0.996848  0.000000  1
  Sn  Sn3  1  0.999920  0.733951  0.500000  1
  Sn  Sn4  1  0.733951  0.999920  0.500000  1
  Rh  Rh5  1  0.674387  0.335177  0.500000  1
  Rh  Rh6  1  0.335177  0.674387  0.500000  1
  Rh  Rh7  1  0.989907  0.989907  0.000000  1
  Pb  Pb8  1  0.266899  0.266899  0.500000  1
