# generated using pymatgen
data_DyCo4TcP3
_symmetry_space_group_name_H-M   'P 1'
_cell_length_a   3.71340500
_cell_length_b   10.35778600
_cell_length_c   11.81493700
_cell_angle_alpha   90.00000000
_cell_angle_beta   90.00000000
_cell_angle_gamma   90.00000000
_symmetry_Int_Tables_number   1
_chemical_formula_structural   DyCo4TcP3
_chemical_formula_sum   'Dy4 Co16 Tc4 P12'
_cell_volume   454.43383766
_cell_formula_units_Z   4
loop_
 _symmetry_equiv_pos_site_id
 _symmetry_equiv_pos_as_xyz
  1  'x, y, z'
loop_
 _atom_site_type_symbol
 _atom_site_label
 _atom_site_symmetry_multiplicity
 _atom_site_fract_x
 _atom_site_fract_y
 _atom_site_fract_z
 _atom_site_occupancy
  Dy  Dy0  1  0.250000  0.583996  0.704540  1
  Dy  Dy1  1  0.250000  0.916004  0.204540  1
  Dy  Dy2  1  0.750000  0.416004  0.295460  1
  Dy  Dy3  1  0.750000  0.083996  0.795460  1
  Co  Co4  1  0.250000  0.406939  0.488818  1
  Co  Co5  1  0.250000  0.093061  0.988818  1
  Co  Co6  1  0.750000  0.593061  0.511182  1
  Co  Co7  1  0.750000  0.906939  0.011182  1
  Co  Co8  1  0.250000  0.221623  0.176747  1
  Co  Co9  1  0.250000  0.278377  0.676747  1
  Co  Co10  1  0.750000  0.778377  0.823253  1
  Co  Co11  1  0.750000  0.721623  0.323253  1
  Co  Co12  1  0.250000  0.885456  0.701868  1
  Co  Co13  1  0.250000  0.614544  0.201868  1
  Co  Co14  1  0.750000  0.114544  0.298132  1
  Co  Co15  1  0.750000  0.385456  0.798132  1
  Co  Co16  1  0.250000  0.464013  0.931945  1
  Co  Co17  1  0.250000  0.035987  0.431945  1
  Co  Co18  1  0.750000  0.535987  0.068055  1
  Co  Co19  1  0.750000  0.964013  0.568055  1
  Tc  Tc20  1  0.250000  0.710906  0.989176  1
  Tc  Tc21  1  0.250000  0.789094  0.489176  1
  Tc  Tc22  1  0.750000  0.289094  0.010824  1
  Tc  Tc23  1  0.750000  0.210906  0.510824  1
  P  P24  1  0.250000  0.420586  0.112824  1
  P  P25  1  0.250000  0.079414  0.612824  1
  P  P26  1  0.750000  0.579414  0.887176  1
  P  P27  1  0.750000  0.920586  0.387176  1
  P  P28  1  0.250000  0.269869  0.865920  1
  P  P29  1  0.250000  0.230131  0.365920  1
  P  P30  1  0.750000  0.730131  0.134080  1
  P  P31  1  0.750000  0.769869  0.634080  1
  P  P32  1  0.250000  0.596842  0.390804  1
  P  P33  1  0.250000  0.903158  0.890804  1
  P  P34  1  0.750000  0.403158  0.609196  1
  P  P35  1  0.750000  0.096842  0.109196  1
