# generated using pymatgen
data_Hf16Ir5Rh3N4
_symmetry_space_group_name_H-M   'P 1'
_cell_length_a   8.70605186
_cell_length_b   8.71190544
_cell_length_c   8.71190700
_cell_angle_alpha   59.99999787
_cell_angle_beta   59.97775398
_cell_angle_gamma   59.97775817
_symmetry_Int_Tables_number   1
_chemical_formula_structural   Hf16Ir5Rh3N4
_chemical_formula_sum   'Hf16 Ir5 Rh3 N4'
_cell_volume   467.07490021
_cell_formula_units_Z   1
loop_
 _symmetry_equiv_pos_site_id
 _symmetry_equiv_pos_as_xyz
  1  'x, y, z'
loop_
 _atom_site_type_symbol
 _atom_site_label
 _atom_site_symmetry_multiplicity
 _atom_site_fract_x
 _atom_site_fract_y
 _atom_site_fract_z
 _atom_site_occupancy
  Hf  Hf0  1  0.114565  0.628478  0.628478  1
  Hf  Hf1  1  0.628372  0.117444  0.627092  1
  Hf  Hf2  1  0.628372  0.627092  0.117444  1
  Hf  Hf3  1  0.628372  0.627092  0.627092  1
  Hf  Hf4  1  0.815715  0.815030  0.184627  1
  Hf  Hf5  1  0.185917  0.184491  0.814796  1
  Hf  Hf6  1  0.815715  0.184627  0.815030  1
  Hf  Hf7  1  0.185917  0.814796  0.184491  1
  Hf  Hf8  1  0.185917  0.814796  0.814796  1
  Hf  Hf9  1  0.815715  0.184627  0.184627  1
  Hf  Hf10  1  0.433996  0.433730  0.066137  1
  Hf  Hf11  1  0.067966  0.066728  0.432653  1
  Hf  Hf12  1  0.433996  0.066137  0.433730  1
  Hf  Hf13  1  0.067966  0.432653  0.066728  1
  Hf  Hf14  1  0.067966  0.432653  0.432653  1
  Hf  Hf15  1  0.433996  0.066137  0.066137  1
  Ir  Ir16  1  0.762451  0.412516  0.412516  1
  Ir  Ir17  1  0.411924  0.760937  0.413569  1
  Ir  Ir18  1  0.411924  0.413569  0.760937  1
  Ir  Ir19  1  0.411924  0.413569  0.413569  1
  Ir  Ir20  1  0.471402  0.842866  0.842866  1
  Rh  Rh21  1  0.840418  0.473511  0.843035  1
  Rh  Rh22  1  0.840418  0.843035  0.473511  1
  Rh  Rh23  1  0.840418  0.843035  0.843035  1
  N  N24  1  0.624235  0.125255  0.125255  1
  N  N25  1  0.124808  0.624712  0.125240  1
  N  N26  1  0.124808  0.125240  0.624712  1
  N  N27  1  0.124808  0.125240  0.125240  1
