# generated using pymatgen
data_Sr3NdBi6Rh7
_symmetry_space_group_name_H-M   'P 1'
_cell_length_a   7.98715746
_cell_length_b   7.98715878
_cell_length_c   7.98715900
_cell_angle_alpha   109.31445754
_cell_angle_beta   109.31444566
_cell_angle_gamma   109.31445502
_symmetry_Int_Tables_number   1
_chemical_formula_structural   Sr3NdBi6Rh7
_chemical_formula_sum   'Sr3 Nd1 Bi6 Rh7'
_cell_volume   394.50304392
_cell_formula_units_Z   1
loop_
 _symmetry_equiv_pos_site_id
 _symmetry_equiv_pos_as_xyz
  1  'x, y, z'
loop_
 _atom_site_type_symbol
 _atom_site_label
 _atom_site_symmetry_multiplicity
 _atom_site_fract_x
 _atom_site_fract_y
 _atom_site_fract_z
 _atom_site_occupancy
  Sr  Sr0  1  0.500000  0.000000  0.000000  1
  Sr  Sr1  1  0.000000  0.500000  0.000000  1
  Sr  Sr2  1  0.000000  0.000000  0.500000  1
  Nd  Nd3  1  0.500000  0.500000  0.500000  1
  Bi  Bi4  1  0.997535  0.319492  0.319492  1
  Bi  Bi5  1  0.680508  0.002465  0.680508  1
  Bi  Bi6  1  0.680508  0.680508  0.002465  1
  Bi  Bi7  1  0.002465  0.680508  0.680508  1
  Bi  Bi8  1  0.319492  0.997535  0.319492  1
  Bi  Bi9  1  0.319492  0.319492  0.997535  1
  Rh  Rh10  1  0.000000  0.000000  0.000000  1
  Rh  Rh11  1  0.500000  0.744498  0.255502  1
  Rh  Rh12  1  0.744498  0.500000  0.255502  1
  Rh  Rh13  1  0.255502  0.744498  0.500000  1
  Rh  Rh14  1  0.255502  0.500000  0.744498  1
  Rh  Rh15  1  0.500000  0.255502  0.744498  1
  Rh  Rh16  1  0.744498  0.255502  0.500000  1
