# generated using pymatgen
data_Nb10Ga2Si4C
_symmetry_space_group_name_H-M   'P 1'
_cell_length_a   7.64292931
_cell_length_b   7.65529607
_cell_length_c   5.31195092
_cell_angle_alpha   89.96649119
_cell_angle_beta   90.06712607
_cell_angle_gamma   119.94657567
_symmetry_Int_Tables_number   1
_chemical_formula_structural   Nb10Ga2Si4C
_chemical_formula_sum   'Nb10 Ga2 Si4 C1'
_cell_volume   269.30211677
_cell_formula_units_Z   1
loop_
 _symmetry_equiv_pos_site_id
 _symmetry_equiv_pos_as_xyz
  1  'x, y, z'
loop_
 _atom_site_type_symbol
 _atom_site_label
 _atom_site_symmetry_multiplicity
 _atom_site_fract_x
 _atom_site_fract_y
 _atom_site_fract_z
 _atom_site_occupancy
  Nb  Nb0  1  0.004132  0.763375  0.257733  1
  Nb  Nb1  1  0.240757  0.236625  0.257733  1
  Nb  Nb2  1  0.757538  0.000000  0.257887  1
  Nb  Nb3  1  0.999894  0.238501  0.741751  1
  Nb  Nb4  1  0.761392  0.761499  0.741751  1
  Nb  Nb5  1  0.241026  0.000000  0.742603  1
  Nb  Nb6  1  0.334085  0.670782  0.998260  1
  Nb  Nb7  1  0.663304  0.329218  0.998260  1
  Nb  Nb8  1  0.663839  0.329887  0.501167  1
  Nb  Nb9  1  0.333952  0.670113  0.501167  1
  Ga  Ga10  1  0.000384  0.400057  0.243514  1
  Ga  Ga11  1  0.600327  0.599943  0.243514  1
  Si  Si12  1  0.400690  0.000000  0.241042  1
  Si  Si13  1  0.998473  0.599098  0.758087  1
  Si  Si14  1  0.399376  0.400902  0.758087  1
  Si  Si15  1  0.601641  0.000000  0.758588  1
  C  C16  1  0.999191  0.000000  0.498858  1
