# generated using pymatgen
data_Ce2SmTlF10
_symmetry_space_group_name_H-M   'P 1'
_cell_length_a   8.60793037
_cell_length_b   8.60793131
_cell_length_c   8.70272700
_cell_angle_alpha   59.63502873
_cell_angle_beta   59.63502509
_cell_angle_gamma   60.72993662
_symmetry_Int_Tables_number   1
_chemical_formula_structural   Ce2SmTlF10
_chemical_formula_sum   'Ce4 Sm2 Tl2 F20'
_cell_volume   455.85984445
_cell_formula_units_Z   2
loop_
 _symmetry_equiv_pos_site_id
 _symmetry_equiv_pos_as_xyz
  1  'x, y, z'
loop_
 _atom_site_type_symbol
 _atom_site_label
 _atom_site_symmetry_multiplicity
 _atom_site_fract_x
 _atom_site_fract_y
 _atom_site_fract_z
 _atom_site_occupancy
  Ce  Ce0  1  0.758405  0.241595  0.241595  1
  Ce  Ce1  1  0.241595  0.758405  0.758405  1
  Ce  Ce2  1  0.241595  0.758405  0.241595  1
  Ce  Ce3  1  0.758405  0.241595  0.758405  1
  Sm  Sm4  1  0.238341  0.238341  0.761659  1
  Sm  Sm5  1  0.761659  0.761659  0.238341  1
  Tl  Tl6  1  0.250000  0.250000  0.250000  1
  Tl  Tl7  1  0.750000  0.750000  0.750000  1
  F  F8  1  0.826534  0.504997  0.495003  1
  F  F9  1  0.173466  0.495003  0.504997  1
  F  F10  1  0.504997  0.826534  0.173466  1
  F  F11  1  0.495003  0.173466  0.826534  1
  F  F12  1  0.504997  0.826534  0.495003  1
  F  F13  1  0.173466  0.495003  0.826534  1
  F  F14  1  0.495003  0.173466  0.504997  1
  F  F15  1  0.826534  0.504997  0.173466  1
  F  F16  1  0.500000  0.500000  0.833854  1
  F  F17  1  0.500000  0.500000  0.166146  1
  F  F18  1  0.166146  0.833854  0.500000  1
  F  F19  1  0.833854  0.166146  0.500000  1
  F  F20  1  0.113811  0.113811  0.105296  1
  F  F21  1  0.886189  0.886189  0.894704  1
  F  F22  1  0.113811  0.113811  0.667083  1
  F  F23  1  0.105296  0.667083  0.113811  1
  F  F24  1  0.886189  0.886189  0.332917  1
  F  F25  1  0.894704  0.332917  0.886189  1
  F  F26  1  0.667083  0.105296  0.113811  1
  F  F27  1  0.332917  0.894704  0.886189  1
