# generated using pymatgen
data_Y2Er4Fe3Si6Ru
_symmetry_space_group_name_H-M   'P 1'
_cell_length_a   5.64020268
_cell_length_b   5.64020246
_cell_length_c   13.63143852
_cell_angle_alpha   89.82309827
_cell_angle_beta   90.17690199
_cell_angle_gamma   137.40873468
_symmetry_Int_Tables_number   1
_chemical_formula_structural   Y2Er4Fe3Si6Ru
_chemical_formula_sum   'Y2 Er4 Fe3 Si6 Ru1'
_cell_volume   293.47140659
_cell_formula_units_Z   1
loop_
 _symmetry_equiv_pos_site_id
 _symmetry_equiv_pos_as_xyz
  1  'x, y, z'
loop_
 _atom_site_type_symbol
 _atom_site_label
 _atom_site_symmetry_multiplicity
 _atom_site_fract_x
 _atom_site_fract_y
 _atom_site_fract_z
 _atom_site_occupancy
  Y  Y0  1  0.636196  0.363804  0.248901  1
  Y  Y1  1  0.364735  0.635265  0.750488  1
  Er  Er2  1  0.917892  0.082108  0.111502  1
  Er  Er3  1  0.079712  0.920288  0.890400  1
  Er  Er4  1  0.081230  0.918770  0.612687  1
  Er  Er5  1  0.921944  0.078056  0.384825  1
  Fe  Fe6  1  0.214200  0.785800  0.419183  1
  Fe  Fe7  1  0.213569  0.786431  0.080323  1
  Fe  Fe8  1  0.783688  0.216312  0.921532  1
  Si  Si9  1  0.325725  0.674275  0.249333  1
  Si  Si10  1  0.673001  0.326999  0.754796  1
  Si  Si11  1  0.623598  0.376402  0.039567  1
  Si  Si12  1  0.373402  0.626598  0.961577  1
  Si  Si13  1  0.382867  0.617133  0.534516  1
  Si  Si14  1  0.621148  0.378852  0.458275  1
  Ru  Ru15  1  0.787092  0.212908  0.582098  1
