# generated using pymatgen
data_Ho6Er4In8Ir2PdAu
_symmetry_space_group_name_H-M   'P 1'
_cell_length_a   3.60573100
_cell_length_b   8.11602417
_cell_length_c   18.20181800
_cell_angle_alpha   90.09506444
_cell_angle_beta   90.00000000
_cell_angle_gamma   90.00000000
_symmetry_Int_Tables_number   1
_chemical_formula_structural   Ho6Er4In8Ir2PdAu
_chemical_formula_sum   'Ho6 Er4 In8 Ir2 Pd1 Au1'
_cell_volume   532.66090825
_cell_formula_units_Z   1
loop_
 _symmetry_equiv_pos_site_id
 _symmetry_equiv_pos_as_xyz
  1  'x, y, z'
loop_
 _atom_site_type_symbol
 _atom_site_label
 _atom_site_symmetry_multiplicity
 _atom_site_fract_x
 _atom_site_fract_y
 _atom_site_fract_z
 _atom_site_occupancy
  Ho  Ho0  1  0.000000  0.500257  0.499674  1
  Ho  Ho1  1  0.000000  0.999197  0.000560  1
  Ho  Ho2  1  0.000000  0.727991  0.277765  1
  Ho  Ho3  1  0.000000  0.280053  0.722065  1
  Ho  Ho4  1  0.000000  0.742052  0.781563  1
  Ho  Ho5  1  0.000000  0.253112  0.220257  1
  Er  Er6  1  0.000000  0.614483  0.087299  1
  Er  Er7  1  0.000000  0.385750  0.913873  1
  Er  Er8  1  0.000000  0.881123  0.580321  1
  Er  Er9  1  0.000000  0.115283  0.415217  1
  In  In10  1  0.500000  0.708223  0.933200  1
  In  In11  1  0.500000  0.291494  0.067662  1
  In  In12  1  0.500000  0.790826  0.431617  1
  In  In13  1  0.500000  0.209308  0.565615  1
  In  In14  1  0.500000  0.578782  0.647447  1
  In  In15  1  0.500000  0.420851  0.351964  1
  In  In16  1  0.500000  0.923513  0.150220  1
  In  In17  1  0.500000  0.080670  0.851795  1
  Ir  Ir18  1  0.500000  0.519664  0.195484  1
  Ir  Ir19  1  0.500000  0.479027  0.805046  1
  Pd  Pd20  1  0.500000  0.019789  0.304076  1
  Au  Au21  1  0.500000  0.978553  0.697278  1
