# generated using pymatgen
data_Ti19Si16Tc
_symmetry_space_group_name_H-M   'P 1'
_cell_length_a   6.68046703
_cell_length_b   6.68046703
_cell_length_c   12.17058573
_cell_angle_alpha   89.89750940
_cell_angle_beta   90.10249060
_cell_angle_gamma   90.03743987
_symmetry_Int_Tables_number   1
_chemical_formula_structural   Ti19Si16Tc
_chemical_formula_sum   'Ti19 Si16 Tc1'
_cell_volume   543.15483274
_cell_formula_units_Z   1
loop_
 _symmetry_equiv_pos_site_id
 _symmetry_equiv_pos_as_xyz
  1  'x, y, z'
loop_
 _atom_site_type_symbol
 _atom_site_label
 _atom_site_symmetry_multiplicity
 _atom_site_fract_x
 _atom_site_fract_y
 _atom_site_fract_z
 _atom_site_occupancy
  Ti  Ti0  1  0.995977  0.147893  0.622806  1
  Ti  Ti1  1  0.351209  0.497294  0.870948  1
  Ti  Ti2  1  0.648773  0.504335  0.371304  1
  Ti  Ti3  1  0.497294  0.351209  0.129052  1
  Ti  Ti4  1  0.504335  0.648773  0.628696  1
  Ti  Ti5  1  0.005111  0.850702  0.120772  1
  Ti  Ti6  1  0.147893  0.995977  0.377194  1
  Ti  Ti7  1  0.850702  0.005111  0.879228  1
  Ti  Ti8  1  0.002351  0.346499  0.219411  1
  Ti  Ti9  1  0.154466  0.502290  0.468471  1
  Ti  Ti10  1  0.842539  0.499319  0.969196  1
  Ti  Ti11  1  0.502290  0.154466  0.531529  1
  Ti  Ti12  1  0.499319  0.842539  0.030804  1
  Ti  Ti13  1  0.997677  0.655631  0.719441  1
  Ti  Ti14  1  0.346499  0.002351  0.780589  1
  Ti  Ti15  1  0.655631  0.997677  0.280559  1
  Ti  Ti16  1  0.328262  0.671201  0.248753  1
  Ti  Ti17  1  0.671201  0.328262  0.751247  1
  Ti  Ti18  1  0.828154  0.828154  0.500000  1
  Si  Si19  1  0.046674  0.299751  0.814733  1
  Si  Si20  1  0.199356  0.541449  0.063400  1
  Si  Si21  1  0.800734  0.454291  0.563624  1
  Si  Si22  1  0.541449  0.199356  0.936600  1
  Si  Si23  1  0.454291  0.800734  0.436376  1
  Si  Si24  1  0.954966  0.698495  0.313740  1
  Si  Si25  1  0.299751  0.046674  0.185267  1
  Si  Si26  1  0.698495  0.954966  0.686260  1
  Si  Si27  1  0.295164  0.356670  0.673376  1
  Si  Si28  1  0.142830  0.795362  0.922080  1
  Si  Si29  1  0.857123  0.205577  0.423592  1
  Si  Si30  1  0.795362  0.142830  0.077920  1
  Si  Si31  1  0.205577  0.857123  0.576408  1
  Si  Si32  1  0.705350  0.643801  0.173178  1
  Si  Si33  1  0.356670  0.295164  0.326624  1
  Si  Si34  1  0.643801  0.705350  0.826822  1
  Tc  Tc35  1  0.172725  0.172725  0.000000  1
