# generated using pymatgen
data_Tm2ScNb5(Co4P3)4
_symmetry_space_group_name_H-M   'P 1'
_cell_length_a   11.97912800
_cell_length_b   12.03037053
_cell_length_c   3.64674700
_cell_angle_alpha   90.00000000
_cell_angle_beta   90.00000000
_cell_angle_gamma   119.85919890
_symmetry_Int_Tables_number   1
_chemical_formula_structural   Tm2ScNb5(Co4P3)4
_chemical_formula_sum   'Tm2 Sc1 Nb5 Co16 P12'
_cell_volume   455.77962612
_cell_formula_units_Z   1
loop_
 _symmetry_equiv_pos_site_id
 _symmetry_equiv_pos_as_xyz
  1  'x, y, z'
loop_
 _atom_site_type_symbol
 _atom_site_label
 _atom_site_symmetry_multiplicity
 _atom_site_fract_x
 _atom_site_fract_y
 _atom_site_fract_z
 _atom_site_occupancy
  Tm  Tm0  1  0.332912  0.666778  0.000000  1
  Tm  Tm1  1  0.666135  0.333222  0.000000  1
  Sc  Sc2  1  0.823409  0.000000  0.500000  1
  Nb  Nb3  1  0.999364  0.819280  0.500000  1
  Nb  Nb4  1  0.180083  0.180720  0.500000  1
  Nb  Nb5  1  0.445781  0.000000  0.000000  1
  Nb  Nb6  1  0.999899  0.446349  0.000000  1
  Nb  Nb7  1  0.553550  0.553651  0.000000  1
  Co  Co8  1  0.273374  0.000000  0.500000  1
  Co  Co9  1  0.003185  0.277117  0.500000  1
  Co  Co10  1  0.726068  0.722883  0.500000  1
  Co  Co11  1  0.631358  0.806513  0.000000  1
  Co  Co12  1  0.190690  0.823389  0.000000  1
  Co  Co13  1  0.175233  0.365817  0.000000  1
  Co  Co14  1  0.367302  0.176611  0.000000  1
  Co  Co15  1  0.809416  0.634183  0.000000  1
  Co  Co16  1  0.824847  0.193487  0.000000  1
  Co  Co17  1  0.518932  0.872956  0.500000  1
  Co  Co18  1  0.125671  0.647840  0.500000  1
  Co  Co19  1  0.351623  0.478478  0.500000  1
  Co  Co20  1  0.477831  0.352160  0.500000  1
  Co  Co21  1  0.873145  0.521522  0.500000  1
  Co  Co22  1  0.645976  0.127044  0.500000  1
  Co  Co23  1  0.002552  0.000000  0.000000  1
  P  P24  1  0.174698  0.000000  0.000000  1
  P  P25  1  0.000151  0.172400  0.000000  1
  P  P26  1  0.827751  0.827600  0.000000  1
  P  P27  1  0.521875  0.689642  0.500000  1
  P  P28  1  0.310046  0.832231  0.500000  1
  P  P29  1  0.168004  0.480025  0.500000  1
  P  P30  1  0.477813  0.167769  0.500000  1
  P  P31  1  0.687977  0.519975  0.500000  1
  P  P32  1  0.832232  0.310358  0.500000  1
  P  P33  1  0.649886  0.000000  0.000000  1
  P  P34  1  0.000246  0.649264  0.000000  1
  P  P35  1  0.350982  0.350736  0.000000  1
