# generated using pymatgen
data_La7Tb2TmSi8O3
_symmetry_space_group_name_H-M   'P 1'
_cell_length_a   10.79100546
_cell_length_b   10.75370550
_cell_length_c   4.55479400
_cell_angle_alpha   90.00000000
_cell_angle_beta   90.00000000
_cell_angle_gamma   119.88572324
_symmetry_Int_Tables_number   1
_chemical_formula_structural   La7Tb2TmSi8O3
_chemical_formula_sum   'La7 Tb2 Tm1 Si8 O3'
_cell_volume   458.26677798
_cell_formula_units_Z   1
loop_
 _symmetry_equiv_pos_site_id
 _symmetry_equiv_pos_as_xyz
  1  'x, y, z'
loop_
 _atom_site_type_symbol
 _atom_site_label
 _atom_site_symmetry_multiplicity
 _atom_site_fract_x
 _atom_site_fract_y
 _atom_site_fract_z
 _atom_site_occupancy
  La  La0  1  0.211287  0.787610  0.000000  1
  La  La1  1  0.576460  0.788230  0.000000  1
  La  La2  1  0.788713  0.576323  0.000000  1
  La  La3  1  0.000000  0.000000  0.000000  1
  La  La4  1  0.211287  0.423677  0.000000  1
  La  La5  1  0.423540  0.211770  0.000000  1
  La  La6  1  0.788713  0.212390  0.000000  1
  Tb  Tb7  1  0.500000  0.500000  0.500000  1
  Tb  Tb8  1  0.500000  0.000000  0.500000  1
  Tm  Tm9  1  0.000000  0.500000  0.500000  1
  Si  Si10  1  0.000000  0.776038  0.500000  1
  Si  Si11  1  0.000000  0.223962  0.500000  1
  Si  Si12  1  0.222519  0.222893  0.500000  1
  Si  Si13  1  0.777481  0.000374  0.500000  1
  Si  Si14  1  0.330626  0.665314  0.500000  1
  Si  Si15  1  0.222519  0.999626  0.500000  1
  Si  Si16  1  0.669374  0.334686  0.500000  1
  Si  Si17  1  0.777481  0.777107  0.500000  1
  O  O18  1  0.000000  0.500000  0.000000  1
  O  O19  1  0.500000  0.500000  0.000000  1
  O  O20  1  0.500000  0.000000  0.000000  1
