# generated using pymatgen
data_Dy2Re2Si2B
_symmetry_space_group_name_H-M   'P 1'
_cell_length_a   5.77508113
_cell_length_b   5.77508032
_cell_length_c   6.91720600
_cell_angle_alpha   56.77867981
_cell_angle_beta   56.77868597
_cell_angle_gamma   41.07275023
_symmetry_Int_Tables_number   1
_chemical_formula_structural   Dy2Re2Si2B
_chemical_formula_sum   'Dy2 Re2 Si2 B1'
_cell_volume   122.92514995
_cell_formula_units_Z   1
loop_
 _symmetry_equiv_pos_site_id
 _symmetry_equiv_pos_as_xyz
  1  'x, y, z'
loop_
 _atom_site_type_symbol
 _atom_site_label
 _atom_site_symmetry_multiplicity
 _atom_site_fract_x
 _atom_site_fract_y
 _atom_site_fract_z
 _atom_site_occupancy
  Dy  Dy0  1  0.423582  0.423582  0.304298  1
  Dy  Dy1  1  0.576418  0.576418  0.695702  1
  Re  Re2  1  0.783210  0.783210  0.091481  1
  Re  Re3  1  0.216790  0.216790  0.908519  1
  Si  Si4  1  0.862562  0.862562  0.672905  1
  Si  Si5  1  0.137438  0.137438  0.327095  1
  B  B6  1  0.000000  0.000000  0.000000  1
