# generated using pymatgen
data_Y3MgAl2Si2Pt
_symmetry_space_group_name_H-M   'P 1'
_cell_length_a   7.04879900
_cell_length_b   6.97946007
_cell_length_c   4.26737500
_cell_angle_alpha   90.00000000
_cell_angle_beta   90.00000000
_cell_angle_gamma   120.32919016
_symmetry_Int_Tables_number   1
_chemical_formula_structural   Y3MgAl2Si2Pt
_chemical_formula_sum   'Y3 Mg1 Al2 Si2 Pt1'
_cell_volume   181.20834781
_cell_formula_units_Z   1
loop_
 _symmetry_equiv_pos_site_id
 _symmetry_equiv_pos_as_xyz
  1  'x, y, z'
loop_
 _atom_site_type_symbol
 _atom_site_label
 _atom_site_symmetry_multiplicity
 _atom_site_fract_x
 _atom_site_fract_y
 _atom_site_fract_z
 _atom_site_occupancy
  Y  Y0  1  0.416276  0.000000  0.000000  1
  Y  Y1  1  0.998669  0.416484  0.000000  1
  Y  Y2  1  0.582186  0.583517  0.000000  1
  Mg  Mg3  1  0.761659  0.000000  0.500000  1
  Al  Al4  1  0.238079  0.236274  0.500000  1
  Al  Al5  1  0.001805  0.763725  0.500000  1
  Si  Si6  1  0.664137  0.341091  0.500000  1
  Si  Si7  1  0.323045  0.658908  0.500000  1
  Pt  Pt8  1  0.014143  0.000000  0.000000  1
