# generated using pymatgen
data_Tm2ZnNiIr
_symmetry_space_group_name_H-M   'P 1'
_cell_length_a   5.33638017
_cell_length_b   5.33637991
_cell_length_c   5.33638076
_cell_angle_alpha   133.86024724
_cell_angle_beta   117.26353378
_cell_angle_gamma   81.31595940
_symmetry_Int_Tables_number   1
_chemical_formula_structural   Tm2ZnNiIr
_chemical_formula_sum   'Tm2 Zn1 Ni1 Ir1'
_cell_volume   94.05782757
_cell_formula_units_Z   1
loop_
 _symmetry_equiv_pos_site_id
 _symmetry_equiv_pos_as_xyz
  1  'x, y, z'
loop_
 _atom_site_type_symbol
 _atom_site_label
 _atom_site_symmetry_multiplicity
 _atom_site_fract_x
 _atom_site_fract_y
 _atom_site_fract_z
 _atom_site_occupancy
  Tm  Tm0  1  0.697738  0.203445  0.494293  1
  Tm  Tm1  1  0.290848  0.796555  0.494293  1
  Zn  Zn2  1  0.989510  0.000000  0.989510  1
  Ni  Ni3  1  0.739389  0.500000  0.239389  1
  Ir  Ir4  1  0.282515  0.500000  0.782515  1
