# generated using pymatgen
data_YbPr2(DySi2)2
_symmetry_space_group_name_H-M   'P 1'
_cell_length_a   7.50390100
_cell_length_b   7.88097100
_cell_length_c   14.96264500
_cell_angle_alpha   90.00000000
_cell_angle_beta   90.00000000
_cell_angle_gamma   90.00000000
_symmetry_Int_Tables_number   1
_chemical_formula_structural   YbPr2(DySi2)2
_chemical_formula_sum   'Yb4 Pr8 Dy8 Si16'
_cell_volume   884.86129155
_cell_formula_units_Z   4
loop_
 _symmetry_equiv_pos_site_id
 _symmetry_equiv_pos_as_xyz
  1  'x, y, z'
loop_
 _atom_site_type_symbol
 _atom_site_label
 _atom_site_symmetry_multiplicity
 _atom_site_fract_x
 _atom_site_fract_y
 _atom_site_fract_z
 _atom_site_occupancy
  Yb  Yb0  1  0.654957  0.988267  0.750000  1
  Yb  Yb1  1  0.845043  0.488267  0.250000  1
  Yb  Yb2  1  0.345043  0.011733  0.250000  1
  Yb  Yb3  1  0.154957  0.511733  0.750000  1
  Pr  Pr4  1  0.024097  0.181162  0.401136  1
  Pr  Pr5  1  0.524097  0.318838  0.401136  1
  Pr  Pr6  1  0.475903  0.681162  0.901136  1
  Pr  Pr7  1  0.475903  0.681162  0.598864  1
  Pr  Pr8  1  0.975903  0.818838  0.598864  1
  Pr  Pr9  1  0.975903  0.818838  0.901136  1
  Pr  Pr10  1  0.524097  0.318838  0.098864  1
  Pr  Pr11  1  0.024097  0.181162  0.098864  1
  Dy  Dy12  1  0.323999  0.182177  0.623436  1
  Dy  Dy13  1  0.676001  0.817823  0.376564  1
  Dy  Dy14  1  0.176001  0.682177  0.376564  1
  Dy  Dy15  1  0.823999  0.317823  0.876564  1
  Dy  Dy16  1  0.823999  0.317823  0.623436  1
  Dy  Dy17  1  0.323999  0.182177  0.876564  1
  Dy  Dy18  1  0.176001  0.682177  0.123436  1
  Dy  Dy19  1  0.676001  0.817823  0.123436  1
  Si  Si20  1  0.267180  0.888553  0.750000  1
  Si  Si21  1  0.466937  0.607574  0.250000  1
  Si  Si22  1  0.033063  0.107574  0.750000  1
  Si  Si23  1  0.533063  0.392426  0.750000  1
  Si  Si24  1  0.148141  0.466843  0.534978  1
  Si  Si25  1  0.966937  0.892426  0.250000  1
  Si  Si26  1  0.732820  0.111447  0.250000  1
  Si  Si27  1  0.851859  0.533157  0.034978  1
  Si  Si28  1  0.351859  0.966843  0.034978  1
  Si  Si29  1  0.148141  0.466843  0.965022  1
  Si  Si30  1  0.648141  0.033157  0.534978  1
  Si  Si31  1  0.351859  0.966843  0.465022  1
  Si  Si32  1  0.851859  0.533157  0.465022  1
  Si  Si33  1  0.767180  0.611447  0.750000  1
  Si  Si34  1  0.232820  0.388553  0.250000  1
  Si  Si35  1  0.648141  0.033157  0.965022  1
