# generated using pymatgen
data_Eu2Al4Ga8Pd
_symmetry_space_group_name_H-M   'P 1'
_cell_length_a   6.07537800
_cell_length_b   6.07537800
_cell_length_c   15.99284500
_cell_angle_alpha   90.00000000
_cell_angle_beta   90.00000000
_cell_angle_gamma   90.00000000
_symmetry_Int_Tables_number   1
_chemical_formula_structural   Eu2Al4Ga8Pd
_chemical_formula_sum   'Eu4 Al8 Ga16 Pd2'
_cell_volume   590.29939288
_cell_formula_units_Z   2
loop_
 _symmetry_equiv_pos_site_id
 _symmetry_equiv_pos_as_xyz
  1  'x, y, z'
loop_
 _atom_site_type_symbol
 _atom_site_label
 _atom_site_symmetry_multiplicity
 _atom_site_fract_x
 _atom_site_fract_y
 _atom_site_fract_z
 _atom_site_occupancy
  Eu  Eu0  1  0.750000  0.250000  0.249020  1
  Eu  Eu1  1  0.250000  0.750000  0.249020  1
  Eu  Eu2  1  0.250000  0.750000  0.750980  1
  Eu  Eu3  1  0.750000  0.250000  0.750980  1
  Al  Al4  1  0.500028  0.000028  0.911398  1
  Al  Al5  1  0.000028  0.999972  0.911398  1
  Al  Al6  1  0.499972  0.500028  0.911398  1
  Al  Al7  1  0.999972  0.499972  0.911398  1
  Al  Al8  1  0.499972  0.999972  0.088602  1
  Al  Al9  1  0.999972  0.000028  0.088602  1
  Al  Al10  1  0.500028  0.499972  0.088602  1
  Al  Al11  1  0.000028  0.500028  0.088602  1
  Ga  Ga12  1  0.250000  0.250000  0.187533  1
  Ga  Ga13  1  0.750000  0.750000  0.187533  1
  Ga  Ga14  1  0.750000  0.750000  0.812467  1
  Ga  Ga15  1  0.250000  0.250000  0.812467  1
  Ga  Ga16  1  0.250000  0.250000  0.342992  1
  Ga  Ga17  1  0.750000  0.750000  0.342992  1
  Ga  Ga18  1  0.750000  0.750000  0.657008  1
  Ga  Ga19  1  0.250000  0.250000  0.657008  1
  Ga  Ga20  1  0.578493  0.078493  0.431611  1
  Ga  Ga21  1  0.078493  0.921507  0.431611  1
  Ga  Ga22  1  0.421507  0.578493  0.431611  1
  Ga  Ga23  1  0.921507  0.421507  0.431611  1
  Ga  Ga24  1  0.421507  0.921507  0.568389  1
  Ga  Ga25  1  0.921507  0.078493  0.568389  1
  Ga  Ga26  1  0.578493  0.421507  0.568389  1
  Ga  Ga27  1  0.078493  0.578493  0.568389  1
  Pd  Pd28  1  0.750000  0.250000  0.000000  1
  Pd  Pd29  1  0.250000  0.750000  0.000000  1
