# generated using pymatgen
data_CaYb(RuC)4
_symmetry_space_group_name_H-M   'P 1'
_cell_length_a   5.42536637
_cell_length_b   5.42545691
_cell_length_c   5.83761879
_cell_angle_alpha   107.30648332
_cell_angle_beta   107.31290557
_cell_angle_gamma   111.16342050
_symmetry_Int_Tables_number   1
_chemical_formula_structural   CaYb(RuC)4
_chemical_formula_sum   'Ca1 Yb1 Ru4 C4'
_cell_volume   136.24351331
_cell_formula_units_Z   1
loop_
 _symmetry_equiv_pos_site_id
 _symmetry_equiv_pos_as_xyz
  1  'x, y, z'
loop_
 _atom_site_type_symbol
 _atom_site_label
 _atom_site_symmetry_multiplicity
 _atom_site_fract_x
 _atom_site_fract_y
 _atom_site_fract_z
 _atom_site_occupancy
  Ca  Ca0  1  0.374485  0.625594  0.250069  1
  Yb  Yb1  1  0.625538  0.374377  0.749927  1
  Ru  Ru2  1  0.259389  0.009473  0.019038  1
  Ru  Ru3  1  0.990515  0.740565  0.480871  1
  Ru  Ru4  1  0.009836  0.259809  0.519828  1
  Ru  Ru5  1  0.740243  0.990181  0.980278  1
  C  C6  1  0.693810  0.306164  0.250004  1
  C  C7  1  0.056886  0.943234  0.250033  1
  C  C8  1  0.943111  0.056757  0.749965  1
  C  C9  1  0.306185  0.693844  0.749991  1
