# generated using pymatgen
data_ErZr9(Sn3S)2
_symmetry_space_group_name_H-M   'P 1'
_cell_length_a   8.62994000
_cell_length_b   8.62994017
_cell_length_c   6.03655800
_cell_angle_alpha   90.00000000
_cell_angle_beta   90.00000000
_cell_angle_gamma   119.92215585
_symmetry_Int_Tables_number   1
_chemical_formula_structural   ErZr9(Sn3S)2
_chemical_formula_sum   'Er1 Zr9 Sn6 S2'
_cell_volume   389.65091566
_cell_formula_units_Z   1
loop_
 _symmetry_equiv_pos_site_id
 _symmetry_equiv_pos_as_xyz
  1  'x, y, z'
loop_
 _atom_site_type_symbol
 _atom_site_label
 _atom_site_symmetry_multiplicity
 _atom_site_fract_x
 _atom_site_fract_y
 _atom_site_fract_z
 _atom_site_occupancy
  Er  Er0  1  0.747656  0.747656  0.750000  1
  Zr  Zr1  1  0.666471  0.332485  0.000340  1
  Zr  Zr2  1  0.332485  0.666471  0.000340  1
  Zr  Zr3  1  0.332485  0.666471  0.499660  1
  Zr  Zr4  1  0.666471  0.332485  0.499660  1
  Zr  Zr5  1  0.251228  0.999311  0.750000  1
  Zr  Zr6  1  0.999311  0.251228  0.750000  1
  Zr  Zr7  1  0.252795  0.252795  0.250000  1
  Zr  Zr8  1  0.747102  0.999886  0.250000  1
  Zr  Zr9  1  0.999886  0.747102  0.250000  1
  Sn  Sn10  1  0.394917  0.394917  0.750000  1
  Sn  Sn11  1  0.598232  0.001243  0.750000  1
  Sn  Sn12  1  0.001243  0.598232  0.750000  1
  Sn  Sn13  1  0.600673  0.600673  0.250000  1
  Sn  Sn14  1  0.399348  0.000155  0.250000  1
  Sn  Sn15  1  0.000155  0.399348  0.250000  1
  S  S16  1  0.004770  0.004770  0.003074  1
  S  S17  1  0.004770  0.004770  0.496926  1
