# generated using pymatgen
data_Nd4Tm4Re3B24Os
_symmetry_space_group_name_H-M   'P 1'
_cell_length_a   3.70351300
_cell_length_b   9.21048859
_cell_length_c   11.66481111
_cell_angle_alpha   90.06073455
_cell_angle_beta   90.00000000
_cell_angle_gamma   90.00000000
_symmetry_Int_Tables_number   1
_chemical_formula_structural   Nd4Tm4Re3B24Os
_chemical_formula_sum   'Nd4 Tm4 Re3 B24 Os1'
_cell_volume   397.90006365
_cell_formula_units_Z   1
loop_
 _symmetry_equiv_pos_site_id
 _symmetry_equiv_pos_as_xyz
  1  'x, y, z'
loop_
 _atom_site_type_symbol
 _atom_site_label
 _atom_site_symmetry_multiplicity
 _atom_site_fract_x
 _atom_site_fract_y
 _atom_site_fract_z
 _atom_site_occupancy
  Nd  Nd0  1  0.000000  0.321316  0.414637  1
  Nd  Nd1  1  0.000000  0.677925  0.587139  1
  Nd  Nd2  1  0.000000  0.823359  0.084602  1
  Nd  Nd3  1  0.000000  0.177878  0.913781  1
  Tm  Tm4  1  0.000000  0.942547  0.369425  1
  Tm  Tm5  1  0.000000  0.056720  0.630039  1
  Tm  Tm6  1  0.000000  0.442382  0.130370  1
  Tm  Tm7  1  0.000000  0.557159  0.870130  1
  Re  Re8  1  0.000000  0.361356  0.680045  1
  Re  Re9  1  0.000000  0.139260  0.181439  1
  Re  Re10  1  0.000000  0.860650  0.819094  1
  B  B11  1  0.500000  0.555284  0.430420  1
  B  B12  1  0.500000  0.445315  0.569338  1
  B  B13  1  0.500000  0.054803  0.069177  1
  B  B14  1  0.500000  0.945444  0.930496  1
  B  B15  1  0.500000  0.749901  0.415895  1
  B  B16  1  0.500000  0.249143  0.583708  1
  B  B17  1  0.500000  0.250715  0.083883  1
  B  B18  1  0.500000  0.749905  0.916281  1
  B  B19  1  0.500000  0.790524  0.266169  1
  B  B20  1  0.500000  0.208691  0.733560  1
  B  B21  1  0.500000  0.291234  0.234066  1
  B  B22  1  0.500000  0.708496  0.766492  1
  B  B23  1  0.500000  0.629367  0.186352  1
  B  B24  1  0.500000  0.371102  0.813693  1
  B  B25  1  0.500000  0.129208  0.314455  1
  B  B26  1  0.500000  0.870703  0.685953  1
  B  B27  1  0.500000  0.983355  0.213443  1
  B  B28  1  0.500000  0.016740  0.786099  1
  B  B29  1  0.500000  0.484240  0.286794  1
  B  B30  1  0.500000  0.517156  0.713579  1
  B  B31  1  0.500000  0.596637  0.027241  1
  B  B32  1  0.500000  0.403516  0.973664  1
  B  B33  1  0.500000  0.095903  0.473046  1
  B  B34  1  0.500000  0.902716  0.526532  1
  Os  Os35  1  0.000000  0.639352  0.318962  1
