# generated using pymatgen
data_Tb4Er6(InBi)3
_symmetry_space_group_name_H-M   'P 1'
_cell_length_a   9.04230012
_cell_length_b   9.04230160
_cell_length_c   6.54826000
_cell_angle_alpha   90.00000000
_cell_angle_beta   90.00000000
_cell_angle_gamma   120.07848992
_symmetry_Int_Tables_number   1
_chemical_formula_structural   Tb4Er6(InBi)3
_chemical_formula_sum   'Tb4 Er6 In3 Bi3'
_cell_volume   463.30866038
_cell_formula_units_Z   1
loop_
 _symmetry_equiv_pos_site_id
 _symmetry_equiv_pos_as_xyz
  1  'x, y, z'
loop_
 _atom_site_type_symbol
 _atom_site_label
 _atom_site_symmetry_multiplicity
 _atom_site_fract_x
 _atom_site_fract_y
 _atom_site_fract_z
 _atom_site_occupancy
  Tb  Tb0  1  0.763669  0.763669  0.750000  1
  Tb  Tb1  1  0.236780  0.999771  0.750000  1
  Tb  Tb2  1  0.999771  0.236780  0.750000  1
  Tb  Tb3  1  0.238227  0.238227  0.250000  1
  Er  Er4  1  0.666861  0.333366  0.007318  1
  Er  Er5  1  0.333366  0.666861  0.007318  1
  Er  Er6  1  0.333366  0.666861  0.492682  1
  Er  Er7  1  0.666861  0.333366  0.492682  1
  Er  Er8  1  0.761239  0.999798  0.250000  1
  Er  Er9  1  0.999798  0.761239  0.250000  1
  In  In10  1  0.606746  0.606746  0.250000  1
  In  In11  1  0.393662  0.999742  0.250000  1
  In  In12  1  0.999742  0.393662  0.250000  1
  Bi  Bi13  1  0.397125  0.397125  0.750000  1
  Bi  Bi14  1  0.602840  0.999947  0.750000  1
  Bi  Bi15  1  0.999947  0.602840  0.750000  1
