# generated using pymatgen
data_Er8Ga12FeAu3
_symmetry_space_group_name_H-M   'P 1'
_cell_length_a   7.09291700
_cell_length_b   8.83841482
_cell_length_c   8.83841500
_cell_angle_alpha   119.99999693
_cell_angle_beta   90.00000000
_cell_angle_gamma   90.00000000
_symmetry_Int_Tables_number   1
_chemical_formula_structural   Er8Ga12FeAu3
_chemical_formula_sum   'Er8 Ga12 Fe1 Au3'
_cell_volume   479.84866775
_cell_formula_units_Z   1
loop_
 _symmetry_equiv_pos_site_id
 _symmetry_equiv_pos_as_xyz
  1  'x, y, z'
loop_
 _atom_site_type_symbol
 _atom_site_label
 _atom_site_symmetry_multiplicity
 _atom_site_fract_x
 _atom_site_fract_y
 _atom_site_fract_z
 _atom_site_occupancy
  Er  Er0  1  0.738848  0.000000  0.000000  1
  Er  Er1  1  0.251524  0.000000  0.000000  1
  Er  Er2  1  0.748567  0.486203  0.513797  1
  Er  Er3  1  0.260067  0.523660  0.476340  1
  Er  Er4  1  0.748567  0.027594  0.513797  1
  Er  Er5  1  0.260067  0.952680  0.476340  1
  Er  Er6  1  0.748567  0.486203  0.972406  1
  Er  Er7  1  0.260067  0.523660  0.047320  1
  Ga  Ga8  1  0.954508  0.837660  0.162340  1
  Ga  Ga9  1  0.048874  0.164833  0.835167  1
  Ga  Ga10  1  0.954508  0.324681  0.162340  1
  Ga  Ga11  1  0.459385  0.163024  0.836976  1
  Ga  Ga12  1  0.048874  0.670334  0.835167  1
  Ga  Ga13  1  0.541490  0.825723  0.174277  1
  Ga  Ga14  1  0.954508  0.837660  0.675319  1
  Ga  Ga15  1  0.459385  0.673950  0.836976  1
  Ga  Ga16  1  0.048874  0.164833  0.329666  1
  Ga  Ga17  1  0.541490  0.348556  0.174277  1
  Ga  Ga18  1  0.459385  0.163024  0.326050  1
  Ga  Ga19  1  0.541490  0.825723  0.651444  1
  Fe  Fe20  1  0.512004  0.666667  0.333333  1
  Au  Au21  1  0.954485  0.666667  0.333333  1
  Au  Au22  1  0.032651  0.333333  0.666667  1
  Au  Au23  1  0.471820  0.333333  0.666667  1
