# generated using pymatgen
data_Ho7ErTc2(OsC4)2
_symmetry_space_group_name_H-M   'P 1'
_cell_length_a   5.07968500
_cell_length_b   6.50684456
_cell_length_c   9.77984932
_cell_angle_alpha   89.72745510
_cell_angle_beta   90.00000000
_cell_angle_gamma   90.00000000
_symmetry_Int_Tables_number   1
_chemical_formula_structural   Ho7ErTc2(OsC4)2
_chemical_formula_sum   'Ho7 Er1 Tc2 Os2 C8'
_cell_volume   323.24697096
_cell_formula_units_Z   1
loop_
 _symmetry_equiv_pos_site_id
 _symmetry_equiv_pos_as_xyz
  1  'x, y, z'
loop_
 _atom_site_type_symbol
 _atom_site_label
 _atom_site_symmetry_multiplicity
 _atom_site_fract_x
 _atom_site_fract_y
 _atom_site_fract_z
 _atom_site_occupancy
  Ho  Ho0  1  0.750000  0.320534  0.444419  1
  Ho  Ho1  1  0.750000  0.821464  0.055863  1
  Ho  Ho2  1  0.250000  0.178447  0.944045  1
  Ho  Ho3  1  0.250000  0.531185  0.216818  1
  Ho  Ho4  1  0.750000  0.469101  0.783344  1
  Ho  Ho5  1  0.750000  0.970721  0.714575  1
  Ho  Ho6  1  0.250000  0.029059  0.285403  1
  Er  Er7  1  0.250000  0.678657  0.555987  1
  Tc  Tc8  1  0.250000  0.721911  0.865782  1
  Tc  Tc9  1  0.750000  0.278178  0.134064  1
  Os  Os10  1  0.750000  0.777056  0.365988  1
  Os  Os11  1  0.250000  0.223031  0.634221  1
  C  C12  1  0.250000  0.456056  0.758125  1
  C  C13  1  0.750000  0.544241  0.241691  1
  C  C14  1  0.750000  0.043066  0.259214  1
  C  C15  1  0.250000  0.956622  0.740290  1
  C  C16  1  0.250000  0.823385  0.051813  1
  C  C17  1  0.750000  0.176692  0.948106  1
  C  C18  1  0.750000  0.675445  0.552297  1
  C  C19  1  0.250000  0.325147  0.447955  1
