# generated using pymatgen
data_La3Nd16YSn16
_symmetry_space_group_name_H-M   'P 1'
_cell_length_a   8.31332268
_cell_length_b   8.46053405
_cell_length_c   16.03758700
_cell_angle_alpha   90.00574953
_cell_angle_beta   90.02319862
_cell_angle_gamma   89.99796604
_symmetry_Int_Tables_number   1
_chemical_formula_structural   La3Nd16YSn16
_chemical_formula_sum   'La3 Nd16 Y1 Sn16'
_cell_volume   1128.00598198
_cell_formula_units_Z   1
loop_
 _symmetry_equiv_pos_site_id
 _symmetry_equiv_pos_as_xyz
  1  'x, y, z'
loop_
 _atom_site_type_symbol
 _atom_site_label
 _atom_site_symmetry_multiplicity
 _atom_site_fract_x
 _atom_site_fract_y
 _atom_site_fract_z
 _atom_site_occupancy
  La  La0  1  0.982172  0.819318  0.401419  1
  La  La1  1  0.517859  0.319287  0.598458  1
  La  La2  1  0.017875  0.181183  0.901790  1
  Nd  Nd3  1  0.367031  0.837253  0.879329  1
  Nd  Nd4  1  0.867892  0.662656  0.620935  1
  Nd  Nd5  1  0.632300  0.162705  0.379104  1
  Nd  Nd6  1  0.132572  0.337354  0.119679  1
  Nd  Nd7  1  0.632411  0.162757  0.120470  1
  Nd  Nd8  1  0.133117  0.337535  0.379954  1
  Nd  Nd9  1  0.366041  0.837360  0.620799  1
  Nd  Nd10  1  0.867551  0.662374  0.879425  1
  Nd  Nd11  1  0.518756  0.320485  0.900231  1
  Nd  Nd12  1  0.019097  0.180805  0.599921  1
  Nd  Nd13  1  0.481741  0.680252  0.400808  1
  Nd  Nd14  1  0.981515  0.819569  0.099643  1
  Nd  Nd15  1  0.481804  0.680609  0.098575  1
  Nd  Nd16  1  0.698767  0.998771  0.750152  1
  Nd  Nd17  1  0.801231  0.498005  0.249507  1
  Nd  Nd18  1  0.301492  0.001621  0.249678  1
  Y  Y19  1  0.199951  0.502557  0.750078  1
  Sn  Sn20  1  0.293360  0.034019  0.042686  1
  Sn  Sn21  1  0.792259  0.464102  0.457679  1
  Sn  Sn22  1  0.707662  0.964388  0.542569  1
  Sn  Sn23  1  0.209356  0.535038  0.956266  1
  Sn  Sn24  1  0.706865  0.962947  0.958611  1
  Sn  Sn25  1  0.207013  0.535109  0.543525  1
  Sn  Sn26  1  0.292930  0.036496  0.458526  1
  Sn  Sn27  1  0.790627  0.464581  0.041743  1
  Sn  Sn28  1  0.563263  0.616790  0.750357  1
  Sn  Sn29  1  0.067444  0.880239  0.749848  1
  Sn  Sn30  1  0.433449  0.382774  0.249941  1
  Sn  Sn31  1  0.933686  0.117840  0.249562  1
  Sn  Sn32  1  0.322651  0.145903  0.750540  1
  Sn  Sn33  1  0.826194  0.358790  0.749651  1
  Sn  Sn34  1  0.675154  0.856712  0.249535  1
  Sn  Sn35  1  0.176912  0.641813  0.249010  1
