# generated using pymatgen
data_Tm2ThMn(Co5B2)2
_symmetry_space_group_name_H-M   'P 1'
_cell_length_a   5.02939700
_cell_length_b   5.02939676
_cell_length_c   9.77684500
_cell_angle_alpha   90.00000000
_cell_angle_beta   90.00000000
_cell_angle_gamma   120.00000817
_symmetry_Int_Tables_number   1
_chemical_formula_structural   Tm2ThMn(Co5B2)2
_chemical_formula_sum   'Tm2 Th1 Mn1 Co10 B4'
_cell_volume   214.17123545
_cell_formula_units_Z   1
loop_
 _symmetry_equiv_pos_site_id
 _symmetry_equiv_pos_as_xyz
  1  'x, y, z'
loop_
 _atom_site_type_symbol
 _atom_site_label
 _atom_site_symmetry_multiplicity
 _atom_site_fract_x
 _atom_site_fract_y
 _atom_site_fract_z
 _atom_site_occupancy
  Tm  Tm0  1  0.000000  0.000000  0.655470  1
  Tm  Tm1  1  0.000000  0.000000  0.344530  1
  Th  Th2  1  0.000000  0.000000  0.000000  1
  Mn  Mn3  1  0.666667  0.333333  0.000000  1
  Co  Co4  1  0.333333  0.666667  0.000000  1
  Co  Co5  1  0.500478  0.499522  0.500000  1
  Co  Co6  1  0.500478  0.000957  0.500000  1
  Co  Co7  1  0.999043  0.499522  0.500000  1
  Co  Co8  1  0.498925  0.501075  0.792682  1
  Co  Co9  1  0.498925  0.997851  0.792682  1
  Co  Co10  1  0.002149  0.501075  0.792682  1
  Co  Co11  1  0.498925  0.501075  0.207318  1
  Co  Co12  1  0.498925  0.997851  0.207318  1
  Co  Co13  1  0.002149  0.501075  0.207318  1
  B  B14  1  0.666667  0.333333  0.649512  1
  B  B15  1  0.333333  0.666667  0.648082  1
  B  B16  1  0.333333  0.666667  0.351918  1
  B  B17  1  0.666667  0.333333  0.350488  1
