# generated using pymatgen
data_Er5ReMoC7
_symmetry_space_group_name_H-M   'P 1'
_cell_length_a   8.31746481
_cell_length_b   8.31746421
_cell_length_c   3.39499500
_cell_angle_alpha   90.00000000
_cell_angle_beta   90.00000000
_cell_angle_gamma   122.32332323
_symmetry_Int_Tables_number   1
_chemical_formula_structural   Er5ReMoC7
_chemical_formula_sum   'Er5 Re1 Mo1 C7'
_cell_volume   198.47257340
_cell_formula_units_Z   1
loop_
 _symmetry_equiv_pos_site_id
 _symmetry_equiv_pos_as_xyz
  1  'x, y, z'
loop_
 _atom_site_type_symbol
 _atom_site_label
 _atom_site_symmetry_multiplicity
 _atom_site_fract_x
 _atom_site_fract_y
 _atom_site_fract_z
 _atom_site_occupancy
  Er  Er0  1  0.498989  0.501011  0.000000  1
  Er  Er1  1  0.077410  0.335439  0.500000  1
  Er  Er2  1  0.924651  0.665486  0.500000  1
  Er  Er3  1  0.664561  0.922590  0.500000  1
  Er  Er4  1  0.334514  0.075349  0.500000  1
  Re  Re5  1  0.285914  0.714086  0.000000  1
  Mo  Mo6  1  0.714167  0.285833  0.000000  1
  C  C7  1  0.622485  0.377515  0.500000  1
  C  C8  1  0.375107  0.624893  0.500000  1
  C  C9  1  0.999819  0.000181  0.000000  1
  C  C10  1  0.169235  0.168178  0.000000  1
  C  C11  1  0.831822  0.830765  0.000000  1
  C  C12  1  0.001966  0.500641  0.000000  1
  C  C13  1  0.499359  0.998034  0.000000  1
