# generated using pymatgen
data_NaNd6FeBr12
_symmetry_space_group_name_H-M   'P 1'
_cell_length_a   9.52449543
_cell_length_b   9.52888980
_cell_length_c   9.52361712
_cell_angle_alpha   107.11765568
_cell_angle_beta   107.12745920
_cell_angle_gamma   107.16329680
_symmetry_Int_Tables_number   1
_chemical_formula_structural   NaNd6FeBr12
_chemical_formula_sum   'Na1 Nd6 Fe1 Br12'
_cell_volume   717.14315989
_cell_formula_units_Z   1
loop_
 _symmetry_equiv_pos_site_id
 _symmetry_equiv_pos_as_xyz
  1  'x, y, z'
loop_
 _atom_site_type_symbol
 _atom_site_label
 _atom_site_symmetry_multiplicity
 _atom_site_fract_x
 _atom_site_fract_y
 _atom_site_fract_z
 _atom_site_occupancy
  Na  Na0  1  0.500000  0.500000  0.500000  1
  Nd  Nd1  1  0.313216  0.107929  0.030529  1
  Nd  Nd2  1  0.030372  0.312877  0.107463  1
  Nd  Nd3  1  0.107753  0.030622  0.313139  1
  Nd  Nd4  1  0.892246  0.969378  0.686861  1
  Nd  Nd5  1  0.969628  0.687123  0.892536  1
  Nd  Nd6  1  0.686784  0.892071  0.969470  1
  Fe  Fe7  1  0.000000  0.000000  0.000000  1
  Br  Br8  1  0.687036  0.219360  0.073351  1
  Br  Br9  1  0.371211  0.451825  0.152791  1
  Br  Br10  1  0.073489  0.687299  0.219994  1
  Br  Br11  1  0.780299  0.926976  0.313110  1
  Br  Br12  1  0.451839  0.152807  0.371194  1
  Br  Br13  1  0.152581  0.371094  0.451681  1
  Br  Br14  1  0.847420  0.628906  0.548320  1
  Br  Br15  1  0.548161  0.847194  0.628806  1
  Br  Br16  1  0.219700  0.073024  0.686890  1
  Br  Br17  1  0.926511  0.312701  0.780005  1
  Br  Br18  1  0.628790  0.548176  0.847209  1
  Br  Br19  1  0.312964  0.780639  0.926649  1
