# generated using pymatgen
data_Ho6Al19Fe8Si5
_symmetry_space_group_name_H-M   'P 1'
_cell_length_a   8.49475000
_cell_length_b   8.48202062
_cell_length_c   9.32291900
_cell_angle_alpha   90.00000000
_cell_angle_beta   90.00000000
_cell_angle_gamma   120.04965679
_symmetry_Int_Tables_number   1
_chemical_formula_structural   Ho6Al19Fe8Si5
_chemical_formula_sum   'Ho6 Al19 Fe8 Si5'
_cell_volume   581.45343600
_cell_formula_units_Z   1
loop_
 _symmetry_equiv_pos_site_id
 _symmetry_equiv_pos_as_xyz
  1  'x, y, z'
loop_
 _atom_site_type_symbol
 _atom_site_label
 _atom_site_symmetry_multiplicity
 _atom_site_fract_x
 _atom_site_fract_y
 _atom_site_fract_z
 _atom_site_occupancy
  Ho  Ho0  1  0.195276  0.390553  0.250000  1
  Ho  Ho1  1  0.805298  0.610596  0.750000  1
  Ho  Ho2  1  0.606816  0.805864  0.250000  1
  Ho  Ho3  1  0.391220  0.196433  0.750000  1
  Ho  Ho4  1  0.199047  0.805864  0.250000  1
  Ho  Ho5  1  0.805214  0.196433  0.750000  1
  Al  Al6  1  0.163167  0.326334  0.574255  1
  Al  Al7  1  0.836148  0.672296  0.425365  1
  Al  Al8  1  0.673016  0.836858  0.573167  1
  Al  Al9  1  0.836148  0.672296  0.074635  1
  Al  Al10  1  0.327292  0.164098  0.425405  1
  Al  Al11  1  0.163167  0.326334  0.925745  1
  Al  Al12  1  0.163842  0.836858  0.573167  1
  Al  Al13  1  0.327292  0.164098  0.074595  1
  Al  Al14  1  0.836806  0.164098  0.425405  1
  Al  Al15  1  0.673016  0.836858  0.926833  1
  Al  Al16  1  0.836806  0.164098  0.074595  1
  Al  Al17  1  0.163842  0.836858  0.926833  1
  Al  Al18  1  0.439290  0.878579  0.750000  1
  Al  Al19  1  0.876153  0.435414  0.250000  1
  Al  Al20  1  0.123584  0.562597  0.750000  1
  Al  Al21  1  0.559261  0.435414  0.250000  1
  Al  Al22  1  0.439012  0.562597  0.750000  1
  Al  Al23  1  0.999593  0.999185  0.250000  1
  Al  Al24  1  0.000516  0.001031  0.750000  1
  Fe  Fe25  1  0.500790  0.001579  0.007153  1
  Fe  Fe26  1  0.998675  0.498749  0.000375  1
  Fe  Fe27  1  0.500790  0.001579  0.492847  1
  Fe  Fe28  1  0.500075  0.498749  0.000375  1
  Fe  Fe29  1  0.998675  0.498749  0.499625  1
  Fe  Fe30  1  0.500075  0.498749  0.499625  1
  Fe  Fe31  1  0.999655  0.999308  0.000020  1
  Fe  Fe32  1  0.999655  0.999308  0.499980  1
  Si  Si33  1  0.332403  0.664808  0.027339  1
  Si  Si34  1  0.667631  0.335260  0.969887  1
  Si  Si35  1  0.667631  0.335260  0.530113  1
  Si  Si36  1  0.332403  0.664808  0.472661  1
  Si  Si37  1  0.560725  0.121451  0.250000  1
