# generated using pymatgen
data_La10Bi5PbSe2
_symmetry_space_group_name_H-M   'P 1'
_cell_length_a   9.76989770
_cell_length_b   9.76989776
_cell_length_c   6.93984600
_cell_angle_alpha   90.00000000
_cell_angle_beta   90.00000000
_cell_angle_gamma   119.80120930
_symmetry_Int_Tables_number   1
_chemical_formula_structural   La10Bi5PbSe2
_chemical_formula_sum   'La10 Bi5 Pb1 Se2'
_cell_volume   574.81352111
_cell_formula_units_Z   1
loop_
 _symmetry_equiv_pos_site_id
 _symmetry_equiv_pos_as_xyz
  1  'x, y, z'
loop_
 _atom_site_type_symbol
 _atom_site_label
 _atom_site_symmetry_multiplicity
 _atom_site_fract_x
 _atom_site_fract_y
 _atom_site_fract_z
 _atom_site_occupancy
  La  La0  1  0.745902  0.745902  0.750000  1
  La  La1  1  0.254209  0.002461  0.750000  1
  La  La2  1  0.002461  0.254209  0.750000  1
  La  La3  1  0.253542  0.253542  0.250000  1
  La  La4  1  0.746676  0.000057  0.250000  1
  La  La5  1  0.000057  0.746676  0.250000  1
  La  La6  1  0.665911  0.333486  0.999232  1
  La  La7  1  0.333486  0.665911  0.999232  1
  La  La8  1  0.333486  0.665911  0.500768  1
  La  La9  1  0.665911  0.333486  0.500768  1
  Bi  Bi10  1  0.609664  0.000240  0.750000  1
  Bi  Bi11  1  0.000240  0.609664  0.750000  1
  Bi  Bi12  1  0.608276  0.608276  0.250000  1
  Bi  Bi13  1  0.390699  0.999999  0.250000  1
  Bi  Bi14  1  0.999999  0.390699  0.250000  1
  Pb  Pb15  1  0.391146  0.391146  0.750000  1
  Se  Se16  1  0.999167  0.999167  0.000376  1
  Se  Se17  1  0.999167  0.999167  0.499624  1
