# generated using pymatgen
data_Er2Al9RePdPt
_symmetry_space_group_name_H-M   'P 1'
_cell_length_a   7.58037959
_cell_length_b   7.58047318
_cell_length_c   9.48042846
_cell_angle_alpha   90.01952910
_cell_angle_beta   90.01689247
_cell_angle_gamma   118.37561541
_symmetry_Int_Tables_number   1
_chemical_formula_structural   Er2Al9RePdPt
_chemical_formula_sum   'Er4 Al18 Re2 Pd2 Pt2'
_cell_volume   479.31855410
_cell_formula_units_Z   2
loop_
 _symmetry_equiv_pos_site_id
 _symmetry_equiv_pos_as_xyz
  1  'x, y, z'
loop_
 _atom_site_type_symbol
 _atom_site_label
 _atom_site_symmetry_multiplicity
 _atom_site_fract_x
 _atom_site_fract_y
 _atom_site_fract_z
 _atom_site_occupancy
  Er  Er0  1  0.993699  0.685322  0.249899  1
  Er  Er1  1  0.006301  0.314678  0.750101  1
  Er  Er2  1  0.685319  0.993739  0.249905  1
  Er  Er3  1  0.314681  0.006261  0.750095  1
  Al  Al4  1  0.134669  0.134695  0.249980  1
  Al  Al5  1  0.865331  0.865305  0.750020  1
  Al  Al6  1  0.001808  0.336488  0.077645  1
  Al  Al7  1  0.998192  0.663512  0.922355  1
  Al  Al8  1  0.997980  0.663323  0.577963  1
  Al  Al9  1  0.336689  0.002005  0.422041  1
  Al  Al10  1  0.002020  0.336677  0.422037  1
  Al  Al11  1  0.663311  0.997995  0.577959  1
  Al  Al12  1  0.663498  0.998208  0.922361  1
  Al  Al13  1  0.336502  0.001792  0.077639  1
  Al  Al14  1  0.329207  0.329170  0.548303  1
  Al  Al15  1  0.670793  0.670830  0.451697  1
  Al  Al16  1  0.670960  0.670998  0.047996  1
  Al  Al17  1  0.329040  0.329002  0.952004  1
  Al  Al18  1  0.345246  0.554968  0.250023  1
  Al  Al19  1  0.654754  0.445032  0.749977  1
  Al  Al20  1  0.554854  0.345304  0.250020  1
  Al  Al21  1  0.445146  0.654696  0.749980  1
  Re  Re22  1  0.000000  0.000000  0.000000  1
  Re  Re23  1  0.000000  0.000000  0.500000  1
  Pd  Pd24  1  0.327749  0.671948  0.500000  1
  Pd  Pd25  1  0.672251  0.328052  0.500000  1
  Pt  Pt26  1  0.672186  0.328091  0.000001  1
  Pt  Pt27  1  0.327814  0.671909  0.999999  1
