# generated using pymatgen
data_Y5Ho(LuAu2)2
_symmetry_space_group_name_H-M   'P 1'
_cell_length_a   4.91391400
_cell_length_b   7.15869728
_cell_length_c   8.91599104
_cell_angle_alpha   89.84697884
_cell_angle_beta   90.00000000
_cell_angle_gamma   90.00000000
_symmetry_Int_Tables_number   1
_chemical_formula_structural   Y5Ho(LuAu2)2
_chemical_formula_sum   'Y5 Ho1 Lu2 Au4'
_cell_volume   313.63868435
_cell_formula_units_Z   1
loop_
 _symmetry_equiv_pos_site_id
 _symmetry_equiv_pos_as_xyz
  1  'x, y, z'
loop_
 _atom_site_type_symbol
 _atom_site_label
 _atom_site_symmetry_multiplicity
 _atom_site_fract_x
 _atom_site_fract_y
 _atom_site_fract_z
 _atom_site_occupancy
  Y  Y0  1  0.250000  0.485988  0.175283  1
  Y  Y1  1  0.750000  0.514903  0.823304  1
  Y  Y2  1  0.250000  0.987129  0.324032  1
  Y  Y3  1  0.750000  0.015167  0.677664  1
  Y  Y4  1  0.750000  0.648529  0.420268  1
  Ho  Ho5  1  0.750000  0.147718  0.079544  1
  Lu  Lu6  1  0.250000  0.352293  0.579867  1
  Lu  Lu7  1  0.250000  0.852769  0.920440  1
  Au  Au8  1  0.250000  0.251912  0.898047  1
  Au  Au9  1  0.750000  0.747279  0.096891  1
  Au  Au10  1  0.250000  0.752343  0.603850  1
  Au  Au11  1  0.750000  0.243968  0.400812  1
