# generated using pymatgen
data_CsNb(Te3Mo)2
_symmetry_space_group_name_H-M   'P 1'
_cell_length_a   6.34164000
_cell_length_b   6.34164057
_cell_length_c   20.26536100
_cell_angle_alpha   90.00000000
_cell_angle_beta   90.00000000
_cell_angle_gamma   119.99999703
_symmetry_Int_Tables_number   1
_chemical_formula_structural   CsNb(Te3Mo)2
_chemical_formula_sum   'Cs2 Nb2 Te12 Mo4'
_cell_volume   705.81063398
_cell_formula_units_Z   2
loop_
 _symmetry_equiv_pos_site_id
 _symmetry_equiv_pos_as_xyz
  1  'x, y, z'
loop_
 _atom_site_type_symbol
 _atom_site_label
 _atom_site_symmetry_multiplicity
 _atom_site_fract_x
 _atom_site_fract_y
 _atom_site_fract_z
 _atom_site_occupancy
  Cs  Cs0  1  0.000000  0.000000  0.000000  1
  Cs  Cs1  1  0.000000  0.000000  0.500000  1
  Nb  Nb2  1  0.666667  0.333333  0.250000  1
  Nb  Nb3  1  0.333333  0.666667  0.750000  1
  Te  Te4  1  0.328283  0.993468  0.161901  1
  Te  Te5  1  0.006532  0.334815  0.161901  1
  Te  Te6  1  0.665185  0.671717  0.161901  1
  Te  Te7  1  0.334815  0.328283  0.661901  1
  Te  Te8  1  0.665185  0.671717  0.338099  1
  Te  Te9  1  0.671717  0.006532  0.661901  1
  Te  Te10  1  0.993468  0.665185  0.661901  1
  Te  Te11  1  0.993468  0.665185  0.838099  1
  Te  Te12  1  0.334815  0.328283  0.838099  1
  Te  Te13  1  0.006532  0.334815  0.338099  1
  Te  Te14  1  0.328283  0.993468  0.338099  1
  Te  Te15  1  0.671717  0.006532  0.838099  1
  Mo  Mo16  1  0.000000  0.000000  0.750000  1
  Mo  Mo17  1  0.000000  0.000000  0.250000  1
  Mo  Mo18  1  0.333333  0.666667  0.250000  1
  Mo  Mo19  1  0.666667  0.333333  0.750000  1
