# generated using pymatgen
data_Pr6Al24Ir5Ru2Pt
_symmetry_space_group_name_H-M   'P 1'
_cell_length_a   8.92786223
_cell_length_b   8.92991950
_cell_length_c   9.65440223
_cell_angle_alpha   89.99999701
_cell_angle_beta   90.02140657
_cell_angle_gamma   120.00763184
_symmetry_Int_Tables_number   1
_chemical_formula_structural   Pr6Al24Ir5Ru2Pt
_chemical_formula_sum   'Pr6 Al24 Ir5 Ru2 Pt1'
_cell_volume   666.52677500
_cell_formula_units_Z   1
loop_
 _symmetry_equiv_pos_site_id
 _symmetry_equiv_pos_as_xyz
  1  'x, y, z'
loop_
 _atom_site_type_symbol
 _atom_site_label
 _atom_site_symmetry_multiplicity
 _atom_site_fract_x
 _atom_site_fract_y
 _atom_site_fract_z
 _atom_site_occupancy
  Pr  Pr0  1  0.190825  0.380671  0.249758  1
  Pr  Pr1  1  0.809175  0.619329  0.750242  1
  Pr  Pr2  1  0.619545  0.809773  0.251139  1
  Pr  Pr3  1  0.380455  0.190227  0.748861  1
  Pr  Pr4  1  0.190825  0.810154  0.249758  1
  Pr  Pr5  1  0.809175  0.189846  0.750242  1
  Al  Al6  1  0.336954  0.668477  0.023726  1
  Al  Al7  1  0.663046  0.331523  0.976274  1
  Al  Al8  1  0.666527  0.333263  0.522959  1
  Al  Al9  1  0.333473  0.666737  0.477041  1
  Al  Al10  1  0.163878  0.327294  0.574116  1
  Al  Al11  1  0.836122  0.672706  0.425884  1
  Al  Al12  1  0.672156  0.836077  0.574506  1
  Al  Al13  1  0.833361  0.674077  0.076243  1
  Al  Al14  1  0.327844  0.163923  0.425494  1
  Al  Al15  1  0.166639  0.325923  0.923757  1
  Al  Al16  1  0.163878  0.836582  0.574116  1
  Al  Al17  1  0.327608  0.163805  0.074796  1
  Al  Al18  1  0.836122  0.163418  0.425884  1
  Al  Al19  1  0.672392  0.836195  0.925204  1
  Al  Al20  1  0.833361  0.159286  0.076243  1
  Al  Al21  1  0.166639  0.840714  0.923757  1
  Al  Al22  1  0.563086  0.125998  0.249994  1
  Al  Al23  1  0.436914  0.874002  0.750006  1
  Al  Al24  1  0.872308  0.436154  0.252333  1
  Al  Al25  1  0.127692  0.563846  0.747667  1
  Al  Al26  1  0.563086  0.437088  0.249994  1
  Al  Al27  1  0.436914  0.562912  0.750006  1
  Al  Al28  1  0.000709  0.000354  0.250198  1
  Al  Al29  1  0.999291  0.999646  0.749802  1
  Ir  Ir30  1  0.500000  0.000000  0.000000  1
  Ir  Ir31  1  0.500000  0.000000  0.500000  1
  Ir  Ir32  1  0.500000  0.500000  0.000000  1
  Ir  Ir33  1  0.000000  0.500000  0.500000  1
  Ir  Ir34  1  0.500000  0.500000  0.500000  1
  Ru  Ru35  1  0.000000  0.000000  0.000000  1
  Ru  Ru36  1  0.000000  0.000000  0.500000  1
  Pt  Pt37  1  0.000000  0.500000  0.000000  1
