# generated using pymatgen
data_Dy8MnOsI8
_symmetry_space_group_name_H-M   'P 1'
_cell_length_a   11.61413129
_cell_length_b   11.61413352
_cell_length_c   6.09998108
_cell_angle_alpha   90.04598676
_cell_angle_beta   90.04598820
_cell_angle_gamma   90.01372187
_symmetry_Int_Tables_number   1
_chemical_formula_structural   Dy8MnOsI8
_chemical_formula_sum   'Dy8 Mn1 Os1 I8'
_cell_volume   822.81413022
_cell_formula_units_Z   1
loop_
 _symmetry_equiv_pos_site_id
 _symmetry_equiv_pos_as_xyz
  1  'x, y, z'
loop_
 _atom_site_type_symbol
 _atom_site_label
 _atom_site_symmetry_multiplicity
 _atom_site_fract_x
 _atom_site_fract_y
 _atom_site_fract_z
 _atom_site_occupancy
  Dy  Dy0  1  0.808690  0.079144  0.004965  1
  Dy  Dy1  1  0.079123  0.808712  0.496765  1
  Dy  Dy2  1  0.078253  0.190347  0.005074  1
  Dy  Dy3  1  0.190333  0.078233  0.496646  1
  Dy  Dy4  1  0.921767  0.809667  0.003354  1
  Dy  Dy5  1  0.920856  0.191310  0.495035  1
  Dy  Dy6  1  0.191288  0.920877  0.003235  1
  Dy  Dy7  1  0.809653  0.921747  0.494926  1
  Mn  Mn8  1  0.999820  0.000180  0.250000  1
  Os  Os9  1  0.999872  0.000128  0.750000  1
  I  I10  1  0.653342  0.143938  0.488468  1
  I  I11  1  0.855354  0.654197  0.504685  1
  I  I12  1  0.345803  0.144646  0.995315  1
  I  I13  1  0.144894  0.345678  0.492010  1
  I  I14  1  0.654322  0.855106  0.007990  1
  I  I15  1  0.346572  0.856004  0.508333  1
  I  I16  1  0.143996  0.653428  0.991667  1
  I  I17  1  0.856062  0.346658  0.011532  1
