# generated using pymatgen
data_Pr11Th5(MgRu)4
_symmetry_space_group_name_H-M   'P 1'
_cell_length_a   9.95633182
_cell_length_b   10.09260044
_cell_length_c   10.08945627
_cell_angle_alpha   119.99868457
_cell_angle_beta   89.31372837
_cell_angle_gamma   120.52468088
_symmetry_Int_Tables_number   1
_chemical_formula_structural   Pr11Th5(MgRu)4
_chemical_formula_sum   'Pr11 Th5 Mg4 Ru4'
_cell_volume   715.45029163
_cell_formula_units_Z   1
loop_
 _symmetry_equiv_pos_site_id
 _symmetry_equiv_pos_as_xyz
  1  'x, y, z'
loop_
 _atom_site_type_symbol
 _atom_site_label
 _atom_site_symmetry_multiplicity
 _atom_site_fract_x
 _atom_site_fract_y
 _atom_site_fract_z
 _atom_site_occupancy
  Pr  Pr0  1  0.805109  0.997650  0.188970  1
  Pr  Pr1  1  0.062769  0.123486  0.559401  1
  Pr  Pr2  1  0.060905  0.498913  0.558494  1
  Pr  Pr3  1  0.433259  0.495075  0.558642  1
  Pr  Pr4  1  0.186065  0.994510  0.802840  1
  Pr  Pr5  1  0.807455  0.617181  0.805820  1
  Pr  Pr6  1  0.809600  0.996715  0.808125  1
  Pr  Pr7  1  0.065640  0.505677  0.944484  1
  Pr  Pr8  1  0.438727  0.499962  0.946067  1
  Pr  Pr9  1  0.435208  0.878172  0.943332  1
  Pr  Pr10  1  0.655501  0.306636  0.959980  1
  Th  Th11  1  0.179715  0.998633  0.184447  1
  Th  Th12  1  0.182699  0.372042  0.186097  1
  Th  Th13  1  0.654872  0.311675  0.343750  1
  Th  Th14  1  0.038276  0.693735  0.347141  1
  Th  Th15  1  0.656596  0.688213  0.345219  1
  Mg  Mg16  1  0.422448  0.842960  0.263524  1
  Mg  Mg17  1  0.421232  0.158489  0.577378  1
  Mg  Mg18  1  0.421535  0.840476  0.577063  1
  Mg  Mg19  1  0.736218  0.156382  0.576355  1
  Ru  Ru20  1  0.413756  0.284455  0.157971  1
  Ru  Ru21  1  0.881914  0.305505  0.155290  1
  Ru  Ru22  1  0.883887  0.732895  0.155653  1
  Ru  Ru23  1  0.846616  0.700565  0.553962  1
