# generated using pymatgen
data_K3LiZr2F12
_symmetry_space_group_name_H-M   'P 1'
_cell_length_a   5.74233900
_cell_length_b   5.74233900
_cell_length_c   20.30608400
_cell_angle_alpha   90.00000000
_cell_angle_beta   90.00000000
_cell_angle_gamma   90.00000000
_symmetry_Int_Tables_number   1
_chemical_formula_structural   K3LiZr2F12
_chemical_formula_sum   'K6 Li2 Zr4 F24'
_cell_volume   669.58209757
_cell_formula_units_Z   2
loop_
 _symmetry_equiv_pos_site_id
 _symmetry_equiv_pos_as_xyz
  1  'x, y, z'
loop_
 _atom_site_type_symbol
 _atom_site_label
 _atom_site_symmetry_multiplicity
 _atom_site_fract_x
 _atom_site_fract_y
 _atom_site_fract_z
 _atom_site_occupancy
  K  K0  1  0.000000  0.500000  0.311809  1
  K  K1  1  0.500000  0.000000  0.688191  1
  K  K2  1  0.500000  0.000000  0.188191  1
  K  K3  1  0.000000  0.500000  0.811809  1
  K  K4  1  0.000000  0.000000  0.500000  1
  K  K5  1  0.500000  0.500000  0.000000  1
  Li  Li6  1  0.000000  0.000000  0.000000  1
  Li  Li7  1  0.500000  0.500000  0.500000  1
  Zr  Zr8  1  0.000000  0.500000  0.120553  1
  Zr  Zr9  1  0.500000  0.000000  0.879447  1
  Zr  Zr10  1  0.500000  0.000000  0.379447  1
  Zr  Zr11  1  0.000000  0.500000  0.620553  1
  F  F12  1  0.200681  0.186278  0.388925  1
  F  F13  1  0.799319  0.813722  0.388925  1
  F  F14  1  0.186278  0.799319  0.611075  1
  F  F15  1  0.299319  0.686278  0.111075  1
  F  F16  1  0.813722  0.200681  0.611075  1
  F  F17  1  0.700681  0.313722  0.111075  1
  F  F18  1  0.313722  0.299319  0.888925  1
  F  F19  1  0.686278  0.700681  0.888925  1
  F  F20  1  0.141428  0.303823  0.193636  1
  F  F21  1  0.858572  0.696177  0.193636  1
  F  F22  1  0.303823  0.858572  0.806364  1
  F  F23  1  0.358572  0.803823  0.306364  1
  F  F24  1  0.696177  0.141428  0.806364  1
  F  F25  1  0.641428  0.196177  0.306364  1
  F  F26  1  0.196177  0.358572  0.693636  1
  F  F27  1  0.803823  0.641428  0.693636  1
  F  F28  1  0.122035  0.267296  0.049881  1
  F  F29  1  0.877965  0.732704  0.049881  1
  F  F30  1  0.267296  0.877965  0.950119  1
  F  F31  1  0.377965  0.767296  0.450119  1
  F  F32  1  0.732704  0.122035  0.950119  1
  F  F33  1  0.622035  0.232704  0.450119  1
  F  F34  1  0.232704  0.377965  0.549881  1
  F  F35  1  0.767296  0.622035  0.549881  1
