# generated using pymatgen
data_Dy10Ho10Co3Bi8Os
_symmetry_space_group_name_H-M   'P 1'
_cell_length_a   7.97370284
_cell_length_b   8.91654700
_cell_length_c   12.41112437
_cell_angle_alpha   90.00000000
_cell_angle_beta   89.72168756
_cell_angle_gamma   90.00000000
_symmetry_Int_Tables_number   1
_chemical_formula_structural   Dy10Ho10Co3Bi8Os
_chemical_formula_sum   'Dy10 Ho10 Co3 Bi8 Os1'
_cell_volume   882.39442094
_cell_formula_units_Z   1
loop_
 _symmetry_equiv_pos_site_id
 _symmetry_equiv_pos_as_xyz
  1  'x, y, z'
loop_
 _atom_site_type_symbol
 _atom_site_label
 _atom_site_symmetry_multiplicity
 _atom_site_fract_x
 _atom_site_fract_y
 _atom_site_fract_z
 _atom_site_occupancy
  Dy  Dy0  1  0.345991  0.750000  0.700617  1
  Dy  Dy1  1  0.653323  0.250000  0.300752  1
  Dy  Dy2  1  0.847161  0.250000  0.800155  1
  Dy  Dy3  1  0.155137  0.750000  0.205890  1
  Dy  Dy4  1  0.881036  0.750000  0.805803  1
  Dy  Dy5  1  0.114464  0.250000  0.189173  1
  Dy  Dy6  1  0.385176  0.250000  0.688299  1
  Dy  Dy7  1  0.614675  0.750000  0.312636  1
  Dy  Dy8  1  0.052784  0.750000  0.497924  1
  Dy  Dy9  1  0.947114  0.250000  0.502458  1
  Ho  Ho10  1  0.674827  0.537213  0.562979  1
  Ho  Ho11  1  0.324667  0.461390  0.437009  1
  Ho  Ho12  1  0.176222  0.457604  0.935648  1
  Ho  Ho13  1  0.324667  0.038610  0.437009  1
  Ho  Ho14  1  0.824442  0.537281  0.063623  1
  Ho  Ho15  1  0.674827  0.962787  0.562979  1
  Ho  Ho16  1  0.824442  0.962719  0.063623  1
  Ho  Ho17  1  0.176222  0.042396  0.935648  1
  Ho  Ho18  1  0.554708  0.250000  0.002744  1
  Ho  Ho19  1  0.444352  0.750000  0.996895  1
  Co  Co20  1  0.930894  0.250000  0.008849  1
  Co  Co21  1  0.565152  0.250000  0.507925  1
  Co  Co22  1  0.433820  0.750000  0.492340  1
  Bi  Bi23  1  0.571581  0.508833  0.826475  1
  Bi  Bi24  1  0.429583  0.490502  0.173256  1
  Bi  Bi25  1  0.071906  0.490235  0.672412  1
  Bi  Bi26  1  0.429583  0.009498  0.173256  1
  Bi  Bi27  1  0.927868  0.509005  0.327279  1
  Bi  Bi28  1  0.571581  0.991167  0.826475  1
  Bi  Bi29  1  0.927868  0.990995  0.327279  1
  Bi  Bi30  1  0.071906  0.009765  0.672412  1
  Os  Os31  1  0.072022  0.750000  0.990176  1
