# generated using pymatgen
data_Dy7Lu(ScBi3)2
_symmetry_space_group_name_H-M   'P 1'
_cell_length_a   8.12576759
_cell_length_b   9.42867202
_cell_length_c   11.96490421
_cell_angle_alpha   90.00362919
_cell_angle_beta   89.89276823
_cell_angle_gamma   89.99355553
_symmetry_Int_Tables_number   1
_chemical_formula_structural   Dy7Lu(ScBi3)2
_chemical_formula_sum   'Dy14 Lu2 Sc4 Bi12'
_cell_volume   916.69188667
_cell_formula_units_Z   2
loop_
 _symmetry_equiv_pos_site_id
 _symmetry_equiv_pos_as_xyz
  1  'x, y, z'
loop_
 _atom_site_type_symbol
 _atom_site_label
 _atom_site_symmetry_multiplicity
 _atom_site_fract_x
 _atom_site_fract_y
 _atom_site_fract_z
 _atom_site_occupancy
  Dy  Dy0  1  0.355782  0.250252  0.284393  1
  Dy  Dy1  1  0.644218  0.749748  0.715607  1
  Dy  Dy2  1  0.145802  0.749421  0.783744  1
  Dy  Dy3  1  0.854198  0.250579  0.216256  1
  Dy  Dy4  1  0.185181  0.249995  0.780509  1
  Dy  Dy5  1  0.814819  0.750005  0.219491  1
  Dy  Dy6  1  0.314474  0.749505  0.281039  1
  Dy  Dy7  1  0.685526  0.250495  0.718961  1
  Dy  Dy8  1  0.195044  0.064999  0.058341  1
  Dy  Dy9  1  0.804956  0.935001  0.941659  1
  Dy  Dy10  1  0.305219  0.934862  0.557987  1
  Dy  Dy11  1  0.804689  0.564778  0.941665  1
  Dy  Dy12  1  0.694781  0.065138  0.442013  1
  Dy  Dy13  1  0.195311  0.435222  0.058335  1
  Lu  Lu14  1  0.696415  0.433026  0.441707  1
  Lu  Lu15  1  0.303585  0.566974  0.558293  1
  Sc  Sc16  1  0.024129  0.250257  0.512201  1
  Sc  Sc17  1  0.975871  0.749743  0.487799  1
  Sc  Sc18  1  0.475144  0.750403  0.012309  1
  Sc  Sc19  1  0.524856  0.249597  0.987691  1
  Bi  Bi20  1  0.401058  0.253626  0.543017  1
  Bi  Bi21  1  0.598942  0.746374  0.456983  1
  Bi  Bi22  1  0.098712  0.750059  0.042754  1
  Bi  Bi23  1  0.901288  0.249941  0.957246  1
  Bi  Bi24  1  0.065711  0.003855  0.330953  1
  Bi  Bi25  1  0.934289  0.996145  0.669047  1
  Bi  Bi26  1  0.434404  0.996118  0.830483  1
  Bi  Bi27  1  0.935165  0.503994  0.668577  1
  Bi  Bi28  1  0.565596  0.003882  0.169517  1
  Bi  Bi29  1  0.064835  0.496006  0.331423  1
  Bi  Bi30  1  0.565587  0.496156  0.169700  1
  Bi  Bi31  1  0.434413  0.503844  0.830300  1
