# generated using pymatgen
data_Tb6Dy2Nb12Si15Ge
_symmetry_space_group_name_H-M   'P 1'
_cell_length_a   6.89537286
_cell_length_b   7.09083555
_cell_length_c   13.47055851
_cell_angle_alpha   90.02912172
_cell_angle_beta   89.92710238
_cell_angle_gamma   90.02056101
_symmetry_Int_Tables_number   1
_chemical_formula_structural   Tb6Dy2Nb12Si15Ge
_chemical_formula_sum   'Tb6 Dy2 Nb12 Si15 Ge1'
_cell_volume   658.62822070
_cell_formula_units_Z   1
loop_
 _symmetry_equiv_pos_site_id
 _symmetry_equiv_pos_as_xyz
  1  'x, y, z'
loop_
 _atom_site_type_symbol
 _atom_site_label
 _atom_site_symmetry_multiplicity
 _atom_site_fract_x
 _atom_site_fract_y
 _atom_site_fract_z
 _atom_site_occupancy
  Tb  Tb0  1  0.502957  0.328795  0.095749  1
  Tb  Tb1  1  0.001935  0.170898  0.403883  1
  Tb  Tb2  1  0.500059  0.673052  0.596420  1
  Tb  Tb3  1  0.997027  0.828659  0.904679  1
  Tb  Tb4  1  0.496968  0.671136  0.904544  1
  Tb  Tb5  1  0.996934  0.829407  0.595934  1
  Dy  Dy6  1  0.503390  0.327377  0.403263  1
  Dy  Dy7  1  0.002819  0.171657  0.095634  1
  Nb  Nb8  1  0.664494  0.008968  0.750182  1
  Nb  Nb9  1  0.164396  0.490169  0.751890  1
  Nb  Nb10  1  0.335143  0.991201  0.249748  1
  Nb  Nb11  1  0.835438  0.509126  0.249874  1
  Nb  Nb12  1  0.836413  0.324367  0.626029  1
  Nb  Nb13  1  0.338202  0.175012  0.874588  1
  Nb  Nb14  1  0.161686  0.675298  0.125535  1
  Nb  Nb15  1  0.661338  0.825222  0.373882  1
  Nb  Nb16  1  0.160197  0.677575  0.372755  1
  Nb  Nb17  1  0.661037  0.824733  0.125484  1
  Nb  Nb18  1  0.838277  0.324647  0.874598  1
  Nb  Nb19  1  0.340895  0.171637  0.626863  1
  Si  Si20  1  0.797382  0.624962  0.750195  1
  Si  Si21  1  0.296335  0.873902  0.750573  1
  Si  Si22  1  0.203082  0.374770  0.249715  1
  Si  Si23  1  0.703255  0.125279  0.249578  1
  Si  Si24  1  0.543025  0.375882  0.750408  1
  Si  Si25  1  0.043041  0.124443  0.750073  1
  Si  Si26  1  0.456638  0.624120  0.249928  1
  Si  Si27  1  0.955939  0.876426  0.249010  1
  Si  Si28  1  0.663353  0.038138  0.540095  1
  Si  Si29  1  0.162608  0.462210  0.959593  1
  Si  Si30  1  0.336640  0.962762  0.040669  1
  Si  Si31  1  0.832903  0.538262  0.458524  1
  Si  Si32  1  0.336806  0.962290  0.459450  1
  Si  Si33  1  0.837423  0.537392  0.040826  1
  Si  Si34  1  0.662968  0.037643  0.959520  1
  Ge  Ge35  1  0.168997  0.462587  0.540309  1
