# generated using pymatgen
data_Ca10CuAg2Rh3
_symmetry_space_group_name_H-M   'P 1'
_cell_length_a   9.09598673
_cell_length_b   9.09598602
_cell_length_c   9.11261700
_cell_angle_alpha   129.59095321
_cell_angle_beta   129.59094952
_cell_angle_gamma   73.92264175
_symmetry_Int_Tables_number   1
_chemical_formula_structural   Ca10CuAg2Rh3
_chemical_formula_sum   'Ca10 Cu1 Ag2 Rh3'
_cell_volume   437.00197758
_cell_formula_units_Z   1
loop_
 _symmetry_equiv_pos_site_id
 _symmetry_equiv_pos_as_xyz
  1  'x, y, z'
loop_
 _atom_site_type_symbol
 _atom_site_label
 _atom_site_symmetry_multiplicity
 _atom_site_fract_x
 _atom_site_fract_y
 _atom_site_fract_z
 _atom_site_occupancy
  Ca  Ca0  1  0.462585  0.962585  0.158766  1
  Ca  Ca1  1  0.196183  0.696183  0.158766  1
  Ca  Ca2  1  0.527045  0.027045  0.823261  1
  Ca  Ca3  1  0.042376  0.196819  0.508570  1
  Ca  Ca4  1  0.696819  0.542376  0.508570  1
  Ca  Ca5  1  0.966194  0.811751  0.508570  1
  Ca  Ca6  1  0.001882  0.996103  0.997984  1
  Ca  Ca7  1  0.496103  0.501882  0.997984  1
  Ca  Ca8  1  0.796215  0.296215  0.823261  1
  Ca  Ca9  1  0.311751  0.466194  0.508570  1
  Cu  Cu10  1  0.882620  0.382620  0.265242  1
  Ag  Ag11  1  0.752213  0.752213  0.004427  1
  Ag  Ag12  1  0.252213  0.252213  0.004427  1
  Rh  Rh13  1  0.117110  0.617110  0.734220  1
  Rh  Rh14  1  0.625529  0.873163  0.498692  1
  Rh  Rh15  1  0.373163  0.125529  0.498692  1
