# generated using pymatgen
data_Nd4HoIrPt2
_symmetry_space_group_name_H-M   'P 1'
_cell_length_a   11.36194000
_cell_length_b   11.36194000
_cell_length_c   6.48076200
_cell_angle_alpha   90.00000000
_cell_angle_beta   90.00000000
_cell_angle_gamma   90.00000000
_symmetry_Int_Tables_number   1
_chemical_formula_structural   Nd4HoIrPt2
_chemical_formula_sum   'Nd16 Ho4 Ir4 Pt8'
_cell_volume   836.62541944
_cell_formula_units_Z   4
loop_
 _symmetry_equiv_pos_site_id
 _symmetry_equiv_pos_as_xyz
  1  'x, y, z'
loop_
 _atom_site_type_symbol
 _atom_site_label
 _atom_site_symmetry_multiplicity
 _atom_site_fract_x
 _atom_site_fract_y
 _atom_site_fract_z
 _atom_site_occupancy
  Nd  Nd0  1  0.292354  0.087628  0.375331  1
  Nd  Nd1  1  0.292354  0.912372  0.875331  1
  Nd  Nd2  1  0.707646  0.087628  0.875331  1
  Nd  Nd3  1  0.707646  0.912372  0.375331  1
  Nd  Nd4  1  0.587628  0.792354  0.875331  1
  Nd  Nd5  1  0.587628  0.207646  0.375331  1
  Nd  Nd6  1  0.412372  0.792354  0.375331  1
  Nd  Nd7  1  0.412372  0.207646  0.875331  1
  Nd  Nd8  1  0.207646  0.412372  0.624669  1
  Nd  Nd9  1  0.207646  0.587628  0.124669  1
  Nd  Nd10  1  0.792354  0.412372  0.124669  1
  Nd  Nd11  1  0.792354  0.587628  0.624669  1
  Nd  Nd12  1  0.912372  0.707646  0.124669  1
  Nd  Nd13  1  0.912372  0.292354  0.624669  1
  Nd  Nd14  1  0.087628  0.707646  0.624669  1
  Nd  Nd15  1  0.087628  0.292354  0.124669  1
  Ho  Ho16  1  0.000000  0.000000  0.500000  1
  Ho  Ho17  1  0.000000  0.000000  0.000000  1
  Ho  Ho18  1  0.500000  0.500000  0.000000  1
  Ho  Ho19  1  0.500000  0.500000  0.500000  1
  Ir  Ir20  1  0.500000  0.000000  0.116466  1
  Ir  Ir21  1  0.500000  0.000000  0.616466  1
  Ir  Ir22  1  0.000000  0.500000  0.883534  1
  Ir  Ir23  1  0.000000  0.500000  0.383534  1
  Pt  Pt24  1  0.851359  0.148641  0.250000  1
  Pt  Pt25  1  0.851359  0.851359  0.750000  1
  Pt  Pt26  1  0.148641  0.148641  0.750000  1
  Pt  Pt27  1  0.148641  0.851359  0.250000  1
  Pt  Pt28  1  0.648641  0.351359  0.750000  1
  Pt  Pt29  1  0.648641  0.648641  0.250000  1
  Pt  Pt30  1  0.351359  0.351359  0.250000  1
  Pt  Pt31  1  0.351359  0.648641  0.750000  1
