# generated using pymatgen
data_Hf5Nb5CuSn6Ge
_symmetry_space_group_name_H-M   'P 1'
_cell_length_a   8.47054188
_cell_length_b   8.47371196
_cell_length_c   5.70333228
_cell_angle_alpha   89.93852401
_cell_angle_beta   90.12299130
_cell_angle_gamma   119.98762152
_symmetry_Int_Tables_number   1
_chemical_formula_structural   Hf5Nb5CuSn6Ge
_chemical_formula_sum   'Hf5 Nb5 Cu1 Sn6 Ge1'
_cell_volume   354.56621792
_cell_formula_units_Z   1
loop_
 _symmetry_equiv_pos_site_id
 _symmetry_equiv_pos_as_xyz
  1  'x, y, z'
loop_
 _atom_site_type_symbol
 _atom_site_label
 _atom_site_symmetry_multiplicity
 _atom_site_fract_x
 _atom_site_fract_y
 _atom_site_fract_z
 _atom_site_occupancy
  Hf  Hf0  1  0.262525  0.264550  0.748868  1
  Hf  Hf1  1  0.997974  0.735450  0.748868  1
  Hf  Hf2  1  0.996931  0.268732  0.252291  1
  Hf  Hf3  1  0.728199  0.731268  0.252291  1
  Hf  Hf4  1  0.739534  0.000000  0.748793  1
  Nb  Nb5  1  0.333457  0.665832  0.999548  1
  Nb  Nb6  1  0.666974  0.333462  0.499790  1
  Nb  Nb7  1  0.667626  0.334168  0.999548  1
  Nb  Nb8  1  0.333512  0.666538  0.499790  1
  Nb  Nb9  1  0.270972  0.000000  0.251100  1
  Cu  Cu10  1  0.004410  0.000000  0.486914  1
  Sn  Sn11  1  0.606641  0.000000  0.251186  1
  Sn  Sn12  1  0.607080  0.607578  0.748595  1
  Sn  Sn13  1  0.999501  0.392422  0.748595  1
  Sn  Sn14  1  0.001785  0.614699  0.251458  1
  Sn  Sn15  1  0.387087  0.385301  0.251458  1
  Sn  Sn16  1  0.391146  0.000000  0.748393  1
  Ge  Ge17  1  0.004649  0.000000  0.012513  1
