# generated using pymatgen
data_NdSc(TaS2)8
_symmetry_space_group_name_H-M   'P 1'
_cell_length_a   6.65586600
_cell_length_b   6.65586647
_cell_length_c   13.33155800
_cell_angle_alpha   90.00000000
_cell_angle_beta   90.00000000
_cell_angle_gamma   120.00000763
_symmetry_Int_Tables_number   1
_chemical_formula_structural   NdSc(TaS2)8
_chemical_formula_sum   'Nd1 Sc1 Ta8 S16'
_cell_volume   511.47059993
_cell_formula_units_Z   1
loop_
 _symmetry_equiv_pos_site_id
 _symmetry_equiv_pos_as_xyz
  1  'x, y, z'
loop_
 _atom_site_type_symbol
 _atom_site_label
 _atom_site_symmetry_multiplicity
 _atom_site_fract_x
 _atom_site_fract_y
 _atom_site_fract_z
 _atom_site_occupancy
  Nd  Nd0  1  0.000000  0.000000  0.500000  1
  Sc  Sc1  1  0.000000  0.000000  0.000000  1
  Ta  Ta2  1  0.505070  0.494930  0.764428  1
  Ta  Ta3  1  0.010139  0.505070  0.235572  1
  Ta  Ta4  1  0.494930  0.989861  0.235572  1
  Ta  Ta5  1  0.505070  0.010139  0.764428  1
  Ta  Ta6  1  0.989861  0.494930  0.764428  1
  Ta  Ta7  1  0.494930  0.505070  0.235572  1
  Ta  Ta8  1  0.000000  0.000000  0.762837  1
  Ta  Ta9  1  0.000000  0.000000  0.237163  1
  S  S10  1  0.829477  0.170523  0.352623  1
  S  S11  1  0.829477  0.658954  0.352623  1
  S  S12  1  0.341046  0.170523  0.352623  1
  S  S13  1  0.661633  0.830816  0.880491  1
  S  S14  1  0.170523  0.341046  0.647377  1
  S  S15  1  0.169184  0.830816  0.880491  1
  S  S16  1  0.169184  0.338367  0.880491  1
  S  S17  1  0.830816  0.169184  0.119509  1
  S  S18  1  0.338367  0.169184  0.119509  1
  S  S19  1  0.658954  0.829477  0.647377  1
  S  S20  1  0.333333  0.666667  0.115421  1
  S  S21  1  0.666667  0.333333  0.643244  1
  S  S22  1  0.666667  0.333333  0.884579  1
  S  S23  1  0.333333  0.666667  0.356756  1
  S  S24  1  0.830816  0.661633  0.119509  1
  S  S25  1  0.170523  0.829477  0.647377  1
