# generated using pymatgen
data_Li2PrAu4
_symmetry_space_group_name_H-M   'P 1'
_cell_length_a   5.70067460
_cell_length_b   5.70067492
_cell_length_c   5.70067400
_cell_angle_alpha   102.98867602
_cell_angle_beta   102.98867677
_cell_angle_gamma   123.40015197
_symmetry_Int_Tables_number   1
_chemical_formula_structural   Li2PrAu4
_chemical_formula_sum   'Li2 Pr1 Au4'
_cell_volume   136.17702367
_cell_formula_units_Z   1
loop_
 _symmetry_equiv_pos_site_id
 _symmetry_equiv_pos_as_xyz
  1  'x, y, z'
loop_
 _atom_site_type_symbol
 _atom_site_label
 _atom_site_symmetry_multiplicity
 _atom_site_fract_x
 _atom_site_fract_y
 _atom_site_fract_z
 _atom_site_occupancy
  Li  Li0  1  0.250000  0.750000  0.500000  1
  Li  Li1  1  0.750000  0.250000  0.500000  1
  Pr  Pr2  1  0.000000  0.000000  0.000000  1
  Au  Au3  1  0.299326  0.299326  0.598651  1
  Au  Au4  1  0.700674  0.700674  0.401349  1
  Au  Au5  1  0.700674  0.299326  0.000000  1
  Au  Au6  1  0.299326  0.700674  0.000000  1
