# generated using pymatgen
data_La10(GaPb)3
_symmetry_space_group_name_H-M   'P 1'
_cell_length_a   8.49504990
_cell_length_b   8.49504990
_cell_length_c   14.28187747
_cell_angle_alpha   89.90164959
_cell_angle_beta   89.90164959
_cell_angle_gamma   91.18464464
_symmetry_Int_Tables_number   1
_chemical_formula_structural   La10(GaPb)3
_chemical_formula_sum   'La20 Ga6 Pb6'
_cell_volume   1030.44075847
_cell_formula_units_Z   2
loop_
 _symmetry_equiv_pos_site_id
 _symmetry_equiv_pos_as_xyz
  1  'x, y, z'
loop_
 _atom_site_type_symbol
 _atom_site_label
 _atom_site_symmetry_multiplicity
 _atom_site_fract_x
 _atom_site_fract_y
 _atom_site_fract_z
 _atom_site_occupancy
  La  La0  1  0.478728  0.986149  0.763867  1
  La  La1  1  0.319154  0.321793  0.108094  1
  La  La2  1  0.824052  0.818499  0.891793  1
  La  La3  1  0.021272  0.513851  0.236133  1
  La  La4  1  0.849958  0.154293  0.404356  1
  La  La5  1  0.180846  0.178207  0.891906  1
  La  La6  1  0.675948  0.681501  0.108207  1
  La  La7  1  0.013851  0.521272  0.736133  1
  La  La8  1  0.821793  0.819154  0.608094  1
  La  La9  1  0.318499  0.324052  0.391793  1
  La  La10  1  0.160503  0.848810  0.093934  1
  La  La11  1  0.181501  0.175948  0.608207  1
  La  La12  1  0.845707  0.150042  0.095644  1
  La  La13  1  0.348810  0.660503  0.593934  1
  La  La14  1  0.486149  0.978728  0.263867  1
  La  La15  1  0.654293  0.349958  0.904356  1
  La  La16  1  0.650042  0.345707  0.595644  1
  La  La17  1  0.339497  0.651190  0.906066  1
  La  La18  1  0.151190  0.839497  0.406066  1
  La  La19  1  0.678207  0.680846  0.391906  1
  Ga  Ga20  1  0.885243  0.883400  0.249932  1
  Ga  Ga21  1  0.125464  0.874536  0.750000  1
  Ga  Ga22  1  0.383400  0.385243  0.749932  1
  Ga  Ga23  1  0.116600  0.114757  0.250068  1
  Ga  Ga24  1  0.374536  0.625464  0.250000  1
  Ga  Ga25  1  0.614757  0.616600  0.750068  1
  Pb  Pb26  1  0.639962  0.360038  0.250000  1
  Pb  Pb27  1  0.860038  0.139962  0.750000  1
  Pb  Pb28  1  0.502500  0.003838  0.505070  1
  Pb  Pb29  1  0.996162  0.497500  0.994930  1
  Pb  Pb30  1  0.503838  0.002500  0.005070  1
  Pb  Pb31  1  0.997500  0.496162  0.494930  1
