# generated using pymatgen
data_SrPr6RuI12
_symmetry_space_group_name_H-M   'P 1'
_cell_length_a   10.13353554
_cell_length_b   10.13353509
_cell_length_c   10.13353706
_cell_angle_alpha   106.39223682
_cell_angle_beta   106.39222556
_cell_angle_gamma   106.39223351
_symmetry_Int_Tables_number   1
_chemical_formula_structural   SrPr6RuI12
_chemical_formula_sum   'Sr1 Pr6 Ru1 I12'
_cell_volume   880.59302022
_cell_formula_units_Z   1
loop_
 _symmetry_equiv_pos_site_id
 _symmetry_equiv_pos_as_xyz
  1  'x, y, z'
loop_
 _atom_site_type_symbol
 _atom_site_label
 _atom_site_symmetry_multiplicity
 _atom_site_fract_x
 _atom_site_fract_y
 _atom_site_fract_z
 _atom_site_occupancy
  Sr  Sr0  1  0.500000  0.500000  0.500000  1
  Pr  Pr1  1  0.979891  0.904552  0.700404  1
  Pr  Pr2  1  0.020109  0.095448  0.299596  1
  Pr  Pr3  1  0.095448  0.299596  0.020109  1
  Pr  Pr4  1  0.299596  0.020109  0.095448  1
  Pr  Pr5  1  0.904552  0.700404  0.979891  1
  Pr  Pr6  1  0.700404  0.979891  0.904552  1
  Ru  Ru7  1  0.000000  0.000000  0.000000  1
  I  I8  1  0.547774  0.628959  0.856484  1
  I  I9  1  0.452226  0.371041  0.143516  1
  I  I10  1  0.321494  0.926148  0.774028  1
  I  I11  1  0.371041  0.143516  0.452226  1
  I  I12  1  0.926148  0.774028  0.321494  1
  I  I13  1  0.678506  0.073852  0.225972  1
  I  I14  1  0.073852  0.225972  0.678506  1
  I  I15  1  0.774028  0.321494  0.926148  1
  I  I16  1  0.225972  0.678506  0.073852  1
  I  I17  1  0.856484  0.547774  0.628959  1
  I  I18  1  0.143516  0.452226  0.371041  1
  I  I19  1  0.628959  0.856484  0.547774  1
