# generated using pymatgen
data_Ho3Er2MoRhO12
_symmetry_space_group_name_H-M   'P 1'
_cell_length_a   6.80886793
_cell_length_b   6.81057098
_cell_length_c   7.42658004
_cell_angle_alpha   73.94719238
_cell_angle_beta   73.94429533
_cell_angle_gamma   49.93502577
_symmetry_Int_Tables_number   1
_chemical_formula_structural   Ho3Er2MoRhO12
_chemical_formula_sum   'Ho3 Er2 Mo1 Rh1 O12'
_cell_volume   251.00192075
_cell_formula_units_Z   1
loop_
 _symmetry_equiv_pos_site_id
 _symmetry_equiv_pos_as_xyz
  1  'x, y, z'
loop_
 _atom_site_type_symbol
 _atom_site_label
 _atom_site_symmetry_multiplicity
 _atom_site_fract_x
 _atom_site_fract_y
 _atom_site_fract_z
 _atom_site_occupancy
  Ho  Ho0  1  0.317252  0.286975  0.358845  1
  Ho  Ho1  1  0.712948  0.682883  0.640631  1
  Ho  Ho2  1  0.318577  0.305604  0.827193  1
  Er  Er3  1  0.694302  0.681486  0.173121  1
  Er  Er4  1  0.007917  0.992200  0.499820  1
  Mo  Mo5  1  0.203924  0.796053  0.000113  1
  Rh  Rh6  1  0.754567  0.245375  0.000139  1
  O  O7  1  0.911140  0.437995  0.913968  1
  O  O8  1  0.415397  0.903692  0.915742  1
  O  O9  1  0.095275  0.585289  0.084915  1
  O  O10  1  0.563265  0.086953  0.087117  1
  O  O11  1  0.108459  0.593002  0.568412  1
  O  O12  1  0.601667  0.087940  0.576210  1
  O  O13  1  0.911433  0.399038  0.422808  1
  O  O14  1  0.407569  0.890965  0.430771  1
  O  O15  1  0.998006  0.998766  0.799174  1
  O  O16  1  0.001200  0.002068  0.200823  1
  O  O17  1  0.488659  0.512103  0.819432  1
  O  O18  1  0.488442  0.511613  0.180766  1
