# generated using pymatgen
data_Yb3(GePt)2
_symmetry_space_group_name_H-M   'P 1'
_cell_length_a   5.59230100
_cell_length_b   8.14653400
_cell_length_c   13.28049500
_cell_angle_alpha   90.00000000
_cell_angle_beta   90.00000000
_cell_angle_gamma   90.00000000
_symmetry_Int_Tables_number   1
_chemical_formula_structural   Yb3(GePt)2
_chemical_formula_sum   'Yb12 Ge8 Pt8'
_cell_volume   605.03106786
_cell_formula_units_Z   4
loop_
 _symmetry_equiv_pos_site_id
 _symmetry_equiv_pos_as_xyz
  1  'x, y, z'
loop_
 _atom_site_type_symbol
 _atom_site_label
 _atom_site_symmetry_multiplicity
 _atom_site_fract_x
 _atom_site_fract_y
 _atom_site_fract_z
 _atom_site_occupancy
  Yb  Yb0  1  0.144256  0.609966  0.101594  1
  Yb  Yb1  1  0.144256  0.890034  0.898406  1
  Yb  Yb2  1  0.855744  0.109966  0.398406  1
  Yb  Yb3  1  0.855744  0.390034  0.601594  1
  Yb  Yb4  1  0.855744  0.390034  0.898406  1
  Yb  Yb5  1  0.855744  0.109966  0.101594  1
  Yb  Yb6  1  0.144256  0.890034  0.601594  1
  Yb  Yb7  1  0.144256  0.609966  0.398406  1
  Yb  Yb8  1  0.364204  0.248162  0.250000  1
  Yb  Yb9  1  0.364204  0.251838  0.750000  1
  Yb  Yb10  1  0.635796  0.748162  0.250000  1
  Yb  Yb11  1  0.635796  0.751838  0.750000  1
  Ge  Ge12  1  0.864446  0.398599  0.250000  1
  Ge  Ge13  1  0.864446  0.101401  0.750000  1
  Ge  Ge14  1  0.135554  0.898599  0.250000  1
  Ge  Ge15  1  0.135554  0.601401  0.750000  1
  Ge  Ge16  1  0.367169  0.250000  0.000000  1
  Ge  Ge17  1  0.632831  0.750000  0.500000  1
  Ge  Ge18  1  0.632831  0.750000  0.000000  1
  Ge  Ge19  1  0.367169  0.250000  0.500000  1
  Pt  Pt20  1  0.630495  0.466036  0.091759  1
  Pt  Pt21  1  0.630495  0.033964  0.908241  1
  Pt  Pt22  1  0.369505  0.966036  0.408241  1
  Pt  Pt23  1  0.369505  0.533964  0.591759  1
  Pt  Pt24  1  0.369505  0.533964  0.908241  1
  Pt  Pt25  1  0.369505  0.966036  0.091759  1
  Pt  Pt26  1  0.630495  0.033964  0.591759  1
  Pt  Pt27  1  0.630495  0.466036  0.408241  1
