# generated using pymatgen
data_Y3Lu(ScSb)6
_symmetry_space_group_name_H-M   'P 1'
_cell_length_a   7.77151800
_cell_length_b   8.91606800
_cell_length_c   11.60985400
_cell_angle_alpha   90.00000000
_cell_angle_beta   90.00000000
_cell_angle_gamma   90.00000000
_symmetry_Int_Tables_number   1
_chemical_formula_structural   Y3Lu(ScSb)6
_chemical_formula_sum   'Y6 Lu2 Sc12 Sb12'
_cell_volume   804.46283952
_cell_formula_units_Z   2
loop_
 _symmetry_equiv_pos_site_id
 _symmetry_equiv_pos_as_xyz
  1  'x, y, z'
loop_
 _atom_site_type_symbol
 _atom_site_label
 _atom_site_symmetry_multiplicity
 _atom_site_fract_x
 _atom_site_fract_y
 _atom_site_fract_z
 _atom_site_occupancy
  Y  Y0  1  0.184190  0.750000  0.722075  1
  Y  Y1  1  0.684190  0.750000  0.777925  1
  Y  Y2  1  0.817215  0.250000  0.278326  1
  Y  Y3  1  0.317215  0.250000  0.221674  1
  Y  Y4  1  0.850697  0.750000  0.283989  1
  Y  Y5  1  0.350697  0.750000  0.216011  1
  Lu  Lu6  1  0.148928  0.250000  0.717516  1
  Lu  Lu7  1  0.648928  0.250000  0.782484  1
  Sc  Sc8  1  0.193613  0.562057  0.441921  1
  Sc  Sc9  1  0.693613  0.937943  0.058079  1
  Sc  Sc10  1  0.806329  0.062640  0.560319  1
  Sc  Sc11  1  0.306329  0.437360  0.939681  1
  Sc  Sc12  1  0.806329  0.437360  0.560319  1
  Sc  Sc13  1  0.306329  0.062640  0.939681  1
  Sc  Sc14  1  0.193613  0.937943  0.441921  1
  Sc  Sc15  1  0.693613  0.562057  0.058079  1
  Sc  Sc16  1  0.024340  0.750000  0.989828  1
  Sc  Sc17  1  0.524340  0.750000  0.510172  1
  Sc  Sc18  1  0.975797  0.250000  0.008222  1
  Sc  Sc19  1  0.475797  0.250000  0.491778  1
  Sb  Sb20  1  0.935885  0.493643  0.833030  1
  Sb  Sb21  1  0.435885  0.006357  0.666970  1
  Sb  Sb22  1  0.063607  0.996603  0.164957  1
  Sb  Sb23  1  0.563607  0.503397  0.335043  1
  Sb  Sb24  1  0.063607  0.503397  0.164957  1
  Sb  Sb25  1  0.563607  0.996603  0.335043  1
  Sb  Sb26  1  0.935885  0.006357  0.833030  1
  Sb  Sb27  1  0.435885  0.493643  0.666970  1
  Sb  Sb28  1  0.909011  0.750000  0.538972  1
  Sb  Sb29  1  0.409011  0.750000  0.961028  1
  Sb  Sb30  1  0.090953  0.250000  0.464392  1
  Sb  Sb31  1  0.590953  0.250000  0.035608  1
