# generated using pymatgen
data_AcNiSn2Ru
_symmetry_space_group_name_H-M   'P 1'
_cell_length_a   4.62590600
_cell_length_b   4.62590600
_cell_length_c   10.42324500
_cell_angle_alpha   90.00000000
_cell_angle_beta   90.00000000
_cell_angle_gamma   90.00000000
_symmetry_Int_Tables_number   1
_chemical_formula_structural   AcNiSn2Ru
_chemical_formula_sum   'Ac2 Ni2 Sn4 Ru2'
_cell_volume   223.04708564
_cell_formula_units_Z   2
loop_
 _symmetry_equiv_pos_site_id
 _symmetry_equiv_pos_as_xyz
  1  'x, y, z'
loop_
 _atom_site_type_symbol
 _atom_site_label
 _atom_site_symmetry_multiplicity
 _atom_site_fract_x
 _atom_site_fract_y
 _atom_site_fract_z
 _atom_site_occupancy
  Ac  Ac0  1  0.000000  0.500000  0.761912  1
  Ac  Ac1  1  0.500000  0.000000  0.238088  1
  Ni  Ni2  1  0.500000  0.000000  0.623580  1
  Ni  Ni3  1  0.000000  0.500000  0.376420  1
  Sn  Sn4  1  0.000000  0.500000  0.127262  1
  Sn  Sn5  1  0.500000  0.500000  0.500000  1
  Sn  Sn6  1  0.000000  0.000000  0.500000  1
  Sn  Sn7  1  0.500000  0.000000  0.872738  1
  Ru  Ru8  1  0.500000  0.500000  0.000000  1
  Ru  Ru9  1  0.000000  0.000000  0.000000  1
