# generated using pymatgen
data_Nd3ThAgIr
_symmetry_space_group_name_H-M   'P 1'
_cell_length_a   9.91816538
_cell_length_b   9.91816551
_cell_length_c   9.91816500
_cell_angle_alpha   59.99999838
_cell_angle_beta   59.99999793
_cell_angle_gamma   59.99999714
_symmetry_Int_Tables_number   1
_chemical_formula_structural   Nd3ThAgIr
_chemical_formula_sum   'Nd12 Th4 Ag4 Ir4'
_cell_volume   689.88866094
_cell_formula_units_Z   4
loop_
 _symmetry_equiv_pos_site_id
 _symmetry_equiv_pos_as_xyz
  1  'x, y, z'
loop_
 _atom_site_type_symbol
 _atom_site_label
 _atom_site_symmetry_multiplicity
 _atom_site_fract_x
 _atom_site_fract_y
 _atom_site_fract_z
 _atom_site_occupancy
  Nd  Nd0  1  0.808504  0.191496  0.191496  1
  Nd  Nd1  1  0.191496  0.808504  0.808504  1
  Nd  Nd2  1  0.191496  0.808504  0.191496  1
  Nd  Nd3  1  0.808504  0.191496  0.808504  1
  Nd  Nd4  1  0.191496  0.191496  0.808504  1
  Nd  Nd5  1  0.808504  0.808504  0.191496  1
  Nd  Nd6  1  0.936894  0.563106  0.563106  1
  Nd  Nd7  1  0.563106  0.936894  0.936894  1
  Nd  Nd8  1  0.563106  0.936894  0.563106  1
  Nd  Nd9  1  0.936894  0.563106  0.936894  1
  Nd  Nd10  1  0.563106  0.563106  0.936894  1
  Nd  Nd11  1  0.936894  0.936894  0.563106  1
  Th  Th12  1  0.347966  0.347966  0.347966  1
  Th  Th13  1  0.347966  0.347966  0.956104  1
  Th  Th14  1  0.347966  0.956104  0.347966  1
  Th  Th15  1  0.956104  0.347966  0.347966  1
  Ag  Ag16  1  0.580267  0.580267  0.580267  1
  Ag  Ag17  1  0.580267  0.580267  0.259196  1
  Ag  Ag18  1  0.580267  0.259196  0.580267  1
  Ag  Ag19  1  0.259196  0.580267  0.580267  1
  Ir  Ir20  1  0.145405  0.145405  0.145405  1
  Ir  Ir21  1  0.145405  0.145405  0.563784  1
  Ir  Ir22  1  0.145405  0.563784  0.145405  1
  Ir  Ir23  1  0.563784  0.145405  0.145405  1
