# generated using pymatgen
data_Cs7KNb4V4(PO5)8
_symmetry_space_group_name_H-M   'P 1'
_cell_length_a   6.55366600
_cell_length_b   10.94595500
_cell_length_c   13.15462500
_cell_angle_alpha   90.00000000
_cell_angle_beta   90.00000000
_cell_angle_gamma   90.00000000
_symmetry_Int_Tables_number   1
_chemical_formula_structural   Cs7KNb4V4(PO5)8
_chemical_formula_sum   'Cs7 K1 Nb4 V4 P8 O40'
_cell_volume   943.66193016
_cell_formula_units_Z   1
loop_
 _symmetry_equiv_pos_site_id
 _symmetry_equiv_pos_as_xyz
  1  'x, y, z'
loop_
 _atom_site_type_symbol
 _atom_site_label
 _atom_site_symmetry_multiplicity
 _atom_site_fract_x
 _atom_site_fract_y
 _atom_site_fract_z
 _atom_site_occupancy
  Cs  Cs0  1  0.710987  0.318427  0.890053  1
  Cs  Cs1  1  0.289020  0.823850  0.111020  1
  Cs  Cs2  1  0.215358  0.819855  0.614705  1
  Cs  Cs3  1  0.786471  0.319266  0.386668  1
  Cs  Cs4  1  0.819674  0.067349  0.604248  1
  Cs  Cs5  1  0.178544  0.566504  0.395890  1
  Cs  Cs6  1  0.321649  0.567429  0.895774  1
  K  K7  1  0.698564  0.065687  0.107145  1
  Nb  Nb8  1  0.001949  0.003333  0.874430  1
  Nb  Nb9  1  0.996163  0.501253  0.128177  1
  Nb  Nb10  1  0.506714  0.501718  0.628025  1
  Nb  Nb11  1  0.492252  0.002813  0.368321  1
  V  V12  1  0.244872  0.250969  0.746412  1
  V  V13  1  0.754164  0.750920  0.253596  1
  V  V14  1  0.745531  0.752473  0.754354  1
  V  V15  1  0.258484  0.249487  0.243814  1
  P  P16  1  0.000187  0.504292  0.683343  1
  P  P17  1  0.996906  0.005804  0.313716  1
  P  P18  1  0.498285  0.004774  0.821244  1
  P  P19  1  0.501214  0.503832  0.183099  1
  P  P20  1  0.170569  0.249362  0.000845  1
  P  P21  1  0.828227  0.751780  0.000562  1
  P  P22  1  0.670565  0.753278  0.499143  1
  P  P23  1  0.329366  0.250934  0.499284  1
  O  O24  1  0.454603  0.380449  0.721990  1
  O  O25  1  0.546152  0.879036  0.277188  1
  O  O26  1  0.951038  0.882217  0.779968  1
  O  O27  1  0.047255  0.378263  0.220790  1
  O  O28  1  0.045315  0.370015  0.014702  1
  O  O29  1  0.955770  0.871591  0.988063  1
  O  O30  1  0.540262  0.871847  0.483515  1
  O  O31  1  0.458255  0.370094  0.513973  1
  O  O32  1  0.317604  0.228526  0.090149  1
  O  O33  1  0.689436  0.733139  0.907509  1
  O  O34  1  0.812202  0.734718  0.407055  1
  O  O35  1  0.191195  0.231264  0.592556  1
  O  O36  1  0.038811  0.391092  0.749613  1
  O  O37  1  0.957581  0.892934  0.247465  1
  O  O38  1  0.538981  0.892222  0.754427  1
  O  O39  1  0.460627  0.390043  0.248492  1
  O  O40  1  0.540316  0.628680  0.719799  1
  O  O41  1  0.469374  0.125779  0.270913  1
  O  O42  1  0.035059  0.129050  0.781584  1
  O  O43  1  0.959693  0.627352  0.220644  1
  O  O44  1  0.957780  0.615144  0.752274  1
  O  O45  1  0.037709  0.116589  0.244084  1
  O  O46  1  0.459238  0.115044  0.750995  1
  O  O47  1  0.543062  0.613412  0.253264  1
  O  O48  1  0.816440  0.477992  0.610019  1
  O  O49  1  0.183891  0.980808  0.385434  1
  O  O50  1  0.310572  0.978309  0.891976  1
  O  O51  1  0.685582  0.477531  0.110319  1
  O  O52  1  0.289639  0.265503  0.900939  1
  O  O53  1  0.703614  0.768669  0.098674  1
  O  O54  1  0.792418  0.772134  0.598146  1
  O  O55  1  0.206743  0.267978  0.400724  1
  O  O56  1  0.189891  0.533663  0.616004  1
  O  O57  1  0.809647  0.034555  0.382530  1
  O  O58  1  0.683211  0.033398  0.892515  1
  O  O59  1  0.311628  0.533968  0.115888  1
  O  O60  1  0.016200  0.140726  0.993731  1
  O  O61  1  0.975397  0.640852  0.011071  1
  O  O62  1  0.525358  0.641463  0.510174  1
  O  O63  1  0.476739  0.140168  0.486973  1
