# generated using pymatgen
data_Sm7Dy(Pt2Pb)4
_symmetry_space_group_name_H-M   'P 1'
_cell_length_a   8.03066387
_cell_length_b   8.03066495
_cell_length_c   7.39408500
_cell_angle_alpha   90.00000000
_cell_angle_beta   90.00000000
_cell_angle_gamma   89.85468187
_symmetry_Int_Tables_number   1
_chemical_formula_structural   Sm7Dy(Pt2Pb)4
_chemical_formula_sum   'Sm7 Dy1 Pt8 Pb4'
_cell_volume   476.85462318
_cell_formula_units_Z   1
loop_
 _symmetry_equiv_pos_site_id
 _symmetry_equiv_pos_as_xyz
  1  'x, y, z'
loop_
 _atom_site_type_symbol
 _atom_site_label
 _atom_site_symmetry_multiplicity
 _atom_site_fract_x
 _atom_site_fract_y
 _atom_site_fract_z
 _atom_site_occupancy
  Sm  Sm0  1  0.674043  0.672453  0.000000  1
  Sm  Sm1  1  0.335278  0.336167  0.500000  1
  Sm  Sm2  1  0.827063  0.172937  0.500000  1
  Sm  Sm3  1  0.663833  0.664722  0.500000  1
  Sm  Sm4  1  0.327547  0.325957  0.000000  1
  Sm  Sm5  1  0.174565  0.825435  0.500000  1
  Sm  Sm6  1  0.834790  0.165210  0.000000  1
  Dy  Dy7  1  0.162642  0.837358  0.000000  1
  Pt  Pt8  1  0.874630  0.871825  0.742557  1
  Pt  Pt9  1  0.128175  0.125370  0.742557  1
  Pt  Pt10  1  0.626481  0.373519  0.758572  1
  Pt  Pt11  1  0.626481  0.373519  0.241428  1
  Pt  Pt12  1  0.370239  0.629761  0.234572  1
  Pt  Pt13  1  0.128175  0.125370  0.257443  1
  Pt  Pt14  1  0.874630  0.871825  0.257443  1
  Pt  Pt15  1  0.370239  0.629761  0.765428  1
  Pb  Pb16  1  0.499444  0.998849  0.751292  1
  Pb  Pb17  1  0.499444  0.998849  0.248708  1
  Pb  Pb18  1  0.001151  0.500556  0.751292  1
  Pb  Pb19  1  0.001151  0.500556  0.248708  1
