# generated using pymatgen
data_Hf6Ti2Nb2GaGe5
_symmetry_space_group_name_H-M   'P 1'
_cell_length_a   7.88712629
_cell_length_b   7.88712732
_cell_length_c   5.37443204
_cell_angle_alpha   90.00686158
_cell_angle_beta   90.00686731
_cell_angle_gamma   120.02129277
_symmetry_Int_Tables_number   1
_chemical_formula_structural   Hf6Ti2Nb2GaGe5
_chemical_formula_sum   'Hf6 Ti2 Nb2 Ga1 Ge5'
_cell_volume   289.47270447
_cell_formula_units_Z   1
loop_
 _symmetry_equiv_pos_site_id
 _symmetry_equiv_pos_as_xyz
  1  'x, y, z'
loop_
 _atom_site_type_symbol
 _atom_site_label
 _atom_site_symmetry_multiplicity
 _atom_site_fract_x
 _atom_site_fract_y
 _atom_site_fract_z
 _atom_site_occupancy
  Hf  Hf0  1  0.252043  0.000784  0.245892  1
  Hf  Hf1  1  0.748745  0.999390  0.753717  1
  Hf  Hf2  1  0.000784  0.252043  0.245892  1
  Hf  Hf3  1  0.999390  0.748745  0.753717  1
  Hf  Hf4  1  0.751067  0.751067  0.245915  1
  Hf  Hf5  1  0.250481  0.250481  0.753973  1
  Ti  Ti6  1  0.666997  0.331877  0.500032  1
  Ti  Ti7  1  0.331877  0.666997  0.500032  1
  Nb  Nb8  1  0.331857  0.667198  0.000155  1
  Nb  Nb9  1  0.667198  0.331857  0.000155  1
  Ga  Ga10  1  0.603291  0.603291  0.745473  1
  Ge  Ge11  1  0.605437  0.998927  0.254747  1
  Ge  Ge12  1  0.394428  0.000110  0.745342  1
  Ge  Ge13  1  0.998927  0.605437  0.254747  1
  Ge  Ge14  1  0.000110  0.394428  0.745342  1
  Ge  Ge15  1  0.397367  0.397367  0.254870  1
