# generated using pymatgen
data_MnGePb2(S2O7)6
_symmetry_space_group_name_H-M   'P 1'
_cell_length_a   9.33367031
_cell_length_b   9.54675016
_cell_length_c   11.13285866
_cell_angle_alpha   89.05739312
_cell_angle_beta   93.58064070
_cell_angle_gamma   118.48822894
_symmetry_Int_Tables_number   1
_chemical_formula_structural   MnGePb2(S2O7)6
_chemical_formula_sum   'Mn1 Ge1 Pb2 S12 O42'
_cell_volume   870.08727263
_cell_formula_units_Z   1
loop_
 _symmetry_equiv_pos_site_id
 _symmetry_equiv_pos_as_xyz
  1  'x, y, z'
loop_
 _atom_site_type_symbol
 _atom_site_label
 _atom_site_symmetry_multiplicity
 _atom_site_fract_x
 _atom_site_fract_y
 _atom_site_fract_z
 _atom_site_occupancy
  Mn  Mn0  1  0.020232  0.010728  0.743868  1
  Ge  Ge1  1  0.980394  0.989660  0.256441  1
  Pb  Pb2  1  0.314075  0.612102  0.627916  1
  Pb  Pb3  1  0.683218  0.386057  0.370764  1
  S  S4  1  0.802820  0.644994  0.677535  1
  S  S5  1  0.195786  0.351574  0.324395  1
  S  S6  1  0.363393  0.228923  0.652090  1
  S  S7  1  0.640580  0.774403  0.348620  1
  S  S8  1  0.305083  0.333182  0.874149  1
  S  S9  1  0.699682  0.671369  0.125413  1
  S  S10  1  0.071983  0.735581  0.857477  1
  S  S11  1  0.926741  0.259371  0.142567  1
  S  S12  1  0.893947  0.235775  0.623209  1
  S  S13  1  0.104028  0.764997  0.376559  1
  S  S14  1  0.683266  0.996426  0.786844  1
  S  S15  1  0.312796  0.003476  0.210940  1
  O  O16  1  0.077694  0.897469  0.867846  1
  O  O17  1  0.916711  0.094095  0.134582  1
  O  O18  1  0.918333  0.817366  0.647077  1
  O  O19  1  0.083616  0.177929  0.355453  1
  O  O20  1  0.218819  0.064003  0.661904  1
  O  O21  1  0.789781  0.938409  0.342075  1
  O  O22  1  0.420866  0.284220  0.793044  1
  O  O23  1  0.586892  0.723891  0.206564  1
  O  O24  1  0.780536  0.185480  0.737947  1
  O  O25  1  0.213593  0.814758  0.259714  1
  O  O26  1  0.877583  0.618338  0.808029  1
  O  O27  1  0.121632  0.372907  0.191846  1
  O  O28  1  0.824710  0.965207  0.826201  1
  O  O29  1  0.171157  0.037107  0.173864  1
  O  O30  1  0.946883  0.109335  0.615559  1
  O  O31  1  0.048785  0.890560  0.384098  1
  O  O32  1  0.316547  0.340546  0.596205  1
  O  O33  1  0.683543  0.659887  0.403764  1
  O  O34  1  0.132000  0.206617  0.837269  1
  O  O35  1  0.874316  0.797162  0.162019  1
  O  O36  1  0.174430  0.733480  0.766117  1
  O  O37  1  0.825342  0.263907  0.233773  1
  O  O38  1  0.328181  0.486902  0.832513  1
  O  O39  1  0.674844  0.517563  0.167472  1
  O  O40  1  0.796067  0.225619  0.515094  1
  O  O41  1  0.204993  0.777879  0.483141  1
  O  O42  1  0.820731  0.544551  0.590799  1
  O  O43  1  0.174036  0.452000  0.408440  1
  O  O44  1  0.354968  0.320368  0.995134  1
  O  O45  1  0.650274  0.684937  0.004606  1
  O  O46  1  0.081030  0.677589  0.974671  1
  O  O47  1  0.919420  0.316633  0.025223  1
  O  O48  1  0.585797  0.899393  0.684230  1
  O  O49  1  0.410878  0.100347  0.313384  1
  O  O50  1  0.606044  0.008985  0.889304  1
  O  O51  1  0.387990  0.989908  0.108089  1
  O  O52  1  0.495939  0.216759  0.604327  1
  O  O53  1  0.508933  0.789301  0.394318  1
  O  O54  1  0.024808  0.391428  0.659058  1
  O  O55  1  0.973074  0.608735  0.342769  1
  O  O56  1  0.641406  0.615415  0.699869  1
  O  O57  1  0.358797  0.384394  0.303820  1
