# generated using pymatgen
data_Er3Lu2Sn3P
_symmetry_space_group_name_H-M   'P 1'
_cell_length_a   8.95869700
_cell_length_b   8.95869695
_cell_length_c   6.59126300
_cell_angle_alpha   90.00000000
_cell_angle_beta   90.00000000
_cell_angle_gamma   119.99998909
_symmetry_Int_Tables_number   1
_chemical_formula_structural   Er3Lu2Sn3P
_chemical_formula_sum   'Er6 Lu4 Sn6 P2'
_cell_volume   458.13029812
_cell_formula_units_Z   2
loop_
 _symmetry_equiv_pos_site_id
 _symmetry_equiv_pos_as_xyz
  1  'x, y, z'
loop_
 _atom_site_type_symbol
 _atom_site_label
 _atom_site_symmetry_multiplicity
 _atom_site_fract_x
 _atom_site_fract_y
 _atom_site_fract_z
 _atom_site_occupancy
  Er  Er0  1  0.757983  0.757983  0.750000  1
  Er  Er1  1  0.242017  0.000000  0.750000  1
  Er  Er2  1  0.000000  0.242017  0.750000  1
  Er  Er3  1  0.242017  0.242017  0.250000  1
  Er  Er4  1  0.757983  0.000000  0.250000  1
  Er  Er5  1  0.000000  0.757983  0.250000  1
  Lu  Lu6  1  0.666667  0.333333  0.000000  1
  Lu  Lu7  1  0.333333  0.666667  0.000000  1
  Lu  Lu8  1  0.333333  0.666667  0.500000  1
  Lu  Lu9  1  0.666667  0.333333  0.500000  1
  Sn  Sn10  1  0.400329  0.400329  0.750000  1
  Sn  Sn11  1  0.599671  0.000000  0.750000  1
  Sn  Sn12  1  0.000000  0.599671  0.750000  1
  Sn  Sn13  1  0.599671  0.599671  0.250000  1
  Sn  Sn14  1  0.400329  0.000000  0.250000  1
  Sn  Sn15  1  0.000000  0.400329  0.250000  1
  P  P16  1  0.000000  0.000000  0.000000  1
  P  P17  1  0.000000  0.000000  0.500000  1
