# generated using pymatgen
data_Ac7Y13Pt16
_symmetry_space_group_name_H-M   'P 1'
_cell_length_a   7.80648605
_cell_length_b   15.31752471
_cell_length_c   7.87656100
_cell_angle_alpha   90.02288087
_cell_angle_beta   89.99375408
_cell_angle_gamma   89.90860242
_symmetry_Int_Tables_number   1
_chemical_formula_structural   Ac7Y13Pt16
_chemical_formula_sum   'Ac7 Y13 Pt16'
_cell_volume   941.84671713
_cell_formula_units_Z   1
loop_
 _symmetry_equiv_pos_site_id
 _symmetry_equiv_pos_as_xyz
  1  'x, y, z'
loop_
 _atom_site_type_symbol
 _atom_site_label
 _atom_site_symmetry_multiplicity
 _atom_site_fract_x
 _atom_site_fract_y
 _atom_site_fract_z
 _atom_site_occupancy
  Ac  Ac0  1  0.006422  0.401837  0.178396  1
  Ac  Ac1  1  0.494114  0.597647  0.678016  1
  Ac  Ac2  1  0.506714  0.095378  0.319251  1
  Ac  Ac3  1  0.994816  0.906394  0.826270  1
  Ac  Ac4  1  0.994842  0.596893  0.821190  1
  Ac  Ac5  1  0.506840  0.399684  0.323154  1
  Ac  Ac6  1  0.493749  0.901356  0.677055  1
  Y  Y7  1  0.323924  0.246178  0.999972  1
  Y  Y8  1  0.171631  0.751500  0.499823  1
  Y  Y9  1  0.827790  0.246861  0.497724  1
  Y  Y10  1  0.673694  0.750551  0.000514  1
  Y  Y11  1  0.010537  0.103798  0.182184  1
  Y  Y12  1  0.342332  0.623129  0.168718  1
  Y  Y13  1  0.157051  0.374118  0.668965  1
  Y  Y14  1  0.845320  0.881685  0.326710  1
  Y  Y15  1  0.665264  0.121389  0.837461  1
  Y  Y16  1  0.659287  0.373098  0.832698  1
  Y  Y17  1  0.840672  0.624406  0.332466  1
  Y  Y18  1  0.159816  0.123629  0.666608  1
  Y  Y19  1  0.339043  0.877831  0.167358  1
  Pt  Pt20  1  0.171957  0.545881  0.462508  1
  Pt  Pt21  1  0.329251  0.453171  0.961763  1
  Pt  Pt22  1  0.666861  0.955421  0.036821  1
  Pt  Pt23  1  0.836662  0.050626  0.527596  1
  Pt  Pt24  1  0.827581  0.453084  0.538507  1
  Pt  Pt25  1  0.671082  0.546494  0.038225  1
  Pt  Pt26  1  0.310717  0.048193  0.971392  1
  Pt  Pt27  1  0.171451  0.956823  0.459131  1
  Pt  Pt28  1  0.455301  0.248232  0.631266  1
  Pt  Pt29  1  0.045031  0.750531  0.134167  1
  Pt  Pt30  1  0.957961  0.247307  0.873754  1
  Pt  Pt31  1  0.545983  0.752452  0.365219  1
  Pt  Pt32  1  0.191592  0.245386  0.364392  1
  Pt  Pt33  1  0.300949  0.750711  0.869836  1
  Pt  Pt34  1  0.699440  0.246495  0.131518  1
  Pt  Pt35  1  0.804325  0.751832  0.629372  1
