# generated using pymatgen
data_Tb3YbAl16(SiIr3)2
_symmetry_space_group_name_H-M   'P 1'
_cell_length_a   7.55516242
_cell_length_b   7.55754517
_cell_length_c   9.38633700
_cell_angle_alpha   90.00000000
_cell_angle_beta   90.00000000
_cell_angle_gamma   119.66612533
_symmetry_Int_Tables_number   1
_chemical_formula_structural   Tb3YbAl16(SiIr3)2
_chemical_formula_sum   'Tb3 Yb1 Al16 Si2 Ir6'
_cell_volume   465.69613866
_cell_formula_units_Z   1
loop_
 _symmetry_equiv_pos_site_id
 _symmetry_equiv_pos_as_xyz
  1  'x, y, z'
loop_
 _atom_site_type_symbol
 _atom_site_label
 _atom_site_symmetry_multiplicity
 _atom_site_fract_x
 _atom_site_fract_y
 _atom_site_fract_z
 _atom_site_occupancy
  Tb  Tb0  1  0.004357  0.325375  0.750000  1
  Tb  Tb1  1  0.675403  0.995206  0.250000  1
  Tb  Tb2  1  0.323981  0.002897  0.750000  1
  Yb  Yb3  1  0.994864  0.674972  0.250000  1
  Al  Al4  1  0.001693  0.338106  0.076840  1
  Al  Al5  1  0.998246  0.663653  0.926121  1
  Al  Al6  1  0.998246  0.663653  0.573879  1
  Al  Al7  1  0.334903  0.000116  0.423107  1
  Al  Al8  1  0.001693  0.338106  0.423160  1
  Al  Al9  1  0.663595  0.998355  0.576571  1
  Al  Al10  1  0.663595  0.998355  0.923429  1
  Al  Al11  1  0.334903  0.000116  0.076893  1
  Al  Al12  1  0.335921  0.335810  0.554988  1
  Al  Al13  1  0.665351  0.664013  0.444902  1
  Al  Al14  1  0.665351  0.664013  0.055098  1
  Al  Al15  1  0.335921  0.335810  0.945012  1
  Al  Al16  1  0.336432  0.548710  0.250000  1
  Al  Al17  1  0.665043  0.452157  0.750000  1
  Al  Al18  1  0.548508  0.334974  0.250000  1
  Al  Al19  1  0.452160  0.664434  0.750000  1
  Si  Si20  1  0.129391  0.129938  0.250000  1
  Si  Si21  1  0.871334  0.870503  0.750000  1
  Ir  Ir22  1  0.670416  0.327200  0.999375  1
  Ir  Ir23  1  0.329342  0.671801  0.999328  1
  Ir  Ir24  1  0.329342  0.671801  0.500672  1
  Ir  Ir25  1  0.670416  0.327200  0.500625  1
  Ir  Ir26  1  0.999796  0.001364  0.999307  1
  Ir  Ir27  1  0.999796  0.001364  0.500693  1
