# generated using pymatgen
data_Y2HoFe2Co7P6
_symmetry_space_group_name_H-M   'P 1'
_cell_length_a   3.70220600
_cell_length_b   10.56989700
_cell_length_c   12.11765100
_cell_angle_alpha   90.00000000
_cell_angle_beta   90.00000000
_cell_angle_gamma   90.00000000
_symmetry_Int_Tables_number   1
_chemical_formula_structural   Y2HoFe2Co7P6
_chemical_formula_sum   'Y4 Ho2 Fe4 Co14 P12'
_cell_volume   474.18714453
_cell_formula_units_Z   2
loop_
 _symmetry_equiv_pos_site_id
 _symmetry_equiv_pos_as_xyz
  1  'x, y, z'
loop_
 _atom_site_type_symbol
 _atom_site_label
 _atom_site_symmetry_multiplicity
 _atom_site_fract_x
 _atom_site_fract_y
 _atom_site_fract_z
 _atom_site_occupancy
  Y  Y0  1  0.000000  0.500000  0.521729  1
  Y  Y1  1  0.500000  0.000000  0.477790  1
  Y  Y2  1  0.000000  0.681114  0.795821  1
  Y  Y3  1  0.000000  0.318886  0.795821  1
  Ho  Ho4  1  0.500000  0.819121  0.204264  1
  Ho  Ho5  1  0.500000  0.180879  0.204264  1
  Fe  Fe6  1  0.500000  0.500000  0.155502  1
  Fe  Fe7  1  0.000000  0.000000  0.844901  1
  Fe  Fe8  1  0.000000  0.500000  0.989241  1
  Fe  Fe9  1  0.500000  0.000000  0.011858  1
  Co  Co10  1  0.500000  0.500000  0.701453  1
  Co  Co11  1  0.000000  0.000000  0.297987  1
  Co  Co12  1  0.500000  0.331679  0.995032  1
  Co  Co13  1  0.500000  0.668321  0.995032  1
  Co  Co14  1  0.000000  0.168075  0.005950  1
  Co  Co15  1  0.000000  0.831925  0.005950  1
  Co  Co16  1  0.500000  0.296563  0.429814  1
  Co  Co17  1  0.500000  0.703437  0.429814  1
  Co  Co18  1  0.000000  0.203380  0.569219  1
  Co  Co19  1  0.000000  0.796620  0.569219  1
  Co  Co20  1  0.500000  0.879274  0.709394  1
  Co  Co21  1  0.500000  0.120726  0.709394  1
  Co  Co22  1  0.000000  0.620979  0.290280  1
  Co  Co23  1  0.000000  0.379021  0.290280  1
  P  P24  1  0.500000  0.500000  0.885258  1
  P  P25  1  0.000000  0.000000  0.115520  1
  P  P26  1  0.500000  0.500000  0.340908  1
  P  P27  1  0.000000  0.000000  0.659004  1
  P  P28  1  0.500000  0.309644  0.616227  1
  P  P29  1  0.500000  0.690356  0.616227  1
  P  P30  1  0.000000  0.190212  0.382832  1
  P  P31  1  0.000000  0.809788  0.382832  1
  P  P32  1  0.500000  0.847930  0.893920  1
  P  P33  1  0.500000  0.152070  0.893920  1
  P  P34  1  0.000000  0.652772  0.106671  1
  P  P35  1  0.000000  0.347228  0.106671  1
