# generated using pymatgen
data_SrSm6As12Pd17
_symmetry_space_group_name_H-M   'P 1'
_cell_length_a   12.74960990
_cell_length_b   12.74961057
_cell_length_c   14.00576379
_cell_angle_alpha   68.73775593
_cell_angle_beta   68.73775432
_cell_angle_gamma   18.81003157
_symmetry_Int_Tables_number   1
_chemical_formula_structural   SrSm6As12Pd17
_chemical_formula_sum   'Sr1 Sm6 As12 Pd17'
_cell_volume   682.68047090
_cell_formula_units_Z   1
loop_
 _symmetry_equiv_pos_site_id
 _symmetry_equiv_pos_as_xyz
  1  'x, y, z'
loop_
 _atom_site_type_symbol
 _atom_site_label
 _atom_site_symmetry_multiplicity
 _atom_site_fract_x
 _atom_site_fract_y
 _atom_site_fract_z
 _atom_site_occupancy
  Sr  Sr0  1  0.581797  0.581797  0.739692  1
  Sm  Sm1  1  0.500131  0.500131  0.499604  1
  Sm  Sm2  1  0.367555  0.367555  0.999875  1
  Sm  Sm3  1  0.632145  0.632145  0.002095  1
  Sm  Sm4  1  0.233956  0.233956  0.311847  1
  Sm  Sm5  1  0.767592  0.767592  0.686579  1
  Sm  Sm6  1  0.419388  0.419388  0.258870  1
  As  As7  1  0.061590  0.061590  0.927947  1
  As  As8  1  0.937783  0.937783  0.076180  1
  As  As9  1  0.884486  0.884486  0.828572  1
  As  As10  1  0.115674  0.115674  0.170420  1
  As  As11  1  0.190245  0.190245  0.620316  1
  As  As12  1  0.811186  0.811186  0.378281  1
  As  As13  1  0.365717  0.365717  0.578977  1
  As  As14  1  0.634208  0.634208  0.420593  1
  As  As15  1  0.009448  0.009448  0.665865  1
  As  As16  1  0.988160  0.988160  0.331508  1
  As  As17  1  0.232745  0.232745  0.884802  1
  As  As18  1  0.767606  0.767607  0.116466  1
  Pd  Pd19  1  0.838806  0.838806  0.193384  1
  Pd  Pd20  1  0.162288  0.162288  0.807711  1
  Pd  Pd21  1  0.025003  0.025003  0.129362  1
  Pd  Pd22  1  0.972073  0.972073  0.876632  1
  Pd  Pd23  1  0.887856  0.887856  0.456314  1
  Pd  Pd24  1  0.113162  0.113162  0.538570  1
  Pd  Pd25  1  0.499678  0.499678  0.004432  1
  Pd  Pd26  1  0.548122  0.548122  0.254870  1
  Pd  Pd27  1  0.450264  0.450264  0.744109  1
  Pd  Pd28  1  0.294983  0.294983  0.490053  1
  Pd  Pd29  1  0.706857  0.706857  0.507196  1
  Pd  Pd30  1  0.665022  0.665022  0.226045  1
  Pd  Pd31  1  0.334543  0.334543  0.773977  1
  Pd  Pd32  1  0.909488  0.909488  0.635680  1
  Pd  Pd33  1  0.090272  0.090272  0.361681  1
  Pd  Pd34  1  0.220515  0.220515  0.071943  1
  Pd  Pd35  1  0.779654  0.779654  0.929553  1
