# generated using pymatgen
data_Ta12Tc11B12Pt
_symmetry_space_group_name_H-M   'P 1'
_cell_length_a   3.18202800
_cell_length_b   9.06088464
_cell_length_c   15.70109491
_cell_angle_alpha   89.68619260
_cell_angle_beta   90.00000000
_cell_angle_gamma   90.00000000
_symmetry_Int_Tables_number   1
_chemical_formula_structural   Ta12Tc11B12Pt
_chemical_formula_sum   'Ta12 Tc11 B12 Pt1'
_cell_volume   452.68700000
_cell_formula_units_Z   1
loop_
 _symmetry_equiv_pos_site_id
 _symmetry_equiv_pos_as_xyz
  1  'x, y, z'
loop_
 _atom_site_type_symbol
 _atom_site_label
 _atom_site_symmetry_multiplicity
 _atom_site_fract_x
 _atom_site_fract_y
 _atom_site_fract_z
 _atom_site_occupancy
  Ta  Ta0  1  0.000000  0.805247  0.494952  1
  Ta  Ta1  1  0.000000  0.195076  0.507122  1
  Ta  Ta2  1  0.000000  0.304463  0.005879  1
  Ta  Ta3  1  0.000000  0.693484  0.991976  1
  Ta  Ta4  1  0.000000  0.517427  0.595517  1
  Ta  Ta5  1  0.000000  0.485414  0.404438  1
  Ta  Ta6  1  0.000000  0.016195  0.904388  1
  Ta  Ta7  1  0.000000  0.983618  0.094036  1
  Ta  Ta8  1  0.000000  0.673923  0.205641  1
  Ta  Ta9  1  0.000000  0.319548  0.792990  1
  Ta  Ta10  1  0.000000  0.187912  0.295417  1
  Ta  Ta11  1  0.000000  0.820279  0.707053  1
  Tc  Tc12  1  0.500000  0.719889  0.357015  1
  Tc  Tc13  1  0.500000  0.282611  0.641692  1
  Tc  Tc14  1  0.500000  0.213909  0.142612  1
  Tc  Tc15  1  0.500000  0.782870  0.857963  1
  Tc  Tc16  1  0.500000  0.517812  0.096197  1
  Tc  Tc17  1  0.500000  0.481799  0.906021  1
  Tc  Tc18  1  0.500000  0.020351  0.403008  1
  Tc  Tc19  1  0.500000  0.981329  0.593461  1
  Tc  Tc20  1  0.500000  0.567278  0.732418  1
  Tc  Tc21  1  0.500000  0.432347  0.267631  1
  Tc  Tc22  1  0.500000  0.069934  0.767087  1
  B  B23  1  0.500000  0.605299  0.493583  1
  B  B24  1  0.500000  0.396264  0.505934  1
  B  B25  1  0.500000  0.103971  0.005012  1
  B  B26  1  0.500000  0.894429  0.995032  1
  B  B27  1  0.000000  0.609948  0.832056  1
  B  B28  1  0.000000  0.387955  0.167245  1
  B  B29  1  0.000000  0.109078  0.666862  1
  B  B30  1  0.000000  0.888473  0.338784  1
  B  B31  1  0.500000  0.718113  0.603757  1
  B  B32  1  0.500000  0.285002  0.398451  1
  B  B33  1  0.500000  0.216485  0.897818  1
  B  B34  1  0.500000  0.779049  0.098312  1
  Pt  Pt35  1  0.500000  0.933216  0.232644  1
