# generated using pymatgen
data_Zr2Co3Si7Ru9
_symmetry_space_group_name_H-M   'P 1'
_cell_length_a   9.41902300
_cell_length_b   9.41902221
_cell_length_c   3.80154800
_cell_angle_alpha   90.00000000
_cell_angle_beta   90.00000000
_cell_angle_gamma   120.00000627
_symmetry_Int_Tables_number   1
_chemical_formula_structural   Zr2Co3Si7Ru9
_chemical_formula_sum   'Zr2 Co3 Si7 Ru9'
_cell_volume   292.08063303
_cell_formula_units_Z   1
loop_
 _symmetry_equiv_pos_site_id
 _symmetry_equiv_pos_as_xyz
  1  'x, y, z'
loop_
 _atom_site_type_symbol
 _atom_site_label
 _atom_site_symmetry_multiplicity
 _atom_site_fract_x
 _atom_site_fract_y
 _atom_site_fract_z
 _atom_site_occupancy
  Zr  Zr0  1  0.333333  0.666667  0.000000  1
  Zr  Zr1  1  0.666667  0.333333  0.500000  1
  Co  Co2  1  0.151871  0.274318  0.000000  1
  Co  Co3  1  0.725682  0.877553  0.000000  1
  Co  Co4  1  0.122447  0.848129  0.000000  1
  Si  Si5  1  0.111876  0.395551  0.500000  1
  Si  Si6  1  0.604449  0.716326  0.500000  1
  Si  Si7  1  0.283674  0.888124  0.500000  1
  Si  Si8  1  0.000000  0.000000  0.000000  1
  Si  Si9  1  0.404820  0.293828  0.000000  1
  Si  Si10  1  0.706172  0.110992  0.000000  1
  Si  Si11  1  0.889008  0.595180  0.000000  1
  Ru  Ru12  1  0.428985  0.059869  0.000000  1
  Ru  Ru13  1  0.940131  0.369117  0.000000  1
  Ru  Ru14  1  0.630883  0.571015  0.000000  1
  Ru  Ru15  1  0.381046  0.438583  0.500000  1
  Ru  Ru16  1  0.561417  0.942461  0.500000  1
  Ru  Ru17  1  0.057539  0.618954  0.500000  1
  Ru  Ru18  1  0.206779  0.098284  0.500000  1
  Ru  Ru19  1  0.901716  0.108494  0.500000  1
  Ru  Ru20  1  0.891506  0.793221  0.500000  1
