# generated using pymatgen
data_DyEr3(ScPt)4
_symmetry_space_group_name_H-M   'P 1'
_cell_length_a   4.62867500
_cell_length_b   6.95410115
_cell_length_c   8.36722893
_cell_angle_alpha   90.05293420
_cell_angle_beta   90.00000000
_cell_angle_gamma   90.00000000
_symmetry_Int_Tables_number   1
_chemical_formula_structural   DyEr3(ScPt)4
_chemical_formula_sum   'Dy1 Er3 Sc4 Pt4'
_cell_volume   269.32654383
_cell_formula_units_Z   1
loop_
 _symmetry_equiv_pos_site_id
 _symmetry_equiv_pos_as_xyz
  1  'x, y, z'
loop_
 _atom_site_type_symbol
 _atom_site_label
 _atom_site_symmetry_multiplicity
 _atom_site_fract_x
 _atom_site_fract_y
 _atom_site_fract_z
 _atom_site_occupancy
  Dy  Dy0  1  0.750000  0.516537  0.823801  1
  Er  Er1  1  0.250000  0.982988  0.323953  1
  Er  Er2  1  0.750000  0.017687  0.675385  1
  Er  Er3  1  0.250000  0.482289  0.176400  1
  Sc  Sc4  1  0.750000  0.642472  0.425926  1
  Sc  Sc5  1  0.250000  0.358377  0.572445  1
  Sc  Sc6  1  0.750000  0.141261  0.074005  1
  Sc  Sc7  1  0.250000  0.858075  0.926663  1
  Pt  Pt8  1  0.250000  0.244177  0.902872  1
  Pt  Pt9  1  0.750000  0.754123  0.099152  1
  Pt  Pt10  1  0.250000  0.747149  0.597268  1
  Pt  Pt11  1  0.750000  0.254862  0.402131  1
