# generated using pymatgen
data_La2Ga7Co2Sn
_symmetry_space_group_name_H-M   'P 1'
_cell_length_a   8.29737059
_cell_length_b   8.29737209
_cell_length_c   6.64476564
_cell_angle_alpha   90.40671790
_cell_angle_beta   89.59328306
_cell_angle_gamma   150.14756371
_symmetry_Int_Tables_number   1
_chemical_formula_structural   La2Ga7Co2Sn
_chemical_formula_sum   'La2 Ga7 Co2 Sn1'
_cell_volume   227.70675043
_cell_formula_units_Z   1
loop_
 _symmetry_equiv_pos_site_id
 _symmetry_equiv_pos_as_xyz
  1  'x, y, z'
loop_
 _atom_site_type_symbol
 _atom_site_label
 _atom_site_symmetry_multiplicity
 _atom_site_fract_x
 _atom_site_fract_y
 _atom_site_fract_z
 _atom_site_occupancy
  La  La0  1  0.382772  0.617228  0.743839  1
  La  La1  1  0.617228  0.382772  0.256161  1
  Ga  Ga2  1  0.000000  0.000000  0.500000  1
  Ga  Ga3  1  0.805643  0.194357  0.055190  1
  Ga  Ga4  1  0.194357  0.805643  0.944810  1
  Ga  Ga5  1  0.191812  0.808188  0.556508  1
  Ga  Ga6  1  0.808188  0.191812  0.443492  1
  Ga  Ga7  1  0.420368  0.579632  0.256991  1
  Ga  Ga8  1  0.579632  0.420368  0.743009  1
  Co  Co9  1  0.725228  0.274772  0.749599  1
  Co  Co10  1  0.274772  0.725228  0.250401  1
  Sn  Sn11  1  0.000000  0.000000  0.000000  1
