# generated using pymatgen
data_Tb7YbSi12PdAu3
_symmetry_space_group_name_H-M   'P 1'
_cell_length_a   8.23043700
_cell_length_b   8.19038119
_cell_length_c   8.25169001
_cell_angle_alpha   90.00570976
_cell_angle_beta   90.00000000
_cell_angle_gamma   120.16191580
_symmetry_Int_Tables_number   1
_chemical_formula_structural   Tb7YbSi12PdAu3
_chemical_formula_sum   'Tb7 Yb1 Si12 Pd1 Au3'
_cell_volume   480.93861287
_cell_formula_units_Z   1
loop_
 _symmetry_equiv_pos_site_id
 _symmetry_equiv_pos_as_xyz
  1  'x, y, z'
loop_
 _atom_site_type_symbol
 _atom_site_label
 _atom_site_symmetry_multiplicity
 _atom_site_fract_x
 _atom_site_fract_y
 _atom_site_fract_z
 _atom_site_occupancy
  Tb  Tb0  1  0.498532  0.997067  0.747392  1
  Tb  Tb1  1  0.001392  0.500803  0.252170  1
  Tb  Tb2  1  0.002434  0.501365  0.747733  1
  Tb  Tb3  1  0.499412  0.500803  0.252170  1
  Tb  Tb4  1  0.498928  0.501365  0.747733  1
  Tb  Tb5  1  0.000032  0.000065  0.251336  1
  Tb  Tb6  1  0.000050  0.000100  0.748085  1
  Yb  Yb7  1  0.499244  0.998487  0.252233  1
  Si  Si8  1  0.164095  0.328191  0.995080  1
  Si  Si9  1  0.835795  0.671589  0.000621  1
  Si  Si10  1  0.674706  0.836316  0.997302  1
  Si  Si11  1  0.837417  0.674835  0.503614  1
  Si  Si12  1  0.326068  0.164467  0.002177  1
  Si  Si13  1  0.167422  0.334842  0.500553  1
  Si  Si14  1  0.161609  0.836316  0.997302  1
  Si  Si15  1  0.323246  0.162693  0.501098  1
  Si  Si16  1  0.838399  0.164467  0.002177  1
  Si  Si17  1  0.666542  0.832255  0.499249  1
  Si  Si18  1  0.839447  0.162693  0.501098  1
  Si  Si19  1  0.165714  0.832255  0.499249  1
  Pd  Pd20  1  0.334042  0.668085  0.500212  1
  Au  Au21  1  0.334796  0.669593  0.001797  1
  Au  Au22  1  0.665228  0.330454  0.999541  1
  Au  Au23  1  0.665448  0.330896  0.500073  1
