# generated using pymatgen
data_Tb13Lu3(ScBi3)4
_symmetry_space_group_name_H-M   'P 1'
_cell_length_a   8.12872650
_cell_length_b   9.42329727
_cell_length_c   11.99424288
_cell_angle_alpha   89.99261317
_cell_angle_beta   89.93599521
_cell_angle_gamma   90.02643792
_symmetry_Int_Tables_number   1
_chemical_formula_structural   Tb13Lu3(ScBi3)4
_chemical_formula_sum   'Tb13 Lu3 Sc4 Bi12'
_cell_volume   918.75120361
_cell_formula_units_Z   1
loop_
 _symmetry_equiv_pos_site_id
 _symmetry_equiv_pos_as_xyz
  1  'x, y, z'
loop_
 _atom_site_type_symbol
 _atom_site_label
 _atom_site_symmetry_multiplicity
 _atom_site_fract_x
 _atom_site_fract_y
 _atom_site_fract_z
 _atom_site_occupancy
  Tb  Tb0  1  0.354386  0.250859  0.284115  1
  Tb  Tb1  1  0.644289  0.750343  0.715426  1
  Tb  Tb2  1  0.146320  0.750259  0.783646  1
  Tb  Tb3  1  0.854118  0.251341  0.215946  1
  Tb  Tb4  1  0.184267  0.250597  0.780175  1
  Tb  Tb5  1  0.815326  0.749932  0.220064  1
  Tb  Tb6  1  0.315222  0.749541  0.280516  1
  Tb  Tb7  1  0.684846  0.250704  0.719666  1
  Tb  Tb8  1  0.194872  0.064153  0.058418  1
  Tb  Tb9  1  0.806020  0.935189  0.941792  1
  Tb  Tb10  1  0.306049  0.935726  0.557893  1
  Tb  Tb11  1  0.804197  0.564141  0.941353  1
  Tb  Tb12  1  0.693927  0.064340  0.442112  1
  Lu  Lu13  1  0.196206  0.432572  0.058174  1
  Lu  Lu14  1  0.696630  0.432620  0.441675  1
  Lu  Lu15  1  0.303142  0.567330  0.558225  1
  Sc  Sc16  1  0.024048  0.250314  0.512013  1
  Sc  Sc17  1  0.975928  0.750178  0.487724  1
  Sc  Sc18  1  0.474826  0.750559  0.012417  1
  Sc  Sc19  1  0.523868  0.250314  0.987891  1
  Bi  Bi20  1  0.401068  0.255186  0.542955  1
  Bi  Bi21  1  0.599079  0.744774  0.456828  1
  Bi  Bi22  1  0.099794  0.745826  0.043333  1
  Bi  Bi23  1  0.902256  0.250727  0.957579  1
  Bi  Bi24  1  0.065961  0.004280  0.331632  1
  Bi  Bi25  1  0.934144  0.996386  0.668229  1
  Bi  Bi26  1  0.434159  0.996561  0.831427  1
  Bi  Bi27  1  0.935563  0.504204  0.667644  1
  Bi  Bi28  1  0.565831  0.004285  0.168635  1
  Bi  Bi29  1  0.065010  0.496236  0.332447  1
  Bi  Bi30  1  0.564569  0.496440  0.168334  1
  Bi  Bi31  1  0.434079  0.504080  0.831715  1
