# generated using pymatgen
data_AcO2
_symmetry_space_group_name_H-M   'P 1'
_cell_length_a   4.13649074
_cell_length_b   4.13649085
_cell_length_c   6.96398104
_cell_angle_alpha   83.46669328
_cell_angle_beta   83.46669688
_cell_angle_gamma   62.26967069
_symmetry_Int_Tables_number   1
_chemical_formula_structural   AcO2
_chemical_formula_sum   'Ac2 O4'
_cell_volume   104.53603289
_cell_formula_units_Z   2
loop_
 _symmetry_equiv_pos_site_id
 _symmetry_equiv_pos_as_xyz
  1  'x, y, z'
loop_
 _atom_site_type_symbol
 _atom_site_label
 _atom_site_symmetry_multiplicity
 _atom_site_fract_x
 _atom_site_fract_y
 _atom_site_fract_z
 _atom_site_occupancy
  Ac  Ac0  1  0.800193  0.800193  0.231988  1
  Ac  Ac1  1  0.199807  0.199807  0.768012  1
  O  O2  1  0.845909  0.845909  0.863412  1
  O  O3  1  0.154091  0.154091  0.136588  1
  O  O4  1  0.570779  0.570779  0.572340  1
  O  O5  1  0.429221  0.429221  0.427660  1
