# generated using pymatgen
data_Cs12Lu2BiSe7
_symmetry_space_group_name_H-M   'P 1'
_cell_length_a   11.41775800
_cell_length_b   11.41775845
_cell_length_c   9.04556200
_cell_angle_alpha   90.00000000
_cell_angle_beta   90.00000000
_cell_angle_gamma   119.99999870
_symmetry_Int_Tables_number   1
_chemical_formula_structural   Cs12Lu2BiSe7
_chemical_formula_sum   'Cs12 Lu2 Bi1 Se7'
_cell_volume   1021.24014098
_cell_formula_units_Z   1
loop_
 _symmetry_equiv_pos_site_id
 _symmetry_equiv_pos_as_xyz
  1  'x, y, z'
loop_
 _atom_site_type_symbol
 _atom_site_label
 _atom_site_symmetry_multiplicity
 _atom_site_fract_x
 _atom_site_fract_y
 _atom_site_fract_z
 _atom_site_occupancy
  Cs  Cs0  1  0.137158  0.862842  0.543616  1
  Cs  Cs1  1  0.279288  0.139644  0.039546  1
  Cs  Cs2  1  0.860356  0.720712  0.039546  1
  Cs  Cs3  1  0.137158  0.274317  0.543616  1
  Cs  Cs4  1  0.725683  0.862842  0.543616  1
  Cs  Cs5  1  0.860356  0.139644  0.039546  1
  Cs  Cs6  1  0.530019  0.469981  0.364891  1
  Cs  Cs7  1  0.058614  0.529307  0.869221  1
  Cs  Cs8  1  0.470693  0.941386  0.869221  1
  Cs  Cs9  1  0.530019  0.060036  0.364891  1
  Cs  Cs10  1  0.939964  0.469981  0.364891  1
  Cs  Cs11  1  0.470693  0.529307  0.869221  1
  Lu  Lu12  1  0.333333  0.666667  0.244137  1
  Lu  Lu13  1  0.666667  0.333333  0.754897  1
  Bi  Bi14  1  0.333333  0.666667  0.572261  1
  Se  Se15  1  0.666667  0.333333  0.054220  1
  Se  Se16  1  0.201849  0.798151  0.155665  1
  Se  Se17  1  0.409480  0.204740  0.658358  1
  Se  Se18  1  0.795260  0.590520  0.658358  1
  Se  Se19  1  0.201849  0.403698  0.155665  1
  Se  Se20  1  0.596302  0.798151  0.155665  1
  Se  Se21  1  0.795260  0.204740  0.658358  1
