# generated using pymatgen
data_CaTbDy2(SiPd)4
_symmetry_space_group_name_H-M   'P 1'
_cell_length_a   4.34931900
_cell_length_b   7.47436400
_cell_length_c   14.08916100
_cell_angle_alpha   90.00000000
_cell_angle_beta   90.00000000
_cell_angle_gamma   90.00000000
_symmetry_Int_Tables_number   1
_chemical_formula_structural   CaTbDy2(SiPd)4
_chemical_formula_sum   'Ca2 Tb2 Dy4 Si8 Pd8'
_cell_volume   458.01598787
_cell_formula_units_Z   2
loop_
 _symmetry_equiv_pos_site_id
 _symmetry_equiv_pos_as_xyz
  1  'x, y, z'
loop_
 _atom_site_type_symbol
 _atom_site_label
 _atom_site_symmetry_multiplicity
 _atom_site_fract_x
 _atom_site_fract_y
 _atom_site_fract_z
 _atom_site_occupancy
  Ca  Ca0  1  0.000000  0.290416  0.500000  1
  Ca  Ca1  1  0.500000  0.709584  0.000000  1
  Tb  Tb2  1  0.000000  0.301799  0.000000  1
  Tb  Tb3  1  0.500000  0.698201  0.500000  1
  Dy  Dy4  1  0.000000  0.207235  0.249570  1
  Dy  Dy5  1  0.500000  0.792765  0.250430  1
  Dy  Dy6  1  0.000000  0.207235  0.750430  1
  Dy  Dy7  1  0.500000  0.792765  0.749570  1
  Si  Si8  1  0.000000  0.906950  0.593020  1
  Si  Si9  1  0.500000  0.093050  0.906980  1
  Si  Si10  1  0.000000  0.906950  0.406980  1
  Si  Si11  1  0.500000  0.093050  0.093020  1
  Si  Si12  1  0.000000  0.589095  0.150393  1
  Si  Si13  1  0.500000  0.410905  0.349607  1
  Si  Si14  1  0.000000  0.589095  0.849607  1
  Si  Si15  1  0.500000  0.410905  0.650393  1
  Pd  Pd16  1  0.500000  0.076675  0.611251  1
  Pd  Pd17  1  0.000000  0.923325  0.888749  1
  Pd  Pd18  1  0.500000  0.076675  0.388749  1
  Pd  Pd19  1  0.000000  0.923325  0.111251  1
  Pd  Pd20  1  0.500000  0.419252  0.157366  1
  Pd  Pd21  1  0.000000  0.580748  0.342634  1
  Pd  Pd22  1  0.500000  0.419252  0.842634  1
  Pd  Pd23  1  0.000000  0.580748  0.657366  1
