# generated using pymatgen
data_Hf3Re2NiGe3
_symmetry_space_group_name_H-M   'P 1'
_cell_length_a   6.92734327
_cell_length_b   6.81330269
_cell_length_c   3.56845500
_cell_angle_alpha   90.00000000
_cell_angle_beta   90.00000000
_cell_angle_gamma   119.45691341
_symmetry_Int_Tables_number   1
_chemical_formula_structural   Hf3Re2NiGe3
_chemical_formula_sum   'Hf3 Re2 Ni1 Ge3'
_cell_volume   146.65133032
_cell_formula_units_Z   1
loop_
 _symmetry_equiv_pos_site_id
 _symmetry_equiv_pos_as_xyz
  1  'x, y, z'
loop_
 _atom_site_type_symbol
 _atom_site_label
 _atom_site_symmetry_multiplicity
 _atom_site_fract_x
 _atom_site_fract_y
 _atom_site_fract_z
 _atom_site_occupancy
  Hf  Hf0  1  0.580797  0.983575  0.500000  1
  Hf  Hf1  1  0.419203  0.402778  0.500000  1
  Hf  Hf2  1  0.000000  0.602231  0.500000  1
  Re  Re3  1  0.248748  0.996963  0.000000  1
  Re  Re4  1  0.751252  0.748214  0.000000  1
  Ni  Ni5  1  0.000000  0.257241  0.000000  1
  Ge  Ge6  1  0.000000  0.031971  0.500000  1
  Ge  Ge7  1  0.323600  0.650315  0.000000  1
  Ge  Ge8  1  0.676400  0.326713  0.000000  1
