# generated using pymatgen
data_Na4Hf3Zr(CuTe3)4
_symmetry_space_group_name_H-M   'P 1'
_cell_length_a   4.09778900
_cell_length_b   11.05620903
_cell_length_c   14.69436104
_cell_angle_alpha   90.00835678
_cell_angle_beta   90.00000000
_cell_angle_gamma   90.00000000
_symmetry_Int_Tables_number   1
_chemical_formula_structural   Na4Hf3Zr(CuTe3)4
_chemical_formula_sum   'Na4 Hf3 Zr1 Cu4 Te12'
_cell_volume   665.74288670
_cell_formula_units_Z   1
loop_
 _symmetry_equiv_pos_site_id
 _symmetry_equiv_pos_as_xyz
  1  'x, y, z'
loop_
 _atom_site_type_symbol
 _atom_site_label
 _atom_site_symmetry_multiplicity
 _atom_site_fract_x
 _atom_site_fract_y
 _atom_site_fract_z
 _atom_site_occupancy
  Na  Na0  1  0.250000  0.050058  0.227266  1
  Na  Na1  1  0.750000  0.949956  0.772784  1
  Na  Na2  1  0.750000  0.550296  0.272675  1
  Na  Na3  1  0.250000  0.449826  0.727222  1
  Hf  Hf4  1  0.250000  0.316812  0.009663  1
  Hf  Hf5  1  0.750000  0.683214  0.990322  1
  Hf  Hf6  1  0.750000  0.817549  0.490260  1
  Zr  Zr7  1  0.250000  0.184201  0.509673  1
  Cu  Cu8  1  0.250000  0.592906  0.491907  1
  Cu  Cu9  1  0.750000  0.407018  0.508391  1
  Cu  Cu10  1  0.750000  0.092844  0.008181  1
  Cu  Cu11  1  0.250000  0.907149  0.991821  1
  Te  Te12  1  0.250000  0.561983  0.100785  1
  Te  Te13  1  0.750000  0.437956  0.899200  1
  Te  Te14  1  0.750000  0.060250  0.397709  1
  Te  Te15  1  0.250000  0.936042  0.601577  1
  Te  Te16  1  0.250000  0.385004  0.393086  1
  Te  Te17  1  0.750000  0.615833  0.605859  1
  Te  Te18  1  0.750000  0.883671  0.106041  1
  Te  Te19  1  0.250000  0.116319  0.893928  1
  Te  Te20  1  0.250000  0.753430  0.359925  1
  Te  Te21  1  0.750000  0.247709  0.641687  1
  Te  Te22  1  0.750000  0.253624  0.140101  1
  Te  Te23  1  0.250000  0.746348  0.859937  1
