# generated using pymatgen
data_EuDy6PtBr12
_symmetry_space_group_name_H-M   'P 1'
_cell_length_a   9.28191693
_cell_length_b   9.28191734
_cell_length_c   9.28191843
_cell_angle_alpha   106.46777633
_cell_angle_beta   106.46778050
_cell_angle_gamma   106.46778468
_symmetry_Int_Tables_number   1
_chemical_formula_structural   EuDy6PtBr12
_chemical_formula_sum   'Eu1 Dy6 Pt1 Br12'
_cell_volume   675.41206097
_cell_formula_units_Z   1
loop_
 _symmetry_equiv_pos_site_id
 _symmetry_equiv_pos_as_xyz
  1  'x, y, z'
loop_
 _atom_site_type_symbol
 _atom_site_label
 _atom_site_symmetry_multiplicity
 _atom_site_fract_x
 _atom_site_fract_y
 _atom_site_fract_z
 _atom_site_occupancy
  Eu  Eu0  1  0.500000  0.500000  0.500000  1
  Dy  Dy1  1  0.101565  0.025298  0.313501  1
  Dy  Dy2  1  0.313501  0.101565  0.025298  1
  Dy  Dy3  1  0.025298  0.313501  0.101565  1
  Dy  Dy4  1  0.898435  0.974702  0.686499  1
  Dy  Dy5  1  0.686499  0.898435  0.974702  1
  Dy  Dy6  1  0.974702  0.686499  0.898435  1
  Pt  Pt7  1  0.000000  0.000000  0.000000  1
  Br  Br8  1  0.072747  0.678357  0.220113  1
  Br  Br9  1  0.220113  0.072747  0.678357  1
  Br  Br10  1  0.678357  0.220113  0.072747  1
  Br  Br11  1  0.927253  0.321643  0.779887  1
  Br  Br12  1  0.779887  0.927253  0.321643  1
  Br  Br13  1  0.321643  0.779887  0.927253  1
  Br  Br14  1  0.450932  0.144277  0.372965  1
  Br  Br15  1  0.372965  0.450932  0.144277  1
  Br  Br16  1  0.144277  0.372965  0.450932  1
  Br  Br17  1  0.549068  0.855723  0.627035  1
  Br  Br18  1  0.627035  0.549068  0.855723  1
  Br  Br19  1  0.855723  0.627035  0.549068  1
