# generated using pymatgen
data_Tb5DyAl24CuRu7
_symmetry_space_group_name_H-M   'P 1'
_cell_length_a   8.82790504
_cell_length_b   8.82823892
_cell_length_c   9.56335506
_cell_angle_alpha   89.87893247
_cell_angle_beta   90.00523469
_cell_angle_gamma   119.98984247
_symmetry_Int_Tables_number   1
_chemical_formula_structural   Tb5DyAl24CuRu7
_chemical_formula_sum   'Tb5 Dy1 Al24 Cu1 Ru7'
_cell_volume   645.52913184
_cell_formula_units_Z   1
loop_
 _symmetry_equiv_pos_site_id
 _symmetry_equiv_pos_as_xyz
  1  'x, y, z'
loop_
 _atom_site_type_symbol
 _atom_site_label
 _atom_site_symmetry_multiplicity
 _atom_site_fract_x
 _atom_site_fract_y
 _atom_site_fract_z
 _atom_site_occupancy
  Tb  Tb0  1  0.191450  0.807627  0.250433  1
  Tb  Tb1  1  0.194042  0.388104  0.247995  1
  Tb  Tb2  1  0.616161  0.807622  0.250428  1
  Tb  Tb3  1  0.808451  0.192366  0.749561  1
  Tb  Tb4  1  0.805863  0.611790  0.752006  1
  Dy  Dy5  1  0.384247  0.192677  0.749654  1
  Al  Al6  1  0.561800  0.439284  0.250742  1
  Al  Al7  1  0.561535  0.123090  0.249184  1
  Al  Al8  1  0.877507  0.439302  0.250737  1
  Al  Al9  1  0.438133  0.560413  0.749273  1
  Al  Al10  1  0.438413  0.877147  0.750794  1
  Al  Al11  1  0.122521  0.560701  0.749263  1
  Al  Al12  1  0.324439  0.167695  0.421351  1
  Al  Al13  1  0.843256  0.167701  0.421216  1
  Al  Al14  1  0.836785  0.673571  0.422431  1
  Al  Al15  1  0.675569  0.832326  0.578827  1
  Al  Al16  1  0.156822  0.832433  0.578891  1
  Al  Al17  1  0.163297  0.326374  0.577668  1
  Al  Al18  1  0.673987  0.837510  0.924026  1
  Al  Al19  1  0.163610  0.837666  0.923956  1
  Al  Al20  1  0.163247  0.326282  0.922295  1
  Al  Al21  1  0.326031  0.162510  0.075793  1
  Al  Al22  1  0.836490  0.162507  0.075932  1
  Al  Al23  1  0.836837  0.673654  0.077607  1
  Al  Al24  1  0.667982  0.336217  0.518287  1
  Al  Al25  1  0.331831  0.663682  0.481866  1
  Al  Al26  1  0.333693  0.667392  0.017690  1
  Al  Al27  1  0.666126  0.332520  0.982172  1
  Al  Al28  1  0.999363  0.998751  0.249762  1
  Al  Al29  1  0.000865  0.001342  0.750234  1
  Cu  Cu30  1  0.499969  0.000017  0.500035  1
  Ru  Ru31  1  0.000025  0.000020  0.499999  1
  Ru  Ru32  1  0.000017  0.000008  0.000000  1
  Ru  Ru33  1  0.499911  0.499789  0.500140  1
  Ru  Ru34  1  0.999932  0.499972  0.500017  1
  Ru  Ru35  1  0.499927  0.499826  0.999896  1
  Ru  Ru36  1  0.499937  0.000146  0.999875  1
  Ru  Ru37  1  0.999928  0.499966  0.999965  1
