# generated using pymatgen
data_Ho4Ga20IrRu5
_symmetry_space_group_name_H-M   'P 1'
_cell_length_a   8.90642600
_cell_length_b   8.90642600
_cell_length_c   6.41332800
_cell_angle_alpha   90.00000000
_cell_angle_beta   90.00000000
_cell_angle_gamma   90.00000000
_symmetry_Int_Tables_number   1
_chemical_formula_structural   Ho4Ga20IrRu5
_chemical_formula_sum   'Ho4 Ga20 Ir1 Ru5'
_cell_volume   508.73355012
_cell_formula_units_Z   1
loop_
 _symmetry_equiv_pos_site_id
 _symmetry_equiv_pos_as_xyz
  1  'x, y, z'
loop_
 _atom_site_type_symbol
 _atom_site_label
 _atom_site_symmetry_multiplicity
 _atom_site_fract_x
 _atom_site_fract_y
 _atom_site_fract_z
 _atom_site_occupancy
  Ho  Ho0  1  0.183633  0.682432  0.000000  1
  Ho  Ho1  1  0.816367  0.317568  0.000000  1
  Ho  Ho2  1  0.682432  0.816367  0.000000  1
  Ho  Ho3  1  0.317568  0.183633  0.000000  1
  Ga  Ga4  1  0.061416  0.208352  0.705687  1
  Ga  Ga5  1  0.938584  0.791648  0.705687  1
  Ga  Ga6  1  0.560855  0.292974  0.706795  1
  Ga  Ga7  1  0.439145  0.707026  0.706795  1
  Ga  Ga8  1  0.791648  0.061416  0.705687  1
  Ga  Ga9  1  0.208352  0.938584  0.705687  1
  Ga  Ga10  1  0.707026  0.560855  0.706795  1
  Ga  Ga11  1  0.292974  0.439145  0.706795  1
  Ga  Ga12  1  0.938584  0.791648  0.294313  1
  Ga  Ga13  1  0.061416  0.208352  0.294313  1
  Ga  Ga14  1  0.439145  0.707026  0.293205  1
  Ga  Ga15  1  0.560855  0.292974  0.293205  1
  Ga  Ga16  1  0.208352  0.938584  0.294313  1
  Ga  Ga17  1  0.791648  0.061416  0.294313  1
  Ga  Ga18  1  0.292974  0.439145  0.293205  1
  Ga  Ga19  1  0.707026  0.560855  0.293205  1
  Ga  Ga20  1  0.000000  0.500000  0.713190  1
  Ga  Ga21  1  0.500000  0.000000  0.713190  1
  Ga  Ga22  1  0.000000  0.500000  0.286810  1
  Ga  Ga23  1  0.500000  0.000000  0.286810  1
  Ir  Ir24  1  0.000000  0.000000  0.000000  1
  Ru  Ru25  1  0.177788  0.679524  0.500000  1
  Ru  Ru26  1  0.822212  0.320476  0.500000  1
  Ru  Ru27  1  0.679524  0.822212  0.500000  1
  Ru  Ru28  1  0.320476  0.177788  0.500000  1
  Ru  Ru29  1  0.500000  0.500000  0.000000  1
