# generated using pymatgen
data_LiTh7(Si4Mo3)4
_symmetry_space_group_name_H-M   'P 1'
_cell_length_a   6.98711142
_cell_length_b   7.03067496
_cell_length_c   13.06334002
_cell_angle_alpha   89.95350076
_cell_angle_beta   89.82011329
_cell_angle_gamma   89.70882281
_symmetry_Int_Tables_number   1
_chemical_formula_structural   LiTh7(Si4Mo3)4
_chemical_formula_sum   'Li1 Th7 Si16 Mo12'
_cell_volume   641.71329006
_cell_formula_units_Z   1
loop_
 _symmetry_equiv_pos_site_id
 _symmetry_equiv_pos_as_xyz
  1  'x, y, z'
loop_
 _atom_site_type_symbol
 _atom_site_label
 _atom_site_symmetry_multiplicity
 _atom_site_fract_x
 _atom_site_fract_y
 _atom_site_fract_z
 _atom_site_occupancy
  Li  Li0  1  0.979874  0.171209  0.099533  1
  Th  Th1  1  0.492870  0.337820  0.096449  1
  Th  Th2  1  0.995035  0.160917  0.406019  1
  Th  Th3  1  0.510595  0.661745  0.594686  1
  Th  Th4  1  0.005589  0.842892  0.913860  1
  Th  Th5  1  0.507755  0.661046  0.908473  1
  Th  Th6  1  0.008690  0.839750  0.593617  1
  Th  Th7  1  0.488071  0.335147  0.399905  1
  Si  Si8  1  0.653314  0.053144  0.549254  1
  Si  Si9  1  0.150543  0.443065  0.953317  1
  Si  Si10  1  0.335861  0.959185  0.051706  1
  Si  Si11  1  0.842141  0.547456  0.451828  1
  Si  Si12  1  0.351073  0.943226  0.446691  1
  Si  Si13  1  0.851827  0.531375  0.052475  1
  Si  Si14  1  0.652221  0.050396  0.954266  1
  Si  Si15  1  0.157926  0.450512  0.548369  1
  Si  Si16  1  0.537850  0.348406  0.749688  1
  Si  Si17  1  0.036939  0.149029  0.752523  1
  Si  Si18  1  0.463362  0.656991  0.253544  1
  Si  Si19  1  0.967335  0.865312  0.240775  1
  Si  Si20  1  0.817820  0.620923  0.752769  1
  Si  Si21  1  0.312905  0.877503  0.751870  1
  Si  Si22  1  0.172140  0.368328  0.240841  1
  Si  Si23  1  0.702616  0.121265  0.241979  1
  Mo  Mo24  1  0.833278  0.341147  0.626916  1
  Mo  Mo25  1  0.330636  0.160176  0.873944  1
  Mo  Mo26  1  0.167978  0.662148  0.125823  1
  Mo  Mo27  1  0.686849  0.842917  0.372100  1
  Mo  Mo28  1  0.158843  0.658358  0.370332  1
  Mo  Mo29  1  0.667823  0.834296  0.123331  1
  Mo  Mo30  1  0.828747  0.338988  0.874770  1
  Mo  Mo31  1  0.325985  0.157405  0.625706  1
  Mo  Mo32  1  0.670671  0.995935  0.752079  1
  Mo  Mo33  1  0.173464  0.502847  0.750895  1
  Mo  Mo34  1  0.332994  0.007310  0.248489  1
  Mo  Mo35  1  0.828380  0.501832  0.251178  1
