# generated using pymatgen
data_Er5Sn3P
_symmetry_space_group_name_H-M   'P 1'
_cell_length_a   8.98208900
_cell_length_b   8.98208853
_cell_length_c   6.64715500
_cell_angle_alpha   90.00000000
_cell_angle_beta   90.00000000
_cell_angle_gamma   119.99999804
_symmetry_Int_Tables_number   1
_chemical_formula_structural   Er5Sn3P
_chemical_formula_sum   'Er10 Sn6 P2'
_cell_volume   464.43092619
_cell_formula_units_Z   2
loop_
 _symmetry_equiv_pos_site_id
 _symmetry_equiv_pos_as_xyz
  1  'x, y, z'
loop_
 _atom_site_type_symbol
 _atom_site_label
 _atom_site_symmetry_multiplicity
 _atom_site_fract_x
 _atom_site_fract_y
 _atom_site_fract_z
 _atom_site_occupancy
  Er  Er0  1  0.666666  0.333332  0.000000  1
  Er  Er1  1  0.333332  0.666666  0.000000  1
  Er  Er2  1  0.241106  0.000000  0.249998  1
  Er  Er3  1  0.000000  0.241106  0.249998  1
  Er  Er4  1  0.758893  0.758893  0.250002  1
  Er  Er5  1  0.666665  0.333333  0.500000  1
  Er  Er6  1  0.333333  0.666665  0.500000  1
  Er  Er7  1  0.758895  0.000000  0.750000  1
  Er  Er8  1  0.000000  0.758895  0.750000  1
  Er  Er9  1  0.241106  0.241106  0.750001  1
  Sn  Sn10  1  0.601088  0.000000  0.249998  1
  Sn  Sn11  1  0.000000  0.601088  0.249998  1
  Sn  Sn12  1  0.398910  0.398910  0.250002  1
  Sn  Sn13  1  0.398912  0.000000  0.750000  1
  Sn  Sn14  1  0.000000  0.398912  0.750000  1
  Sn  Sn15  1  0.601087  0.601087  0.750001  1
  P  P16  1  0.000000  0.000000  0.000000  1
  P  P17  1  0.000000  0.000000  0.500000  1
