# generated using pymatgen
data_La6Nd13DySn16
_symmetry_space_group_name_H-M   'P 1'
_cell_length_a   8.33164514
_cell_length_b   8.47836259
_cell_length_c   16.02802000
_cell_angle_alpha   90.01414425
_cell_angle_beta   90.01048038
_cell_angle_gamma   89.95749709
_symmetry_Int_Tables_number   1
_chemical_formula_structural   La6Nd13DySn16
_chemical_formula_sum   'La6 Nd13 Dy1 Sn16'
_cell_volume   1132.19826721
_cell_formula_units_Z   1
loop_
 _symmetry_equiv_pos_site_id
 _symmetry_equiv_pos_as_xyz
  1  'x, y, z'
loop_
 _atom_site_type_symbol
 _atom_site_label
 _atom_site_symmetry_multiplicity
 _atom_site_fract_x
 _atom_site_fract_y
 _atom_site_fract_z
 _atom_site_occupancy
  La  La0  1  0.482035  0.681432  0.401682  1
  La  La1  1  0.981869  0.818588  0.098675  1
  La  La2  1  0.482003  0.681200  0.098254  1
  La  La3  1  0.981962  0.818831  0.401464  1
  La  La4  1  0.517607  0.318603  0.599042  1
  La  La5  1  0.018101  0.182472  0.901056  1
  Nd  Nd6  1  0.367708  0.835893  0.878937  1
  Nd  Nd7  1  0.869155  0.663569  0.620815  1
  Nd  Nd8  1  0.631662  0.164431  0.379589  1
  Nd  Nd9  1  0.131549  0.335949  0.119522  1
  Nd  Nd10  1  0.631688  0.164475  0.120443  1
  Nd  Nd11  1  0.131598  0.335919  0.380425  1
  Nd  Nd12  1  0.367235  0.836107  0.621042  1
  Nd  Nd13  1  0.868701  0.663300  0.879213  1
  Nd  Nd14  1  0.518092  0.319244  0.899915  1
  Nd  Nd15  1  0.018899  0.182118  0.599902  1
  Nd  Nd16  1  0.698381  0.998127  0.749990  1
  Nd  Nd17  1  0.801925  0.497565  0.250024  1
  Nd  Nd18  1  0.302176  0.002494  0.250018  1
  Dy  Dy19  1  0.199493  0.502308  0.750004  1
  Sn  Sn20  1  0.293617  0.036304  0.041853  1
  Sn  Sn21  1  0.793259  0.463234  0.458083  1
  Sn  Sn22  1  0.708529  0.965062  0.543160  1
  Sn  Sn23  1  0.208733  0.533373  0.954688  1
  Sn  Sn24  1  0.706020  0.964741  0.957168  1
  Sn  Sn25  1  0.206094  0.533750  0.544973  1
  Sn  Sn26  1  0.291551  0.037059  0.458778  1
  Sn  Sn27  1  0.791139  0.462581  0.041345  1
  Sn  Sn28  1  0.564471  0.616198  0.750190  1
  Sn  Sn29  1  0.068403  0.880734  0.749840  1
  Sn  Sn30  1  0.431667  0.382618  0.250087  1
  Sn  Sn31  1  0.932563  0.117650  0.249906  1
  Sn  Sn32  1  0.321662  0.145268  0.750456  1
  Sn  Sn33  1  0.824557  0.359944  0.749433  1
  Sn  Sn34  1  0.677766  0.858713  0.250067  1
  Sn  Sn35  1  0.178129  0.640146  0.249960  1
