# generated using pymatgen
data_Ba2ErHO3
_symmetry_space_group_name_H-M   'P 1'
_cell_length_a   4.31230700
_cell_length_b   4.31231100
_cell_length_c   13.98049700
_cell_angle_alpha   90.00000000
_cell_angle_beta   90.00000000
_cell_angle_gamma   90.00000000
_symmetry_Int_Tables_number   1
_chemical_formula_structural   Ba2ErHO3
_chemical_formula_sum   'Ba4 Er2 H2 O6'
_cell_volume   259.98144680
_cell_formula_units_Z   2
loop_
 _symmetry_equiv_pos_site_id
 _symmetry_equiv_pos_as_xyz
  1  'x, y, z'
loop_
 _atom_site_type_symbol
 _atom_site_label
 _atom_site_symmetry_multiplicity
 _atom_site_fract_x
 _atom_site_fract_y
 _atom_site_fract_z
 _atom_site_occupancy
  Ba  Ba0  1  0.499999  0.000000  0.101452  1
  Ba  Ba1  1  0.499999  0.000000  0.377951  1
  Ba  Ba2  1  0.000000  0.499999  0.622049  1
  Ba  Ba3  1  0.000000  0.499999  0.898548  1
  Er  Er4  1  0.000000  0.499999  0.236089  1
  Er  Er5  1  0.499999  0.000000  0.763911  1
  H  H6  1  0.000000  0.499999  0.421768  1
  H  H7  1  0.499999  0.000000  0.578233  1
  O  O8  1  0.000000  0.499999  0.081883  1
  O  O9  1  0.000000  0.000000  0.260833  1
  O  O10  1  0.499999  0.499999  0.260830  1
  O  O11  1  0.000000  0.000000  0.739170  1
  O  O12  1  0.499999  0.499999  0.739167  1
  O  O13  1  0.499999  0.000000  0.918117  1
