# generated using pymatgen
data_Tb2Er2Al4IrPt3
_symmetry_space_group_name_H-M   'P 1'
_cell_length_a   4.42055000
_cell_length_b   6.82428612
_cell_length_c   7.79367676
_cell_angle_alpha   90.47587874
_cell_angle_beta   90.00000000
_cell_angle_gamma   90.00000000
_symmetry_Int_Tables_number   1
_chemical_formula_structural   Tb2Er2Al4IrPt3
_chemical_formula_sum   'Tb2 Er2 Al4 Ir1 Pt3'
_cell_volume   235.10450109
_cell_formula_units_Z   1
loop_
 _symmetry_equiv_pos_site_id
 _symmetry_equiv_pos_as_xyz
  1  'x, y, z'
loop_
 _atom_site_type_symbol
 _atom_site_label
 _atom_site_symmetry_multiplicity
 _atom_site_fract_x
 _atom_site_fract_y
 _atom_site_fract_z
 _atom_site_occupancy
  Tb  Tb0  1  0.250000  0.469968  0.181246  1
  Tb  Tb1  1  0.750000  0.531647  0.816552  1
  Er  Er2  1  0.750000  0.024354  0.679606  1
  Er  Er3  1  0.250000  0.967694  0.322173  1
  Al  Al4  1  0.250000  0.854392  0.936148  1
  Al  Al5  1  0.750000  0.144571  0.061511  1
  Al  Al6  1  0.750000  0.646513  0.438620  1
  Al  Al7  1  0.250000  0.359151  0.563256  1
  Ir  Ir8  1  0.250000  0.734196  0.615986  1
  Pt  Pt9  1  0.750000  0.268170  0.383758  1
  Pt  Pt10  1  0.750000  0.774461  0.120419  1
  Pt  Pt11  1  0.250000  0.224882  0.880727  1
