# generated using pymatgen
data_Sc6Sn6Ru11Pt
_symmetry_space_group_name_H-M   'P 1'
_cell_length_a   4.54735002
_cell_length_b   6.43572602
_cell_length_c   13.67358400
_cell_angle_alpha   89.99992729
_cell_angle_beta   89.99803251
_cell_angle_gamma   90.01002329
_symmetry_Int_Tables_number   1
_chemical_formula_structural   Sc6Sn6Ru11Pt
_chemical_formula_sum   'Sc6 Sn6 Ru11 Pt1'
_cell_volume   400.16425059
_cell_formula_units_Z   1
loop_
 _symmetry_equiv_pos_site_id
 _symmetry_equiv_pos_as_xyz
  1  'x, y, z'
loop_
 _atom_site_type_symbol
 _atom_site_label
 _atom_site_symmetry_multiplicity
 _atom_site_fract_x
 _atom_site_fract_y
 _atom_site_fract_z
 _atom_site_occupancy
  Sc  Sc0  1  0.999968  0.505564  0.000007  1
  Sc  Sc1  1  0.500022  0.997497  0.169769  1
  Sc  Sc2  1  0.999922  0.499717  0.333943  1
  Sc  Sc3  1  0.499880  0.002297  0.499993  1
  Sc  Sc4  1  0.999995  0.499758  0.666061  1
  Sc  Sc5  1  0.500139  0.997512  0.830238  1
  Sn  Sn6  1  0.999876  0.991462  0.000004  1
  Sn  Sn7  1  0.500000  0.504396  0.170470  1
  Sn  Sn8  1  0.999966  0.999812  0.333317  1
  Sn  Sn9  1  0.499982  0.500010  0.500008  1
  Sn  Sn10  1  0.000000  0.999807  0.666685  1
  Sn  Sn11  1  0.500043  0.504391  0.829517  1
  Ru  Ru12  1  0.499919  0.745930  0.999990  1
  Ru  Ru13  1  0.999994  0.248968  0.164907  1
  Ru  Ru14  1  0.000081  0.750402  0.165675  1
  Ru  Ru15  1  0.500057  0.250259  0.332511  1
  Ru  Ru16  1  0.499913  0.750520  0.334123  1
  Ru  Ru17  1  0.999974  0.249580  0.500000  1
  Ru  Ru18  1  0.999923  0.750646  0.499992  1
  Ru  Ru19  1  0.500132  0.250262  0.667488  1
  Ru  Ru20  1  0.500010  0.750532  0.665890  1
  Ru  Ru21  1  0.000111  0.248988  0.835094  1
  Ru  Ru22  1  0.000159  0.750394  0.834322  1
  Pt  Pt23  1  0.499936  0.251301  0.999993  1
