# generated using pymatgen
data_Th2Zn21Cu
_symmetry_space_group_name_H-M   'P 1'
_cell_length_a   8.26797603
_cell_length_b   8.25972844
_cell_length_c   8.26797432
_cell_angle_alpha   100.03805540
_cell_angle_beta   99.85517751
_cell_angle_gamma   130.94748638
_symmetry_Int_Tables_number   1
_chemical_formula_structural   Th2Zn21Cu
_chemical_formula_sum   'Th2 Zn21 Cu1'
_cell_volume   387.79616610
_cell_formula_units_Z   1
loop_
 _symmetry_equiv_pos_site_id
 _symmetry_equiv_pos_as_xyz
  1  'x, y, z'
loop_
 _atom_site_type_symbol
 _atom_site_label
 _atom_site_symmetry_multiplicity
 _atom_site_fract_x
 _atom_site_fract_y
 _atom_site_fract_z
 _atom_site_occupancy
  Th  Th0  1  0.500233  0.499663  0.999430  1
  Th  Th1  1  0.749767  0.250337  0.500570  1
  Zn  Zn2  1  0.406691  0.078364  0.086492  1
  Zn  Zn3  1  0.994839  0.319991  0.920742  1
  Zn  Zn4  1  0.258128  0.671636  0.828326  1
  Zn  Zn5  1  0.850753  0.430009  0.174848  1
  Zn  Zn6  1  0.922345  0.595433  0.915335  1
  Zn  Zn7  1  0.684678  0.012200  0.087692  1
  Zn  Zn8  1  0.325492  0.737800  0.172480  1
  Zn  Zn9  1  0.569903  0.154567  0.826913  1
  Zn  Zn10  1  0.843309  0.671636  0.413508  1
  Zn  Zn11  1  0.255161  0.430009  0.579258  1
  Zn  Zn12  1  0.991872  0.078364  0.671674  1
  Zn  Zn13  1  0.399247  0.319991  0.325152  1
  Zn  Zn14  1  0.327655  0.154567  0.584665  1
  Zn  Zn15  1  0.565322  0.737800  0.412308  1
  Zn  Zn16  1  0.924508  0.012200  0.327520  1
  Zn  Zn17  1  0.680097  0.595433  0.673087  1
  Zn  Zn18  1  0.248105  0.743907  0.495803  1
  Zn  Zn19  1  0.001895  0.006093  0.004197  1
  Zn  Zn20  1  0.125000  0.875000  0.750000  1
  Zn  Zn21  1  0.125000  0.875000  0.250000  1
  Zn  Zn22  1  0.625000  0.875000  0.750000  1
  Cu  Cu23  1  0.125000  0.375000  0.250000  1
