# generated using pymatgen
data_Ho2Cr3Co9As7
_symmetry_space_group_name_H-M   'P 1'
_cell_length_a   9.42434600
_cell_length_b   9.42434696
_cell_length_c   3.74131700
_cell_angle_alpha   90.00000000
_cell_angle_beta   90.00000000
_cell_angle_gamma   120.00001068
_symmetry_Int_Tables_number   1
_chemical_formula_structural   Ho2Cr3Co9As7
_chemical_formula_sum   'Ho2 Cr3 Co9 As7'
_cell_volume   287.77799383
_cell_formula_units_Z   1
loop_
 _symmetry_equiv_pos_site_id
 _symmetry_equiv_pos_as_xyz
  1  'x, y, z'
loop_
 _atom_site_type_symbol
 _atom_site_label
 _atom_site_symmetry_multiplicity
 _atom_site_fract_x
 _atom_site_fract_y
 _atom_site_fract_z
 _atom_site_occupancy
  Ho  Ho0  1  0.666667  0.333333  0.000000  1
  Ho  Ho1  1  0.333333  0.666667  0.500000  1
  Cr  Cr2  1  0.106227  0.224286  0.500000  1
  Cr  Cr3  1  0.775714  0.881941  0.500000  1
  Cr  Cr4  1  0.118059  0.893773  0.500000  1
  Co  Co5  1  0.060394  0.429535  0.000000  1
  Co  Co6  1  0.570465  0.630859  0.000000  1
  Co  Co7  1  0.369141  0.939606  0.000000  1
  Co  Co8  1  0.280031  0.159086  0.000000  1
  Co  Co9  1  0.840914  0.120946  0.000000  1
  Co  Co10  1  0.879054  0.719969  0.000000  1
  Co  Co11  1  0.435907  0.384170  0.500000  1
  Co  Co12  1  0.615830  0.051736  0.500000  1
  Co  Co13  1  0.948264  0.564093  0.500000  1
  As  As14  1  0.300105  0.414486  0.000000  1
  As  As15  1  0.585514  0.885619  0.000000  1
  As  As16  1  0.114381  0.699895  0.000000  1
  As  As17  1  0.409639  0.119191  0.500000  1
  As  As18  1  0.880809  0.290449  0.500000  1
  As  As19  1  0.709551  0.590361  0.500000  1
  As  As20  1  0.000000  0.000000  0.000000  1
