# generated using pymatgen
data_YbErTm2(B6Ru)2
_symmetry_space_group_name_H-M   'P 1'
_cell_length_a   3.62324800
_cell_length_b   9.09196287
_cell_length_c   11.47863200
_cell_angle_alpha   89.84755683
_cell_angle_beta   90.00000000
_cell_angle_gamma   90.00000000
_symmetry_Int_Tables_number   1
_chemical_formula_structural   YbErTm2(B6Ru)2
_chemical_formula_sum   'Yb2 Er2 Tm4 B24 Ru4'
_cell_volume   378.13276493
_cell_formula_units_Z   2
loop_
 _symmetry_equiv_pos_site_id
 _symmetry_equiv_pos_as_xyz
  1  'x, y, z'
loop_
 _atom_site_type_symbol
 _atom_site_label
 _atom_site_symmetry_multiplicity
 _atom_site_fract_x
 _atom_site_fract_y
 _atom_site_fract_z
 _atom_site_occupancy
  Yb  Yb0  1  0.000000  0.324683  0.414868  1
  Yb  Yb1  1  0.000000  0.675317  0.585132  1
  Er  Er2  1  0.000000  0.822048  0.086020  1
  Er  Er3  1  0.000000  0.177952  0.913980  1
  Tm  Tm4  1  0.000000  0.941882  0.369788  1
  Tm  Tm5  1  0.000000  0.058118  0.630212  1
  Tm  Tm6  1  0.000000  0.442644  0.130639  1
  Tm  Tm7  1  0.000000  0.557356  0.869361  1
  B  B8  1  0.500000  0.554268  0.432267  1
  B  B9  1  0.500000  0.445732  0.567733  1
  B  B10  1  0.500000  0.053707  0.066523  1
  B  B11  1  0.500000  0.946293  0.933477  1
  B  B12  1  0.500000  0.748575  0.417713  1
  B  B13  1  0.500000  0.251425  0.582287  1
  B  B14  1  0.500000  0.248831  0.081010  1
  B  B15  1  0.500000  0.751169  0.918990  1
  B  B16  1  0.500000  0.791579  0.264136  1
  B  B17  1  0.500000  0.208421  0.735864  1
  B  B18  1  0.500000  0.290403  0.234431  1
  B  B19  1  0.500000  0.709597  0.765569  1
  B  B20  1  0.500000  0.631078  0.184525  1
  B  B21  1  0.500000  0.368922  0.815475  1
  B  B22  1  0.500000  0.130341  0.314251  1
  B  B23  1  0.500000  0.869659  0.685749  1
  B  B24  1  0.500000  0.982583  0.211547  1
  B  B25  1  0.500000  0.017417  0.788453  1
  B  B26  1  0.500000  0.483511  0.287815  1
  B  B27  1  0.500000  0.516489  0.712185  1
  B  B28  1  0.500000  0.602736  0.028172  1
  B  B29  1  0.500000  0.397264  0.971828  1
  B  B30  1  0.500000  0.098825  0.472758  1
  B  B31  1  0.500000  0.901175  0.527242  1
  Ru  Ru32  1  0.000000  0.640287  0.318331  1
  Ru  Ru33  1  0.000000  0.359713  0.681669  1
  Ru  Ru34  1  0.000000  0.137109  0.178254  1
  Ru  Ru35  1  0.000000  0.862891  0.821746  1
