# generated using pymatgen
data_Tm2Re3Tc
_symmetry_space_group_name_H-M   'P 1'
_cell_length_a   5.36535900
_cell_length_b   5.36535995
_cell_length_c   8.87743500
_cell_angle_alpha   90.00000000
_cell_angle_beta   90.00000000
_cell_angle_gamma   120.00000032
_symmetry_Int_Tables_number   1
_chemical_formula_structural   Tm2Re3Tc
_chemical_formula_sum   'Tm4 Re6 Tc2'
_cell_volume   221.31751262
_cell_formula_units_Z   2
loop_
 _symmetry_equiv_pos_site_id
 _symmetry_equiv_pos_as_xyz
  1  'x, y, z'
loop_
 _atom_site_type_symbol
 _atom_site_label
 _atom_site_symmetry_multiplicity
 _atom_site_fract_x
 _atom_site_fract_y
 _atom_site_fract_z
 _atom_site_occupancy
  Tm  Tm0  1  0.333333  0.666667  0.436311  1
  Tm  Tm1  1  0.666667  0.333333  0.563689  1
  Tm  Tm2  1  0.666667  0.333333  0.936311  1
  Tm  Tm3  1  0.333333  0.666667  0.063689  1
  Re  Re4  1  0.827984  0.172016  0.250000  1
  Re  Re5  1  0.827984  0.655967  0.250000  1
  Re  Re6  1  0.344033  0.172016  0.250000  1
  Re  Re7  1  0.172016  0.827984  0.750000  1
  Re  Re8  1  0.172016  0.344033  0.750000  1
  Re  Re9  1  0.655967  0.827984  0.750000  1
  Tc  Tc10  1  0.000000  0.000000  0.500000  1
  Tc  Tc11  1  0.000000  0.000000  0.000000  1
