# generated using pymatgen
data_Nb6Co6W
_symmetry_space_group_name_H-M   'P 1'
_cell_length_a   9.23667927
_cell_length_b   9.23667964
_cell_length_c   9.23667912
_cell_angle_alpha   31.09915625
_cell_angle_beta   31.09915099
_cell_angle_gamma   31.09915590
_symmetry_Int_Tables_number   1
_chemical_formula_structural   Nb6Co6W
_chemical_formula_sum   'Nb6 Co6 W1'
_cell_volume   186.53899389
_cell_formula_units_Z   1
loop_
 _symmetry_equiv_pos_site_id
 _symmetry_equiv_pos_as_xyz
  1  'x, y, z'
loop_
 _atom_site_type_symbol
 _atom_site_label
 _atom_site_symmetry_multiplicity
 _atom_site_fract_x
 _atom_site_fract_y
 _atom_site_fract_z
 _atom_site_occupancy
  Nb  Nb0  1  0.834172  0.834172  0.834172  1
  Nb  Nb1  1  0.165828  0.165828  0.165828  1
  Nb  Nb2  1  0.652476  0.652476  0.652476  1
  Nb  Nb3  1  0.347524  0.347524  0.347524  1
  Nb  Nb4  1  0.549507  0.549507  0.549507  1
  Nb  Nb5  1  0.450493  0.450493  0.450493  1
  Co  Co6  1  0.907009  0.417204  0.907009  1
  Co  Co7  1  0.907009  0.907009  0.417204  1
  Co  Co8  1  0.417204  0.907009  0.907009  1
  Co  Co9  1  0.092991  0.582796  0.092991  1
  Co  Co10  1  0.092991  0.092991  0.582796  1
  Co  Co11  1  0.582796  0.092991  0.092991  1
  W  W12  1  0.000000  0.000000  0.000000  1
