# generated using pymatgen
data_Ho3Er9Os4
_symmetry_space_group_name_H-M   'P 1'
_cell_length_a   7.38946601
_cell_length_b   8.96300300
_cell_length_c   6.26236901
_cell_angle_alpha   90.00000000
_cell_angle_beta   90.00542197
_cell_angle_gamma   90.00000000
_symmetry_Int_Tables_number   1
_chemical_formula_structural   Ho3Er9Os4
_chemical_formula_sum   'Ho3 Er9 Os4'
_cell_volume   414.76800732
_cell_formula_units_Z   1
loop_
 _symmetry_equiv_pos_site_id
 _symmetry_equiv_pos_as_xyz
  1  'x, y, z'
loop_
 _atom_site_type_symbol
 _atom_site_label
 _atom_site_symmetry_multiplicity
 _atom_site_fract_x
 _atom_site_fract_y
 _atom_site_fract_z
 _atom_site_occupancy
  Ho  Ho0  1  0.461581  0.750000  0.128525  1
  Ho  Ho1  1  0.961577  0.750000  0.371490  1
  Ho  Ho2  1  0.038425  0.250000  0.628534  1
  Er  Er3  1  0.174912  0.062485  0.165504  1
  Er  Er4  1  0.174912  0.437515  0.165504  1
  Er  Er5  1  0.674865  0.062513  0.334433  1
  Er  Er6  1  0.674865  0.437487  0.334433  1
  Er  Er7  1  0.325151  0.562463  0.665546  1
  Er  Er8  1  0.325151  0.937537  0.665546  1
  Er  Er9  1  0.825085  0.562464  0.834484  1
  Er  Er10  1  0.825085  0.937536  0.834484  1
  Er  Er11  1  0.538441  0.250000  0.871441  1
  Os  Os12  1  0.881784  0.250000  0.039805  1
  Os  Os13  1  0.381953  0.250000  0.460283  1
  Os  Os14  1  0.618097  0.750000  0.539837  1
  Os  Os15  1  0.118117  0.750000  0.960151  1
