# generated using pymatgen
data_WI11
_symmetry_space_group_name_H-M   'P 1'
_cell_length_a   8.82745278
_cell_length_b   8.90249041
_cell_length_c   9.10140608
_cell_angle_alpha   87.70233049
_cell_angle_beta   62.95034159
_cell_angle_gamma   87.85204889
_symmetry_Int_Tables_number   1
_chemical_formula_structural   WI11
_chemical_formula_sum   'W1 I11'
_cell_volume   636.34609840
_cell_formula_units_Z   1
loop_
 _symmetry_equiv_pos_site_id
 _symmetry_equiv_pos_as_xyz
  1  'x, y, z'
loop_
 _atom_site_type_symbol
 _atom_site_label
 _atom_site_symmetry_multiplicity
 _atom_site_fract_x
 _atom_site_fract_y
 _atom_site_fract_z
 _atom_site_occupancy
  W  W0  1  0.000000  0.500000  0.500000  1
  I  I1  1  0.000000  0.000000  0.000000  1
  I  I2  1  0.250024  0.586994  0.188404  1
  I  I3  1  0.454689  0.825090  0.217770  1
  I  I4  1  0.652637  0.073271  0.246450  1
  I  I5  1  0.775956  0.496797  0.373081  1
  I  I6  1  0.088575  0.210728  0.417958  1
  I  I7  1  0.911426  0.789272  0.582042  1
  I  I8  1  0.224044  0.503203  0.626920  1
  I  I9  1  0.347363  0.926729  0.753550  1
  I  I10  1  0.545310  0.174910  0.782231  1
  I  I11  1  0.749976  0.413006  0.811597  1
