# generated using pymatgen
data_CaPr3(GaPd)4
_symmetry_space_group_name_H-M   'P 1'
_cell_length_a   4.56366400
_cell_length_b   7.14449854
_cell_length_c   7.85896943
_cell_angle_alpha   91.02615156
_cell_angle_beta   90.00000000
_cell_angle_gamma   90.00000000
_symmetry_Int_Tables_number   1
_chemical_formula_structural   CaPr3(GaPd)4
_chemical_formula_sum   'Ca1 Pr3 Ga4 Pd4'
_cell_volume   256.20131717
_cell_formula_units_Z   1
loop_
 _symmetry_equiv_pos_site_id
 _symmetry_equiv_pos_as_xyz
  1  'x, y, z'
loop_
 _atom_site_type_symbol
 _atom_site_label
 _atom_site_symmetry_multiplicity
 _atom_site_fract_x
 _atom_site_fract_y
 _atom_site_fract_z
 _atom_site_occupancy
  Ca  Ca0  1  0.250000  0.025962  0.692386  1
  Pr  Pr1  1  0.250000  0.530841  0.807719  1
  Pr  Pr2  1  0.750000  0.972044  0.314907  1
  Pr  Pr3  1  0.750000  0.469692  0.189311  1
  Ga  Ga4  1  0.250000  0.158914  0.066518  1
  Ga  Ga5  1  0.250000  0.662146  0.430372  1
  Ga  Ga6  1  0.750000  0.843264  0.928759  1
  Ga  Ga7  1  0.750000  0.337610  0.570738  1
  Pd  Pd8  1  0.250000  0.283345  0.393719  1
  Pd  Pd9  1  0.250000  0.783438  0.110323  1
  Pd  Pd10  1  0.750000  0.716130  0.606622  1
  Pd  Pd11  1  0.750000  0.216615  0.888627  1
