# generated using pymatgen
data_YPuReB6
_symmetry_space_group_name_H-M   'P 1'
_cell_length_a   3.67597000
_cell_length_b   9.22674400
_cell_length_c   11.54882000
_cell_angle_alpha   90.00000000
_cell_angle_beta   90.00000000
_cell_angle_gamma   90.00000000
_symmetry_Int_Tables_number   1
_chemical_formula_structural   YPuReB6
_chemical_formula_sum   'Y4 Pu4 Re4 B24'
_cell_volume   391.70403200
_cell_formula_units_Z   4
loop_
 _symmetry_equiv_pos_site_id
 _symmetry_equiv_pos_as_xyz
  1  'x, y, z'
loop_
 _atom_site_type_symbol
 _atom_site_label
 _atom_site_symmetry_multiplicity
 _atom_site_fract_x
 _atom_site_fract_y
 _atom_site_fract_z
 _atom_site_occupancy
  Y  Y0  1  0.000000  0.445134  0.125271  1
  Y  Y1  1  0.000000  0.554866  0.874729  1
  Y  Y2  1  0.000000  0.945134  0.374729  1
  Y  Y3  1  0.000000  0.054866  0.625271  1
  Pu  Pu4  1  0.000000  0.824891  0.087110  1
  Pu  Pu5  1  0.000000  0.175109  0.912890  1
  Pu  Pu6  1  0.000000  0.324891  0.412890  1
  Pu  Pu7  1  0.000000  0.675109  0.587110  1
  Re  Re8  1  0.000000  0.138319  0.177494  1
  Re  Re9  1  0.000000  0.861681  0.822506  1
  Re  Re10  1  0.000000  0.638319  0.322506  1
  Re  Re11  1  0.000000  0.361681  0.677494  1
  B  B12  1  0.500000  0.052211  0.066732  1
  B  B13  1  0.500000  0.947789  0.933269  1
  B  B14  1  0.500000  0.552211  0.433268  1
  B  B15  1  0.500000  0.447789  0.566731  1
  B  B16  1  0.500000  0.246395  0.078834  1
  B  B17  1  0.500000  0.753605  0.921166  1
  B  B18  1  0.500000  0.746395  0.421166  1
  B  B19  1  0.500000  0.253605  0.578834  1
  B  B20  1  0.500000  0.293573  0.232831  1
  B  B21  1  0.500000  0.706427  0.767169  1
  B  B22  1  0.500000  0.793573  0.267169  1
  B  B23  1  0.500000  0.206427  0.732831  1
  B  B24  1  0.500000  0.134790  0.313485  1
  B  B25  1  0.500000  0.865210  0.686515  1
  B  B26  1  0.500000  0.634790  0.186515  1
  B  B27  1  0.500000  0.365210  0.813485  1
  B  B28  1  0.500000  0.482640  0.286892  1
  B  B29  1  0.500000  0.517360  0.713108  1
  B  B30  1  0.500000  0.982640  0.213108  1
  B  B31  1  0.500000  0.017360  0.786892  1
  B  B32  1  0.500000  0.119370  0.466525  1
  B  B33  1  0.500000  0.880630  0.533475  1
  B  B34  1  0.500000  0.619370  0.033475  1
  B  B35  1  0.500000  0.380630  0.966525  1
