# generated using pymatgen
data_CaTb6RuI12
_symmetry_space_group_name_H-M   'P 1'
_cell_length_a   9.83943503
_cell_length_b   9.83943504
_cell_length_c   9.83943511
_cell_angle_alpha   106.94276604
_cell_angle_beta   106.94277346
_cell_angle_gamma   106.94277492
_symmetry_Int_Tables_number   1
_chemical_formula_structural   CaTb6RuI12
_chemical_formula_sum   'Ca1 Tb6 Ru1 I12'
_cell_volume   794.56948561
_cell_formula_units_Z   1
loop_
 _symmetry_equiv_pos_site_id
 _symmetry_equiv_pos_as_xyz
  1  'x, y, z'
loop_
 _atom_site_type_symbol
 _atom_site_label
 _atom_site_symmetry_multiplicity
 _atom_site_fract_x
 _atom_site_fract_y
 _atom_site_fract_z
 _atom_site_occupancy
  Ca  Ca0  1  0.500000  0.500000  0.500000  1
  Tb  Tb1  1  0.023731  0.095860  0.297553  1
  Tb  Tb2  1  0.095860  0.297553  0.023731  1
  Tb  Tb3  1  0.297553  0.023731  0.095860  1
  Tb  Tb4  1  0.976269  0.904140  0.702447  1
  Tb  Tb5  1  0.904140  0.702447  0.976269  1
  Tb  Tb6  1  0.702447  0.976269  0.904140  1
  Ru  Ru7  1  0.000000  0.000000  0.000000  1
  I  I8  1  0.150215  0.456211  0.377898  1
  I  I9  1  0.456211  0.377898  0.150215  1
  I  I10  1  0.377898  0.150215  0.456211  1
  I  I11  1  0.849785  0.543789  0.622102  1
  I  I12  1  0.543789  0.622102  0.849785  1
  I  I13  1  0.622102  0.849785  0.543789  1
  I  I14  1  0.679770  0.072082  0.223298  1
  I  I15  1  0.072082  0.223298  0.679770  1
  I  I16  1  0.223298  0.679770  0.072082  1
  I  I17  1  0.320230  0.927918  0.776702  1
  I  I18  1  0.927918  0.776702  0.320230  1
  I  I19  1  0.776702  0.320230  0.927918  1
