# generated using pymatgen
data_Cs2Yb(SeO3)2
_symmetry_space_group_name_H-M   'P 1'
_cell_length_a   7.87761457
_cell_length_b   7.87761448
_cell_length_c   7.87761423
_cell_angle_alpha   44.65439078
_cell_angle_beta   44.65439121
_cell_angle_gamma   44.65439568
_symmetry_Int_Tables_number   1
_chemical_formula_structural   Cs2Yb(SeO3)2
_chemical_formula_sum   'Cs2 Yb1 Se2 O6'
_cell_volume   219.63088652
_cell_formula_units_Z   1
loop_
 _symmetry_equiv_pos_site_id
 _symmetry_equiv_pos_as_xyz
  1  'x, y, z'
loop_
 _atom_site_type_symbol
 _atom_site_label
 _atom_site_symmetry_multiplicity
 _atom_site_fract_x
 _atom_site_fract_y
 _atom_site_fract_z
 _atom_site_occupancy
  Cs  Cs0  1  0.200123  0.200123  0.200123  1
  Cs  Cs1  1  0.799878  0.799878  0.799878  1
  Yb  Yb2  1  0.000000  0.000000  0.000000  1
  Se  Se3  1  0.369200  0.369200  0.369200  1
  Se  Se4  1  0.630800  0.630800  0.630800  1
  O  O5  1  0.249694  0.707479  0.249695  1
  O  O6  1  0.707479  0.249694  0.249695  1
  O  O7  1  0.750305  0.750305  0.292522  1
  O  O8  1  0.249695  0.249695  0.707479  1
  O  O9  1  0.750306  0.292521  0.750305  1
  O  O10  1  0.292521  0.750306  0.750305  1
