# generated using pymatgen
data_SrNd5YFeI12
_symmetry_space_group_name_H-M   'P 1'
_cell_length_a   9.97235529
_cell_length_b   9.97038622
_cell_length_c   10.07626348
_cell_angle_alpha   105.98676898
_cell_angle_beta   106.56190238
_cell_angle_gamma   106.24794296
_symmetry_Int_Tables_number   1
_chemical_formula_structural   SrNd5YFeI12
_chemical_formula_sum   'Sr1 Nd5 Y1 Fe1 I12'
_cell_volume   850.50931420
_cell_formula_units_Z   1
loop_
 _symmetry_equiv_pos_site_id
 _symmetry_equiv_pos_as_xyz
  1  'x, y, z'
loop_
 _atom_site_type_symbol
 _atom_site_label
 _atom_site_symmetry_multiplicity
 _atom_site_fract_x
 _atom_site_fract_y
 _atom_site_fract_z
 _atom_site_occupancy
  Sr  Sr0  1  0.499586  0.499857  0.500304  1
  Nd  Nd1  1  0.711732  0.980457  0.909481  1
  Nd  Nd2  1  0.979582  0.903375  0.696106  1
  Nd  Nd3  1  0.091679  0.287957  0.019776  1
  Nd  Nd4  1  0.288676  0.020452  0.093297  1
  Nd  Nd5  1  0.908402  0.712547  0.980695  1
  Y  Y6  1  0.020674  0.094687  0.296063  1
  Fe  Fe7  1  0.000735  0.000048  0.999640  1
  I  I8  1  0.073724  0.225418  0.676636  1
  I  I9  1  0.363041  0.139180  0.448521  1
  I  I10  1  0.628903  0.860055  0.551362  1
  I  I11  1  0.225883  0.680070  0.074861  1
  I  I12  1  0.774165  0.320013  0.925705  1
  I  I13  1  0.687418  0.075094  0.228363  1
  I  I14  1  0.549109  0.629229  0.858000  1
  I  I15  1  0.859499  0.549318  0.631760  1
  I  I16  1  0.927956  0.782440  0.320661  1
  I  I17  1  0.321948  0.926967  0.777729  1
  I  I18  1  0.451084  0.370719  0.142644  1
  I  I19  1  0.136204  0.442117  0.368393  1
