# generated using pymatgen
data_Li2PrYSb2
_symmetry_space_group_name_H-M   'P 1'
_cell_length_a   4.72218100
_cell_length_b   4.72218100
_cell_length_c   7.38331600
_cell_angle_alpha   90.00000000
_cell_angle_beta   90.00000000
_cell_angle_gamma   119.99999297
_symmetry_Int_Tables_number   1
_chemical_formula_structural   Li2PrYSb2
_chemical_formula_sum   'Li2 Pr1 Y1 Sb2'
_cell_volume   142.58287845
_cell_formula_units_Z   1
loop_
 _symmetry_equiv_pos_site_id
 _symmetry_equiv_pos_as_xyz
  1  'x, y, z'
loop_
 _atom_site_type_symbol
 _atom_site_label
 _atom_site_symmetry_multiplicity
 _atom_site_fract_x
 _atom_site_fract_y
 _atom_site_fract_z
 _atom_site_occupancy
  Li  Li0  1  0.666667  0.333333  0.273459  1
  Li  Li1  1  0.333333  0.666667  0.726541  1
  Pr  Pr2  1  0.000000  0.000000  0.000000  1
  Y  Y3  1  0.000000  0.000000  0.500000  1
  Sb  Sb4  1  0.666667  0.333333  0.736908  1
  Sb  Sb5  1  0.333333  0.666667  0.263092  1
