# generated using pymatgen
data_Nd6YRhO12
_symmetry_space_group_name_H-M   'P 1'
_cell_length_a   6.87048331
_cell_length_b   6.87048434
_cell_length_c   6.87048368
_cell_angle_alpha   95.75022228
_cell_angle_beta   95.75022163
_cell_angle_gamma   95.75021584
_symmetry_Int_Tables_number   1
_chemical_formula_structural   Nd6YRhO12
_chemical_formula_sum   'Nd6 Y1 Rh1 O12'
_cell_volume   319.05914234
_cell_formula_units_Z   1
loop_
 _symmetry_equiv_pos_site_id
 _symmetry_equiv_pos_as_xyz
  1  'x, y, z'
loop_
 _atom_site_type_symbol
 _atom_site_label
 _atom_site_symmetry_multiplicity
 _atom_site_fract_x
 _atom_site_fract_y
 _atom_site_fract_z
 _atom_site_occupancy
  Nd  Nd0  1  0.730650  0.908261  0.422726  1
  Nd  Nd1  1  0.422726  0.730650  0.908261  1
  Nd  Nd2  1  0.091739  0.577274  0.269350  1
  Nd  Nd3  1  0.908261  0.422726  0.730650  1
  Nd  Nd4  1  0.577274  0.269350  0.091739  1
  Nd  Nd5  1  0.269350  0.091739  0.577274  1
  Y  Y6  1  0.000000  0.000000  0.000000  1
  Rh  Rh7  1  0.500000  0.500000  0.500000  1
  O  O8  1  0.062876  0.917695  0.314729  1
  O  O9  1  0.685271  0.937124  0.082305  1
  O  O10  1  0.448899  0.795604  0.578973  1
  O  O11  1  0.082305  0.685271  0.937124  1
  O  O12  1  0.795604  0.578973  0.448899  1
  O  O13  1  0.421027  0.551101  0.204396  1
  O  O14  1  0.578973  0.448899  0.795604  1
  O  O15  1  0.204396  0.421027  0.551101  1
  O  O16  1  0.917695  0.314729  0.062876  1
  O  O17  1  0.551101  0.204396  0.421027  1
  O  O18  1  0.314729  0.062876  0.917695  1
  O  O19  1  0.937124  0.082305  0.685271  1
