# generated using pymatgen
data_Tm12Th4Cd4Os3Ru
_symmetry_space_group_name_H-M   'P 1'
_cell_length_a   9.62909669
_cell_length_b   9.62668297
_cell_length_c   9.63277039
_cell_angle_alpha   60.07549537
_cell_angle_beta   60.09071850
_cell_angle_gamma   60.01788192
_symmetry_Int_Tables_number   1
_chemical_formula_structural   Tm12Th4Cd4Os3Ru
_chemical_formula_sum   'Tm12 Th4 Cd4 Os3 Ru1'
_cell_volume   632.26860852
_cell_formula_units_Z   1
loop_
 _symmetry_equiv_pos_site_id
 _symmetry_equiv_pos_as_xyz
  1  'x, y, z'
loop_
 _atom_site_type_symbol
 _atom_site_label
 _atom_site_symmetry_multiplicity
 _atom_site_fract_x
 _atom_site_fract_y
 _atom_site_fract_z
 _atom_site_occupancy
  Tm  Tm0  1  0.062623  0.437832  0.437508  1
  Tm  Tm1  1  0.434876  0.061993  0.062064  1
  Tm  Tm2  1  0.437649  0.062647  0.437615  1
  Tm  Tm3  1  0.061948  0.435138  0.061953  1
  Tm  Tm4  1  0.437514  0.437773  0.062611  1
  Tm  Tm5  1  0.061896  0.061973  0.434910  1
  Tm  Tm6  1  0.186240  0.813155  0.813094  1
  Tm  Tm7  1  0.815053  0.185289  0.185355  1
  Tm  Tm8  1  0.813288  0.186011  0.813171  1
  Tm  Tm9  1  0.185307  0.814945  0.185070  1
  Tm  Tm10  1  0.813509  0.813088  0.186037  1
  Tm  Tm11  1  0.185451  0.185177  0.814877  1
  Th  Th12  1  0.598425  0.598250  0.598287  1
  Th  Th13  1  0.598524  0.598772  0.205071  1
  Th  Th14  1  0.598741  0.204826  0.598803  1
  Th  Th15  1  0.204732  0.598727  0.598578  1
  Cd  Cd16  1  0.832357  0.832330  0.832514  1
  Cd  Cd17  1  0.831451  0.831504  0.503970  1
  Cd  Cd18  1  0.831427  0.503935  0.831592  1
  Cd  Cd19  1  0.504159  0.831352  0.831518  1
  Os  Os20  1  0.393234  0.393338  0.825618  1
  Os  Os21  1  0.393196  0.825625  0.393529  1
  Os  Os22  1  0.825596  0.393365  0.393291  1
  Ru  Ru23  1  0.392804  0.392949  0.392964  1
