# generated using pymatgen
data_TbDy4P12Ru10Rh9
_symmetry_space_group_name_H-M   'P 1'
_cell_length_a   12.61436100
_cell_length_b   12.58610301
_cell_length_c   3.93324700
_cell_angle_alpha   90.00000000
_cell_angle_beta   90.00000000
_cell_angle_gamma   119.84568849
_symmetry_Int_Tables_number   1
_chemical_formula_structural   TbDy4P12Ru10Rh9
_chemical_formula_sum   'Tb1 Dy4 P12 Ru10 Rh9'
_cell_volume   541.64108023
_cell_formula_units_Z   1
loop_
 _symmetry_equiv_pos_site_id
 _symmetry_equiv_pos_as_xyz
  1  'x, y, z'
loop_
 _atom_site_type_symbol
 _atom_site_label
 _atom_site_symmetry_multiplicity
 _atom_site_fract_x
 _atom_site_fract_y
 _atom_site_fract_z
 _atom_site_occupancy
  Tb  Tb0  1  0.812352  0.000709  0.500000  1
  Dy  Dy1  1  0.666588  0.332477  0.000000  1
  Dy  Dy2  1  0.333427  0.666882  0.000000  1
  Dy  Dy3  1  0.185406  0.187296  0.500000  1
  Dy  Dy4  1  0.000095  0.813273  0.500000  1
  P  P5  1  0.630780  0.997618  0.000000  1
  P  P6  1  0.366191  0.371860  0.000000  1
  P  P7  1  0.006098  0.633715  0.000000  1
  P  P8  1  0.687007  0.519521  0.500000  1
  P  P9  1  0.831107  0.308397  0.500000  1
  P  P10  1  0.314712  0.832398  0.500000  1
  P  P11  1  0.517892  0.685788  0.500000  1
  P  P12  1  0.180615  0.001308  0.000000  1
  P  P13  1  0.819619  0.818959  0.000000  1
  P  P14  1  0.996335  0.180632  0.000000  1
  P  P15  1  0.479063  0.165364  0.500000  1
  P  P16  1  0.168173  0.482920  0.500000  1
  Ru  Ru17  1  0.126898  0.641444  0.500000  1
  Ru  Ru18  1  0.360468  0.487019  0.500000  1
  Ru  Ru19  1  0.512562  0.871690  0.500000  1
  Ru  Ru20  1  0.716741  0.715143  0.500000  1
  Ru  Ru21  1  0.001249  0.285463  0.500000  1
  Ru  Ru22  1  0.450497  0.002667  0.000000  1
  Ru  Ru23  1  0.553031  0.547697  0.000000  1
  Ru  Ru24  1  0.000353  0.449574  0.000000  1
  Ru  Ru25  1  0.817189  0.195633  0.000000  1
  Ru  Ru26  1  0.283793  0.001298  0.500000  1
  Rh  Rh27  1  0.623993  0.803177  0.000000  1
  Rh  Rh28  1  0.180916  0.375698  0.000000  1
  Rh  Rh29  1  0.375137  0.184093  0.000000  1
  Rh  Rh30  1  0.196030  0.821383  0.000000  1
  Rh  Rh31  1  0.808601  0.623983  0.000000  1
  Rh  Rh32  1  0.870049  0.507611  0.500000  1
  Rh  Rh33  1  0.490147  0.359620  0.500000  1
  Rh  Rh34  1  0.637056  0.127540  0.500000  1
  Rh  Rh35  1  0.999834  0.000146  0.000000  1
