# generated using pymatgen
data_Tm3Th(InCu2)2
_symmetry_space_group_name_H-M   'P 1'
_cell_length_a   7.56932262
_cell_length_b   7.56932262
_cell_length_c   3.69120900
_cell_angle_alpha   90.00000000
_cell_angle_beta   90.00000000
_cell_angle_gamma   90.84668348
_symmetry_Int_Tables_number   1
_chemical_formula_structural   Tm3Th(InCu2)2
_chemical_formula_sum   'Tm3 Th1 In2 Cu4'
_cell_volume   211.46341778
_cell_formula_units_Z   1
loop_
 _symmetry_equiv_pos_site_id
 _symmetry_equiv_pos_as_xyz
  1  'x, y, z'
loop_
 _atom_site_type_symbol
 _atom_site_label
 _atom_site_symmetry_multiplicity
 _atom_site_fract_x
 _atom_site_fract_y
 _atom_site_fract_z
 _atom_site_occupancy
  Tm  Tm0  1  0.825439  0.325438  0.500000  1
  Tm  Tm1  1  0.673203  0.828675  0.500000  1
  Tm  Tm2  1  0.328674  0.173202  0.500000  1
  Th  Th3  1  0.173756  0.673757  0.500000  1
  In  In4  1  0.994012  0.006576  0.000000  1
  In  In5  1  0.506577  0.494013  0.000000  1
  Cu  Cu6  1  0.622000  0.121999  0.000000  1
  Cu  Cu7  1  0.384811  0.884812  0.000000  1
  Cu  Cu8  1  0.118248  0.373279  0.000000  1
  Cu  Cu9  1  0.873280  0.618249  0.000000  1
