# generated using pymatgen
data_NaVNiP2O9
_symmetry_space_group_name_H-M   'P 1'
_cell_length_a   6.47149500
_cell_length_b   7.49245200
_cell_length_c   14.26355600
_cell_angle_alpha   90.00000000
_cell_angle_beta   90.00000000
_cell_angle_gamma   90.00000000
_symmetry_Int_Tables_number   1
_chemical_formula_structural   NaVNiP2O9
_chemical_formula_sum   'Na4 V4 Ni4 P8 O36'
_cell_volume   691.60225532
_cell_formula_units_Z   4
loop_
 _symmetry_equiv_pos_site_id
 _symmetry_equiv_pos_as_xyz
  1  'x, y, z'
loop_
 _atom_site_type_symbol
 _atom_site_label
 _atom_site_symmetry_multiplicity
 _atom_site_fract_x
 _atom_site_fract_y
 _atom_site_fract_z
 _atom_site_occupancy
  Na  Na0  1  0.750000  0.873532  0.781556  1
  Na  Na1  1  0.750000  0.626468  0.281556  1
  Na  Na2  1  0.250000  0.126468  0.218444  1
  Na  Na3  1  0.250000  0.373532  0.718444  1
  V  V4  1  0.750000  0.352624  0.878377  1
  V  V5  1  0.250000  0.647376  0.121623  1
  V  V6  1  0.250000  0.852624  0.621623  1
  V  V7  1  0.750000  0.147376  0.378377  1
  Ni  Ni8  1  0.500000  0.000000  0.000000  1
  Ni  Ni9  1  0.500000  0.500000  0.500000  1
  Ni  Ni10  1  0.000000  0.500000  0.500000  1
  Ni  Ni11  1  0.000000  0.000000  0.000000  1
  P  P12  1  0.250000  0.350075  0.939754  1
  P  P13  1  0.750000  0.649925  0.060246  1
  P  P14  1  0.750000  0.850075  0.560246  1
  P  P15  1  0.250000  0.149925  0.439754  1
  P  P16  1  0.750000  0.395936  0.690950  1
  P  P17  1  0.250000  0.604064  0.309050  1
  P  P18  1  0.250000  0.895936  0.809050  1
  P  P19  1  0.750000  0.104064  0.190950  1
  O  O20  1  0.052602  0.602074  0.367708  1
  O  O21  1  0.552602  0.397926  0.632292  1
  O  O22  1  0.947398  0.102074  0.132292  1
  O  O23  1  0.447398  0.897926  0.867708  1
  O  O24  1  0.947398  0.397926  0.632292  1
  O  O25  1  0.447398  0.602074  0.367708  1
  O  O26  1  0.052602  0.897926  0.867708  1
  O  O27  1  0.552602  0.102074  0.132292  1
  O  O28  1  0.250000  0.337116  0.483990  1
  O  O29  1  0.750000  0.662884  0.516010  1
  O  O30  1  0.750000  0.837116  0.016010  1
  O  O31  1  0.250000  0.162884  0.983990  1
  O  O32  1  0.750000  0.158624  0.940169  1
  O  O33  1  0.250000  0.841376  0.059831  1
  O  O34  1  0.250000  0.658624  0.559831  1
  O  O35  1  0.750000  0.341376  0.440169  1
  O  O36  1  0.750000  0.225906  0.760475  1
  O  O37  1  0.250000  0.774094  0.239525  1
  O  O38  1  0.250000  0.725906  0.739525  1
  O  O39  1  0.750000  0.274094  0.260475  1
  O  O40  1  0.442189  0.124838  0.376084  1
  O  O41  1  0.942189  0.875162  0.623916  1
  O  O42  1  0.557811  0.624838  0.123916  1
  O  O43  1  0.057811  0.375162  0.876084  1
  O  O44  1  0.557811  0.875162  0.623916  1
  O  O45  1  0.057811  0.124838  0.376084  1
  O  O46  1  0.442189  0.375162  0.876084  1
  O  O47  1  0.942189  0.624838  0.123916  1
  O  O48  1  0.750000  0.961305  0.272592  1
  O  O49  1  0.250000  0.038695  0.727408  1
  O  O50  1  0.250000  0.461305  0.227408  1
  O  O51  1  0.750000  0.538695  0.772592  1
  O  O52  1  0.750000  0.988233  0.479988  1
  O  O53  1  0.250000  0.011767  0.520012  1
  O  O54  1  0.250000  0.488233  0.020012  1
  O  O55  1  0.750000  0.511767  0.979988  1
