# generated using pymatgen
data_Dy2Er2Si4TcRh3
_symmetry_space_group_name_H-M   'P 1'
_cell_length_a   4.30905500
_cell_length_b   6.93223100
_cell_length_c   7.26022163
_cell_angle_alpha   90.02215411
_cell_angle_beta   90.00000000
_cell_angle_gamma   90.00000000
_symmetry_Int_Tables_number   1
_chemical_formula_structural   Dy2Er2Si4TcRh3
_chemical_formula_sum   'Dy2 Er2 Si4 Tc1 Rh3'
_cell_volume   216.87271163
_cell_formula_units_Z   1
loop_
 _symmetry_equiv_pos_site_id
 _symmetry_equiv_pos_as_xyz
  1  'x, y, z'
loop_
 _atom_site_type_symbol
 _atom_site_label
 _atom_site_symmetry_multiplicity
 _atom_site_fract_x
 _atom_site_fract_y
 _atom_site_fract_z
 _atom_site_occupancy
  Dy  Dy0  1  0.750000  0.510558  0.311652  1
  Dy  Dy1  1  0.750000  0.003865  0.185494  1
  Er  Er2  1  0.250000  0.493139  0.691600  1
  Er  Er3  1  0.250000  0.997539  0.812561  1
  Si  Si4  1  0.250000  0.298256  0.107828  1
  Si  Si5  1  0.750000  0.701190  0.885039  1
  Si  Si6  1  0.250000  0.798041  0.402585  1
  Si  Si7  1  0.750000  0.199695  0.604251  1
  Tc  Tc8  1  0.750000  0.845602  0.568991  1
  Rh  Rh9  1  0.250000  0.155763  0.432764  1
  Rh  Rh10  1  0.750000  0.344038  0.932175  1
  Rh  Rh11  1  0.250000  0.652312  0.065060  1
