# generated using pymatgen
data_AcLa(CuSb2)2
_symmetry_space_group_name_H-M   'P 1'
_cell_length_a   4.46676800
_cell_length_b   4.46676800
_cell_length_c   10.44704800
_cell_angle_alpha   90.00000000
_cell_angle_beta   90.00000000
_cell_angle_gamma   90.00000000
_symmetry_Int_Tables_number   1
_chemical_formula_structural   AcLa(CuSb2)2
_chemical_formula_sum   'Ac1 La1 Cu2 Sb4'
_cell_volume   208.43967267
_cell_formula_units_Z   1
loop_
 _symmetry_equiv_pos_site_id
 _symmetry_equiv_pos_as_xyz
  1  'x, y, z'
loop_
 _atom_site_type_symbol
 _atom_site_label
 _atom_site_symmetry_multiplicity
 _atom_site_fract_x
 _atom_site_fract_y
 _atom_site_fract_z
 _atom_site_occupancy
  Ac  Ac0  1  0.000000  0.500000  0.749119  1
  La  La1  1  0.500000  0.000000  0.254695  1
  Cu  Cu2  1  0.500000  0.500000  0.496116  1
  Cu  Cu3  1  0.000000  0.000000  0.496116  1
  Sb  Sb4  1  0.500000  0.500000  0.007902  1
  Sb  Sb5  1  0.000000  0.000000  0.007902  1
  Sb  Sb6  1  0.000000  0.500000  0.350718  1
  Sb  Sb7  1  0.500000  0.000000  0.637432  1
