# generated using pymatgen
data_Sc12Ni2MoI16
_symmetry_space_group_name_H-M   'P 1'
_cell_length_a   9.10561273
_cell_length_b   11.93032753
_cell_length_c   12.70997683
_cell_angle_alpha   116.95027360
_cell_angle_beta   101.37086008
_cell_angle_gamma   100.47964718
_symmetry_Int_Tables_number   1
_chemical_formula_structural   Sc12Ni2MoI16
_chemical_formula_sum   'Sc12 Ni2 Mo1 I16'
_cell_volume   1147.02616504
_cell_formula_units_Z   1
loop_
 _symmetry_equiv_pos_site_id
 _symmetry_equiv_pos_as_xyz
  1  'x, y, z'
loop_
 _atom_site_type_symbol
 _atom_site_label
 _atom_site_symmetry_multiplicity
 _atom_site_fract_x
 _atom_site_fract_y
 _atom_site_fract_z
 _atom_site_occupancy
  Sc  Sc0  1  0.090043  0.273603  0.360862  1
  Sc  Sc1  1  0.909957  0.726397  0.639138  1
  Sc  Sc2  1  0.782192  0.536692  0.334845  1
  Sc  Sc3  1  0.217808  0.463308  0.665155  1
  Sc  Sc4  1  0.274146  0.726824  0.637408  1
  Sc  Sc5  1  0.725854  0.273176  0.362592  1
  Sc  Sc6  1  0.146501  0.537079  0.333198  1
  Sc  Sc7  1  0.853499  0.462921  0.666802  1
  Sc  Sc8  1  0.410178  0.366744  0.286213  1
  Sc  Sc9  1  0.589822  0.633256  0.713787  1
  Sc  Sc10  1  0.460499  0.315604  0.519394  1
  Sc  Sc11  1  0.539501  0.684396  0.480606  1
  Ni  Ni12  1  0.346224  0.500204  0.499421  1
  Ni  Ni13  1  0.653777  0.499796  0.500579  1
  Mo  Mo14  1  0.000000  0.500000  0.500000  1
  I  I15  1  0.395212  0.736076  0.877873  1
  I  I16  1  0.604788  0.263924  0.122127  1
  I  I17  1  0.187250  0.962271  0.780863  1
  I  I18  1  0.812750  0.037729  0.219137  1
  I  I19  1  0.337028  0.098867  0.255097  1
  I  I20  1  0.662972  0.901133  0.744903  1
  I  I21  1  0.564243  0.434664  0.793667  1
  I  I22  1  0.435757  0.565336  0.206333  1
  I  I23  1  0.306638  0.828030  0.464681  1
  I  I24  1  0.693362  0.171970  0.535319  1
  I  I25  1  0.167437  0.172897  0.534024  1
  I  I26  1  0.832563  0.827103  0.465976  1
  I  I27  1  0.925125  0.577978  0.163957  1
  I  I28  1  0.074875  0.422022  0.836043  1
  I  I29  1  0.923558  0.735746  0.879371  1
  I  I30  1  0.076442  0.264254  0.120629  1
