# generated using pymatgen
data_YTmSi3Ni
_symmetry_space_group_name_H-M   'P 1'
_cell_length_a   4.04127400
_cell_length_b   7.92921197
_cell_length_c   7.91636731
_cell_angle_alpha   119.94456940
_cell_angle_beta   90.00000000
_cell_angle_gamma   90.00000000
_symmetry_Int_Tables_number   1
_chemical_formula_structural   YTmSi3Ni
_chemical_formula_sum   'Y2 Tm2 Si6 Ni2'
_cell_volume   219.80987522
_cell_formula_units_Z   2
loop_
 _symmetry_equiv_pos_site_id
 _symmetry_equiv_pos_as_xyz
  1  'x, y, z'
loop_
 _atom_site_type_symbol
 _atom_site_label
 _atom_site_symmetry_multiplicity
 _atom_site_fract_x
 _atom_site_fract_y
 _atom_site_fract_z
 _atom_site_occupancy
  Y  Y0  1  0.500000  0.000007  0.000014  1
  Y  Y1  1  0.500000  0.999996  0.500339  1
  Tm  Tm2  1  0.500000  0.499648  0.499630  1
  Tm  Tm3  1  0.500000  0.500375  0.000029  1
  Si  Si4  1  0.000000  0.828183  0.170757  1
  Si  Si5  1  0.000000  0.828124  0.657505  1
  Si  Si6  1  0.000000  0.342642  0.171282  1
  Si  Si7  1  0.000000  0.171942  0.829355  1
  Si  Si8  1  0.000000  0.657388  0.828670  1
  Si  Si9  1  0.000000  0.171795  0.342522  1
  Ni  Ni10  1  0.000000  0.665155  0.332613  1
  Ni  Ni11  1  0.000000  0.334847  0.667385  1
