# generated using pymatgen
data_NdDy(TlSe4)2
_symmetry_space_group_name_H-M   'P 1'
_cell_length_a   6.20894700
_cell_length_b   6.20894700
_cell_length_c   8.56424600
_cell_angle_alpha   90.00000000
_cell_angle_beta   90.00000000
_cell_angle_gamma   90.00000000
_symmetry_Int_Tables_number   1
_chemical_formula_structural   NdDy(TlSe4)2
_chemical_formula_sum   'Nd1 Dy1 Tl2 Se8'
_cell_volume   330.16044323
_cell_formula_units_Z   1
loop_
 _symmetry_equiv_pos_site_id
 _symmetry_equiv_pos_as_xyz
  1  'x, y, z'
loop_
 _atom_site_type_symbol
 _atom_site_label
 _atom_site_symmetry_multiplicity
 _atom_site_fract_x
 _atom_site_fract_y
 _atom_site_fract_z
 _atom_site_occupancy
  Nd  Nd0  1  0.000000  0.000000  0.500000  1
  Dy  Dy1  1  0.500000  0.500000  0.500000  1
  Tl  Tl2  1  0.000000  0.000000  0.000000  1
  Tl  Tl3  1  0.500000  0.500000  0.000000  1
  Se  Se4  1  0.629132  0.146824  0.288766  1
  Se  Se5  1  0.146824  0.370868  0.288766  1
  Se  Se6  1  0.853176  0.629132  0.288766  1
  Se  Se7  1  0.370868  0.853176  0.288766  1
  Se  Se8  1  0.370868  0.146824  0.711234  1
  Se  Se9  1  0.853176  0.370868  0.711234  1
  Se  Se10  1  0.146824  0.629132  0.711234  1
  Se  Se11  1  0.629132  0.853176  0.711234  1
