# generated using pymatgen
data_Yb4Sn2Sb4Ir7
_symmetry_space_group_name_H-M   'P 1'
_cell_length_a   7.57874124
_cell_length_b   7.57874177
_cell_length_c   7.57539702
_cell_angle_alpha   109.26929574
_cell_angle_beta   109.26929536
_cell_angle_gamma   109.89357251
_symmetry_Int_Tables_number   1
_chemical_formula_structural   Yb4Sn2Sb4Ir7
_chemical_formula_sum   'Yb4 Sn2 Sb4 Ir7'
_cell_volume   334.86178008
_cell_formula_units_Z   1
loop_
 _symmetry_equiv_pos_site_id
 _symmetry_equiv_pos_as_xyz
  1  'x, y, z'
loop_
 _atom_site_type_symbol
 _atom_site_label
 _atom_site_symmetry_multiplicity
 _atom_site_fract_x
 _atom_site_fract_y
 _atom_site_fract_z
 _atom_site_occupancy
  Yb  Yb0  1  0.507022  0.999239  0.000000  1
  Yb  Yb1  1  0.000761  0.492978  0.000000  1
  Yb  Yb2  1  0.001232  0.998768  0.500000  1
  Yb  Yb3  1  0.501232  0.498768  0.500000  1
  Sn  Sn4  1  0.308664  0.996858  0.305522  1
  Sn  Sn5  1  0.003142  0.691336  0.694478  1
  Sb  Sb6  1  0.687780  0.682139  0.000000  1
  Sb  Sb7  1  0.678170  0.997018  0.675189  1
  Sb  Sb8  1  0.002982  0.321830  0.324811  1
  Sb  Sb9  1  0.317861  0.312220  0.000000  1
  Ir  Ir10  1  0.252943  0.501818  0.754761  1
  Ir  Ir11  1  0.498230  0.247876  0.746105  1
  Ir  Ir12  1  0.748191  0.251809  0.500000  1
  Ir  Ir13  1  0.498182  0.747057  0.245239  1
  Ir  Ir14  1  0.993295  0.006705  0.000000  1
  Ir  Ir15  1  0.248191  0.751809  0.500000  1
  Ir  Ir16  1  0.752124  0.501770  0.253895  1
