# generated using pymatgen
data_Dy7Er9(In3Tc)2
_symmetry_space_group_name_H-M   'P 1'
_cell_length_a   10.37263000
_cell_length_b   10.37545192
_cell_length_c   7.02839180
_cell_angle_alpha   89.95156063
_cell_angle_beta   90.00213365
_cell_angle_gamma   119.99016252
_symmetry_Int_Tables_number   1
_chemical_formula_structural   Dy7Er9(In3Tc)2
_chemical_formula_sum   'Dy7 Er9 In6 Tc2'
_cell_volume   655.12677386
_cell_formula_units_Z   1
loop_
 _symmetry_equiv_pos_site_id
 _symmetry_equiv_pos_as_xyz
  1  'x, y, z'
loop_
 _atom_site_type_symbol
 _atom_site_label
 _atom_site_symmetry_multiplicity
 _atom_site_fract_x
 _atom_site_fract_y
 _atom_site_fract_z
 _atom_site_occupancy
  Dy  Dy0  1  0.531411  0.062812  0.796558  1
  Dy  Dy1  1  0.937509  0.468527  0.797001  1
  Dy  Dy2  1  0.531017  0.468514  0.796980  1
  Dy  Dy3  1  0.468758  0.937510  0.296649  1
  Dy  Dy4  1  0.062891  0.531293  0.296405  1
  Dy  Dy5  1  0.468398  0.531285  0.296407  1
  Dy  Dy6  1  0.822989  0.645957  0.499314  1
  Er  Er7  1  0.354431  0.177275  0.498893  1
  Er  Er8  1  0.822820  0.177264  0.498911  1
  Er  Er9  1  0.177046  0.354111  0.998905  1
  Er  Er10  1  0.645840  0.822796  0.998939  1
  Er  Er11  1  0.176980  0.822796  0.998939  1
  Er  Er12  1  0.666538  0.333059  0.168961  1
  Er  Er13  1  0.333323  0.666603  0.670027  1
  Er  Er14  1  0.000038  0.000101  0.775837  1
  Er  Er15  1  0.000015  0.000064  0.275809  1
  In  In16  1  0.837265  0.674525  0.038288  1
  In  In17  1  0.325566  0.162729  0.038709  1
  In  In18  1  0.837136  0.162698  0.038671  1
  In  In19  1  0.162776  0.325547  0.538440  1
  In  In20  1  0.673830  0.837427  0.538861  1
  In  In21  1  0.163618  0.837469  0.538866  1
  Tc  Tc22  1  0.666459  0.332937  0.569807  1
  Tc  Tc23  1  0.333347  0.666701  0.069730  1
