# generated using pymatgen
data_Na4SnPtO6
_symmetry_space_group_name_H-M   'P 1'
_cell_length_a   5.56036567
_cell_length_b   5.56036712
_cell_length_c   5.75787357
_cell_angle_alpha   99.37650101
_cell_angle_beta   99.37650454
_cell_angle_gamma   119.94216229
_symmetry_Int_Tables_number   1
_chemical_formula_structural   Na4SnPtO6
_chemical_formula_sum   'Na4 Sn1 Pt1 O6'
_cell_volume   145.85591388
_cell_formula_units_Z   1
loop_
 _symmetry_equiv_pos_site_id
 _symmetry_equiv_pos_as_xyz
  1  'x, y, z'
loop_
 _atom_site_type_symbol
 _atom_site_label
 _atom_site_symmetry_multiplicity
 _atom_site_fract_x
 _atom_site_fract_y
 _atom_site_fract_z
 _atom_site_occupancy
  Na  Na0  1  0.500741  0.499259  0.000000  1
  Na  Na1  1  0.991369  0.008633  0.500000  1
  Na  Na2  1  0.660699  0.339303  0.500000  1
  Na  Na3  1  0.343507  0.656494  0.500000  1
  Sn  Sn4  1  0.167539  0.832461  0.000000  1
  Pt  Pt5  1  0.833329  0.166672  0.000000  1
  O  O6  1  0.577529  0.939474  0.209966  1
  O  O7  1  0.203439  0.208913  0.211535  1
  O  O8  1  0.933934  0.563715  0.211588  1
  O  O9  1  0.436284  0.066065  0.788412  1
  O  O10  1  0.791086  0.796561  0.788464  1
  O  O11  1  0.060526  0.422471  0.790035  1
