# generated using pymatgen
data_Y6Zn4Pd8Pt5
_symmetry_space_group_name_H-M   'P 1'
_cell_length_a   8.27495014
_cell_length_b   8.27483455
_cell_length_c   8.26244726
_cell_angle_alpha   109.41113430
_cell_angle_beta   109.38676848
_cell_angle_gamma   109.50228090
_symmetry_Int_Tables_number   1
_chemical_formula_structural   Y6Zn4Pd8Pt5
_chemical_formula_sum   'Y6 Zn4 Pd8 Pt5'
_cell_volume   436.13192336
_cell_formula_units_Z   1
loop_
 _symmetry_equiv_pos_site_id
 _symmetry_equiv_pos_as_xyz
  1  'x, y, z'
loop_
 _atom_site_type_symbol
 _atom_site_label
 _atom_site_symmetry_multiplicity
 _atom_site_fract_x
 _atom_site_fract_y
 _atom_site_fract_z
 _atom_site_occupancy
  Y  Y0  1  0.700533  0.700176  0.001111  1
  Y  Y1  1  0.298910  0.999950  0.300213  1
  Y  Y2  1  0.999204  0.298785  0.299294  1
  Y  Y3  1  0.300432  0.299843  0.999409  1
  Y  Y4  1  0.700587  0.000935  0.700984  1
  Y  Y5  1  0.000051  0.700572  0.699919  1
  Zn  Zn6  1  0.999974  0.999986  0.499933  1
  Zn  Zn7  1  0.000406  0.500036  0.999725  1
  Zn  Zn8  1  0.499927  0.999808  0.999861  1
  Zn  Zn9  1  0.499933  0.500059  0.499898  1
  Pd  Pd10  1  0.333932  0.667035  0.333649  1
  Pd  Pd11  1  0.000111  0.334017  0.667075  1
  Pd  Pd12  1  0.332920  0.666501  0.999720  1
  Pd  Pd13  1  0.333520  0.999500  0.666699  1
  Pd  Pd14  1  0.667021  0.333957  0.334197  1
  Pd  Pd15  1  0.665955  0.666284  0.333641  1
  Pd  Pd16  1  0.666781  0.333012  0.666047  1
  Pd  Pd17  1  0.332882  0.666600  0.666331  1
  Pt  Pt18  1  0.333295  0.333750  0.666311  1
  Pt  Pt19  1  0.666215  0.999879  0.333287  1
  Pt  Pt20  1  0.000453  0.666501  0.333640  1
  Pt  Pt21  1  0.666761  0.333076  0.999930  1
  Pt  Pt22  1  0.000200  0.999738  0.999125  1
