# generated using pymatgen
data_LaTbPa2(NiP)4
_symmetry_space_group_name_H-M   'P 1'
_cell_length_a   3.91410400
_cell_length_b   3.91410270
_cell_length_c   15.74651600
_cell_angle_alpha   90.00000000
_cell_angle_beta   90.00000000
_cell_angle_gamma   120.00001096
_symmetry_Int_Tables_number   1
_chemical_formula_structural   LaTbPa2(NiP)4
_chemical_formula_sum   'La1 Tb1 Pa2 Ni4 P4'
_cell_volume   208.91981883
_cell_formula_units_Z   1
loop_
 _symmetry_equiv_pos_site_id
 _symmetry_equiv_pos_as_xyz
  1  'x, y, z'
loop_
 _atom_site_type_symbol
 _atom_site_label
 _atom_site_symmetry_multiplicity
 _atom_site_fract_x
 _atom_site_fract_y
 _atom_site_fract_z
 _atom_site_occupancy
  La  La0  1  0.000000  0.000000  0.750000  1
  Tb  Tb1  1  0.000000  0.000000  0.250000  1
  Pa  Pa2  1  0.000000  0.000000  0.495535  1
  Pa  Pa3  1  0.000000  0.000000  0.004465  1
  Ni  Ni4  1  0.333333  0.666667  0.383380  1
  Ni  Ni5  1  0.666667  0.333333  0.603255  1
  Ni  Ni6  1  0.666667  0.333333  0.896745  1
  Ni  Ni7  1  0.333333  0.666667  0.116620  1
  P  P8  1  0.333333  0.666667  0.880037  1
  P  P9  1  0.666667  0.333333  0.128940  1
  P  P10  1  0.666667  0.333333  0.371060  1
  P  P11  1  0.333333  0.666667  0.619963  1
