# generated using pymatgen
data_Dy8Al2CoRu
_symmetry_space_group_name_H-M   'P 1'
_cell_length_a   9.45157619
_cell_length_b   9.45157569
_cell_length_c   9.47642100
_cell_angle_alpha   59.91300880
_cell_angle_beta   59.91301057
_cell_angle_gamma   59.85279367
_symmetry_Int_Tables_number   1
_chemical_formula_structural   Dy8Al2CoRu
_chemical_formula_sum   'Dy16 Al4 Co2 Ru2'
_cell_volume   597.14706120
_cell_formula_units_Z   2
loop_
 _symmetry_equiv_pos_site_id
 _symmetry_equiv_pos_as_xyz
  1  'x, y, z'
loop_
 _atom_site_type_symbol
 _atom_site_label
 _atom_site_symmetry_multiplicity
 _atom_site_fract_x
 _atom_site_fract_y
 _atom_site_fract_z
 _atom_site_occupancy
  Dy  Dy0  1  0.803644  0.191066  0.194559  1
  Dy  Dy1  1  0.191066  0.803644  0.810731  1
  Dy  Dy2  1  0.191066  0.803644  0.194559  1
  Dy  Dy3  1  0.803644  0.191066  0.810731  1
  Dy  Dy4  1  0.193501  0.193501  0.806499  1
  Dy  Dy5  1  0.806883  0.806883  0.193117  1
  Dy  Dy6  1  0.938113  0.560013  0.563328  1
  Dy  Dy7  1  0.560013  0.938113  0.938545  1
  Dy  Dy8  1  0.560013  0.938113  0.563328  1
  Dy  Dy9  1  0.938113  0.560013  0.938545  1
  Dy  Dy10  1  0.563994  0.563994  0.936006  1
  Dy  Dy11  1  0.941330  0.941330  0.558670  1
  Dy  Dy12  1  0.351260  0.351260  0.344539  1
  Dy  Dy13  1  0.351260  0.351260  0.952941  1
  Dy  Dy14  1  0.355059  0.948083  0.348429  1
  Dy  Dy15  1  0.948083  0.355059  0.348429  1
  Al  Al16  1  0.576143  0.576143  0.577991  1
  Al  Al17  1  0.576143  0.576143  0.269723  1
  Al  Al18  1  0.575808  0.269587  0.577302  1
  Al  Al19  1  0.269587  0.575808  0.577302  1
  Co  Co20  1  0.141385  0.580653  0.138981  1
  Co  Co21  1  0.580653  0.141385  0.138981  1
  Ru  Ru22  1  0.141619  0.141619  0.138157  1
  Ru  Ru23  1  0.141619  0.141619  0.578605  1
