# generated using pymatgen
data_DyHo7Ti11Si16Pt
_symmetry_space_group_name_H-M   'P 1'
_cell_length_a   7.04075325
_cell_length_b   7.04010622
_cell_length_c   12.84443795
_cell_angle_alpha   90.18776939
_cell_angle_beta   89.81217011
_cell_angle_gamma   89.69584955
_symmetry_Int_Tables_number   1
_chemical_formula_structural   DyHo7Ti11Si16Pt
_chemical_formula_sum   'Dy1 Ho7 Ti11 Si16 Pt1'
_cell_volume   636.65276729
_cell_formula_units_Z   1
loop_
 _symmetry_equiv_pos_site_id
 _symmetry_equiv_pos_as_xyz
  1  'x, y, z'
loop_
 _atom_site_type_symbol
 _atom_site_label
 _atom_site_symmetry_multiplicity
 _atom_site_fract_x
 _atom_site_fract_y
 _atom_site_fract_z
 _atom_site_occupancy
  Dy  Dy0  1  0.340416  0.003889  0.466977  1
  Ho  Ho1  1  0.496695  0.842049  0.717900  1
  Ho  Ho2  1  0.501284  0.157192  0.214308  1
  Ho  Ho3  1  0.842151  0.496713  0.282056  1
  Ho  Ho4  1  0.157095  0.501346  0.785681  1
  Ho  Ho5  1  0.655933  0.998941  0.968676  1
  Ho  Ho6  1  0.003466  0.340683  0.533128  1
  Ho  Ho7  1  0.998918  0.656005  0.031331  1
  Ti  Ti8  1  0.175903  0.825853  0.248528  1
  Ti  Ti9  1  0.825904  0.175917  0.751488  1
  Ti  Ti10  1  0.673242  0.672971  0.499994  1
  Ti  Ti11  1  0.148275  0.004835  0.877118  1
  Ti  Ti12  1  0.494560  0.654267  0.123902  1
  Ti  Ti13  1  0.507360  0.350279  0.627649  1
  Ti  Ti14  1  0.654348  0.494545  0.875967  1
  Ti  Ti15  1  0.350375  0.507074  0.372502  1
  Ti  Ti16  1  0.849793  0.993438  0.374487  1
  Ti  Ti17  1  0.004780  0.148417  0.122865  1
  Ti  Ti18  1  0.993513  0.849713  0.625636  1
  Si  Si19  1  0.201255  0.133326  0.685832  1
  Si  Si20  1  0.372610  0.709558  0.931792  1
  Si  Si21  1  0.631702  0.295182  0.433432  1
  Si  Si22  1  0.709617  0.372653  0.068200  1
  Si  Si23  1  0.294846  0.630891  0.566702  1
  Si  Si24  1  0.797603  0.867405  0.183177  1
  Si  Si25  1  0.132997  0.201623  0.314114  1
  Si  Si26  1  0.867309  0.797535  0.816853  1
  Si  Si27  1  0.285695  0.943815  0.064677  1
  Si  Si28  1  0.547934  0.791281  0.314887  1
  Si  Si29  1  0.449593  0.209935  0.815592  1
  Si  Si30  1  0.791524  0.547795  0.684973  1
  Si  Si31  1  0.209978  0.449719  0.184399  1
  Si  Si32  1  0.708801  0.048053  0.565464  1
  Si  Si33  1  0.943823  0.285769  0.935363  1
  Si  Si34  1  0.047805  0.708143  0.434636  1
  Pt  Pt35  1  0.332897  0.333191  0.999713  1
