# generated using pymatgen
data_La8SmHoSn6
_symmetry_space_group_name_H-M   'P 1'
_cell_length_a   9.50208075
_cell_length_b   9.50208123
_cell_length_c   9.50208064
_cell_angle_alpha   96.20764425
_cell_angle_beta   96.20764797
_cell_angle_gamma   141.60391797
_symmetry_Int_Tables_number   1
_chemical_formula_structural   La8SmHoSn6
_chemical_formula_sum   'La8 Sm1 Ho1 Sn6'
_cell_volume   503.22698400
_cell_formula_units_Z   1
loop_
 _symmetry_equiv_pos_site_id
 _symmetry_equiv_pos_as_xyz
  1  'x, y, z'
loop_
 _atom_site_type_symbol
 _atom_site_label
 _atom_site_symmetry_multiplicity
 _atom_site_fract_x
 _atom_site_fract_y
 _atom_site_fract_z
 _atom_site_occupancy
  La  La0  1  0.911088  0.222475  0.133389  1
  La  La1  1  0.222301  0.088912  0.311387  1
  La  La2  1  0.777525  0.910914  0.688613  1
  La  La3  1  0.089086  0.777699  0.866611  1
  La  La4  1  0.722475  0.411088  0.133389  1
  La  La5  1  0.277699  0.589086  0.866611  1
  La  La6  1  0.588912  0.722301  0.311387  1
  La  La7  1  0.410914  0.277525  0.688613  1
  Sm  Sm8  1  0.750000  0.250000  0.500000  1
  Ho  Ho9  1  0.250000  0.750000  0.500000  1
  Sn  Sn10  1  0.750000  0.750000  0.000000  1
  Sn  Sn11  1  0.250000  0.250000  0.000000  1
  Sn  Sn12  1  0.847166  0.657872  0.500000  1
  Sn  Sn13  1  0.652834  0.152834  0.810707  1
  Sn  Sn14  1  0.342128  0.842128  0.189293  1
  Sn  Sn15  1  0.157872  0.347166  0.500000  1
