# generated using pymatgen
data_Na4FeSbO6
_symmetry_space_group_name_H-M   'P 1'
_cell_length_a   5.49195908
_cell_length_b   5.49195805
_cell_length_c   5.79397389
_cell_angle_alpha   99.34499928
_cell_angle_beta   99.34426946
_cell_angle_gamma   119.94332684
_symmetry_Int_Tables_number   1
_chemical_formula_structural   Na4FeSbO6
_chemical_formula_sum   'Na4 Fe1 Sb1 O6'
_cell_volume   143.23634384
_cell_formula_units_Z   1
loop_
 _symmetry_equiv_pos_site_id
 _symmetry_equiv_pos_as_xyz
  1  'x, y, z'
loop_
 _atom_site_type_symbol
 _atom_site_label
 _atom_site_symmetry_multiplicity
 _atom_site_fract_x
 _atom_site_fract_y
 _atom_site_fract_z
 _atom_site_occupancy
  Na  Na0  1  0.500137  0.499883  0.999991  1
  Na  Na1  1  0.995723  0.004283  0.500000  1
  Na  Na2  1  0.659745  0.340268  0.499998  1
  Na  Na3  1  0.342308  0.657702  0.499998  1
  Fe  Fe4  1  0.832536  0.167391  0.000037  1
  Sb  Sb5  1  0.167385  0.832604  0.999985  1
  O  O6  1  0.201435  0.193473  0.208200  1
  O  O7  1  0.563565  0.939676  0.207749  1
  O  O8  1  0.947845  0.577549  0.205827  1
  O  O9  1  0.422454  0.052159  0.794169  1
  O  O10  1  0.060329  0.436445  0.792249  1
  O  O11  1  0.806530  0.798568  0.791793  1
