# generated using pymatgen
data_Nb4GaC3
_symmetry_space_group_name_H-M   'P 1'
_cell_length_a   3.17325700
_cell_length_b   3.17325660
_cell_length_c   24.10975400
_cell_angle_alpha   90.00000000
_cell_angle_beta   90.00000000
_cell_angle_gamma   119.99999376
_symmetry_Int_Tables_number   1
_chemical_formula_structural   Nb4GaC3
_chemical_formula_sum   'Nb8 Ga2 C6'
_cell_volume   210.24896992
_cell_formula_units_Z   2
loop_
 _symmetry_equiv_pos_site_id
 _symmetry_equiv_pos_as_xyz
  1  'x, y, z'
loop_
 _atom_site_type_symbol
 _atom_site_label
 _atom_site_symmetry_multiplicity
 _atom_site_fract_x
 _atom_site_fract_y
 _atom_site_fract_z
 _atom_site_occupancy
  Nb  Nb0  1  0.000000  0.000000  0.341695  1
  Nb  Nb1  1  0.000000  0.000000  0.658305  1
  Nb  Nb2  1  0.000000  0.000000  0.841695  1
  Nb  Nb3  1  0.000000  0.000000  0.158305  1
  Nb  Nb4  1  0.333333  0.666667  0.444199  1
  Nb  Nb5  1  0.666667  0.333333  0.555801  1
  Nb  Nb6  1  0.666667  0.333333  0.944199  1
  Nb  Nb7  1  0.333333  0.666667  0.055801  1
  Ga  Ga8  1  0.333333  0.666667  0.250000  1
  Ga  Ga9  1  0.666667  0.333333  0.750000  1
  C  C10  1  0.000000  0.000000  0.500000  1
  C  C11  1  0.000000  0.000000  0.000000  1
  C  C12  1  0.666667  0.333333  0.390449  1
  C  C13  1  0.333333  0.666667  0.609551  1
  C  C14  1  0.333333  0.666667  0.890449  1
  C  C15  1  0.666667  0.333333  0.109551  1
