# generated using pymatgen
data_Hf8Ti8Nb4Ge15P
_symmetry_space_group_name_H-M   'P 1'
_cell_length_a   6.77137377
_cell_length_b   6.89815182
_cell_length_c   13.13531400
_cell_angle_alpha   90.00000000
_cell_angle_beta   90.00000000
_cell_angle_gamma   89.91701822
_symmetry_Int_Tables_number   1
_chemical_formula_structural   Hf8Ti8Nb4Ge15P
_chemical_formula_sum   'Hf8 Ti8 Nb4 Ge15 P1'
_cell_volume   613.54940395
_cell_formula_units_Z   1
loop_
 _symmetry_equiv_pos_site_id
 _symmetry_equiv_pos_as_xyz
  1  'x, y, z'
loop_
 _atom_site_type_symbol
 _atom_site_label
 _atom_site_symmetry_multiplicity
 _atom_site_fract_x
 _atom_site_fract_y
 _atom_site_fract_z
 _atom_site_occupancy
  Hf  Hf0  1  0.490182  0.668957  0.595562  1
  Hf  Hf1  1  0.991198  0.825157  0.906716  1
  Hf  Hf2  1  0.508427  0.325519  0.092595  1
  Hf  Hf3  1  0.008890  0.175091  0.406412  1
  Hf  Hf4  1  0.508427  0.325519  0.407405  1
  Hf  Hf5  1  0.008890  0.175091  0.093588  1
  Hf  Hf6  1  0.490182  0.668957  0.904438  1
  Hf  Hf7  1  0.991198  0.825157  0.593284  1
  Ti  Ti8  1  0.651654  0.174569  0.625922  1
  Ti  Ti9  1  0.168163  0.333524  0.873599  1
  Ti  Ti10  1  0.342588  0.830936  0.124045  1
  Ti  Ti11  1  0.840754  0.667691  0.376019  1
  Ti  Ti12  1  0.342588  0.830936  0.375955  1
  Ti  Ti13  1  0.840754  0.667691  0.123981  1
  Ti  Ti14  1  0.651654  0.174569  0.874078  1
  Ti  Ti15  1  0.168163  0.333524  0.626401  1
  Nb  Nb16  1  0.822743  0.492903  0.750000  1
  Nb  Nb17  1  0.331498  0.010465  0.750000  1
  Nb  Nb18  1  0.170225  0.504922  0.250000  1
  Nb  Nb19  1  0.670456  0.993358  0.250000  1
  Ge  Ge20  1  0.682921  0.959763  0.463184  1
  Ge  Ge21  1  0.183360  0.540424  0.037825  1
  Ge  Ge22  1  0.316303  0.039062  0.962165  1
  Ge  Ge23  1  0.819903  0.458527  0.538335  1
  Ge  Ge24  1  0.316303  0.039062  0.537835  1
  Ge  Ge25  1  0.819903  0.458527  0.961665  1
  Ge  Ge26  1  0.682921  0.959763  0.036816  1
  Ge  Ge27  1  0.183360  0.540424  0.462175  1
  Ge  Ge28  1  0.956582  0.121526  0.750000  1
  Ge  Ge29  1  0.542881  0.619928  0.250000  1
  Ge  Ge30  1  0.043119  0.879140  0.250000  1
  Ge  Ge31  1  0.692848  0.859450  0.750000  1
  Ge  Ge32  1  0.189387  0.643975  0.750000  1
  Ge  Ge33  1  0.308206  0.141977  0.250000  1
  Ge  Ge34  1  0.806955  0.357134  0.250000  1
  P  P35  1  0.456412  0.376784  0.750000  1
