# generated using pymatgen
data_Dy11Hg9Pt4
_symmetry_space_group_name_H-M   'P 1'
_cell_length_a   3.69157000
_cell_length_b   13.09800110
_cell_length_c   13.09800092
_cell_angle_alpha   112.26177564
_cell_angle_beta   90.00000000
_cell_angle_gamma   90.00000000
_symmetry_Int_Tables_number   1
_chemical_formula_structural   Dy11Hg9Pt4
_chemical_formula_sum   'Dy11 Hg9 Pt4'
_cell_volume   586.11123926
_cell_formula_units_Z   1
loop_
 _symmetry_equiv_pos_site_id
 _symmetry_equiv_pos_as_xyz
  1  'x, y, z'
loop_
 _atom_site_type_symbol
 _atom_site_label
 _atom_site_symmetry_multiplicity
 _atom_site_fract_x
 _atom_site_fract_y
 _atom_site_fract_z
 _atom_site_occupancy
  Dy  Dy0  1  0.000000  0.923374  0.584379  1
  Dy  Dy1  1  0.000000  0.076626  0.415621  1
  Dy  Dy2  1  0.000000  0.584379  0.923374  1
  Dy  Dy3  1  0.000000  0.415621  0.076626  1
  Dy  Dy4  1  0.000000  0.165665  0.834335  1
  Dy  Dy5  1  0.000000  0.834335  0.165665  1
  Dy  Dy6  1  0.000000  0.372269  0.627731  1
  Dy  Dy7  1  0.000000  0.627731  0.372269  1
  Dy  Dy8  1  0.000000  0.694488  0.694488  1
  Dy  Dy9  1  0.000000  0.305512  0.305512  1
  Dy  Dy10  1  0.000000  0.000000  0.000000  1
  Hg  Hg11  1  0.500000  0.153167  0.633021  1
  Hg  Hg12  1  0.500000  0.846833  0.366979  1
  Hg  Hg13  1  0.500000  0.633021  0.153167  1
  Hg  Hg14  1  0.500000  0.366979  0.846833  1
  Hg  Hg15  1  0.500000  0.937335  0.788305  1
  Hg  Hg16  1  0.500000  0.062665  0.211695  1
  Hg  Hg17  1  0.500000  0.788305  0.937335  1
  Hg  Hg18  1  0.500000  0.211695  0.062665  1
  Hg  Hg19  1  0.500000  0.500000  0.500000  1
  Pt  Pt20  1  0.500000  0.750781  0.549945  1
  Pt  Pt21  1  0.500000  0.249219  0.450055  1
  Pt  Pt22  1  0.500000  0.549945  0.750781  1
  Pt  Pt23  1  0.500000  0.450055  0.249219  1
