# generated using pymatgen
data_Y2Ho2Zn4Si3Ge
_symmetry_space_group_name_H-M   'P 1'
_cell_length_a   4.18555900
_cell_length_b   4.18555975
_cell_length_c   15.60784300
_cell_angle_alpha   90.00000000
_cell_angle_beta   90.00000000
_cell_angle_gamma   120.00000198
_symmetry_Int_Tables_number   1
_chemical_formula_structural   Y2Ho2Zn4Si3Ge
_chemical_formula_sum   'Y2 Ho2 Zn4 Si3 Ge1'
_cell_volume   236.79936037
_cell_formula_units_Z   1
loop_
 _symmetry_equiv_pos_site_id
 _symmetry_equiv_pos_as_xyz
  1  'x, y, z'
loop_
 _atom_site_type_symbol
 _atom_site_label
 _atom_site_symmetry_multiplicity
 _atom_site_fract_x
 _atom_site_fract_y
 _atom_site_fract_z
 _atom_site_occupancy
  Y  Y0  1  0.000000  0.000000  0.497999  1
  Y  Y1  1  0.000000  0.000000  0.000409  1
  Ho  Ho2  1  0.000000  0.000000  0.752192  1
  Ho  Ho3  1  0.000000  0.000000  0.249499  1
  Zn  Zn4  1  0.666667  0.333333  0.860737  1
  Zn  Zn5  1  0.666667  0.333333  0.645546  1
  Zn  Zn6  1  0.333333  0.666667  0.140376  1
  Zn  Zn7  1  0.333333  0.666667  0.358399  1
  Si  Si8  1  0.666667  0.333333  0.118566  1
  Si  Si9  1  0.666667  0.333333  0.380119  1
  Si  Si10  1  0.333333  0.666667  0.881436  1
  Ge  Ge11  1  0.333333  0.666667  0.614722  1
