# generated using pymatgen
data_Er8Lu4Co4CuSn
_symmetry_space_group_name_H-M   'P 1'
_cell_length_a   8.20602533
_cell_length_b   8.20567627
_cell_length_c   8.20602576
_cell_angle_alpha   111.21130233
_cell_angle_beta   110.39880348
_cell_angle_gamma   106.83800341
_symmetry_Int_Tables_number   1
_chemical_formula_structural   Er8Lu4Co4CuSn
_chemical_formula_sum   'Er8 Lu4 Co4 Cu1 Sn1'
_cell_volume   424.66006968
_cell_formula_units_Z   1
loop_
 _symmetry_equiv_pos_site_id
 _symmetry_equiv_pos_as_xyz
  1  'x, y, z'
loop_
 _atom_site_type_symbol
 _atom_site_label
 _atom_site_symmetry_multiplicity
 _atom_site_fract_x
 _atom_site_fract_y
 _atom_site_fract_z
 _atom_site_occupancy
  Er  Er0  1  0.419674  0.217978  0.201689  1
  Er  Er1  1  0.580326  0.782022  0.798311  1
  Er  Er2  1  0.016289  0.217978  0.798304  1
  Er  Er3  1  0.983711  0.782022  0.201696  1
  Er  Er4  1  0.185271  0.288391  0.473663  1
  Er  Er5  1  0.814729  0.711609  0.526337  1
  Er  Er6  1  0.185273  0.711609  0.896880  1
  Er  Er7  1  0.814727  0.288391  0.103120  1
  Lu  Lu8  1  0.314925  0.619616  0.304690  1
  Lu  Lu9  1  0.685075  0.380385  0.695310  1
  Lu  Lu10  1  0.314918  0.010240  0.695322  1
  Lu  Lu11  1  0.685082  0.989760  0.304678  1
  Co  Co12  1  0.114151  0.614142  0.499991  1
  Co  Co13  1  0.885850  0.385859  0.500009  1
  Co  Co14  1  0.377386  0.000000  0.377386  1
  Co  Co15  1  0.622614  0.000000  0.622614  1
  Cu  Cu16  1  0.000000  0.000000  0.000000  1
  Sn  Sn17  1  0.500000  0.500000  0.000000  1
