# generated using pymatgen
data_Rb8Ba4ZrSnP8
_symmetry_space_group_name_H-M   'P 1'
_cell_length_a   10.67649523
_cell_length_b   10.66125286
_cell_length_c   8.01319017
_cell_angle_alpha   88.31257773
_cell_angle_beta   88.31051820
_cell_angle_gamma   119.52623707
_symmetry_Int_Tables_number   1
_chemical_formula_structural   Rb8Ba4ZrSnP8
_chemical_formula_sum   'Rb8 Ba4 Zr1 Sn1 P8'
_cell_volume   792.28587567
_cell_formula_units_Z   1
loop_
 _symmetry_equiv_pos_site_id
 _symmetry_equiv_pos_as_xyz
  1  'x, y, z'
loop_
 _atom_site_type_symbol
 _atom_site_label
 _atom_site_symmetry_multiplicity
 _atom_site_fract_x
 _atom_site_fract_y
 _atom_site_fract_z
 _atom_site_occupancy
  Rb  Rb0  1  0.057356  0.526112  0.612458  1
  Rb  Rb1  1  0.526509  0.058804  0.113883  1
  Rb  Rb2  1  0.277776  0.133316  0.825671  1
  Rb  Rb3  1  0.872084  0.732463  0.763997  1
  Rb  Rb4  1  0.859509  0.143309  0.798481  1
  Rb  Rb5  1  0.732487  0.872219  0.264355  1
  Rb  Rb6  1  0.133488  0.277448  0.325394  1
  Rb  Rb7  1  0.143268  0.860184  0.298522  1
  Ba  Ba8  1  0.466598  0.933222  0.601725  1
  Ba  Ba9  1  0.467395  0.523929  0.618989  1
  Ba  Ba10  1  0.929406  0.464726  0.106969  1
  Ba  Ba11  1  0.525095  0.464657  0.121916  1
  Zr  Zr12  1  0.335834  0.666129  0.011581  1
  Sn  Sn13  1  0.666369  0.335602  0.508024  1
  P  P14  1  0.671507  0.357666  0.831600  1
  P  P15  1  0.358346  0.672060  0.331813  1
  P  P16  1  0.589025  0.786832  0.872869  1
  P  P17  1  0.207831  0.404269  0.925342  1
  P  P18  1  0.200272  0.788911  0.905063  1
  P  P19  1  0.398941  0.205029  0.423991  1
  P  P20  1  0.789630  0.595480  0.371220  1
  P  P21  1  0.791275  0.197633  0.403633  1
