# generated using pymatgen
data_Tb13Dy3(InPt)4
_symmetry_space_group_name_H-M   'P 1'
_cell_length_a   9.77410691
_cell_length_b   9.77509634
_cell_length_c   9.77386060
_cell_angle_alpha   59.86509222
_cell_angle_beta   59.87870437
_cell_angle_gamma   59.88494000
_symmetry_Int_Tables_number   1
_chemical_formula_structural   Tb13Dy3(InPt)4
_chemical_formula_sum   'Tb13 Dy3 In4 Pt4'
_cell_volume   658.45793046
_cell_formula_units_Z   1
loop_
 _symmetry_equiv_pos_site_id
 _symmetry_equiv_pos_as_xyz
  1  'x, y, z'
loop_
 _atom_site_type_symbol
 _atom_site_label
 _atom_site_symmetry_multiplicity
 _atom_site_fract_x
 _atom_site_fract_y
 _atom_site_fract_z
 _atom_site_occupancy
  Tb  Tb0  1  0.689271  0.309405  0.309656  1
  Tb  Tb1  1  0.690834  0.691072  0.307941  1
  Tb  Tb2  1  0.309462  0.689243  0.309858  1
  Tb  Tb3  1  0.936843  0.936663  0.564969  1
  Tb  Tb4  1  0.149328  0.149180  0.553713  1
  Tb  Tb5  1  0.562128  0.937436  0.562166  1
  Tb  Tb6  1  0.150214  0.150237  0.150128  1
  Tb  Tb7  1  0.309668  0.309812  0.689172  1
  Tb  Tb8  1  0.937212  0.562161  0.562484  1
  Tb  Tb9  1  0.562267  0.561973  0.937320  1
  Tb  Tb10  1  0.565010  0.936908  0.936458  1
  Tb  Tb11  1  0.936990  0.564868  0.936358  1
  Tb  Tb12  1  0.149476  0.553472  0.149095  1
  Dy  Dy13  1  0.307875  0.690744  0.690924  1
  Dy  Dy14  1  0.690825  0.307679  0.691247  1
  Dy  Dy15  1  0.553036  0.149559  0.149326  1
  In  In16  1  0.917330  0.917795  0.247366  1
  In  In17  1  0.247378  0.917587  0.917547  1
  In  In18  1  0.917214  0.247454  0.917651  1
  In  In19  1  0.915496  0.916096  0.915833  1
  Pt  Pt20  1  0.357043  0.356366  0.356132  1
  Pt  Pt21  1  0.927746  0.357858  0.358731  1
  Pt  Pt22  1  0.359063  0.358254  0.927592  1
  Pt  Pt23  1  0.358292  0.928177  0.358334  1
