# generated using pymatgen
data_Li2Dy3ZnInSi2
_symmetry_space_group_name_H-M   'P 1'
_cell_length_a   7.04046286
_cell_length_b   7.05263022
_cell_length_c   4.33893900
_cell_angle_alpha   90.00000000
_cell_angle_beta   90.00000000
_cell_angle_gamma   120.05719869
_symmetry_Int_Tables_number   1
_chemical_formula_structural   Li2Dy3ZnInSi2
_chemical_formula_sum   'Li2 Dy3 Zn1 In1 Si2'
_cell_volume   186.47297442
_cell_formula_units_Z   1
loop_
 _symmetry_equiv_pos_site_id
 _symmetry_equiv_pos_as_xyz
  1  'x, y, z'
loop_
 _atom_site_type_symbol
 _atom_site_label
 _atom_site_symmetry_multiplicity
 _atom_site_fract_x
 _atom_site_fract_y
 _atom_site_fract_z
 _atom_site_occupancy
  Li  Li0  1  0.752754  0.757485  0.000000  1
  Li  Li1  1  0.247246  0.004731  0.000000  1
  Dy  Dy2  1  0.444898  0.442151  0.500000  1
  Dy  Dy3  1  0.555102  0.997254  0.500000  1
  Dy  Dy4  1  0.000000  0.554681  0.500000  1
  Zn  Zn5  1  0.000000  0.250479  0.000000  1
  In  In6  1  0.000000  0.000724  0.500000  1
  Si  Si7  1  0.670748  0.331622  0.000000  1
  Si  Si8  1  0.329252  0.660874  0.000000  1
