# generated using pymatgen
data_Dy3Mg2AlGe2Pt
_symmetry_space_group_name_H-M   'P 1'
_cell_length_a   7.18970791
_cell_length_b   7.11132466
_cell_length_c   4.28198300
_cell_angle_alpha   90.00000000
_cell_angle_beta   90.00000000
_cell_angle_gamma   119.64001263
_symmetry_Int_Tables_number   1
_chemical_formula_structural   Dy3Mg2AlGe2Pt
_chemical_formula_sum   'Dy3 Mg2 Al1 Ge2 Pt1'
_cell_volume   190.28357951
_cell_formula_units_Z   1
loop_
 _symmetry_equiv_pos_site_id
 _symmetry_equiv_pos_as_xyz
  1  'x, y, z'
loop_
 _atom_site_type_symbol
 _atom_site_label
 _atom_site_symmetry_multiplicity
 _atom_site_fract_x
 _atom_site_fract_y
 _atom_site_fract_z
 _atom_site_occupancy
  Dy  Dy0  1  0.411782  0.999295  0.000000  1
  Dy  Dy1  1  0.000000  0.415610  0.000000  1
  Dy  Dy2  1  0.588218  0.587513  0.000000  1
  Mg  Mg3  1  0.762130  0.999377  0.500000  1
  Mg  Mg4  1  0.237870  0.237247  0.500000  1
  Al  Al5  1  0.000000  0.764738  0.500000  1
  Ge  Ge6  1  0.673563  0.342332  0.500000  1
  Ge  Ge7  1  0.326436  0.668768  0.500000  1
  Pt  Pt8  1  0.000000  0.985120  0.000000  1
