# generated using pymatgen
data_Zr2B2Ru5W
_symmetry_space_group_name_H-M   'P 1'
_cell_length_a   9.50217800
_cell_length_b   9.50217800
_cell_length_c   3.08038400
_cell_angle_alpha   90.00000000
_cell_angle_beta   90.00000000
_cell_angle_gamma   90.00000000
_symmetry_Int_Tables_number   1
_chemical_formula_structural   Zr2B2Ru5W
_chemical_formula_sum   'Zr4 B4 Ru10 W2'
_cell_volume   278.13214306
_cell_formula_units_Z   2
loop_
 _symmetry_equiv_pos_site_id
 _symmetry_equiv_pos_as_xyz
  1  'x, y, z'
loop_
 _atom_site_type_symbol
 _atom_site_label
 _atom_site_symmetry_multiplicity
 _atom_site_fract_x
 _atom_site_fract_y
 _atom_site_fract_z
 _atom_site_occupancy
  Zr  Zr0  1  0.676573  0.176573  0.000000  1
  Zr  Zr1  1  0.323427  0.823427  0.000000  1
  Zr  Zr2  1  0.176573  0.323427  0.000000  1
  Zr  Zr3  1  0.823427  0.676573  0.000000  1
  B  B4  1  0.120844  0.620844  0.000000  1
  B  B5  1  0.879156  0.379156  0.000000  1
  B  B6  1  0.620844  0.879156  0.000000  1
  B  B7  1  0.379156  0.120844  0.000000  1
  Ru  Ru8  1  0.216170  0.071086  0.500000  1
  Ru  Ru9  1  0.783830  0.928914  0.500000  1
  Ru  Ru10  1  0.071086  0.783830  0.500000  1
  Ru  Ru11  1  0.716170  0.428914  0.500000  1
  Ru  Ru12  1  0.928914  0.216170  0.500000  1
  Ru  Ru13  1  0.283830  0.571086  0.500000  1
  Ru  Ru14  1  0.571086  0.716170  0.500000  1
  Ru  Ru15  1  0.428914  0.283830  0.500000  1
  Ru  Ru16  1  0.500000  0.000000  0.500000  1
  Ru  Ru17  1  0.000000  0.500000  0.500000  1
  W  W18  1  0.000000  0.000000  0.000000  1
  W  W19  1  0.500000  0.500000  0.000000  1
