# generated using pymatgen
data_TbHoPa2(Al8Pt3)3
_symmetry_space_group_name_H-M   'P 1'
_cell_length_a   7.56293940
_cell_length_b   7.57134647
_cell_length_c   13.10576505
_cell_angle_alpha   84.49297795
_cell_angle_beta   78.91501085
_cell_angle_gamma   59.92857561
_symmetry_Int_Tables_number   1
_chemical_formula_structural   TbHoPa2(Al8Pt3)3
_chemical_formula_sum   'Tb1 Ho1 Pa2 Al24 Pt9'
_cell_volume   637.33027359
_cell_formula_units_Z   1
loop_
 _symmetry_equiv_pos_site_id
 _symmetry_equiv_pos_as_xyz
  1  'x, y, z'
loop_
 _atom_site_type_symbol
 _atom_site_label
 _atom_site_symmetry_multiplicity
 _atom_site_fract_x
 _atom_site_fract_y
 _atom_site_fract_z
 _atom_site_occupancy
  Tb  Tb0  1  0.733689  0.498453  0.808320  1
  Ho  Ho1  1  0.266096  0.501496  0.192100  1
  Pa  Pa2  1  0.395224  0.168131  0.804689  1
  Pa  Pa3  1  0.604700  0.831954  0.195311  1
  Al  Al4  1  0.683970  0.833885  0.944796  1
  Al  Al5  1  0.315956  0.166502  0.055533  1
  Al  Al6  1  0.145596  0.832691  0.561193  1
  Al  Al7  1  0.854466  0.167255  0.438682  1
  Al  Al8  1  0.480408  0.167686  0.557921  1
  Al  Al9  1  0.519608  0.832334  0.441945  1
  Al  Al10  1  0.214667  0.168067  0.330750  1
  Al  Al11  1  0.785530  0.832041  0.668938  1
  Al  Al12  1  0.437376  0.509281  0.669802  1
  Al  Al13  1  0.562526  0.490745  0.329924  1
  Al  Al14  1  0.107822  0.159596  0.667972  1
  Al  Al15  1  0.892481  0.840198  0.331743  1
  Al  Al16  1  0.353031  0.499433  0.943702  1
  Al  Al17  1  0.646344  0.500615  0.056868  1
  Al  Al18  1  0.015899  0.167729  0.952408  1
  Al  Al19  1  0.984262  0.831982  0.047978  1
  Al  Al20  1  0.185856  0.500155  0.441148  1
  Al  Al21  1  0.814253  0.499815  0.558687  1
  Al  Al22  1  0.736229  0.162330  0.182822  1
  Al  Al23  1  0.263450  0.837906  0.817175  1
  Al  Al24  1  0.062784  0.631016  0.815948  1
  Al  Al25  1  0.937524  0.369052  0.184038  1
  Al  Al26  1  0.854954  0.040143  0.816820  1
  Al  Al27  1  0.145125  0.959442  0.183167  1
  Pt  Pt28  1  0.120538  0.490766  0.639830  1
  Pt  Pt29  1  0.879838  0.509226  0.360018  1
  Pt  Pt30  1  0.656635  0.172807  0.999975  1
  Pt  Pt31  1  0.343209  0.827274  0.000078  1
  Pt  Pt32  1  0.537306  0.166126  0.360214  1
  Pt  Pt33  1  0.462489  0.834164  0.639625  1
  Pt  Pt34  1  0.777531  0.175275  0.638552  1
  Pt  Pt35  1  0.222565  0.824383  0.361270  1
  Pt  Pt36  1  0.000065  0.500044  0.000058  1
