# generated using pymatgen
data_La7Pr5Ga8IrRh7
_symmetry_space_group_name_H-M   'P 1'
_cell_length_a   5.74549107
_cell_length_b   8.35034209
_cell_length_c   13.73147725
_cell_angle_alpha   90.03003063
_cell_angle_beta   89.99164802
_cell_angle_gamma   89.94369849
_symmetry_Int_Tables_number   1
_chemical_formula_structural   La7Pr5Ga8IrRh7
_chemical_formula_sum   'La7 Pr5 Ga8 Ir1 Rh7'
_cell_volume   658.79214050
_cell_formula_units_Z   1
loop_
 _symmetry_equiv_pos_site_id
 _symmetry_equiv_pos_as_xyz
  1  'x, y, z'
loop_
 _atom_site_type_symbol
 _atom_site_label
 _atom_site_symmetry_multiplicity
 _atom_site_fract_x
 _atom_site_fract_y
 _atom_site_fract_z
 _atom_site_occupancy
  La  La0  1  0.848436  0.597022  0.904863  1
  La  La1  1  0.848169  0.598973  0.595557  1
  La  La2  1  0.847647  0.900814  0.403979  1
  La  La3  1  0.151828  0.401555  0.403620  1
  La  La4  1  0.152287  0.098185  0.595572  1
  La  La5  1  0.152245  0.099853  0.903449  1
  La  La6  1  0.850576  0.903123  0.096161  1
  Pr  Pr7  1  0.635977  0.258840  0.249169  1
  Pr  Pr8  1  0.361790  0.741027  0.749882  1
  Pr  Pr9  1  0.362405  0.758720  0.248513  1
  Pr  Pr10  1  0.639263  0.241283  0.749943  1
  Pr  Pr11  1  0.148253  0.396837  0.099133  1
  Ga  Ga12  1  0.140141  0.110447  0.250493  1
  Ga  Ga13  1  0.858040  0.888846  0.750264  1
  Ga  Ga14  1  0.860695  0.609523  0.249156  1
  Ga  Ga15  1  0.142556  0.390145  0.749470  1
  Ga  Ga16  1  0.626761  0.251283  0.000932  1
  Ga  Ga17  1  0.370749  0.749615  0.001388  1
  Ga  Ga18  1  0.368271  0.749923  0.499671  1
  Ga  Ga19  1  0.631628  0.249868  0.499696  1
  Ir  Ir20  1  0.358123  0.029062  0.091534  1
  Rh  Rh21  1  0.640435  0.971402  0.909390  1
  Rh  Rh22  1  0.639778  0.969993  0.591071  1
  Rh  Rh23  1  0.641463  0.529899  0.408897  1
  Rh  Rh24  1  0.359158  0.030291  0.409388  1
  Rh  Rh25  1  0.360112  0.470416  0.590668  1
  Rh  Rh26  1  0.359507  0.472644  0.908126  1
  Rh  Rh27  1  0.643707  0.530410  0.090013  1
