# generated using pymatgen
data_Mg(FeP)2
_symmetry_space_group_name_H-M   'P 1'
_cell_length_a   5.23550330
_cell_length_b   5.23550311
_cell_length_c   5.23550429
_cell_angle_alpha   137.33750776
_cell_angle_beta   137.33750915
_cell_angle_gamma   61.91916542
_symmetry_Int_Tables_number   1
_chemical_formula_structural   Mg(FeP)2
_chemical_formula_sum   'Mg1 Fe2 P2'
_cell_volume   65.13479168
_cell_formula_units_Z   1
loop_
 _symmetry_equiv_pos_site_id
 _symmetry_equiv_pos_as_xyz
  1  'x, y, z'
loop_
 _atom_site_type_symbol
 _atom_site_label
 _atom_site_symmetry_multiplicity
 _atom_site_fract_x
 _atom_site_fract_y
 _atom_site_fract_z
 _atom_site_occupancy
  Mg  Mg0  1  0.000000  0.000000  0.000000  1
  Fe  Fe1  1  0.250000  0.750000  0.500000  1
  Fe  Fe2  1  0.750000  0.250000  0.500000  1
  P  P3  1  0.627627  0.627627  0.000000  1
  P  P4  1  0.372373  0.372373  0.000000  1
