# generated using pymatgen
data_RbZr4InBr18
_symmetry_space_group_name_H-M   'P 1'
_cell_length_a   7.92847600
_cell_length_b   10.73673395
_cell_length_c   13.00948600
_cell_angle_alpha   62.61656829
_cell_angle_beta   90.00000000
_cell_angle_gamma   90.00000000
_symmetry_Int_Tables_number   1
_chemical_formula_structural   RbZr4InBr18
_chemical_formula_sum   'Rb1 Zr4 In1 Br18'
_cell_volume   983.35376942
_cell_formula_units_Z   1
loop_
 _symmetry_equiv_pos_site_id
 _symmetry_equiv_pos_as_xyz
  1  'x, y, z'
loop_
 _atom_site_type_symbol
 _atom_site_label
 _atom_site_symmetry_multiplicity
 _atom_site_fract_x
 _atom_site_fract_y
 _atom_site_fract_z
 _atom_site_occupancy
  Rb  Rb0  1  0.473067  0.500000  0.250000  1
  Zr  Zr1  1  0.286792  0.815875  0.865267  1
  Zr  Zr2  1  0.717045  0.182556  0.127926  1
  Zr  Zr3  1  0.286792  0.184125  0.634733  1
  Zr  Zr4  1  0.717045  0.817444  0.372074  1
  In  In5  1  0.502949  0.500000  0.750000  1
  Br  Br6  1  0.152470  0.744494  0.062012  1
  Br  Br7  1  0.839179  0.246406  0.929905  1
  Br  Br8  1  0.152470  0.255506  0.437988  1
  Br  Br9  1  0.839179  0.753594  0.570095  1
  Br  Br10  1  0.159812  0.622345  0.825722  1
  Br  Br11  1  0.851340  0.378198  0.159482  1
  Br  Br12  1  0.159812  0.377655  0.674278  1
  Br  Br13  1  0.851340  0.621802  0.340518  1
  Br  Br14  1  0.026071  0.000000  0.750000  1
  Br  Br15  1  0.975579  0.000000  0.250000  1
  Br  Br16  1  0.413743  0.058639  0.859010  1
  Br  Br17  1  0.586704  0.932582  0.147473  1
  Br  Br18  1  0.413743  0.941361  0.640990  1
  Br  Br19  1  0.586704  0.067418  0.352527  1
  Br  Br20  1  0.575118  0.698708  0.933246  1
  Br  Br21  1  0.428965  0.301571  0.054138  1
  Br  Br22  1  0.575118  0.301292  0.566754  1
  Br  Br23  1  0.428965  0.698429  0.445862  1
