# generated using pymatgen
data_Rb2Na2SnSe4
_symmetry_space_group_name_H-M   'P 1'
_cell_length_a   7.00041100
_cell_length_b   7.99721315
_cell_length_c   12.00999735
_cell_angle_alpha   67.77801506
_cell_angle_beta   90.00000000
_cell_angle_gamma   90.00000000
_symmetry_Int_Tables_number   1
_chemical_formula_structural   Rb2Na2SnSe4
_chemical_formula_sum   'Rb4 Na4 Sn2 Se8'
_cell_volume   622.42548352
_cell_formula_units_Z   2
loop_
 _symmetry_equiv_pos_site_id
 _symmetry_equiv_pos_as_xyz
  1  'x, y, z'
loop_
 _atom_site_type_symbol
 _atom_site_label
 _atom_site_symmetry_multiplicity
 _atom_site_fract_x
 _atom_site_fract_y
 _atom_site_fract_z
 _atom_site_occupancy
  Rb  Rb0  1  0.489662  0.000000  0.250000  1
  Rb  Rb1  1  0.000000  0.000000  0.000000  1
  Rb  Rb2  1  0.510338  0.000000  0.750000  1
  Rb  Rb3  1  0.000000  0.000000  0.500000  1
  Na  Na4  1  0.749180  0.501271  0.044930  1
  Na  Na5  1  0.250820  0.501271  0.544930  1
  Na  Na6  1  0.250820  0.498729  0.955070  1
  Na  Na7  1  0.749180  0.498729  0.455070  1
  Sn  Sn8  1  0.247023  0.500000  0.250000  1
  Sn  Sn9  1  0.752977  0.500000  0.750000  1
  Se  Se10  1  0.052705  0.720036  0.315400  1
  Se  Se11  1  0.557611  0.279124  0.925693  1
  Se  Se12  1  0.442389  0.720876  0.074307  1
  Se  Se13  1  0.557611  0.720876  0.574307  1
  Se  Se14  1  0.052705  0.279964  0.184600  1
  Se  Se15  1  0.442389  0.279124  0.425693  1
  Se  Se16  1  0.947295  0.720036  0.815400  1
  Se  Se17  1  0.947295  0.279964  0.684600  1
