# generated using pymatgen
data_Ac2Tm3Pb4
_symmetry_space_group_name_H-M   'P 1'
_cell_length_a   8.55389400
_cell_length_b   16.27207700
_cell_length_c   8.62812600
_cell_angle_alpha   90.00000000
_cell_angle_beta   90.00000000
_cell_angle_gamma   90.00000000
_symmetry_Int_Tables_number   1
_chemical_formula_structural   Ac2Tm3Pb4
_chemical_formula_sum   'Ac8 Tm12 Pb16'
_cell_volume   1200.94559494
_cell_formula_units_Z   4
loop_
 _symmetry_equiv_pos_site_id
 _symmetry_equiv_pos_as_xyz
  1  'x, y, z'
loop_
 _atom_site_type_symbol
 _atom_site_label
 _atom_site_symmetry_multiplicity
 _atom_site_fract_x
 _atom_site_fract_y
 _atom_site_fract_z
 _atom_site_occupancy
  Ac  Ac0  1  0.473390  0.596798  0.677156  1
  Ac  Ac1  1  0.973390  0.903202  0.822844  1
  Ac  Ac2  1  0.526610  0.096798  0.322844  1
  Ac  Ac3  1  0.026610  0.403202  0.177156  1
  Ac  Ac4  1  0.526610  0.403202  0.322844  1
  Ac  Ac5  1  0.026610  0.096798  0.177156  1
  Ac  Ac6  1  0.473390  0.903202  0.677156  1
  Ac  Ac7  1  0.973390  0.596798  0.822844  1
  Tm  Tm8  1  0.632808  0.623727  0.156581  1
  Tm  Tm9  1  0.132808  0.876273  0.343419  1
  Tm  Tm10  1  0.367192  0.123727  0.843419  1
  Tm  Tm11  1  0.867192  0.376273  0.656581  1
  Tm  Tm12  1  0.367192  0.376273  0.843419  1
  Tm  Tm13  1  0.867192  0.123727  0.656581  1
  Tm  Tm14  1  0.632808  0.876273  0.156581  1
  Tm  Tm15  1  0.132808  0.623727  0.343419  1
  Tm  Tm16  1  0.798365  0.750000  0.491984  1
  Tm  Tm17  1  0.298365  0.750000  0.008016  1
  Tm  Tm18  1  0.201635  0.250000  0.508016  1
  Tm  Tm19  1  0.701635  0.250000  0.991984  1
  Pb  Pb20  1  0.698683  0.453436  0.953644  1
  Pb  Pb21  1  0.198683  0.046564  0.546356  1
  Pb  Pb22  1  0.301317  0.953436  0.046356  1
  Pb  Pb23  1  0.801317  0.546564  0.453644  1
  Pb  Pb24  1  0.301317  0.546564  0.046356  1
  Pb  Pb25  1  0.801317  0.953436  0.453644  1
  Pb  Pb26  1  0.698683  0.046564  0.953644  1
  Pb  Pb27  1  0.198683  0.453436  0.546356  1
  Pb  Pb28  1  0.438647  0.750000  0.362476  1
  Pb  Pb29  1  0.938647  0.750000  0.137524  1
  Pb  Pb30  1  0.561353  0.250000  0.637524  1
  Pb  Pb31  1  0.061353  0.250000  0.862476  1
  Pb  Pb32  1  0.661757  0.750000  0.856390  1
  Pb  Pb33  1  0.161757  0.750000  0.643610  1
  Pb  Pb34  1  0.338243  0.250000  0.143610  1
  Pb  Pb35  1  0.838243  0.250000  0.356390  1
