# generated using pymatgen
data_CaTm5NpO12
_symmetry_space_group_name_H-M   'P 1'
_cell_length_a   6.52088361
_cell_length_b   6.49195187
_cell_length_c   6.49713236
_cell_angle_alpha   99.03454810
_cell_angle_beta   98.94434299
_cell_angle_gamma   98.49376118
_symmetry_Int_Tables_number   1
_chemical_formula_structural   CaTm5NpO12
_chemical_formula_sum   'Ca1 Tm5 Np1 O12'
_cell_volume   264.12054529
_cell_formula_units_Z   1
loop_
 _symmetry_equiv_pos_site_id
 _symmetry_equiv_pos_as_xyz
  1  'x, y, z'
loop_
 _atom_site_type_symbol
 _atom_site_label
 _atom_site_symmetry_multiplicity
 _atom_site_fract_x
 _atom_site_fract_y
 _atom_site_fract_z
 _atom_site_occupancy
  Ca  Ca0  1  0.853699  0.393522  0.674186  1
  Tm  Tm1  1  0.611667  0.331224  0.149257  1
  Tm  Tm2  1  0.331946  0.152458  0.609943  1
  Tm  Tm3  1  0.668052  0.854102  0.388233  1
  Tm  Tm4  1  0.390680  0.669199  0.850969  1
  Tm  Tm5  1  0.146417  0.610738  0.328511  1
  Np  Np6  1  0.001782  0.998170  0.002119  1
  O  O7  1  0.915816  0.023967  0.697676  1
  O  O8  1  0.959191  0.300599  0.087817  1
  O  O9  1  0.576861  0.172553  0.415691  1
  O  O10  1  0.822967  0.580419  0.390394  1
  O  O11  1  0.303337  0.083901  0.956328  1
  O  O12  1  0.565370  0.406447  0.826879  1
  O  O13  1  0.424393  0.593207  0.178359  1
  O  O14  1  0.695121  0.913982  0.042084  1
  O  O15  1  0.184870  0.430244  0.585464  1
  O  O16  1  0.410109  0.824158  0.575448  1
  O  O17  1  0.054597  0.698574  0.932784  1
  O  O18  1  0.083123  0.962536  0.307857  1
