# generated using pymatgen
data_Tb4Cd2Cu3Ni
_symmetry_space_group_name_H-M   'P 1'
_cell_length_a   7.53434244
_cell_length_b   7.53434244
_cell_length_c   3.70116300
_cell_angle_alpha   90.00000000
_cell_angle_beta   90.00000000
_cell_angle_gamma   89.19817798
_symmetry_Int_Tables_number   1
_chemical_formula_structural   Tb4Cd2Cu3Ni
_chemical_formula_sum   'Tb4 Cd2 Cu3 Ni1'
_cell_volume   210.08081542
_cell_formula_units_Z   1
loop_
 _symmetry_equiv_pos_site_id
 _symmetry_equiv_pos_as_xyz
  1  'x, y, z'
loop_
 _atom_site_type_symbol
 _atom_site_label
 _atom_site_symmetry_multiplicity
 _atom_site_fract_x
 _atom_site_fract_y
 _atom_site_fract_z
 _atom_site_occupancy
  Tb  Tb0  1  0.662643  0.176448  0.500000  1
  Tb  Tb1  1  0.323552  0.837357  0.500000  1
  Tb  Tb2  1  0.181979  0.318021  0.500000  1
  Tb  Tb3  1  0.827846  0.672154  0.500000  1
  Cd  Cd4  1  0.998225  0.000520  0.000000  1
  Cd  Cd5  1  0.499480  0.501775  0.000000  1
  Cu  Cu6  1  0.120924  0.616978  0.000000  1
  Cu  Cu7  1  0.883022  0.379076  0.000000  1
  Cu  Cu8  1  0.619770  0.880230  0.000000  1
  Ni  Ni9  1  0.382558  0.117442  0.000000  1
