# generated using pymatgen
data_Mn3Ni17(B2Rh)3
_symmetry_space_group_name_H-M   'P 1'
_cell_length_a   7.55065164
_cell_length_b   7.55065136
_cell_length_c   7.55065036
_cell_angle_alpha   59.32465250
_cell_angle_beta   59.32465103
_cell_angle_gamma   59.32465044
_symmetry_Int_Tables_number   1
_chemical_formula_structural   Mn3Ni17(B2Rh)3
_chemical_formula_sum   'Mn3 Ni17 B6 Rh3'
_cell_volume   299.71526397
_cell_formula_units_Z   1
loop_
 _symmetry_equiv_pos_site_id
 _symmetry_equiv_pos_as_xyz
  1  'x, y, z'
loop_
 _atom_site_type_symbol
 _atom_site_label
 _atom_site_symmetry_multiplicity
 _atom_site_fract_x
 _atom_site_fract_y
 _atom_site_fract_z
 _atom_site_occupancy
  Mn  Mn0  1  0.001107  0.001107  0.001107  1
  Mn  Mn1  1  0.744580  0.744580  0.744580  1
  Mn  Mn2  1  0.249629  0.249629  0.249629  1
  Ni  Ni3  1  0.615407  0.615407  0.615407  1
  Ni  Ni4  1  0.383040  0.383040  0.860317  1
  Ni  Ni5  1  0.383040  0.860317  0.383040  1
  Ni  Ni6  1  0.860317  0.383040  0.383040  1
  Ni  Ni7  1  0.377812  0.377812  0.377812  1
  Ni  Ni8  1  0.003326  0.003326  0.334386  1
  Ni  Ni9  1  0.661387  0.998398  0.337095  1
  Ni  Ni10  1  0.998398  0.661387  0.337095  1
  Ni  Ni11  1  0.661387  0.337095  0.998398  1
  Ni  Ni12  1  0.003326  0.334386  0.003326  1
  Ni  Ni13  1  0.998398  0.337095  0.661387  1
  Ni  Ni14  1  0.337095  0.661387  0.998398  1
  Ni  Ni15  1  0.337095  0.998398  0.661387  1
  Ni  Ni16  1  0.334386  0.003326  0.003326  1
  Ni  Ni17  1  0.003955  0.003955  0.661465  1
  Ni  Ni18  1  0.003955  0.661465  0.003955  1
  Ni  Ni19  1  0.661465  0.003955  0.003955  1
  B  B20  1  0.730573  0.730573  0.272428  1
  B  B21  1  0.265997  0.732511  0.265997  1
  B  B22  1  0.732511  0.265997  0.265997  1
  B  B23  1  0.265997  0.265997  0.732511  1
  B  B24  1  0.730573  0.272428  0.730573  1
  B  B25  1  0.272428  0.730573  0.730573  1
  Rh  Rh26  1  0.618631  0.618631  0.145556  1
  Rh  Rh27  1  0.618631  0.145556  0.618631  1
  Rh  Rh28  1  0.145556  0.618631  0.618631  1
