# generated using pymatgen
data_Pt2ICl7
_symmetry_space_group_name_H-M   'P 1'
_cell_length_a   6.49462196
_cell_length_b   7.54633766
_cell_length_c   6.34738106
_cell_angle_alpha   90.84248086
_cell_angle_beta   107.05819742
_cell_angle_gamma   90.37057969
_symmetry_Int_Tables_number   1
_chemical_formula_structural   Pt2ICl7
_chemical_formula_sum   'Pt2 I1 Cl7'
_cell_volume   297.35230713
_cell_formula_units_Z   1
loop_
 _symmetry_equiv_pos_site_id
 _symmetry_equiv_pos_as_xyz
  1  'x, y, z'
loop_
 _atom_site_type_symbol
 _atom_site_label
 _atom_site_symmetry_multiplicity
 _atom_site_fract_x
 _atom_site_fract_y
 _atom_site_fract_z
 _atom_site_occupancy
  Pt  Pt0  1  0.000693  0.383384  0.253412  1
  Pt  Pt1  1  0.004009  0.613494  0.747800  1
  I  I2  1  0.755455  0.633772  0.006648  1
  Cl  Cl3  1  0.775962  0.166658  0.044444  1
  Cl  Cl4  1  0.231298  0.168935  0.454376  1
  Cl  Cl5  1  0.221485  0.605287  0.493013  1
  Cl  Cl6  1  0.799365  0.382542  0.508496  1
  Cl  Cl7  1  0.783793  0.825671  0.539345  1
  Cl  Cl8  1  0.227371  0.829699  0.957848  1
  Cl  Cl9  1  0.200571  0.390559  0.994618  1
