# generated using pymatgen
data_Y3ErLu4(ReB6)4
_symmetry_space_group_name_H-M   'P 1'
_cell_length_a   3.64425000
_cell_length_b   9.10848201
_cell_length_c   11.49377702
_cell_angle_alpha   89.99394847
_cell_angle_beta   90.00000000
_cell_angle_gamma   90.00000000
_symmetry_Int_Tables_number   1
_chemical_formula_structural   Y3ErLu4(ReB6)4
_chemical_formula_sum   'Y3 Er1 Lu4 Re4 B24'
_cell_volume   381.51966883
_cell_formula_units_Z   1
loop_
 _symmetry_equiv_pos_site_id
 _symmetry_equiv_pos_as_xyz
  1  'x, y, z'
loop_
 _atom_site_type_symbol
 _atom_site_label
 _atom_site_symmetry_multiplicity
 _atom_site_fract_x
 _atom_site_fract_y
 _atom_site_fract_z
 _atom_site_occupancy
  Y  Y0  1  0.000000  0.322692  0.414043  1
  Y  Y1  1  0.000000  0.677255  0.586073  1
  Y  Y2  1  0.000000  0.822770  0.085879  1
  Er  Er3  1  0.000000  0.176818  0.914000  1
  Lu  Lu4  1  0.000000  0.943560  0.370145  1
  Lu  Lu5  1  0.000000  0.056595  0.629842  1
  Lu  Lu6  1  0.000000  0.443343  0.129459  1
  Lu  Lu7  1  0.000000  0.556542  0.870431  1
  Re  Re8  1  0.000000  0.639449  0.319542  1
  Re  Re9  1  0.000000  0.360255  0.680980  1
  Re  Re10  1  0.000000  0.139459  0.179717  1
  Re  Re11  1  0.000000  0.861095  0.819920  1
  B  B12  1  0.500000  0.553634  0.432481  1
  B  B13  1  0.500000  0.446128  0.567787  1
  B  B14  1  0.500000  0.054015  0.066893  1
  B  B15  1  0.500000  0.946980  0.932516  1
  B  B16  1  0.500000  0.751033  0.418161  1
  B  B17  1  0.500000  0.248966  0.582152  1
  B  B18  1  0.500000  0.250896  0.080986  1
  B  B19  1  0.500000  0.749243  0.918163  1
  B  B20  1  0.500000  0.793171  0.265174  1
  B  B21  1  0.500000  0.206600  0.735379  1
  B  B22  1  0.500000  0.293070  0.234330  1
  B  B23  1  0.500000  0.707012  0.765426  1
  B  B24  1  0.500000  0.629809  0.184578  1
  B  B25  1  0.500000  0.369554  0.815917  1
  B  B26  1  0.500000  0.129946  0.315075  1
  B  B27  1  0.500000  0.870376  0.684894  1
  B  B28  1  0.500000  0.981920  0.212514  1
  B  B29  1  0.500000  0.018831  0.787600  1
  B  B30  1  0.500000  0.481655  0.287048  1
  B  B31  1  0.500000  0.518028  0.713089  1
  B  B32  1  0.500000  0.597632  0.027005  1
  B  B33  1  0.500000  0.401529  0.972730  1
  B  B34  1  0.500000  0.097718  0.472970  1
  B  B35  1  0.500000  0.902419  0.527100  1
