# generated using pymatgen
data_Pr4Al16Si2Ir5Rh
_symmetry_space_group_name_H-M   'P 1'
_cell_length_a   7.61246885
_cell_length_b   7.59279633
_cell_length_c   9.60082036
_cell_angle_alpha   89.92003558
_cell_angle_beta   89.95258557
_cell_angle_gamma   119.62326514
_symmetry_Int_Tables_number   1
_chemical_formula_structural   Pr4Al16Si2Ir5Rh
_chemical_formula_sum   'Pr4 Al16 Si2 Ir5 Rh1'
_cell_volume   482.39340920
_cell_formula_units_Z   1
loop_
 _symmetry_equiv_pos_site_id
 _symmetry_equiv_pos_as_xyz
  1  'x, y, z'
loop_
 _atom_site_type_symbol
 _atom_site_label
 _atom_site_symmetry_multiplicity
 _atom_site_fract_x
 _atom_site_fract_y
 _atom_site_fract_z
 _atom_site_occupancy
  Pr  Pr0  1  0.995072  0.665351  0.244221  1
  Pr  Pr1  1  0.004928  0.334649  0.755779  1
  Pr  Pr2  1  0.673553  0.999698  0.247084  1
  Pr  Pr3  1  0.326447  0.000302  0.752916  1
  Al  Al4  1  0.131273  0.129893  0.249947  1
  Al  Al5  1  0.868727  0.870107  0.750053  1
  Al  Al6  1  0.997077  0.665694  0.567053  1
  Al  Al7  1  0.334880  0.001534  0.427770  1
  Al  Al8  1  0.002923  0.334306  0.432947  1
  Al  Al9  1  0.665120  0.998466  0.572230  1
  Al  Al10  1  0.661569  0.993730  0.924466  1
  Al  Al11  1  0.338431  0.006270  0.075534  1
  Al  Al12  1  0.334409  0.333388  0.550047  1
  Al  Al13  1  0.665591  0.666612  0.449953  1
  Al  Al14  1  0.662066  0.665175  0.051351  1
  Al  Al15  1  0.337934  0.334825  0.948649  1
  Al  Al16  1  0.340398  0.546668  0.249759  1
  Al  Al17  1  0.659602  0.453332  0.750241  1
  Al  Al18  1  0.545632  0.341351  0.250125  1
  Al  Al19  1  0.454368  0.658649  0.749875  1
  Si  Si20  1  0.004758  0.328888  0.073773  1
  Si  Si21  1  0.995242  0.671112  0.926227  1
  Ir  Ir22  1  0.687694  0.337497  0.001102  1
  Ir  Ir23  1  0.312306  0.662503  0.998898  1
  Ir  Ir24  1  0.328292  0.669828  0.500118  1
  Ir  Ir25  1  0.671708  0.330172  0.499882  1
  Ir  Ir26  1  0.000000  0.000000  0.500000  1
  Rh  Rh27  1  0.000000  0.000000  0.000000  1
