# generated using pymatgen
data_Tm12Fe2RuPb2
_symmetry_space_group_name_H-M   'P 1'
_cell_length_a   8.31172700
_cell_length_b   8.31186529
_cell_length_c   8.31172739
_cell_angle_alpha   108.58634695
_cell_angle_beta   108.58482079
_cell_angle_gamma   111.25670332
_symmetry_Int_Tables_number   1
_chemical_formula_structural   Tm12Fe2RuPb2
_chemical_formula_sum   'Tm12 Fe2 Ru1 Pb2'
_cell_volume   441.71812841
_cell_formula_units_Z   1
loop_
 _symmetry_equiv_pos_site_id
 _symmetry_equiv_pos_as_xyz
  1  'x, y, z'
loop_
 _atom_site_type_symbol
 _atom_site_label
 _atom_site_symmetry_multiplicity
 _atom_site_fract_x
 _atom_site_fract_y
 _atom_site_fract_z
 _atom_site_occupancy
  Tm  Tm0  1  0.193838  0.429088  0.235251  1
  Tm  Tm1  1  0.806162  0.570912  0.764749  1
  Tm  Tm2  1  0.193834  0.958585  0.764750  1
  Tm  Tm3  1  0.958589  0.193834  0.764752  1
  Tm  Tm4  1  0.806166  0.041415  0.235250  1
  Tm  Tm5  1  0.041411  0.806166  0.235248  1
  Tm  Tm6  1  0.429082  0.193834  0.235246  1
  Tm  Tm7  1  0.570918  0.806166  0.764754  1
  Tm  Tm8  1  0.309105  0.309107  0.618210  1
  Tm  Tm9  1  0.690895  0.690893  0.381790  1
  Tm  Tm10  1  0.690896  0.309107  0.000002  1
  Tm  Tm11  1  0.309104  0.690893  0.999998  1
  Fe  Fe12  1  0.384550  0.384551  0.000000  1
  Fe  Fe13  1  0.615450  0.615449  0.000000  1
  Ru  Ru14  1  0.000000  0.000000  0.000000  1
  Pb  Pb15  1  0.000000  0.500000  0.500000  1
  Pb  Pb16  1  0.500000  0.000000  0.500000  1
