# generated using pymatgen
data_Ho(AgO2)2
_symmetry_space_group_name_H-M   'P 1'
_cell_length_a   6.60248334
_cell_length_b   6.60248285
_cell_length_c   6.60248319
_cell_angle_alpha   126.24324806
_cell_angle_beta   126.24324934
_cell_angle_gamma   79.48871796
_symmetry_Int_Tables_number   1
_chemical_formula_structural   Ho(AgO2)2
_chemical_formula_sum   'Ho2 Ag4 O8'
_cell_volume   180.93384602
_cell_formula_units_Z   2
loop_
 _symmetry_equiv_pos_site_id
 _symmetry_equiv_pos_as_xyz
  1  'x, y, z'
loop_
 _atom_site_type_symbol
 _atom_site_label
 _atom_site_symmetry_multiplicity
 _atom_site_fract_x
 _atom_site_fract_y
 _atom_site_fract_z
 _atom_site_occupancy
  Ho  Ho0  1  0.000000  0.000000  0.000000  1
  Ho  Ho1  1  0.750000  0.250000  0.500000  1
  Ag  Ag2  1  0.875000  0.625000  0.250000  1
  Ag  Ag3  1  0.375000  0.625000  0.750000  1
  Ag  Ag4  1  0.375000  0.125000  0.750000  1
  Ag  Ag5  1  0.375000  0.625000  0.250000  1
  O  O6  1  0.398106  0.237850  0.521014  1
  O  O7  1  0.033165  0.372907  0.021014  1
  O  O8  1  0.987850  0.966835  0.339743  1
  O  O9  1  0.122907  0.601894  0.839743  1
  O  O10  1  0.627093  0.648106  0.660257  1
  O  O11  1  0.762150  0.283165  0.160257  1
  O  O12  1  0.716835  0.877093  0.478986  1
  O  O13  1  0.351894  0.012150  0.978986  1
