# generated using pymatgen
data_Tb2Y2Bi6Rh7
_symmetry_space_group_name_H-M   'P 1'
_cell_length_a   7.80323863
_cell_length_b   7.80709691
_cell_length_c   7.80323907
_cell_angle_alpha   109.46876481
_cell_angle_beta   109.45610676
_cell_angle_gamma   109.46876987
_symmetry_Int_Tables_number   1
_chemical_formula_structural   Tb2Y2Bi6Rh7
_chemical_formula_sum   'Tb2 Y2 Bi6 Rh7'
_cell_volume   366.03678649
_cell_formula_units_Z   1
loop_
 _symmetry_equiv_pos_site_id
 _symmetry_equiv_pos_as_xyz
  1  'x, y, z'
loop_
 _atom_site_type_symbol
 _atom_site_label
 _atom_site_symmetry_multiplicity
 _atom_site_fract_x
 _atom_site_fract_y
 _atom_site_fract_z
 _atom_site_occupancy
  Tb  Tb0  1  0.000000  0.500000  0.000000  1
  Tb  Tb1  1  0.500000  0.500000  0.500000  1
  Y  Y2  1  0.500000  0.000000  0.000000  1
  Y  Y3  1  0.000000  0.000000  0.500000  1
  Bi  Bi4  1  0.999826  0.314110  0.314284  1
  Bi  Bi5  1  0.685715  0.000000  0.685715  1
  Bi  Bi6  1  0.685716  0.685890  0.000174  1
  Bi  Bi7  1  0.000174  0.685890  0.685716  1
  Bi  Bi8  1  0.314285  0.000000  0.314285  1
  Bi  Bi9  1  0.314284  0.314110  0.999826  1
  Rh  Rh10  1  0.000000  0.000000  0.000000  1
  Rh  Rh11  1  0.500054  0.750063  0.250009  1
  Rh  Rh12  1  0.750000  0.500000  0.250000  1
  Rh  Rh13  1  0.250009  0.750063  0.500054  1
  Rh  Rh14  1  0.250000  0.500000  0.750000  1
  Rh  Rh15  1  0.499946  0.249937  0.749991  1
  Rh  Rh16  1  0.749991  0.249937  0.499946  1
