# generated using pymatgen
data_Rb2AuClF6
_symmetry_space_group_name_H-M   'P 1'
_cell_length_a   7.01577444
_cell_length_b   7.02444501
_cell_length_c   9.22373128
_cell_angle_alpha   90.00251841
_cell_angle_beta   91.08787524
_cell_angle_gamma   89.99889129
_symmetry_Int_Tables_number   1
_chemical_formula_structural   Rb2AuClF6
_chemical_formula_sum   'Rb4 Au2 Cl2 F12'
_cell_volume   454.48126907
_cell_formula_units_Z   2
loop_
 _symmetry_equiv_pos_site_id
 _symmetry_equiv_pos_as_xyz
  1  'x, y, z'
loop_
 _atom_site_type_symbol
 _atom_site_label
 _atom_site_symmetry_multiplicity
 _atom_site_fract_x
 _atom_site_fract_y
 _atom_site_fract_z
 _atom_site_occupancy
  Rb  Rb0  1  0.021520  0.453283  0.250057  1
  Rb  Rb1  1  0.478556  0.953286  0.249947  1
  Rb  Rb2  1  0.521444  0.046715  0.750053  1
  Rb  Rb3  1  0.978479  0.546716  0.749943  1
  Au  Au4  1  0.500000  0.500001  0.000000  1
  Au  Au5  1  0.000000  0.000000  0.500001  1
  Cl  Cl6  1  0.000000  0.000000  0.000000  1
  Cl  Cl7  1  0.500001  0.500000  0.500001  1
  F  F8  1  0.771766  0.565188  0.021270  1
  F  F9  1  0.562047  0.229263  0.029076  1
  F  F10  1  0.079073  0.045284  0.195107  1
  F  F11  1  0.420955  0.545311  0.304895  1
  F  F12  1  0.937882  0.729277  0.470916  1
  F  F13  1  0.728248  0.065269  0.478761  1
  F  F14  1  0.271752  0.934730  0.521239  1
  F  F15  1  0.062117  0.270722  0.529084  1
  F  F16  1  0.579045  0.454688  0.695105  1
  F  F17  1  0.920926  0.954717  0.804893  1
  F  F18  1  0.437952  0.770737  0.970924  1
  F  F19  1  0.228236  0.434813  0.978730  1
