# generated using pymatgen
data_Pr2ThP3
_symmetry_space_group_name_H-M   'P 1'
_cell_length_a   7.24145499
_cell_length_b   7.24145556
_cell_length_c   7.24145581
_cell_angle_alpha   146.41820037
_cell_angle_beta   131.81865545
_cell_angle_gamma   60.00846352
_symmetry_Int_Tables_number   1
_chemical_formula_structural   Pr2ThP3
_chemical_formula_sum   'Pr2 Th1 P3'
_cell_volume   155.10309656
_cell_formula_units_Z   1
loop_
 _symmetry_equiv_pos_site_id
 _symmetry_equiv_pos_as_xyz
  1  'x, y, z'
loop_
 _atom_site_type_symbol
 _atom_site_label
 _atom_site_symmetry_multiplicity
 _atom_site_fract_x
 _atom_site_fract_y
 _atom_site_fract_z
 _atom_site_occupancy
  Pr  Pr0  1  0.667204  0.667204  0.000000  1
  Pr  Pr1  1  0.332796  0.332796  0.000000  1
  Th  Th2  1  0.000000  0.000000  0.000000  1
  P  P3  1  0.500000  0.000000  0.500000  1
  P  P4  1  0.162337  0.662337  0.500000  1
  P  P5  1  0.837663  0.337663  0.500000  1
