# generated using pymatgen
data_K2Y(ScI4)3
_symmetry_space_group_name_H-M   'P 1'
_cell_length_a   8.45121600
_cell_length_b   8.45121708
_cell_length_c   14.02410200
_cell_angle_alpha   90.00000000
_cell_angle_beta   90.00000000
_cell_angle_gamma   119.99999576
_symmetry_Int_Tables_number   1
_chemical_formula_structural   K2Y(ScI4)3
_chemical_formula_sum   'K2 Y1 Sc3 I12'
_cell_volume   867.44944047
_cell_formula_units_Z   1
loop_
 _symmetry_equiv_pos_site_id
 _symmetry_equiv_pos_as_xyz
  1  'x, y, z'
loop_
 _atom_site_type_symbol
 _atom_site_label
 _atom_site_symmetry_multiplicity
 _atom_site_fract_x
 _atom_site_fract_y
 _atom_site_fract_z
 _atom_site_occupancy
  K  K0  1  0.333333  0.666667  0.869041  1
  K  K1  1  0.666667  0.333333  0.377768  1
  Y  Y2  1  0.000000  0.000000  0.125907  1
  Sc  Sc3  1  0.000000  0.000000  0.382596  1
  Sc  Sc4  1  0.000000  0.000000  0.625618  1
  Sc  Sc5  1  0.000000  0.000000  0.869137  1
  I  I6  1  0.980028  0.705036  0.993613  1
  I  I7  1  0.271791  0.974222  0.257983  1
  I  I8  1  0.025778  0.297569  0.257983  1
  I  I9  1  0.294964  0.274991  0.993613  1
  I  I10  1  0.271750  0.289091  0.503433  1
  I  I11  1  0.725009  0.019972  0.993613  1
  I  I12  1  0.291091  0.022162  0.748102  1
  I  I13  1  0.702431  0.728209  0.257983  1
  I  I14  1  0.731071  0.708909  0.748102  1
  I  I15  1  0.017341  0.728250  0.503433  1
  I  I16  1  0.710909  0.982659  0.503433  1
  I  I17  1  0.977838  0.268929  0.748102  1
