# generated using pymatgen
data_Tb2Y2BCl6
_symmetry_space_group_name_H-M   'P 1'
_cell_length_a   3.88360200
_cell_length_b   12.70460200
_cell_length_c   13.18323300
_cell_angle_alpha   90.00000000
_cell_angle_beta   90.00000000
_cell_angle_gamma   90.00000000
_symmetry_Int_Tables_number   1
_chemical_formula_structural   Tb2Y2BCl6
_chemical_formula_sum   'Tb4 Y4 B2 Cl12'
_cell_volume   650.45567675
_cell_formula_units_Z   2
loop_
 _symmetry_equiv_pos_site_id
 _symmetry_equiv_pos_as_xyz
  1  'x, y, z'
loop_
 _atom_site_type_symbol
 _atom_site_label
 _atom_site_symmetry_multiplicity
 _atom_site_fract_x
 _atom_site_fract_y
 _atom_site_fract_z
 _atom_site_occupancy
  Tb  Tb0  1  0.500000  0.126779  0.850859  1
  Tb  Tb1  1  0.500000  0.873221  0.149141  1
  Tb  Tb2  1  0.500000  0.626779  0.649141  1
  Tb  Tb3  1  0.500000  0.373221  0.350859  1
  Y  Y4  1  0.000000  0.106590  0.084446  1
  Y  Y5  1  0.000000  0.893410  0.915554  1
  Y  Y6  1  0.000000  0.606590  0.415554  1
  Y  Y7  1  0.000000  0.393410  0.584446  1
  B  B8  1  0.500000  0.000000  0.000000  1
  B  B9  1  0.500000  0.500000  0.500000  1
  Cl  Cl10  1  0.500000  0.267957  0.682302  1
  Cl  Cl11  1  0.500000  0.732043  0.317698  1
  Cl  Cl12  1  0.500000  0.767957  0.817698  1
  Cl  Cl13  1  0.500000  0.232043  0.182302  1
  Cl  Cl14  1  0.000000  0.256812  0.929688  1
  Cl  Cl15  1  0.000000  0.743188  0.070312  1
  Cl  Cl16  1  0.000000  0.478576  0.243278  1
  Cl  Cl17  1  0.000000  0.521424  0.756722  1
  Cl  Cl18  1  0.000000  0.978576  0.256722  1
  Cl  Cl19  1  0.000000  0.021424  0.743278  1
  Cl  Cl20  1  0.000000  0.243188  0.429688  1
  Cl  Cl21  1  0.000000  0.756812  0.570312  1
