# generated using pymatgen
data_Pr8Nb(TcO8)3
_symmetry_space_group_name_H-M   'P 1'
_cell_length_a   10.30345412
_cell_length_b   10.28316941
_cell_length_c   5.64510057
_cell_angle_alpha   75.27079703
_cell_angle_beta   75.13056023
_cell_angle_gamma   68.91785207
_symmetry_Int_Tables_number   1
_chemical_formula_structural   Pr8Nb(TcO8)3
_chemical_formula_sum   'Pr8 Nb1 Tc3 O24'
_cell_volume   530.62011099
_cell_formula_units_Z   1
loop_
 _symmetry_equiv_pos_site_id
 _symmetry_equiv_pos_as_xyz
  1  'x, y, z'
loop_
 _atom_site_type_symbol
 _atom_site_label
 _atom_site_symmetry_multiplicity
 _atom_site_fract_x
 _atom_site_fract_y
 _atom_site_fract_z
 _atom_site_occupancy
  Pr  Pr0  1  0.630006  0.373947  0.739994  1
  Pr  Pr1  1  0.371953  0.639112  0.240848  1
  Pr  Pr2  1  0.112925  0.889079  0.754946  1
  Pr  Pr3  1  0.890850  0.109159  0.251715  1
  Pr  Pr4  1  0.710139  0.938854  0.877383  1
  Pr  Pr5  1  0.291665  0.048985  0.122921  1
  Pr  Pr6  1  0.058899  0.284900  0.625770  1
  Pr  Pr7  1  0.935916  0.716775  0.381427  1
  Nb  Nb8  1  0.509857  0.798182  0.559936  1
  Tc  Tc9  1  0.493644  0.201328  0.440667  1
  Tc  Tc10  1  0.200731  0.494117  0.949496  1
  Tc  Tc11  1  0.799360  0.504952  0.052707  1
  O  O12  1  0.684968  0.163547  0.585809  1
  O  O13  1  0.307102  0.837897  0.417819  1
  O  O14  1  0.836463  0.313261  0.908400  1
  O  O15  1  0.161260  0.683324  0.089599  1
  O  O16  1  0.381594  0.829191  0.873047  1
  O  O17  1  0.611786  0.180906  0.146801  1
  O  O18  1  0.175268  0.609329  0.654238  1
  O  O19  1  0.825204  0.386034  0.347573  1
  O  O20  1  0.685239  0.787450  0.631416  1
  O  O21  1  0.326769  0.214926  0.366851  1
  O  O22  1  0.214564  0.327164  0.871465  1
  O  O23  1  0.786071  0.671472  0.132232  1
  O  O24  1  0.472732  0.073433  0.724571  1
  O  O25  1  0.526037  0.932935  0.253434  1
  O  O26  1  0.928783  0.525438  0.771219  1
  O  O27  1  0.071983  0.471620  0.232933  1
  O  O28  1  0.540968  0.611631  0.518349  1
  O  O29  1  0.455388  0.380206  0.479484  1
  O  O30  1  0.380772  0.456693  0.981632  1
  O  O31  1  0.619445  0.539688  0.016697  1
  O  O32  1  0.888385  0.923814  0.077877  1
  O  O33  1  0.107002  0.078564  0.924373  1
  O  O34  1  0.077443  0.111050  0.422750  1
  O  O35  1  0.928830  0.891037  0.573620  1
