# generated using pymatgen
data_Y6MgCd22P
_symmetry_space_group_name_H-M   'P 1'
_cell_length_a   9.92510073
_cell_length_b   9.92510126
_cell_length_c   9.92510000
_cell_angle_alpha   59.99999754
_cell_angle_beta   59.99999577
_cell_angle_gamma   59.99999703
_symmetry_Int_Tables_number   1
_chemical_formula_structural   Y6MgCd22P
_chemical_formula_sum   'Y6 Mg1 Cd22 P1'
_cell_volume   691.33688922
_cell_formula_units_Z   1
loop_
 _symmetry_equiv_pos_site_id
 _symmetry_equiv_pos_as_xyz
  1  'x, y, z'
loop_
 _atom_site_type_symbol
 _atom_site_label
 _atom_site_symmetry_multiplicity
 _atom_site_fract_x
 _atom_site_fract_y
 _atom_site_fract_z
 _atom_site_occupancy
  Y  Y0  1  0.802098  0.802098  0.197902  1
  Y  Y1  1  0.197902  0.802098  0.197902  1
  Y  Y2  1  0.802098  0.197902  0.197902  1
  Y  Y3  1  0.197902  0.197902  0.802098  1
  Y  Y4  1  0.802098  0.197902  0.802098  1
  Y  Y5  1  0.197902  0.802098  0.802098  1
  Mg  Mg6  1  0.500000  0.500000  0.500000  1
  Cd  Cd7  1  0.834912  0.834912  0.495261  1
  Cd  Cd8  1  0.834912  0.495261  0.834912  1
  Cd  Cd9  1  0.495261  0.834912  0.834912  1
  Cd  Cd10  1  0.834912  0.834912  0.834912  1
  Cd  Cd11  1  0.165088  0.165088  0.504739  1
  Cd  Cd12  1  0.165088  0.504739  0.165088  1
  Cd  Cd13  1  0.504739  0.165088  0.165088  1
  Cd  Cd14  1  0.165088  0.165088  0.165088  1
  Cd  Cd15  1  0.620013  0.620013  0.139961  1
  Cd  Cd16  1  0.620013  0.139961  0.620013  1
  Cd  Cd17  1  0.139961  0.620013  0.620013  1
  Cd  Cd18  1  0.620013  0.620013  0.620013  1
  Cd  Cd19  1  0.379987  0.379987  0.860039  1
  Cd  Cd20  1  0.379987  0.860039  0.379987  1
  Cd  Cd21  1  0.860039  0.379987  0.379987  1
  Cd  Cd22  1  0.379987  0.379987  0.379987  1
  Cd  Cd23  1  0.000000  0.000000  0.500000  1
  Cd  Cd24  1  0.500000  0.000000  0.500000  1
  Cd  Cd25  1  0.000000  0.500000  0.500000  1
  Cd  Cd26  1  0.500000  0.500000  0.000000  1
  Cd  Cd27  1  0.000000  0.500000  0.000000  1
  Cd  Cd28  1  0.500000  0.000000  0.000000  1
  P  P29  1  0.000000  0.000000  0.000000  1
