# generated using pymatgen
data_MnSiP5(Pd10Pb)2
_symmetry_space_group_name_H-M   'P 1'
_cell_length_a   8.66126156
_cell_length_b   8.65055139
_cell_length_c   8.65055221
_cell_angle_alpha   60.08192219
_cell_angle_beta   59.95904866
_cell_angle_gamma   59.95903839
_symmetry_Int_Tables_number   1
_chemical_formula_structural   MnSiP5(Pd10Pb)2
_chemical_formula_sum   'Mn1 Si1 P5 Pd20 Pb2'
_cell_volume   458.30276324
_cell_formula_units_Z   1
loop_
 _symmetry_equiv_pos_site_id
 _symmetry_equiv_pos_as_xyz
  1  'x, y, z'
loop_
 _atom_site_type_symbol
 _atom_site_label
 _atom_site_symmetry_multiplicity
 _atom_site_fract_x
 _atom_site_fract_y
 _atom_site_fract_z
 _atom_site_occupancy
  Mn  Mn0  1  0.998093  0.001907  0.001907  1
  Si  Si1  1  0.734485  0.265515  0.265515  1
  P  P2  1  0.263590  0.736410  0.736410  1
  P  P3  1  0.264884  0.735116  0.263286  1
  P  P4  1  0.736714  0.263286  0.735116  1
  P  P5  1  0.264884  0.263286  0.735116  1
  P  P6  1  0.736714  0.735116  0.263286  1
  Pd  Pd7  1  0.382627  0.384552  0.384552  1
  Pd  Pd8  1  0.615411  0.615330  0.615330  1
  Pd  Pd9  1  0.384670  0.384589  0.846068  1
  Pd  Pd10  1  0.384670  0.846068  0.384589  1
  Pd  Pd11  1  0.615448  0.617373  0.151734  1
  Pd  Pd12  1  0.615448  0.151734  0.617373  1
  Pd  Pd13  1  0.848266  0.384552  0.384552  1
  Pd  Pd14  1  0.153932  0.615330  0.615330  1
  Pd  Pd15  1  0.339585  0.000986  0.000986  1
  Pd  Pd16  1  0.658443  0.000986  0.000986  1
  Pd  Pd17  1  0.999014  0.341557  0.660415  1
  Pd  Pd18  1  0.999014  0.660415  0.341557  1
  Pd  Pd19  1  0.001210  0.341890  0.998790  1
  Pd  Pd20  1  0.658110  0.998790  0.341890  1
  Pd  Pd21  1  0.000305  0.658385  0.999695  1
  Pd  Pd22  1  0.341615  0.999695  0.658385  1
  Pd  Pd23  1  0.001210  0.998790  0.341890  1
  Pd  Pd24  1  0.000305  0.999695  0.658385  1
  Pd  Pd25  1  0.658110  0.341890  0.998790  1
  Pd  Pd26  1  0.341615  0.658385  0.999695  1
  Pb  Pb27  1  0.250815  0.249185  0.249185  1
  Pb  Pb28  1  0.750815  0.749185  0.749185  1
