# generated using pymatgen
data_Li12FeReN8
_symmetry_space_group_name_H-M   'P 1'
_cell_length_a   6.57729600
_cell_length_b   6.57729600
_cell_length_c   4.90531900
_cell_angle_alpha   90.00000000
_cell_angle_beta   90.00000000
_cell_angle_gamma   90.00000000
_symmetry_Int_Tables_number   1
_chemical_formula_structural   Li12FeReN8
_chemical_formula_sum   'Li12 Fe1 Re1 N8'
_cell_volume   212.20813541
_cell_formula_units_Z   1
loop_
 _symmetry_equiv_pos_site_id
 _symmetry_equiv_pos_as_xyz
  1  'x, y, z'
loop_
 _atom_site_type_symbol
 _atom_site_label
 _atom_site_symmetry_multiplicity
 _atom_site_fract_x
 _atom_site_fract_y
 _atom_site_fract_z
 _atom_site_occupancy
  Li  Li0  1  0.000000  0.500000  0.617408  1
  Li  Li1  1  0.500000  0.000000  0.902320  1
  Li  Li2  1  0.500000  0.000000  0.382592  1
  Li  Li3  1  0.000000  0.500000  0.097680  1
  Li  Li4  1  0.201932  0.201932  0.500000  1
  Li  Li5  1  0.798068  0.798068  0.500000  1
  Li  Li6  1  0.725716  0.725716  0.000000  1
  Li  Li7  1  0.274284  0.274284  0.000000  1
  Li  Li8  1  0.798068  0.201932  0.500000  1
  Li  Li9  1  0.201932  0.798068  0.500000  1
  Li  Li10  1  0.274284  0.725716  0.000000  1
  Li  Li11  1  0.725716  0.274284  0.000000  1
  Fe  Fe12  1  0.000000  0.000000  0.000000  1
  Re  Re13  1  0.500000  0.500000  0.500000  1
  N  N14  1  0.261288  0.500000  0.302881  1
  N  N15  1  0.738712  0.500000  0.302881  1
  N  N16  1  0.760361  0.000000  0.184668  1
  N  N17  1  0.239639  0.000000  0.184668  1
  N  N18  1  0.500000  0.261288  0.697119  1
  N  N19  1  0.500000  0.738712  0.697119  1
  N  N20  1  0.000000  0.760361  0.815332  1
  N  N21  1  0.000000  0.239639  0.815332  1
