# generated using pymatgen
data_Sm2YAlC3
_symmetry_space_group_name_H-M   'P 1'
_cell_length_a   3.65788400
_cell_length_b   7.26498000
_cell_length_c   10.04195813
_cell_angle_alpha   89.53850876
_cell_angle_beta   90.00000000
_cell_angle_gamma   90.00000000
_symmetry_Int_Tables_number   1
_chemical_formula_structural   Sm2YAlC3
_chemical_formula_sum   'Sm4 Y2 Al2 C6'
_cell_volume   266.85089901
_cell_formula_units_Z   2
loop_
 _symmetry_equiv_pos_site_id
 _symmetry_equiv_pos_as_xyz
  1  'x, y, z'
loop_
 _atom_site_type_symbol
 _atom_site_label
 _atom_site_symmetry_multiplicity
 _atom_site_fract_x
 _atom_site_fract_y
 _atom_site_fract_z
 _atom_site_occupancy
  Sm  Sm0  1  0.500000  0.512834  0.194304  1
  Sm  Sm1  1  0.500000  0.487166  0.805696  1
  Sm  Sm2  1  0.000000  0.750235  0.460147  1
  Sm  Sm3  1  0.000000  0.249765  0.539853  1
  Y  Y4  1  0.500000  0.988280  0.199804  1
  Y  Y5  1  0.500000  0.011720  0.800196  1
  Al  Al6  1  0.000000  0.767294  0.006095  1
  Al  Al7  1  0.000000  0.232706  0.993905  1
  C  C8  1  0.500000  0.507664  0.565471  1
  C  C9  1  0.500000  0.492336  0.434529  1
  C  C10  1  0.500000  0.991837  0.565491  1
  C  C11  1  0.500000  0.008163  0.434509  1
  C  C12  1  0.000000  0.755209  0.207211  1
  C  C13  1  0.000000  0.244791  0.792789  1
