# generated using pymatgen
data_NbAgI20
_symmetry_space_group_name_H-M   'P 1'
_cell_length_a   7.33824043
_cell_length_b   16.82917576
_cell_length_c   14.58255592
_cell_angle_alpha   116.13548686
_cell_angle_beta   99.64711795
_cell_angle_gamma   66.97525536
_symmetry_Int_Tables_number   1
_chemical_formula_structural   NbAgI20
_chemical_formula_sum   'Nb1 Ag1 I20'
_cell_volume   1487.94058342
_cell_formula_units_Z   1
loop_
 _symmetry_equiv_pos_site_id
 _symmetry_equiv_pos_as_xyz
  1  'x, y, z'
loop_
 _atom_site_type_symbol
 _atom_site_label
 _atom_site_symmetry_multiplicity
 _atom_site_fract_x
 _atom_site_fract_y
 _atom_site_fract_z
 _atom_site_occupancy
  Nb  Nb0  1  0.644077  0.653502  0.489416  1
  Ag  Ag1  1  0.343801  0.240400  0.513826  1
  I  I2  1  0.502980  0.843793  0.835627  1
  I  I3  1  0.978385  0.595227  0.388686  1
  I  I4  1  0.347684  0.418762  0.570380  1
  I  I5  1  0.552566  0.114922  0.604863  1
  I  I6  1  0.751470  0.559705  0.606731  1
  I  I7  1  0.477336  0.795457  0.387384  1
  I  I8  1  0.359301  0.207338  0.202726  1
  I  I9  1  0.514937  0.526943  0.330828  1
  I  I10  1  0.767002  0.801964  0.644721  1
  I  I11  1  0.075375  0.811947  0.172438  1
  I  I12  1  0.112266  0.163730  0.353265  1
  I  I13  1  0.668490  0.207111  0.112272  1
  I  I14  1  0.765238  0.800188  0.283042  1
  I  I15  1  0.217302  0.144140  0.709898  1
  I  I16  1  0.809218  0.831840  0.009032  1
  I  I17  1  0.868288  0.174326  0.822702  1
  I  I18  1  0.263345  0.768316  0.559345  1
  I  I19  1  0.069645  0.196690  0.014158  1
  I  I20  1  0.184634  0.850888  0.926634  1
  I  I21  1  0.726662  0.292812  0.462025  1
