# generated using pymatgen
data_Co6SiMo6
_symmetry_space_group_name_H-M   'P 1'
_cell_length_a   8.84667019
_cell_length_b   8.84667046
_cell_length_c   8.84667080
_cell_angle_alpha   31.21604765
_cell_angle_beta   31.21604812
_cell_angle_gamma   31.21604507
_symmetry_Int_Tables_number   1
_chemical_formula_structural   Co6SiMo6
_chemical_formula_sum   'Co6 Si1 Mo6'
_cell_volume   165.03287367
_cell_formula_units_Z   1
loop_
 _symmetry_equiv_pos_site_id
 _symmetry_equiv_pos_as_xyz
  1  'x, y, z'
loop_
 _atom_site_type_symbol
 _atom_site_label
 _atom_site_symmetry_multiplicity
 _atom_site_fract_x
 _atom_site_fract_y
 _atom_site_fract_z
 _atom_site_occupancy
  Co  Co0  1  0.091450  0.091450  0.587324  1
  Co  Co1  1  0.412676  0.908550  0.908550  1
  Co  Co2  1  0.587324  0.091450  0.091450  1
  Co  Co3  1  0.908550  0.908550  0.412676  1
  Co  Co4  1  0.908550  0.412676  0.908550  1
  Co  Co5  1  0.091450  0.587324  0.091450  1
  Si  Si6  1  0.000000  0.000000  0.000000  1
  Mo  Mo7  1  0.832184  0.832184  0.832184  1
  Mo  Mo8  1  0.652103  0.652103  0.652103  1
  Mo  Mo9  1  0.450827  0.450827  0.450827  1
  Mo  Mo10  1  0.549173  0.549173  0.549173  1
  Mo  Mo11  1  0.167816  0.167816  0.167816  1
  Mo  Mo12  1  0.347897  0.347897  0.347897  1
