# generated using pymatgen
data_CeY3(B4Os)4
_symmetry_space_group_name_H-M   'P 1'
_cell_length_a   3.58346700
_cell_length_b   5.98861978
_cell_length_c   11.59727236
_cell_angle_alpha   90.11026677
_cell_angle_beta   90.00000000
_cell_angle_gamma   90.00000000
_symmetry_Int_Tables_number   1
_chemical_formula_structural   CeY3(B4Os)4
_chemical_formula_sum   'Ce1 Y3 B16 Os4'
_cell_volume   248.87725153
_cell_formula_units_Z   1
loop_
 _symmetry_equiv_pos_site_id
 _symmetry_equiv_pos_as_xyz
  1  'x, y, z'
loop_
 _atom_site_type_symbol
 _atom_site_label
 _atom_site_symmetry_multiplicity
 _atom_site_fract_x
 _atom_site_fract_y
 _atom_site_fract_z
 _atom_site_occupancy
  Ce  Ce0  1  0.000000  0.628689  0.650167  1
  Y  Y1  1  0.000000  0.371504  0.348826  1
  Y  Y2  1  0.000000  0.128268  0.851363  1
  Y  Y3  1  0.000000  0.871762  0.149827  1
  B  B4  1  0.500000  0.975671  0.691206  1
  B  B5  1  0.500000  0.025197  0.308229  1
  B  B6  1  0.500000  0.473955  0.809814  1
  B  B7  1  0.500000  0.525348  0.191293  1
  B  B8  1  0.500000  0.788334  0.814628  1
  B  B9  1  0.500000  0.211365  0.185636  1
  B  B10  1  0.500000  0.286665  0.686034  1
  B  B11  1  0.500000  0.712562  0.313443  1
  B  B12  1  0.500000  0.862951  0.969775  1
  B  B13  1  0.500000  0.136658  0.030645  1
  B  B14  1  0.500000  0.363181  0.529916  1
  B  B15  1  0.500000  0.637106  0.468954  1
  B  B16  1  0.500000  0.889370  0.545547  1
  B  B17  1  0.500000  0.112607  0.452327  1
  B  B18  1  0.500000  0.386977  0.954219  1
  B  B19  1  0.500000  0.612272  0.046833  1
  Os  Os20  1  0.000000  0.640725  0.906781  1
  Os  Os21  1  0.000000  0.359905  0.093474  1
  Os  Os22  1  0.000000  0.140424  0.594165  1
  Os  Os23  1  0.000000  0.858504  0.406899  1
