# generated using pymatgen
data_Dy3YAl18(IrRh)3
_symmetry_space_group_name_H-M   'P 1'
_cell_length_a   7.56334904
_cell_length_b   7.56320548
_cell_length_c   9.47898408
_cell_angle_alpha   89.99868739
_cell_angle_beta   89.99927708
_cell_angle_gamma   119.48591734
_symmetry_Int_Tables_number   1
_chemical_formula_structural   Dy3YAl18(IrRh)3
_chemical_formula_sum   'Dy3 Y1 Al18 Ir3 Rh3'
_cell_volume   471.99672800
_cell_formula_units_Z   1
loop_
 _symmetry_equiv_pos_site_id
 _symmetry_equiv_pos_as_xyz
  1  'x, y, z'
loop_
 _atom_site_type_symbol
 _atom_site_label
 _atom_site_symmetry_multiplicity
 _atom_site_fract_x
 _atom_site_fract_y
 _atom_site_fract_z
 _atom_site_occupancy
  Dy  Dy0  1  0.994767  0.670902  0.248293  1
  Dy  Dy1  1  0.005185  0.329092  0.751714  1
  Dy  Dy2  1  0.670907  0.994815  0.248299  1
  Y  Y3  1  0.329121  0.005242  0.751657  1
  Al  Al4  1  0.128114  0.128113  0.250330  1
  Al  Al5  1  0.871803  0.871911  0.749674  1
  Al  Al6  1  0.001017  0.335072  0.074264  1
  Al  Al7  1  0.998906  0.664848  0.925780  1
  Al  Al8  1  0.999194  0.664603  0.574082  1
  Al  Al9  1  0.335317  0.000723  0.425792  1
  Al  Al10  1  0.000729  0.335320  0.425876  1
  Al  Al11  1  0.664766  0.999269  0.574069  1
  Al  Al12  1  0.664999  0.998989  0.925792  1
  Al  Al13  1  0.335091  0.001012  0.074348  1
  Al  Al14  1  0.333041  0.333104  0.551107  1
  Al  Al15  1  0.666961  0.666974  0.448844  1
  Al  Al16  1  0.666552  0.666551  0.049969  1
  Al  Al17  1  0.333449  0.333518  0.950092  1
  Al  Al18  1  0.339222  0.548886  0.250456  1
  Al  Al19  1  0.660895  0.451216  0.749549  1
  Al  Al20  1  0.548865  0.339211  0.250458  1
  Al  Al21  1  0.451130  0.660708  0.749545  1
  Ir  Ir22  1  0.671948  0.328210  0.000049  1
  Ir  Ir23  1  0.328115  0.671796  0.000057  1
  Ir  Ir24  1  0.999924  0.999960  0.000074  1
  Rh  Rh25  1  0.328261  0.671656  0.499944  1
  Rh  Rh26  1  0.671793  0.328355  0.499956  1
  Rh  Rh27  1  0.999927  0.999947  0.499931  1
