# generated using pymatgen
data_U6Fe5CoSbAs7
_symmetry_space_group_name_H-M   'P 1'
_cell_length_a   7.69125474
_cell_length_b   7.69683488
_cell_length_c   7.69126760
_cell_angle_alpha   109.40765087
_cell_angle_beta   109.39750138
_cell_angle_gamma   109.44208570
_symmetry_Int_Tables_number   1
_chemical_formula_structural   U6Fe5CoSbAs7
_chemical_formula_sum   'U6 Fe5 Co1 Sb1 As7'
_cell_volume   351.21587845
_cell_formula_units_Z   1
loop_
 _symmetry_equiv_pos_site_id
 _symmetry_equiv_pos_as_xyz
  1  'x, y, z'
loop_
 _atom_site_type_symbol
 _atom_site_label
 _atom_site_symmetry_multiplicity
 _atom_site_fract_x
 _atom_site_fract_y
 _atom_site_fract_z
 _atom_site_occupancy
  U  U0  1  0.861329  0.249297  0.118253  1
  U  U1  1  0.629341  0.755809  0.372875  1
  U  U2  1  0.250247  0.116468  0.861160  1
  U  U3  1  0.757505  0.377089  0.630794  1
  U  U4  1  0.117054  0.861039  0.249161  1
  U  U5  1  0.375275  0.630907  0.757488  1
  Fe  Fe6  1  0.375208  0.244403  0.639770  1
  Fe  Fe7  1  0.124403  0.749481  0.874935  1
  Fe  Fe8  1  0.245207  0.639328  0.373919  1
  Fe  Fe9  1  0.749827  0.876508  0.127866  1
  Fe  Fe10  1  0.639852  0.374795  0.245557  1
  Co  Co11  1  0.876513  0.126312  0.750503  1
  Sb  Sb12  1  0.330349  0.330298  0.330523  1
  As  As13  1  0.661621  0.503023  0.998008  1
  As  As14  1  0.503628  0.998137  0.661145  1
  As  As15  1  0.998454  0.661758  0.503074  1
  As  As16  1  0.838153  0.838477  0.838638  1
  As  As17  1  0.498322  0.002025  0.165752  1
  As  As18  1  0.165304  0.498893  0.001389  1
  As  As19  1  0.002408  0.165950  0.499190  1
