# generated using pymatgen
data_Y12Si(BBr4)3
_symmetry_space_group_name_H-M   'P 1'
_cell_length_a   9.90284185
_cell_length_b   9.90284088
_cell_length_c   9.90284138
_cell_angle_alpha   109.80908638
_cell_angle_beta   109.80908729
_cell_angle_gamma   109.80908871
_symmetry_Int_Tables_number   1
_chemical_formula_structural   Y12Si(BBr4)3
_chemical_formula_sum   'Y12 Si1 B3 Br12'
_cell_volume   738.08016228
_cell_formula_units_Z   1
loop_
 _symmetry_equiv_pos_site_id
 _symmetry_equiv_pos_as_xyz
  1  'x, y, z'
loop_
 _atom_site_type_symbol
 _atom_site_label
 _atom_site_symmetry_multiplicity
 _atom_site_fract_x
 _atom_site_fract_y
 _atom_site_fract_z
 _atom_site_occupancy
  Y  Y0  1  0.468467  0.494843  0.224980  1
  Y  Y1  1  0.750000  0.227961  0.272039  1
  Y  Y2  1  0.750000  0.019908  0.480092  1
  Y  Y3  1  0.224980  0.468467  0.494843  1
  Y  Y4  1  0.272039  0.750000  0.227961  1
  Y  Y5  1  0.031533  0.275020  0.005157  1
  Y  Y6  1  0.005157  0.031533  0.275020  1
  Y  Y7  1  0.480092  0.750000  0.019908  1
  Y  Y8  1  0.494843  0.224980  0.468467  1
  Y  Y9  1  0.019908  0.480092  0.750000  1
  Y  Y10  1  0.275020  0.005157  0.031533  1
  Y  Y11  1  0.227961  0.272039  0.750000  1
  Si  Si12  1  0.250000  0.250000  0.250000  1
  B  B13  1  0.500854  0.999146  0.250000  1
  B  B14  1  0.999146  0.250000  0.500854  1
  B  B15  1  0.250000  0.500854  0.999146  1
  Br  Br16  1  0.250000  0.757710  0.742290  1
  Br  Br17  1  0.512945  0.506969  0.758049  1
  Br  Br18  1  0.987055  0.741951  0.993031  1
  Br  Br19  1  0.742290  0.250000  0.757710  1
  Br  Br20  1  0.993031  0.987055  0.741951  1
  Br  Br21  1  0.250000  0.993432  0.506568  1
  Br  Br22  1  0.758049  0.512945  0.506969  1
  Br  Br23  1  0.506568  0.250000  0.993432  1
  Br  Br24  1  0.757710  0.742290  0.250000  1
  Br  Br25  1  0.741951  0.993031  0.987055  1
  Br  Br26  1  0.993432  0.506568  0.250000  1
  Br  Br27  1  0.506969  0.758049  0.512945  1
