# generated using pymatgen
data_K5(ZnAu2)2
_symmetry_space_group_name_H-M   'P 1'
_cell_length_a   16.07890477
_cell_length_b   16.07890393
_cell_length_c   5.23943800
_cell_angle_alpha   90.00000000
_cell_angle_beta   90.00000000
_cell_angle_gamma   163.78097298
_symmetry_Int_Tables_number   1
_chemical_formula_structural   K5(ZnAu2)2
_chemical_formula_sum   'K5 Zn2 Au4'
_cell_volume   378.34158284
_cell_formula_units_Z   1
loop_
 _symmetry_equiv_pos_site_id
 _symmetry_equiv_pos_as_xyz
  1  'x, y, z'
loop_
 _atom_site_type_symbol
 _atom_site_label
 _atom_site_symmetry_multiplicity
 _atom_site_fract_x
 _atom_site_fract_y
 _atom_site_fract_z
 _atom_site_occupancy
  K  K0  1  0.002131  0.997869  0.000000  1
  K  K1  1  0.619518  0.380482  0.000000  1
  K  K2  1  0.381235  0.618765  0.000000  1
  K  K3  1  0.797223  0.202776  0.500000  1
  K  K4  1  0.198730  0.801269  0.500000  1
  Zn  Zn5  1  0.925835  0.074165  0.500000  1
  Zn  Zn6  1  0.541546  0.458453  0.500000  1
  Au  Au7  1  0.725556  0.274444  0.000000  1
  Au  Au8  1  0.274531  0.725469  0.000000  1
  Au  Au9  1  0.457744  0.542255  0.500000  1
  Au  Au10  1  0.075949  0.924051  0.500000  1
