# generated using pymatgen
data_ZnCrRhO4
_symmetry_space_group_name_H-M   'P 1'
_cell_length_a   6.10964427
_cell_length_b   6.04545805
_cell_length_c   6.04544975
_cell_angle_alpha   90.30815719
_cell_angle_beta   59.64812677
_cell_angle_gamma   120.35186285
_symmetry_Int_Tables_number   1
_chemical_formula_structural   ZnCrRhO4
_chemical_formula_sum   'Zn2 Cr2 Rh2 O8'
_cell_volume   156.63015786
_cell_formula_units_Z   2
loop_
 _symmetry_equiv_pos_site_id
 _symmetry_equiv_pos_as_xyz
  1  'x, y, z'
loop_
 _atom_site_type_symbol
 _atom_site_label
 _atom_site_symmetry_multiplicity
 _atom_site_fract_x
 _atom_site_fract_y
 _atom_site_fract_z
 _atom_site_occupancy
  Zn  Zn0  1  0.750071  0.870452  0.870320  1
  Zn  Zn1  1  0.250073  0.129618  0.129483  1
  Cr  Cr2  1  0.999662  0.499800  0.000395  1
  Cr  Cr3  1  0.500211  0.000100  0.499683  1
  Rh  Rh4  1  0.499945  0.499991  0.500089  1
  Rh  Rh5  1  0.999968  0.499975  0.500073  1
  O  O6  1  0.473913  0.744030  0.744060  1
  O  O7  1  0.974023  0.255941  0.255949  1
  O  O8  1  0.517958  0.255276  0.719378  1
  O  O9  1  0.982098  0.719550  0.255359  1
  O  O10  1  0.482145  0.744698  0.280421  1
  O  O11  1  0.017910  0.280593  0.744782  1
  O  O12  1  0.525955  0.255931  0.255957  1
  O  O13  1  0.026065  0.744045  0.744047  1
