# generated using pymatgen
data_Li3DyHo2HgGe2
_symmetry_space_group_name_H-M   'P 1'
_cell_length_a   7.22254812
_cell_length_b   7.21296878
_cell_length_c   4.21769000
_cell_angle_alpha   90.00000000
_cell_angle_beta   90.00000000
_cell_angle_gamma   119.95612623
_symmetry_Int_Tables_number   1
_chemical_formula_structural   Li3DyHo2HgGe2
_chemical_formula_sum   'Li3 Dy1 Ho2 Hg1 Ge2'
_cell_volume   190.37136158
_cell_formula_units_Z   1
loop_
 _symmetry_equiv_pos_site_id
 _symmetry_equiv_pos_as_xyz
  1  'x, y, z'
loop_
 _atom_site_type_symbol
 _atom_site_label
 _atom_site_symmetry_multiplicity
 _atom_site_fract_x
 _atom_site_fract_y
 _atom_site_fract_z
 _atom_site_occupancy
  Li  Li0  1  0.246454  0.000107  0.500000  1
  Li  Li1  1  0.753546  0.753653  0.500000  1
  Li  Li2  1  0.000000  0.246237  0.500000  1
  Dy  Dy3  1  0.000000  0.568165  0.000000  1
  Ho  Ho4  1  0.568169  0.000047  0.000000  1
  Ho  Ho5  1  0.431831  0.431878  0.000000  1
  Hg  Hg6  1  0.000000  0.000221  0.000000  1
  Ge  Ge7  1  0.333762  0.666727  0.500000  1
  Ge  Ge8  1  0.666238  0.332964  0.500000  1
