# generated using pymatgen
data_Rb3ReO4
_symmetry_space_group_name_H-M   'P 1'
_cell_length_a   6.23955194
_cell_length_b   6.23955127
_cell_length_c   6.23955129
_cell_angle_alpha   116.77971972
_cell_angle_beta   116.77971666
_cell_angle_gamma   95.67450483
_symmetry_Int_Tables_number   1
_chemical_formula_structural   Rb3ReO4
_chemical_formula_sum   'Rb3 Re1 O4'
_cell_volume   179.17862997
_cell_formula_units_Z   1
loop_
 _symmetry_equiv_pos_site_id
 _symmetry_equiv_pos_as_xyz
  1  'x, y, z'
loop_
 _atom_site_type_symbol
 _atom_site_label
 _atom_site_symmetry_multiplicity
 _atom_site_fract_x
 _atom_site_fract_y
 _atom_site_fract_z
 _atom_site_occupancy
  Rb  Rb0  1  0.250000  0.750000  0.500000  1
  Rb  Rb1  1  0.750000  0.250000  0.500000  1
  Rb  Rb2  1  0.500000  0.500000  0.000000  1
  Re  Re3  1  0.000000  0.000000  0.000000  1
  O  O4  1  0.860923  0.247114  0.000000  1
  O  O5  1  0.752886  0.752886  0.613809  1
  O  O6  1  0.139077  0.139077  0.386191  1
  O  O7  1  0.247114  0.860923  0.000000  1
