# generated using pymatgen
data_Ce3Pa(SnRh2)2
_symmetry_space_group_name_H-M   'P 1'
_cell_length_a   7.69301820
_cell_length_b   7.69301908
_cell_length_c   3.70533200
_cell_angle_alpha   90.00000000
_cell_angle_beta   90.00000000
_cell_angle_gamma   91.44586429
_symmetry_Int_Tables_number   1
_chemical_formula_structural   Ce3Pa(SnRh2)2
_chemical_formula_sum   'Ce3 Pa1 Sn2 Rh4'
_cell_volume   219.22112424
_cell_formula_units_Z   1
loop_
 _symmetry_equiv_pos_site_id
 _symmetry_equiv_pos_as_xyz
  1  'x, y, z'
loop_
 _atom_site_type_symbol
 _atom_site_label
 _atom_site_symmetry_multiplicity
 _atom_site_fract_x
 _atom_site_fract_y
 _atom_site_fract_z
 _atom_site_occupancy
  Ce  Ce0  1  0.326083  0.826083  0.500000  1
  Ce  Ce1  1  0.174319  0.330156  0.500000  1
  Ce  Ce2  1  0.830156  0.674319  0.500000  1
  Pa  Pa3  1  0.667893  0.167893  0.500000  1
  Sn  Sn4  1  0.002754  0.002118  0.000000  1
  Sn  Sn5  1  0.502118  0.502754  0.000000  1
  Rh  Rh6  1  0.128339  0.628339  0.000000  1
  Rh  Rh7  1  0.851484  0.351484  0.000000  1
  Rh  Rh8  1  0.639227  0.877629  0.000000  1
  Rh  Rh9  1  0.377629  0.139227  0.000000  1
