# generated using pymatgen
data_Pr4HfTc3F28
_symmetry_space_group_name_H-M   'P 1'
_cell_length_a   5.78640276
_cell_length_b   9.28921075
_cell_length_c   12.46294217
_cell_angle_alpha   62.05001846
_cell_angle_beta   89.98886829
_cell_angle_gamma   90.02361477
_symmetry_Int_Tables_number   1
_chemical_formula_structural   Pr4HfTc3F28
_chemical_formula_sum   'Pr4 Hf1 Tc3 F28'
_cell_volume   591.75819367
_cell_formula_units_Z   1
loop_
 _symmetry_equiv_pos_site_id
 _symmetry_equiv_pos_as_xyz
  1  'x, y, z'
loop_
 _atom_site_type_symbol
 _atom_site_label
 _atom_site_symmetry_multiplicity
 _atom_site_fract_x
 _atom_site_fract_y
 _atom_site_fract_z
 _atom_site_occupancy
  Pr  Pr0  1  0.758368  0.810024  0.764787  1
  Pr  Pr1  1  0.258419  0.188479  0.736806  1
  Pr  Pr2  1  0.242175  0.189241  0.233364  1
  Pr  Pr3  1  0.741074  0.813028  0.263858  1
  Hf  Hf4  1  0.745528  0.273916  0.457612  1
  Tc  Tc5  1  0.756089  0.274630  0.956993  1
  Tc  Tc6  1  0.256424  0.725961  0.542607  1
  Tc  Tc7  1  0.243837  0.726254  0.042812  1
  F  F8  1  0.443756  0.710119  0.921573  1
  F  F9  1  0.950377  0.288392  0.581561  1
  F  F10  1  0.555995  0.291207  0.077803  1
  F  F11  1  0.056493  0.709940  0.421179  1
  F  F12  1  0.456337  0.281646  0.545276  1
  F  F13  1  0.964017  0.716378  0.956096  1
  F  F14  1  0.536825  0.718153  0.455182  1
  F  F15  1  0.036162  0.284973  0.043230  1
  F  F16  1  0.764368  0.513181  0.861435  1
  F  F17  1  0.266729  0.487067  0.638189  1
  F  F18  1  0.235675  0.487326  0.138112  1
  F  F19  1  0.731443  0.517708  0.361923  1
  F  F20  1  0.760084  0.036454  0.051218  1
  F  F21  1  0.259691  0.964443  0.448091  1
  F  F22  1  0.240962  0.964640  0.949293  1
  F  F23  1  0.737982  0.030637  0.555401  1
  F  F24  1  0.983925  0.730157  0.635369  1
  F  F25  1  0.483485  0.268830  0.865303  1
  F  F26  1  0.022128  0.268104  0.362470  1
  F  F27  1  0.516665  0.732195  0.134735  1
  F  F28  1  0.046712  0.742778  0.165999  1
  F  F29  1  0.548401  0.254293  0.331536  1
  F  F30  1  0.952111  0.257956  0.834005  1
  F  F31  1  0.451579  0.741400  0.666659  1
  F  F32  1  0.409994  0.968032  0.229560  1
  F  F33  1  0.910173  0.032785  0.269592  1
  F  F34  1  0.588628  0.031382  0.768805  1
  F  F35  1  0.087391  0.968289  0.731565  1
