# generated using pymatgen
data_Tb4Ga18Pd3Ru2Rh
_symmetry_space_group_name_H-M   'P 1'
_cell_length_a   7.62569744
_cell_length_b   7.62569629
_cell_length_c   9.58319234
_cell_angle_alpha   89.84391950
_cell_angle_beta   89.84391324
_cell_angle_gamma   119.73824123
_symmetry_Int_Tables_number   1
_chemical_formula_structural   Tb4Ga18Pd3Ru2Rh
_chemical_formula_sum   'Tb4 Ga18 Pd3 Ru2 Rh1'
_cell_volume   483.87479691
_cell_formula_units_Z   1
loop_
 _symmetry_equiv_pos_site_id
 _symmetry_equiv_pos_as_xyz
  1  'x, y, z'
loop_
 _atom_site_type_symbol
 _atom_site_label
 _atom_site_symmetry_multiplicity
 _atom_site_fract_x
 _atom_site_fract_y
 _atom_site_fract_z
 _atom_site_occupancy
  Tb  Tb0  1  0.996922  0.668328  0.249956  1
  Tb  Tb1  1  0.003195  0.331756  0.750196  1
  Tb  Tb2  1  0.668244  0.996805  0.249804  1
  Tb  Tb3  1  0.331672  0.003078  0.750044  1
  Ga  Ga4  1  0.124049  0.125076  0.249353  1
  Ga  Ga5  1  0.874924  0.875951  0.750647  1
  Ga  Ga6  1  0.000381  0.330094  0.080212  1
  Ga  Ga7  1  0.999720  0.670257  0.919282  1
  Ga  Ga8  1  0.995627  0.664383  0.578922  1
  Ga  Ga9  1  0.335617  0.004373  0.421078  1
  Ga  Ga10  1  0.995610  0.331083  0.421253  1
  Ga  Ga11  1  0.668917  0.004390  0.578747  1
  Ga  Ga12  1  0.669906  0.999619  0.919788  1
  Ga  Ga13  1  0.329743  0.000280  0.080718  1
  Ga  Ga14  1  0.333625  0.329124  0.563344  1
  Ga  Ga15  1  0.670876  0.666375  0.436656  1
  Ga  Ga16  1  0.670940  0.671132  0.065521  1
  Ga  Ga17  1  0.328868  0.329060  0.934479  1
  Ga  Ga18  1  0.339190  0.544323  0.250330  1
  Ga  Ga19  1  0.660356  0.453526  0.746425  1
  Ga  Ga20  1  0.546474  0.339644  0.253575  1
  Ga  Ga21  1  0.455677  0.660810  0.749670  1
  Pd  Pd22  1  0.671119  0.328881  0.000000  1
  Pd  Pd23  1  0.328763  0.671237  0.000000  1
  Pd  Pd24  1  0.327996  0.672004  0.500000  1
  Ru  Ru25  1  0.671574  0.328426  0.500000  1
  Ru  Ru26  1  0.000306  0.999694  0.000000  1
  Rh  Rh27  1  0.999707  0.000293  0.500000  1
