# generated using pymatgen
data_La2Pa(AlPt)3
_symmetry_space_group_name_H-M   'P 1'
_cell_length_a   7.37262145
_cell_length_b   7.28941236
_cell_length_c   4.14580500
_cell_angle_alpha   90.00000000
_cell_angle_beta   90.00000000
_cell_angle_gamma   119.62734381
_symmetry_Int_Tables_number   1
_chemical_formula_structural   La2Pa(AlPt)3
_chemical_formula_sum   'La2 Pa1 Al3 Pt3'
_cell_volume   193.67455752
_cell_formula_units_Z   1
loop_
 _symmetry_equiv_pos_site_id
 _symmetry_equiv_pos_as_xyz
  1  'x, y, z'
loop_
 _atom_site_type_symbol
 _atom_site_label
 _atom_site_symmetry_multiplicity
 _atom_site_fract_x
 _atom_site_fract_y
 _atom_site_fract_z
 _atom_site_occupancy
  La  La0  1  0.582077  0.003185  0.500000  1
  La  La1  1  0.417923  0.421107  0.500000  1
  Pa  Pa2  1  0.000000  0.579365  0.500000  1
  Al  Al3  1  0.000000  0.228491  0.000000  1
  Al  Al4  1  0.229274  0.995760  0.000000  1
  Al  Al5  1  0.770726  0.766485  0.000000  1
  Pt  Pt6  1  0.000000  0.980371  0.500000  1
  Pt  Pt7  1  0.699840  0.362537  0.000000  1
  Pt  Pt8  1  0.300160  0.662698  0.000000  1
