# generated using pymatgen
data_Li(Ca3Ga2)7
_symmetry_space_group_name_H-M   'P 1'
_cell_length_a   11.36361502
_cell_length_b   11.36361539
_cell_length_c   11.36361500
_cell_angle_alpha   59.99999823
_cell_angle_beta   59.99999714
_cell_angle_gamma   59.99999918
_symmetry_Int_Tables_number   1
_chemical_formula_structural   Li(Ca3Ga2)7
_chemical_formula_sum   'Li1 Ca21 Ga14'
_cell_volume   1037.61092086
_cell_formula_units_Z   1
loop_
 _symmetry_equiv_pos_site_id
 _symmetry_equiv_pos_as_xyz
  1  'x, y, z'
loop_
 _atom_site_type_symbol
 _atom_site_label
 _atom_site_symmetry_multiplicity
 _atom_site_fract_x
 _atom_site_fract_y
 _atom_site_fract_z
 _atom_site_occupancy
  Li  Li0  1  0.500000  0.500000  0.500000  1
  Ca  Ca1  1  0.000000  0.000000  0.000000  1
  Ca  Ca2  1  0.129404  0.129404  0.129404  1
  Ca  Ca3  1  0.388210  0.870596  0.870596  1
  Ca  Ca4  1  0.870596  0.388210  0.870596  1
  Ca  Ca5  1  0.870596  0.870596  0.388210  1
  Ca  Ca6  1  0.129404  0.611790  0.129404  1
  Ca  Ca7  1  0.129404  0.129404  0.611790  1
  Ca  Ca8  1  0.611790  0.129404  0.129404  1
  Ca  Ca9  1  0.870596  0.870596  0.870596  1
  Ca  Ca10  1  0.500000  0.830754  0.500000  1
  Ca  Ca11  1  0.830754  0.500000  0.500000  1
  Ca  Ca12  1  0.500000  0.830754  0.169246  1
  Ca  Ca13  1  0.169246  0.500000  0.830754  1
  Ca  Ca14  1  0.830754  0.500000  0.169246  1
  Ca  Ca15  1  0.500000  0.500000  0.830754  1
  Ca  Ca16  1  0.169246  0.830754  0.500000  1
  Ca  Ca17  1  0.500000  0.169246  0.830754  1
  Ca  Ca18  1  0.500000  0.500000  0.169246  1
  Ca  Ca19  1  0.830754  0.169246  0.500000  1
  Ca  Ca20  1  0.169246  0.500000  0.500000  1
  Ca  Ca21  1  0.500000  0.169246  0.500000  1
  Ga  Ga22  1  0.217899  0.782101  0.217899  1
  Ga  Ga23  1  0.217899  0.782101  0.782101  1
  Ga  Ga24  1  0.782101  0.217899  0.217899  1
  Ga  Ga25  1  0.782101  0.782101  0.217899  1
  Ga  Ga26  1  0.217899  0.217899  0.782101  1
  Ga  Ga27  1  0.782101  0.217899  0.782101  1
  Ga  Ga28  1  0.309312  0.309311  0.309311  1
  Ga  Ga29  1  0.927933  0.690689  0.690689  1
  Ga  Ga30  1  0.690689  0.927933  0.690689  1
  Ga  Ga31  1  0.690689  0.690689  0.927933  1
  Ga  Ga32  1  0.309311  0.072067  0.309311  1
  Ga  Ga33  1  0.309311  0.309311  0.072067  1
  Ga  Ga34  1  0.072067  0.309311  0.309311  1
  Ga  Ga35  1  0.690689  0.690689  0.690688  1
