# generated using pymatgen
data_La2HoCuSe5
_symmetry_space_group_name_H-M   'P 1'
_cell_length_a   12.24091100
_cell_length_b   4.13796300
_cell_length_c   17.85987800
_cell_angle_alpha   90.00000000
_cell_angle_beta   90.00000000
_cell_angle_gamma   90.00000000
_symmetry_Int_Tables_number   1
_chemical_formula_structural   La2HoCuSe5
_chemical_formula_sum   'La8 Ho4 Cu4 Se20'
_cell_volume   904.64634173
_cell_formula_units_Z   4
loop_
 _symmetry_equiv_pos_site_id
 _symmetry_equiv_pos_as_xyz
  1  'x, y, z'
loop_
 _atom_site_type_symbol
 _atom_site_label
 _atom_site_symmetry_multiplicity
 _atom_site_fract_x
 _atom_site_fract_y
 _atom_site_fract_z
 _atom_site_occupancy
  La  La0  1  0.360524  0.250000  0.103702  1
  La  La1  1  0.011747  0.250000  0.174524  1
  La  La2  1  0.511747  0.250000  0.325477  1
  La  La3  1  0.860523  0.250000  0.396298  1
  La  La4  1  0.139477  0.749999  0.603702  1
  La  La5  1  0.488253  0.749999  0.674524  1
  La  La6  1  0.988253  0.749999  0.825477  1
  La  La7  1  0.639476  0.749999  0.896298  1
  Ho  Ho8  1  0.698096  0.749999  0.135073  1
  Ho  Ho9  1  0.198096  0.749999  0.364928  1
  Ho  Ho10  1  0.801904  0.250000  0.635073  1
  Ho  Ho11  1  0.301904  0.250000  0.864928  1
  Cu  Cu12  1  0.824858  0.250000  0.019871  1
  Cu  Cu13  1  0.324857  0.250000  0.480129  1
  Cu  Cu14  1  0.675143  0.749999  0.519871  1
  Cu  Cu15  1  0.175143  0.749999  0.980129  1
  Se  Se16  1  0.616700  0.250000  0.031826  1
  Se  Se17  1  0.905637  0.749999  0.070450  1
  Se  Se18  1  0.181173  0.749999  0.115360  1
  Se  Se19  1  0.485203  0.749999  0.198381  1
  Se  Se20  1  0.759427  0.250000  0.231318  1
  Se  Se21  1  0.259426  0.250000  0.268682  1
  Se  Se22  1  0.985202  0.749999  0.301619  1
  Se  Se23  1  0.681173  0.749999  0.384640  1
  Se  Se24  1  0.405637  0.749999  0.429550  1
  Se  Se25  1  0.116700  0.250000  0.468173  1
  Se  Se26  1  0.883300  0.749999  0.531826  1
  Se  Se27  1  0.594363  0.250000  0.570450  1
  Se  Se28  1  0.318828  0.250000  0.615360  1
  Se  Se29  1  0.014798  0.250000  0.698382  1
  Se  Se30  1  0.740574  0.749999  0.731318  1
  Se  Se31  1  0.240573  0.749999  0.768682  1
  Se  Se32  1  0.514797  0.250000  0.801619  1
  Se  Se33  1  0.818827  0.250000  0.884640  1
  Se  Se34  1  0.094363  0.250000  0.929550  1
  Se  Se35  1  0.383300  0.749999  0.968173  1
