# generated using pymatgen
data_Er3TmCo3Si4Ru
_symmetry_space_group_name_H-M   'P 1'
_cell_length_a   4.19227000
_cell_length_b   6.81347582
_cell_length_c   6.96432665
_cell_angle_alpha   90.12723791
_cell_angle_beta   90.00000000
_cell_angle_gamma   90.00000000
_symmetry_Int_Tables_number   1
_chemical_formula_structural   Er3TmCo3Si4Ru
_chemical_formula_sum   'Er3 Tm1 Co3 Si4 Ru1'
_cell_volume   198.92805043
_cell_formula_units_Z   1
loop_
 _symmetry_equiv_pos_site_id
 _symmetry_equiv_pos_as_xyz
  1  'x, y, z'
loop_
 _atom_site_type_symbol
 _atom_site_label
 _atom_site_symmetry_multiplicity
 _atom_site_fract_x
 _atom_site_fract_y
 _atom_site_fract_z
 _atom_site_occupancy
  Er  Er0  1  0.750000  0.012596  0.192423  1
  Er  Er1  1  0.250000  0.481596  0.686182  1
  Er  Er2  1  0.750000  0.511302  0.314702  1
  Tm  Tm3  1  0.250000  0.985880  0.805233  1
  Co  Co4  1  0.750000  0.852742  0.568766  1
  Co  Co5  1  0.250000  0.154331  0.436286  1
  Co  Co6  1  0.750000  0.349682  0.932615  1
  Si  Si7  1  0.250000  0.298021  0.102617  1
  Si  Si8  1  0.750000  0.697264  0.887749  1
  Si  Si9  1  0.250000  0.805904  0.399579  1
  Si  Si10  1  0.750000  0.195557  0.607537  1
  Ru  Ru11  1  0.250000  0.655124  0.066309  1
