# generated using pymatgen
data_NaCa21Ga9Sn5
_symmetry_space_group_name_H-M   'P 1'
_cell_length_a   11.47404122
_cell_length_b   11.47182548
_cell_length_c   11.47404221
_cell_angle_alpha   60.00639546
_cell_angle_beta   59.98721586
_cell_angle_gamma   60.00639717
_symmetry_Int_Tables_number   1
_chemical_formula_structural   NaCa21Ga9Sn5
_chemical_formula_sum   'Na1 Ca21 Ga9 Sn5'
_cell_volume   1067.94866668
_cell_formula_units_Z   1
loop_
 _symmetry_equiv_pos_site_id
 _symmetry_equiv_pos_as_xyz
  1  'x, y, z'
loop_
 _atom_site_type_symbol
 _atom_site_label
 _atom_site_symmetry_multiplicity
 _atom_site_fract_x
 _atom_site_fract_y
 _atom_site_fract_z
 _atom_site_occupancy
  Na  Na0  1  0.500550  0.499450  0.500550  1
  Ca  Ca1  1  0.998555  0.001445  0.998555  1
  Ca  Ca2  1  0.130169  0.130554  0.130169  1
  Ca  Ca3  1  0.390891  0.869831  0.869446  1
  Ca  Ca4  1  0.867778  0.388714  0.867778  1
  Ca  Ca5  1  0.869446  0.869831  0.390891  1
  Ca  Ca6  1  0.130169  0.609109  0.130169  1
  Ca  Ca7  1  0.124270  0.132222  0.611286  1
  Ca  Ca8  1  0.611286  0.132222  0.124270  1
  Ca  Ca9  1  0.867778  0.875730  0.867778  1
  Ca  Ca10  1  0.499973  0.832656  0.499973  1
  Ca  Ca11  1  0.832205  0.494368  0.505632  1
  Ca  Ca12  1  0.500516  0.833330  0.166670  1
  Ca  Ca13  1  0.167344  0.500027  0.832602  1
  Ca  Ca14  1  0.832602  0.500027  0.167344  1
  Ca  Ca15  1  0.505632  0.494368  0.832205  1
  Ca  Ca16  1  0.166670  0.833330  0.500516  1
  Ca  Ca17  1  0.505632  0.167795  0.832205  1
  Ca  Ca18  1  0.500516  0.499484  0.166670  1
  Ca  Ca19  1  0.832205  0.167795  0.505632  1
  Ca  Ca20  1  0.166670  0.499484  0.500516  1
  Ca  Ca21  1  0.499973  0.167398  0.499973  1
  Ga  Ga22  1  0.781955  0.218045  0.781955  1
  Ga  Ga23  1  0.308896  0.309035  0.308895  1
  Ga  Ga24  1  0.926826  0.691105  0.690965  1
  Ga  Ga25  1  0.690629  0.927888  0.690629  1
  Ga  Ga26  1  0.690965  0.691105  0.926826  1
  Ga  Ga27  1  0.308895  0.073174  0.308895  1
  Ga  Ga28  1  0.309146  0.309371  0.072112  1
  Ga  Ga29  1  0.072112  0.309371  0.309146  1
  Ga  Ga30  1  0.690629  0.690854  0.690628  1
  Sn  Sn31  1  0.216542  0.783458  0.216542  1
  Sn  Sn32  1  0.218402  0.781598  0.782885  1
  Sn  Sn33  1  0.782885  0.217115  0.218402  1
  Sn  Sn34  1  0.782885  0.781598  0.218402  1
  Sn  Sn35  1  0.218402  0.217115  0.782885  1
