# generated using pymatgen
data_Tb2Y3CoPd2
_symmetry_space_group_name_H-M   'P 1'
_cell_length_a   7.94058600
_cell_length_b   8.21097600
_cell_length_c   11.90217300
_cell_angle_alpha   90.00000000
_cell_angle_beta   90.00000000
_cell_angle_gamma   90.00000000
_symmetry_Int_Tables_number   1
_chemical_formula_structural   Tb2Y3CoPd2
_chemical_formula_sum   'Tb8 Y12 Co4 Pd8'
_cell_volume   776.02121627
_cell_formula_units_Z   4
loop_
 _symmetry_equiv_pos_site_id
 _symmetry_equiv_pos_as_xyz
  1  'x, y, z'
loop_
 _atom_site_type_symbol
 _atom_site_label
 _atom_site_symmetry_multiplicity
 _atom_site_fract_x
 _atom_site_fract_y
 _atom_site_fract_z
 _atom_site_occupancy
  Tb  Tb0  1  0.829479  0.965083  0.080802  1
  Tb  Tb1  1  0.329479  0.034917  0.419198  1
  Tb  Tb2  1  0.170521  0.465083  0.919198  1
  Tb  Tb3  1  0.670521  0.534917  0.580802  1
  Tb  Tb4  1  0.170521  0.034917  0.919198  1
  Tb  Tb5  1  0.670521  0.965083  0.580802  1
  Tb  Tb6  1  0.829479  0.534917  0.080802  1
  Tb  Tb7  1  0.329479  0.465083  0.419198  1
  Y  Y8  1  0.166451  0.750000  0.214522  1
  Y  Y9  1  0.666451  0.250000  0.285478  1
  Y  Y10  1  0.833549  0.250000  0.785478  1
  Y  Y11  1  0.333549  0.750000  0.714522  1
  Y  Y12  1  0.460778  0.750000  0.005268  1
  Y  Y13  1  0.960778  0.250000  0.494732  1
  Y  Y14  1  0.539222  0.250000  0.994732  1
  Y  Y15  1  0.039222  0.750000  0.505268  1
  Y  Y16  1  0.629964  0.750000  0.305462  1
  Y  Y17  1  0.129964  0.250000  0.194538  1
  Y  Y18  1  0.370036  0.250000  0.694538  1
  Y  Y19  1  0.870036  0.750000  0.805462  1
  Co  Co20  1  0.434253  0.750000  0.495062  1
  Co  Co21  1  0.934253  0.250000  0.004938  1
  Co  Co22  1  0.565747  0.250000  0.504938  1
  Co  Co23  1  0.065747  0.750000  0.995062  1
  Pd  Pd24  1  0.935404  0.981085  0.328907  1
  Pd  Pd25  1  0.435404  0.018915  0.171093  1
  Pd  Pd26  1  0.064596  0.481085  0.671093  1
  Pd  Pd27  1  0.564596  0.518915  0.828907  1
  Pd  Pd28  1  0.064596  0.018915  0.671093  1
  Pd  Pd29  1  0.564596  0.981085  0.828907  1
  Pd  Pd30  1  0.935404  0.518915  0.328907  1
  Pd  Pd31  1  0.435404  0.481085  0.171093  1
