# generated using pymatgen
data_La6Nd10MgHg3Rh4
_symmetry_space_group_name_H-M   'P 1'
_cell_length_a   9.95668420
_cell_length_b   10.04785414
_cell_length_c   10.04785360
_cell_angle_alpha   59.69514028
_cell_angle_beta   60.01954216
_cell_angle_gamma   60.01954648
_symmetry_Int_Tables_number   1
_chemical_formula_structural   La6Nd10MgHg3Rh4
_chemical_formula_sum   'La6 Nd10 Mg1 Hg3 Rh4'
_cell_volume   709.35461302
_cell_formula_units_Z   1
loop_
 _symmetry_equiv_pos_site_id
 _symmetry_equiv_pos_as_xyz
  1  'x, y, z'
loop_
 _atom_site_type_symbol
 _atom_site_label
 _atom_site_symmetry_multiplicity
 _atom_site_fract_x
 _atom_site_fract_y
 _atom_site_fract_z
 _atom_site_occupancy
  La  La0  1  0.596106  0.598006  0.598006  1
  La  La1  1  0.600790  0.596324  0.203605  1
  La  La2  1  0.600790  0.203605  0.596324  1
  La  La3  1  0.195284  0.602731  0.602731  1
  La  La4  1  0.059846  0.440206  0.440206  1
  La  La5  1  0.433977  0.063181  0.063181  1
  Nd  Nd6  1  0.438978  0.060302  0.440076  1
  Nd  Nd7  1  0.055151  0.442955  0.057279  1
  Nd  Nd8  1  0.438978  0.440076  0.060302  1
  Nd  Nd9  1  0.055151  0.057279  0.442955  1
  Nd  Nd10  1  0.186481  0.815132  0.815132  1
  Nd  Nd11  1  0.812196  0.186543  0.186543  1
  Nd  Nd12  1  0.812373  0.187021  0.814986  1
  Nd  Nd13  1  0.186573  0.813954  0.185693  1
  Nd  Nd14  1  0.812373  0.814986  0.187021  1
  Nd  Nd15  1  0.186573  0.185693  0.813954  1
  Mg  Mg16  1  0.535812  0.820300  0.820300  1
  Hg  Hg17  1  0.832543  0.836474  0.836474  1
  Hg  Hg18  1  0.831159  0.838586  0.493599  1
  Hg  Hg19  1  0.831159  0.493599  0.838586  1
  Rh  Rh20  1  0.386617  0.394064  0.394064  1
  Rh  Rh21  1  0.393832  0.389372  0.824843  1
  Rh  Rh22  1  0.393832  0.824843  0.389372  1
  Rh  Rh23  1  0.823429  0.394770  0.394770  1
