# generated using pymatgen
data_HoTm3(Rh2O7)2
_symmetry_space_group_name_H-M   'P 1'
_cell_length_a   7.17433434
_cell_length_b   7.17795729
_cell_length_c   7.17795600
_cell_angle_alpha   59.99999673
_cell_angle_beta   59.98329048
_cell_angle_gamma   59.98329126
_symmetry_Int_Tables_number   1
_chemical_formula_structural   HoTm3(Rh2O7)2
_chemical_formula_sum   'Ho1 Tm3 Rh4 O14'
_cell_volume   261.31150683
_cell_formula_units_Z   1
loop_
 _symmetry_equiv_pos_site_id
 _symmetry_equiv_pos_as_xyz
  1  'x, y, z'
loop_
 _atom_site_type_symbol
 _atom_site_label
 _atom_site_symmetry_multiplicity
 _atom_site_fract_x
 _atom_site_fract_y
 _atom_site_fract_z
 _atom_site_occupancy
  Ho  Ho0  1  0.625000  0.125000  0.125000  1
  Tm  Tm1  1  0.125000  0.125000  0.125000  1
  Tm  Tm2  1  0.125000  0.625000  0.125000  1
  Tm  Tm3  1  0.125000  0.125000  0.625000  1
  Rh  Rh4  1  0.625000  0.625000  0.625000  1
  Rh  Rh5  1  0.625000  0.625000  0.125000  1
  Rh  Rh6  1  0.125000  0.625000  0.625000  1
  Rh  Rh7  1  0.625000  0.125000  0.625000  1
  O  O8  1  0.246419  0.251194  0.251194  1
  O  O9  1  0.285623  0.714229  0.285920  1
  O  O10  1  0.964377  0.964080  0.535771  1
  O  O11  1  0.535308  0.963782  0.537128  1
  O  O12  1  0.714692  0.712872  0.286218  1
  O  O13  1  0.964377  0.535771  0.535771  1
  O  O14  1  0.714692  0.286218  0.712872  1
  O  O15  1  0.285623  0.285920  0.714229  1
  O  O16  1  0.714692  0.286218  0.286218  1
  O  O17  1  0.285623  0.714229  0.714229  1
  O  O18  1  0.964377  0.535771  0.964080  1
  O  O19  1  0.535308  0.537128  0.963782  1
  O  O20  1  0.003581  0.998806  0.998806  1
  O  O21  1  0.535308  0.963782  0.963782  1
