# generated using pymatgen
data_Tb5Pr2Th(MgIr)2
_symmetry_space_group_name_H-M   'P 1'
_cell_length_a   9.86353958
_cell_length_b   9.85432441
_cell_length_c   9.86245133
_cell_angle_alpha   60.03455864
_cell_angle_beta   59.94185497
_cell_angle_gamma   60.06431041
_symmetry_Int_Tables_number   1
_chemical_formula_structural   Tb5Pr2Th(MgIr)2
_chemical_formula_sum   'Tb10 Pr4 Th2 Mg4 Ir4'
_cell_volume   678.05055490
_cell_formula_units_Z   2
loop_
 _symmetry_equiv_pos_site_id
 _symmetry_equiv_pos_as_xyz
  1  'x, y, z'
loop_
 _atom_site_type_symbol
 _atom_site_label
 _atom_site_symmetry_multiplicity
 _atom_site_fract_x
 _atom_site_fract_y
 _atom_site_fract_z
 _atom_site_occupancy
  Tb  Tb0  1  0.348090  0.955883  0.349103  1
  Tb  Tb1  1  0.955883  0.348090  0.346924  1
  Tb  Tb2  1  0.814944  0.186826  0.183946  1
  Tb  Tb3  1  0.186826  0.814944  0.814284  1
  Tb  Tb4  1  0.186116  0.813697  0.187315  1
  Tb  Tb5  1  0.813697  0.186116  0.812872  1
  Tb  Tb6  1  0.185338  0.185338  0.814662  1
  Tb  Tb7  1  0.813414  0.813414  0.186586  1
  Tb  Tb8  1  0.944815  0.556314  0.557334  1
  Tb  Tb9  1  0.556314  0.944815  0.941537  1
  Pr  Pr10  1  0.563754  0.939714  0.564047  1
  Pr  Pr11  1  0.939714  0.563754  0.932485  1
  Pr  Pr12  1  0.565210  0.565210  0.934790  1
  Pr  Pr13  1  0.939727  0.939727  0.560273  1
  Th  Th14  1  0.345988  0.342642  0.347315  1
  Th  Th15  1  0.342642  0.345988  0.964056  1
  Mg  Mg16  1  0.581158  0.577694  0.578435  1
  Mg  Mg17  1  0.577694  0.581158  0.262713  1
  Mg  Mg18  1  0.577486  0.261480  0.581820  1
  Mg  Mg19  1  0.261480  0.577486  0.579214  1
  Ir  Ir20  1  0.145715  0.139980  0.141327  1
  Ir  Ir21  1  0.139980  0.145715  0.572979  1
  Ir  Ir22  1  0.142984  0.571032  0.145561  1
  Ir  Ir23  1  0.571032  0.142984  0.140422  1
