# generated using pymatgen
data_Dy4TaZn2Os5
_symmetry_space_group_name_H-M   'P 1'
_cell_length_a   5.33152424
_cell_length_b   5.33057931
_cell_length_c   8.94269300
_cell_angle_alpha   90.00000000
_cell_angle_beta   90.00000000
_cell_angle_gamma   117.92340788
_symmetry_Int_Tables_number   1
_chemical_formula_structural   Dy4TaZn2Os5
_chemical_formula_sum   'Dy4 Ta1 Zn2 Os5'
_cell_volume   224.56250121
_cell_formula_units_Z   1
loop_
 _symmetry_equiv_pos_site_id
 _symmetry_equiv_pos_as_xyz
  1  'x, y, z'
loop_
 _atom_site_type_symbol
 _atom_site_label
 _atom_site_symmetry_multiplicity
 _atom_site_fract_x
 _atom_site_fract_y
 _atom_site_fract_z
 _atom_site_occupancy
  Dy  Dy0  1  0.321590  0.668013  0.436999  1
  Dy  Dy1  1  0.656695  0.330090  0.559935  1
  Dy  Dy2  1  0.656695  0.330090  0.940065  1
  Dy  Dy3  1  0.321590  0.668013  0.063001  1
  Ta  Ta4  1  0.838635  0.157005  0.250000  1
  Zn  Zn5  1  0.195436  0.841459  0.750000  1
  Zn  Zn6  1  0.189877  0.350111  0.750000  1
  Os  Os7  1  0.979368  0.994631  0.507962  1
  Os  Os8  1  0.979368  0.994631  0.992038  1
  Os  Os9  1  0.819626  0.650115  0.250000  1
  Os  Os10  1  0.347674  0.172397  0.250000  1
  Os  Os11  1  0.693444  0.843443  0.750000  1
