# generated using pymatgen
data_TiMnNbB2
_symmetry_space_group_name_H-M   'P 1'
_cell_length_a   5.83541300
_cell_length_b   5.83851500
_cell_length_c   3.21083800
_cell_angle_alpha   90.00000000
_cell_angle_beta   90.00000000
_cell_angle_gamma   90.00000000
_symmetry_Int_Tables_number   1
_chemical_formula_structural   TiMnNbB2
_chemical_formula_sum   'Ti2 Mn2 Nb2 B4'
_cell_volume   109.39372051
_cell_formula_units_Z   2
loop_
 _symmetry_equiv_pos_site_id
 _symmetry_equiv_pos_as_xyz
  1  'x, y, z'
loop_
 _atom_site_type_symbol
 _atom_site_label
 _atom_site_symmetry_multiplicity
 _atom_site_fract_x
 _atom_site_fract_y
 _atom_site_fract_z
 _atom_site_occupancy
  Ti  Ti0  1  0.180458  0.317451  0.500000  1
  Ti  Ti1  1  0.680458  0.182549  0.500000  1
  Mn  Mn2  1  0.498547  0.494967  0.000000  1
  Mn  Mn3  1  0.998547  0.005033  0.000000  1
  Nb  Nb4  1  0.819063  0.678450  0.500000  1
  Nb  Nb5  1  0.319063  0.821550  0.500000  1
  B  B6  1  0.112035  0.604464  0.000000  1
  B  B7  1  0.612035  0.895536  0.000000  1
  B  B8  1  0.389899  0.116180  0.000000  1
  B  B9  1  0.889899  0.383820  0.000000  1
