# generated using pymatgen
data_Tm8Re2B24IrRh
_symmetry_space_group_name_H-M   'P 1'
_cell_length_a   3.63719100
_cell_length_b   9.08482567
_cell_length_c   11.46908345
_cell_angle_alpha   90.38245768
_cell_angle_beta   90.00000000
_cell_angle_gamma   90.00000000
_symmetry_Int_Tables_number   1
_chemical_formula_structural   Tm8Re2B24IrRh
_chemical_formula_sum   'Tm8 Re2 B24 Ir1 Rh1'
_cell_volume   378.96730433
_cell_formula_units_Z   1
loop_
 _symmetry_equiv_pos_site_id
 _symmetry_equiv_pos_as_xyz
  1  'x, y, z'
loop_
 _atom_site_type_symbol
 _atom_site_label
 _atom_site_symmetry_multiplicity
 _atom_site_fract_x
 _atom_site_fract_y
 _atom_site_fract_z
 _atom_site_occupancy
  Tm  Tm0  1  0.500000  0.317286  0.410154  1
  Tm  Tm1  1  0.500000  0.682887  0.589198  1
  Tm  Tm2  1  0.500000  0.173849  0.917787  1
  Tm  Tm3  1  0.500000  0.826157  0.082539  1
  Tm  Tm4  1  0.500000  0.442521  0.126499  1
  Tm  Tm5  1  0.500000  0.557951  0.874126  1
  Tm  Tm6  1  0.500000  0.053683  0.627533  1
  Tm  Tm7  1  0.500000  0.945408  0.371975  1
  Re  Re8  1  0.500000  0.138859  0.179808  1
  Re  Re9  1  0.500000  0.861279  0.820153  1
  B  B10  1  0.000000  0.106745  0.471139  1
  B  B11  1  0.000000  0.893077  0.528687  1
  B  B12  1  0.000000  0.394430  0.970709  1
  B  B13  1  0.000000  0.605703  0.029392  1
  B  B14  1  0.000000  0.131876  0.315345  1
  B  B15  1  0.000000  0.868105  0.684570  1
  B  B16  1  0.000000  0.367895  0.816690  1
  B  B17  1  0.000000  0.632690  0.182976  1
  B  B18  1  0.000000  0.052906  0.067006  1
  B  B19  1  0.000000  0.947065  0.932986  1
  B  B20  1  0.000000  0.445780  0.565462  1
  B  B21  1  0.000000  0.554156  0.434787  1
  B  B22  1  0.000000  0.482951  0.287742  1
  B  B23  1  0.000000  0.517641  0.712738  1
  B  B24  1  0.000000  0.017832  0.786768  1
  B  B25  1  0.000000  0.982268  0.213298  1
  B  B26  1  0.000000  0.249009  0.080785  1
  B  B27  1  0.000000  0.751094  0.919219  1
  B  B28  1  0.000000  0.250066  0.578389  1
  B  B29  1  0.000000  0.749349  0.421758  1
  B  B30  1  0.000000  0.293590  0.235040  1
  B  B31  1  0.000000  0.706510  0.764999  1
  B  B32  1  0.000000  0.207881  0.734614  1
  B  B33  1  0.000000  0.791706  0.264862  1
  Ir  Ir34  1  0.500000  0.362327  0.678499  1
  Rh  Rh35  1  0.500000  0.637468  0.321770  1
