# generated using pymatgen
data_Sr2Li4EuBi4
_symmetry_space_group_name_H-M   'P 1'
_cell_length_a   9.25159467
_cell_length_b   9.25159460
_cell_length_c   9.25159545
_cell_angle_alpha   149.06222191
_cell_angle_beta   131.24438778
_cell_angle_gamma   58.86888537
_symmetry_Int_Tables_number   1
_chemical_formula_structural   Sr2Li4EuBi4
_chemical_formula_sum   'Sr2 Li4 Eu1 Bi4'
_cell_volume   303.68529548
_cell_formula_units_Z   1
loop_
 _symmetry_equiv_pos_site_id
 _symmetry_equiv_pos_as_xyz
  1  'x, y, z'
loop_
 _atom_site_type_symbol
 _atom_site_label
 _atom_site_symmetry_multiplicity
 _atom_site_fract_x
 _atom_site_fract_y
 _atom_site_fract_z
 _atom_site_occupancy
  Sr  Sr0  1  0.629708  0.129708  0.500000  1
  Sr  Sr1  1  0.370292  0.870292  0.500000  1
  Li  Li2  1  0.982040  0.674590  0.307449  1
  Li  Li3  1  0.017960  0.325410  0.692551  1
  Li  Li4  1  0.632859  0.325410  0.307449  1
  Li  Li5  1  0.367141  0.674590  0.692551  1
  Eu  Eu6  1  0.000000  0.000000  0.000000  1
  Bi  Bi7  1  0.788271  0.788271  0.000000  1
  Bi  Bi8  1  0.211729  0.211729  0.000000  1
  Bi  Bi9  1  0.705328  0.500000  0.205328  1
  Bi  Bi10  1  0.294672  0.500000  0.794672  1
