# generated using pymatgen
data_Sc12Co4TcSn
_symmetry_space_group_name_H-M   'P 1'
_cell_length_a   7.72702089
_cell_length_b   7.72702138
_cell_length_c   7.72702148
_cell_angle_alpha   111.48637114
_cell_angle_beta   111.00461152
_cell_angle_gamma   105.97852131
_symmetry_Int_Tables_number   1
_chemical_formula_structural   Sc12Co4TcSn
_chemical_formula_sum   'Sc12 Co4 Tc1 Sn1'
_cell_volume   354.16340122
_cell_formula_units_Z   1
loop_
 _symmetry_equiv_pos_site_id
 _symmetry_equiv_pos_as_xyz
  1  'x, y, z'
loop_
 _atom_site_type_symbol
 _atom_site_label
 _atom_site_symmetry_multiplicity
 _atom_site_fract_x
 _atom_site_fract_y
 _atom_site_fract_z
 _atom_site_occupancy
  Sc  Sc0  1  0.425333  0.226028  0.199304  1
  Sc  Sc1  1  0.574667  0.773972  0.800696  1
  Sc  Sc2  1  0.026724  0.226028  0.800696  1
  Sc  Sc3  1  0.973276  0.773972  0.199304  1
  Sc  Sc4  1  0.311051  0.612025  0.300975  1
  Sc  Sc5  1  0.688949  0.387975  0.699025  1
  Sc  Sc6  1  0.311051  0.010075  0.699025  1
  Sc  Sc7  1  0.688949  0.989925  0.300975  1
  Sc  Sc8  1  0.184110  0.274236  0.458347  1
  Sc  Sc9  1  0.815890  0.725763  0.541653  1
  Sc  Sc10  1  0.184110  0.725763  0.909874  1
  Sc  Sc11  1  0.815890  0.274236  0.090126  1
  Co  Co12  1  0.369326  0.000000  0.369326  1
  Co  Co13  1  0.630674  0.000000  0.630674  1
  Co  Co14  1  0.117858  0.617858  0.500000  1
  Co  Co15  1  0.882142  0.382142  0.500000  1
  Tc  Tc16  1  0.000000  0.000000  0.000000  1
  Sn  Sn17  1  0.500000  0.500000  0.000000  1
