# generated using pymatgen
data_Tb6Al23VNiOs7
_symmetry_space_group_name_H-M   'P 1'
_cell_length_a   8.84370300
_cell_length_b   8.84370408
_cell_length_c   9.50376400
_cell_angle_alpha   90.00000000
_cell_angle_beta   90.00000000
_cell_angle_gamma   119.99999221
_symmetry_Int_Tables_number   1
_chemical_formula_structural   Tb6Al23VNiOs7
_chemical_formula_sum   'Tb6 Al23 V1 Ni1 Os7'
_cell_volume   643.71652846
_cell_formula_units_Z   1
loop_
 _symmetry_equiv_pos_site_id
 _symmetry_equiv_pos_as_xyz
  1  'x, y, z'
loop_
 _atom_site_type_symbol
 _atom_site_label
 _atom_site_symmetry_multiplicity
 _atom_site_fract_x
 _atom_site_fract_y
 _atom_site_fract_z
 _atom_site_occupancy
  Tb  Tb0  1  0.195056  0.390112  0.248412  1
  Tb  Tb1  1  0.806731  0.613462  0.749032  1
  Tb  Tb2  1  0.609888  0.804944  0.248412  1
  Tb  Tb3  1  0.386538  0.193269  0.749032  1
  Tb  Tb4  1  0.195056  0.804944  0.248412  1
  Tb  Tb5  1  0.806731  0.193269  0.749032  1
  Al  Al6  1  0.666667  0.333333  0.980726  1
  Al  Al7  1  0.666667  0.333333  0.519441  1
  Al  Al8  1  0.333333  0.666667  0.482814  1
  Al  Al9  1  0.161734  0.323467  0.576167  1
  Al  Al10  1  0.837791  0.675584  0.424066  1
  Al  Al11  1  0.676533  0.838266  0.576167  1
  Al  Al12  1  0.837320  0.674641  0.077274  1
  Al  Al13  1  0.324416  0.162209  0.424066  1
  Al  Al14  1  0.158962  0.317922  0.924815  1
  Al  Al15  1  0.161734  0.838266  0.576167  1
  Al  Al16  1  0.325359  0.162680  0.077274  1
  Al  Al17  1  0.837791  0.162209  0.424066  1
  Al  Al18  1  0.682078  0.841038  0.924815  1
  Al  Al19  1  0.837320  0.162680  0.077274  1
  Al  Al20  1  0.158962  0.841038  0.924815  1
  Al  Al21  1  0.561371  0.122743  0.253037  1
  Al  Al22  1  0.441018  0.882036  0.750253  1
  Al  Al23  1  0.877257  0.438629  0.253037  1
  Al  Al24  1  0.117964  0.558982  0.750253  1
  Al  Al25  1  0.561371  0.438629  0.253037  1
  Al  Al26  1  0.441018  0.558982  0.750253  1
  Al  Al27  1  0.000000  0.000000  0.243460  1
  Al  Al28  1  0.000000  0.000000  0.756089  1
  V  V29  1  0.333333  0.666667  0.985387  1
  Ni  Ni30  1  0.000000  0.000000  0.000624  1
  Os  Os31  1  0.495077  0.990153  0.004978  1
  Os  Os32  1  0.009847  0.504923  0.004978  1
  Os  Os33  1  0.499673  0.999346  0.502629  1
  Os  Os34  1  0.495077  0.504923  0.004978  1
  Os  Os35  1  0.000654  0.500327  0.502629  1
  Os  Os36  1  0.499673  0.500327  0.502629  1
  Os  Os37  1  0.000000  0.000000  0.499475  1
