# generated using pymatgen
data_Sm3Eu13(MgRh)4
_symmetry_space_group_name_H-M   'P 1'
_cell_length_a   10.17672304
_cell_length_b   10.17672240
_cell_length_c   10.17672420
_cell_angle_alpha   60.66659743
_cell_angle_beta   60.66660500
_cell_angle_gamma   60.66659877
_symmetry_Int_Tables_number   1
_chemical_formula_structural   Sm3Eu13(MgRh)4
_chemical_formula_sum   'Sm3 Eu13 Mg4 Rh4'
_cell_volume   756.47700737
_cell_formula_units_Z   1
loop_
 _symmetry_equiv_pos_site_id
 _symmetry_equiv_pos_as_xyz
  1  'x, y, z'
loop_
 _atom_site_type_symbol
 _atom_site_label
 _atom_site_symmetry_multiplicity
 _atom_site_fract_x
 _atom_site_fract_y
 _atom_site_fract_z
 _atom_site_occupancy
  Sm  Sm0  1  0.340186  0.340186  0.977251  1
  Sm  Sm1  1  0.340186  0.977251  0.340186  1
  Sm  Sm2  1  0.977251  0.340186  0.340186  1
  Eu  Eu3  1  0.808765  0.191322  0.191322  1
  Eu  Eu4  1  0.191695  0.808535  0.808535  1
  Eu  Eu5  1  0.191322  0.808765  0.191322  1
  Eu  Eu6  1  0.808535  0.191695  0.808535  1
  Eu  Eu7  1  0.191322  0.191322  0.808765  1
  Eu  Eu8  1  0.808535  0.808535  0.191695  1
  Eu  Eu9  1  0.944109  0.557138  0.557138  1
  Eu  Eu10  1  0.558106  0.943863  0.943863  1
  Eu  Eu11  1  0.557138  0.944109  0.557138  1
  Eu  Eu12  1  0.943863  0.558106  0.943863  1
  Eu  Eu13  1  0.557138  0.557138  0.944109  1
  Eu  Eu14  1  0.943863  0.943863  0.558106  1
  Eu  Eu15  1  0.343795  0.343795  0.343795  1
  Mg  Mg16  1  0.578158  0.578158  0.578158  1
  Mg  Mg17  1  0.577826  0.577826  0.270133  1
  Mg  Mg18  1  0.577826  0.270133  0.577826  1
  Mg  Mg19  1  0.270133  0.577826  0.577826  1
  Rh  Rh20  1  0.143086  0.143086  0.143086  1
  Rh  Rh21  1  0.136968  0.136968  0.573228  1
  Rh  Rh22  1  0.136968  0.573228  0.136968  1
  Rh  Rh23  1  0.573228  0.136968  0.136968  1
