# generated using pymatgen
data_Th2Zn5Ge
_symmetry_space_group_name_H-M   'P 1'
_cell_length_a   8.38235141
_cell_length_b   8.38235233
_cell_length_c   8.85998900
_cell_angle_alpha   90.00000000
_cell_angle_beta   90.00000000
_cell_angle_gamma   149.23268116
_symmetry_Int_Tables_number   1
_chemical_formula_structural   Th2Zn5Ge
_chemical_formula_sum   'Th4 Zn10 Ge2'
_cell_volume   318.46041352
_cell_formula_units_Z   2
loop_
 _symmetry_equiv_pos_site_id
 _symmetry_equiv_pos_as_xyz
  1  'x, y, z'
loop_
 _atom_site_type_symbol
 _atom_site_label
 _atom_site_symmetry_multiplicity
 _atom_site_fract_x
 _atom_site_fract_y
 _atom_site_fract_z
 _atom_site_occupancy
  Th  Th0  1  0.202739  0.797261  0.250000  1
  Th  Th1  1  0.797261  0.202739  0.750000  1
  Th  Th2  1  0.000000  0.000000  0.500000  1
  Th  Th3  1  0.000000  0.000000  0.000000  1
  Zn  Zn4  1  0.815519  0.184481  0.394277  1
  Zn  Zn5  1  0.184481  0.815519  0.605723  1
  Zn  Zn6  1  0.815519  0.184481  0.105723  1
  Zn  Zn7  1  0.184481  0.815519  0.894277  1
  Zn  Zn8  1  0.652270  0.347730  0.480470  1
  Zn  Zn9  1  0.347730  0.652270  0.519530  1
  Zn  Zn10  1  0.652270  0.347730  0.019530  1
  Zn  Zn11  1  0.347730  0.652270  0.980470  1
  Zn  Zn12  1  0.402969  0.597031  0.250000  1
  Zn  Zn13  1  0.597031  0.402969  0.750000  1
  Ge  Ge14  1  0.557042  0.442958  0.250000  1
  Ge  Ge15  1  0.442958  0.557042  0.750000  1
