# generated using pymatgen
data_Sr3Lu(BO3)3
_symmetry_space_group_name_H-M   'P 1'
_cell_length_a   7.86873688
_cell_length_b   7.86873606
_cell_length_c   7.86873634
_cell_angle_alpha   105.00426499
_cell_angle_beta   105.00426179
_cell_angle_gamma   105.00427314
_symmetry_Int_Tables_number   1
_chemical_formula_structural   Sr3Lu(BO3)3
_chemical_formula_sum   'Sr6 Lu2 B6 O18'
_cell_volume   425.91687441
_cell_formula_units_Z   2
loop_
 _symmetry_equiv_pos_site_id
 _symmetry_equiv_pos_as_xyz
  1  'x, y, z'
loop_
 _atom_site_type_symbol
 _atom_site_label
 _atom_site_symmetry_multiplicity
 _atom_site_fract_x
 _atom_site_fract_y
 _atom_site_fract_z
 _atom_site_occupancy
  Sr  Sr0  1  0.358973  0.735370  0.858506  1
  Sr  Sr1  1  0.858506  0.358973  0.735370  1
  Sr  Sr2  1  0.735370  0.858506  0.358973  1
  Sr  Sr3  1  0.641027  0.264630  0.141494  1
  Sr  Sr4  1  0.141494  0.641027  0.264630  1
  Sr  Sr5  1  0.264630  0.141494  0.641027  1
  Lu  Lu6  1  0.500000  0.500000  0.500000  1
  Lu  Lu7  1  0.000000  0.000000  0.000000  1
  B  B8  1  0.709348  0.613528  0.957389  1
  B  B9  1  0.957389  0.709348  0.613528  1
  B  B10  1  0.613528  0.957389  0.709348  1
  B  B11  1  0.042611  0.290652  0.386472  1
  B  B12  1  0.386472  0.042611  0.290652  1
  B  B13  1  0.290652  0.386472  0.042611  1
  O  O14  1  0.045913  0.810439  0.522763  1
  O  O15  1  0.522763  0.045913  0.810439  1
  O  O16  1  0.443102  0.490953  0.210013  1
  O  O17  1  0.490953  0.210013  0.443102  1
  O  O18  1  0.210013  0.443102  0.490953  1
  O  O19  1  0.789987  0.556898  0.509047  1
  O  O20  1  0.556898  0.509047  0.789987  1
  O  O21  1  0.509047  0.789987  0.556898  1
  O  O22  1  0.248075  0.193024  0.970298  1
  O  O23  1  0.193024  0.970298  0.248075  1
  O  O24  1  0.970298  0.248075  0.193024  1
  O  O25  1  0.751925  0.806976  0.029702  1
  O  O26  1  0.806976  0.029702  0.751925  1
  O  O27  1  0.029702  0.751925  0.806976  1
  O  O28  1  0.189561  0.477237  0.954087  1
  O  O29  1  0.477237  0.954087  0.189561  1
  O  O30  1  0.954087  0.189561  0.477237  1
  O  O31  1  0.810439  0.522763  0.045913  1
