# generated using pymatgen
data_Y8Ti5Si16W7
_symmetry_space_group_name_H-M   'P 1'
_cell_length_a   6.93767972
_cell_length_b   6.93184175
_cell_length_c   12.84310078
_cell_angle_alpha   89.87096709
_cell_angle_beta   90.04442948
_cell_angle_gamma   90.03571976
_symmetry_Int_Tables_number   1
_chemical_formula_structural   Y8Ti5Si16W7
_chemical_formula_sum   'Y8 Ti5 Si16 W7'
_cell_volume   617.63437743
_cell_formula_units_Z   1
loop_
 _symmetry_equiv_pos_site_id
 _symmetry_equiv_pos_as_xyz
  1  'x, y, z'
loop_
 _atom_site_type_symbol
 _atom_site_label
 _atom_site_symmetry_multiplicity
 _atom_site_fract_x
 _atom_site_fract_y
 _atom_site_fract_z
 _atom_site_occupancy
  Y  Y0  1  0.340640  0.002707  0.467468  1
  Y  Y1  1  0.498336  0.840241  0.718977  1
  Y  Y2  1  0.501316  0.160342  0.218696  1
  Y  Y3  1  0.839423  0.497196  0.280807  1
  Y  Y4  1  0.160301  0.501590  0.782558  1
  Y  Y5  1  0.659767  0.998162  0.968541  1
  Y  Y6  1  0.002256  0.339739  0.531683  1
  Y  Y7  1  0.996784  0.661425  0.031026  1
  Ti  Ti8  1  0.330113  0.330652  0.999445  1
  Ti  Ti9  1  0.168878  0.829570  0.249940  1
  Ti  Ti10  1  0.828618  0.171469  0.750402  1
  Ti  Ti11  1  0.669474  0.667130  0.499120  1
  Ti  Ti12  1  0.994258  0.840959  0.626100  1
  Si  Si13  1  0.203168  0.129150  0.683360  1
  Si  Si14  1  0.371474  0.702351  0.933474  1
  Si  Si15  1  0.630398  0.298473  0.433326  1
  Si  Si16  1  0.700015  0.370715  0.066934  1
  Si  Si17  1  0.300102  0.629016  0.565924  1
  Si  Si18  1  0.797994  0.871159  0.183125  1
  Si  Si19  1  0.127267  0.201207  0.316900  1
  Si  Si20  1  0.872347  0.799286  0.816524  1
  Si  Si21  1  0.289474  0.959589  0.062929  1
  Si  Si22  1  0.540238  0.789125  0.312694  1
  Si  Si23  1  0.458940  0.210739  0.812648  1
  Si  Si24  1  0.790282  0.542038  0.687588  1
  Si  Si25  1  0.209864  0.458880  0.186779  1
  Si  Si26  1  0.710805  0.041625  0.563296  1
  Si  Si27  1  0.958830  0.290288  0.937412  1
  Si  Si28  1  0.042754  0.709691  0.437302  1
  W  W29  1  0.160256  0.008877  0.874977  1
  W  W30  1  0.492326  0.659190  0.124124  1
  W  W31  1  0.507568  0.340913  0.623376  1
  W  W32  1  0.657885  0.491917  0.877822  1
  W  W33  1  0.342109  0.504129  0.374832  1
  W  W34  1  0.839546  0.991005  0.373323  1
  W  W35  1  0.006197  0.159459  0.126567  1
