# generated using pymatgen
data_YHo4CoSb2
_symmetry_space_group_name_H-M   'P 1'
_cell_length_a   7.87505300
_cell_length_b   8.74279000
_cell_length_c   12.17580900
_cell_angle_alpha   90.00000000
_cell_angle_beta   90.00000000
_cell_angle_gamma   90.00000000
_symmetry_Int_Tables_number   1
_chemical_formula_structural   YHo4CoSb2
_chemical_formula_sum   'Y4 Ho16 Co4 Sb8'
_cell_volume   838.30365357
_cell_formula_units_Z   4
loop_
 _symmetry_equiv_pos_site_id
 _symmetry_equiv_pos_as_xyz
  1  'x, y, z'
loop_
 _atom_site_type_symbol
 _atom_site_label
 _atom_site_symmetry_multiplicity
 _atom_site_fract_x
 _atom_site_fract_y
 _atom_site_fract_z
 _atom_site_occupancy
  Y  Y0  1  0.157183  0.750000  0.204733  1
  Y  Y1  1  0.657183  0.250000  0.295267  1
  Y  Y2  1  0.842817  0.250000  0.795267  1
  Y  Y3  1  0.342817  0.750000  0.704733  1
  Ho  Ho4  1  0.453348  0.750000  0.998143  1
  Ho  Ho5  1  0.953348  0.250000  0.501857  1
  Ho  Ho6  1  0.546652  0.250000  0.001857  1
  Ho  Ho7  1  0.046652  0.750000  0.498143  1
  Ho  Ho8  1  0.622925  0.750000  0.307256  1
  Ho  Ho9  1  0.122925  0.250000  0.192744  1
  Ho  Ho10  1  0.377075  0.250000  0.692744  1
  Ho  Ho11  1  0.877075  0.750000  0.807256  1
  Ho  Ho12  1  0.822430  0.963632  0.065231  1
  Ho  Ho13  1  0.322430  0.036368  0.434769  1
  Ho  Ho14  1  0.177570  0.463632  0.934769  1
  Ho  Ho15  1  0.677570  0.536368  0.565231  1
  Ho  Ho16  1  0.177570  0.036368  0.934769  1
  Ho  Ho17  1  0.677570  0.963632  0.565231  1
  Ho  Ho18  1  0.822430  0.536368  0.065231  1
  Ho  Ho19  1  0.322430  0.463632  0.434769  1
  Co  Co20  1  0.432606  0.750000  0.489318  1
  Co  Co21  1  0.932606  0.250000  0.010682  1
  Co  Co22  1  0.567394  0.250000  0.510682  1
  Co  Co23  1  0.067394  0.750000  0.989318  1
  Sb  Sb24  1  0.930108  0.991746  0.327411  1
  Sb  Sb25  1  0.430108  0.008254  0.172589  1
  Sb  Sb26  1  0.069892  0.491746  0.672589  1
  Sb  Sb27  1  0.569892  0.508254  0.827411  1
  Sb  Sb28  1  0.069892  0.008254  0.672589  1
  Sb  Sb29  1  0.569892  0.991746  0.827411  1
  Sb  Sb30  1  0.930108  0.508254  0.327411  1
  Sb  Sb31  1  0.430108  0.491746  0.172589  1
