# generated using pymatgen
data_Cs5(EuI4)3
_symmetry_space_group_name_H-M   'P 1'
_cell_length_a   15.75870700
_cell_length_b   15.75870674
_cell_length_c   4.91524300
_cell_angle_alpha   90.00000000
_cell_angle_beta   90.00000000
_cell_angle_gamma   120.00000265
_symmetry_Int_Tables_number   1
_chemical_formula_structural   Cs5(EuI4)3
_chemical_formula_sum   'Cs5 Eu3 I12'
_cell_volume   1057.10169164
_cell_formula_units_Z   1
loop_
 _symmetry_equiv_pos_site_id
 _symmetry_equiv_pos_as_xyz
  1  'x, y, z'
loop_
 _atom_site_type_symbol
 _atom_site_label
 _atom_site_symmetry_multiplicity
 _atom_site_fract_x
 _atom_site_fract_y
 _atom_site_fract_z
 _atom_site_occupancy
  Cs  Cs0  1  0.333333  0.666667  0.000000  1
  Cs  Cs1  1  0.666667  0.333333  0.000000  1
  Cs  Cs2  1  0.716070  0.000000  0.000000  1
  Cs  Cs3  1  0.000000  0.716070  0.000000  1
  Cs  Cs4  1  0.283930  0.283930  0.000000  1
  Eu  Eu5  1  0.324833  0.000000  0.500000  1
  Eu  Eu6  1  0.000000  0.324833  0.500000  1
  Eu  Eu7  1  0.675167  0.675167  0.500000  1
  I  I8  1  0.185657  0.000000  0.000000  1
  I  I9  1  0.000000  0.185657  0.000000  1
  I  I10  1  0.814343  0.814343  0.000000  1
  I  I11  1  0.459315  0.000000  0.000000  1
  I  I12  1  0.000000  0.459315  0.000000  1
  I  I13  1  0.540685  0.540685  0.000000  1
  I  I14  1  0.233106  0.441374  0.500000  1
  I  I15  1  0.558626  0.791732  0.500000  1
  I  I16  1  0.441374  0.233106  0.500000  1
  I  I17  1  0.208268  0.766894  0.500000  1
  I  I18  1  0.791732  0.558626  0.500000  1
  I  I19  1  0.766894  0.208268  0.500000  1
