# generated using pymatgen
data_Dy6Al24ZnFeRu6
_symmetry_space_group_name_H-M   'P 1'
_cell_length_a   8.82157301
_cell_length_b   8.82157310
_cell_length_c   9.49198005
_cell_angle_alpha   90.00285892
_cell_angle_beta   89.99714104
_cell_angle_gamma   119.85436062
_symmetry_Int_Tables_number   1
_chemical_formula_structural   Dy6Al24ZnFeRu6
_chemical_formula_sum   'Dy6 Al24 Zn1 Fe1 Ru6'
_cell_volume   640.64140166
_cell_formula_units_Z   1
loop_
 _symmetry_equiv_pos_site_id
 _symmetry_equiv_pos_as_xyz
  1  'x, y, z'
loop_
 _atom_site_type_symbol
 _atom_site_label
 _atom_site_symmetry_multiplicity
 _atom_site_fract_x
 _atom_site_fract_y
 _atom_site_fract_z
 _atom_site_occupancy
  Dy  Dy0  1  0.193904  0.806096  0.245725  1
  Dy  Dy1  1  0.193071  0.385224  0.253155  1
  Dy  Dy2  1  0.614776  0.806929  0.253155  1
  Dy  Dy3  1  0.806096  0.193904  0.754275  1
  Dy  Dy4  1  0.806929  0.614776  0.746845  1
  Dy  Dy5  1  0.385224  0.193071  0.746845  1
  Al  Al6  1  0.563781  0.436219  0.244859  1
  Al  Al7  1  0.561546  0.120871  0.250991  1
  Al  Al8  1  0.879129  0.438454  0.250991  1
  Al  Al9  1  0.436219  0.563781  0.755141  1
  Al  Al10  1  0.438454  0.879129  0.749009  1
  Al  Al11  1  0.120871  0.561546  0.749009  1
  Al  Al12  1  0.321262  0.150345  0.418357  1
  Al  Al13  1  0.837764  0.162236  0.422830  1
  Al  Al14  1  0.849655  0.678738  0.418357  1
  Al  Al15  1  0.678738  0.849655  0.581643  1
  Al  Al16  1  0.162236  0.837764  0.577170  1
  Al  Al17  1  0.150345  0.321262  0.581643  1
  Al  Al18  1  0.681624  0.840514  0.925466  1
  Al  Al19  1  0.159360  0.840640  0.922901  1
  Al  Al20  1  0.159486  0.318376  0.925466  1
  Al  Al21  1  0.318376  0.159486  0.074534  1
  Al  Al22  1  0.840640  0.159360  0.077099  1
  Al  Al23  1  0.840514  0.681624  0.074534  1
  Al  Al24  1  0.671119  0.328881  0.520349  1
  Al  Al25  1  0.328881  0.671119  0.479651  1
  Al  Al26  1  0.333455  0.666545  0.014008  1
  Al  Al27  1  0.666545  0.333455  0.985992  1
  Al  Al28  1  0.999145  0.000855  0.243533  1
  Al  Al29  1  0.000855  0.999145  0.756467  1
  Zn  Zn30  1  0.500000  0.500000  0.500000  1
  Fe  Fe31  1  0.000000  0.000000  0.000000  1
  Ru  Ru32  1  0.000000  0.000000  0.500000  1
  Ru  Ru33  1  0.500000  0.000000  0.500000  1
  Ru  Ru34  1  0.000000  0.500000  0.500000  1
  Ru  Ru35  1  0.500000  0.500000  0.000000  1
  Ru  Ru36  1  0.500000  0.000000  0.000000  1
  Ru  Ru37  1  0.000000  0.500000  0.000000  1
