# generated using pymatgen
data_PrNd2Zr(Co4P3)2
_symmetry_space_group_name_H-M   'P 1'
_cell_length_a   3.78142800
_cell_length_b   10.82874100
_cell_length_c   12.64308100
_cell_angle_alpha   90.00000000
_cell_angle_beta   90.00000000
_cell_angle_gamma   90.00000000
_symmetry_Int_Tables_number   1
_chemical_formula_structural   PrNd2Zr(Co4P3)2
_chemical_formula_sum   'Pr2 Nd4 Zr2 Co16 P12'
_cell_volume   517.71020101
_cell_formula_units_Z   2
loop_
 _symmetry_equiv_pos_site_id
 _symmetry_equiv_pos_as_xyz
  1  'x, y, z'
loop_
 _atom_site_type_symbol
 _atom_site_label
 _atom_site_symmetry_multiplicity
 _atom_site_fract_x
 _atom_site_fract_y
 _atom_site_fract_z
 _atom_site_occupancy
  Pr  Pr0  1  0.000000  0.500000  0.529382  1
  Pr  Pr1  1  0.500000  0.000000  0.470618  1
  Nd  Nd2  1  0.500000  0.820841  0.205352  1
  Nd  Nd3  1  0.500000  0.179159  0.205352  1
  Nd  Nd4  1  0.000000  0.679159  0.794648  1
  Nd  Nd5  1  0.000000  0.320841  0.794648  1
  Zr  Zr6  1  0.500000  0.500000  0.156049  1
  Zr  Zr7  1  0.000000  0.000000  0.843951  1
  Co  Co8  1  0.500000  0.500000  0.705459  1
  Co  Co9  1  0.000000  0.000000  0.294541  1
  Co  Co10  1  0.000000  0.500000  0.986539  1
  Co  Co11  1  0.500000  0.000000  0.013461  1
  Co  Co12  1  0.500000  0.332154  0.993635  1
  Co  Co13  1  0.500000  0.667846  0.993635  1
  Co  Co14  1  0.000000  0.167846  0.006365  1
  Co  Co15  1  0.000000  0.832154  0.006365  1
  Co  Co16  1  0.500000  0.295343  0.433051  1
  Co  Co17  1  0.500000  0.704657  0.433051  1
  Co  Co18  1  0.000000  0.204657  0.566949  1
  Co  Co19  1  0.000000  0.795343  0.566949  1
  Co  Co20  1  0.500000  0.880340  0.701072  1
  Co  Co21  1  0.500000  0.119660  0.701072  1
  Co  Co22  1  0.000000  0.619660  0.298928  1
  Co  Co23  1  0.000000  0.380340  0.298928  1
  P  P24  1  0.500000  0.500000  0.886695  1
  P  P25  1  0.000000  0.000000  0.113305  1
  P  P26  1  0.500000  0.500000  0.358251  1
  P  P27  1  0.000000  0.000000  0.641749  1
  P  P28  1  0.500000  0.303819  0.613354  1
  P  P29  1  0.500000  0.696181  0.613354  1
  P  P30  1  0.000000  0.196181  0.386646  1
  P  P31  1  0.000000  0.803819  0.386646  1
  P  P32  1  0.500000  0.840382  0.898143  1
  P  P33  1  0.500000  0.159618  0.898143  1
  P  P34  1  0.000000  0.659618  0.101857  1
  P  P35  1  0.000000  0.340382  0.101857  1
