# generated using pymatgen
data_Tl4Si5O12
_symmetry_space_group_name_H-M   'P 1'
_cell_length_a   7.53613889
_cell_length_b   7.53613815
_cell_length_c   13.32759500
_cell_angle_alpha   87.16538528
_cell_angle_beta   87.16538556
_cell_angle_gamma   103.07285337
_symmetry_Int_Tables_number   1
_chemical_formula_structural   Tl4Si5O12
_chemical_formula_sum   'Tl8 Si10 O24'
_cell_volume   734.96840050
_cell_formula_units_Z   2
loop_
 _symmetry_equiv_pos_site_id
 _symmetry_equiv_pos_as_xyz
  1  'x, y, z'
loop_
 _atom_site_type_symbol
 _atom_site_label
 _atom_site_symmetry_multiplicity
 _atom_site_fract_x
 _atom_site_fract_y
 _atom_site_fract_z
 _atom_site_occupancy
  Tl  Tl0  1  0.073256  0.132261  0.622634  1
  Tl  Tl1  1  0.867739  0.926744  0.877366  1
  Tl  Tl2  1  0.926744  0.867739  0.377366  1
  Tl  Tl3  1  0.132261  0.073256  0.122634  1
  Tl  Tl4  1  0.033192  0.629138  0.630965  1
  Tl  Tl5  1  0.370862  0.966808  0.869035  1
  Tl  Tl6  1  0.966808  0.370862  0.369035  1
  Tl  Tl7  1  0.629138  0.033192  0.130965  1
  Si  Si8  1  0.637249  0.245604  0.582331  1
  Si  Si9  1  0.754396  0.362751  0.917669  1
  Si  Si10  1  0.362751  0.754396  0.417669  1
  Si  Si11  1  0.245604  0.637249  0.082331  1
  Si  Si12  1  0.382149  0.167213  0.397743  1
  Si  Si13  1  0.832787  0.617851  0.102257  1
  Si  Si14  1  0.617851  0.832787  0.602257  1
  Si  Si15  1  0.167213  0.382149  0.897743  1
  Si  Si16  1  0.510481  0.489519  0.750000  1
  Si  Si17  1  0.489519  0.510481  0.250000  1
  O  O18  1  0.533570  0.358289  0.659681  1
  O  O19  1  0.641711  0.466430  0.840319  1
  O  O20  1  0.466430  0.641711  0.340319  1
  O  O21  1  0.358289  0.533570  0.159681  1
  O  O22  1  0.563996  0.703349  0.708177  1
  O  O23  1  0.296651  0.436004  0.791823  1
  O  O24  1  0.436004  0.296651  0.291823  1
  O  O25  1  0.703349  0.563996  0.208177  1
  O  O26  1  0.853869  0.330531  0.564086  1
  O  O27  1  0.669469  0.146131  0.935914  1
  O  O28  1  0.146131  0.669469  0.435914  1
  O  O29  1  0.330531  0.853869  0.064086  1
  O  O30  1  0.538856  0.248457  0.475323  1
  O  O31  1  0.751543  0.461144  0.024677  1
  O  O32  1  0.461144  0.751543  0.524677  1
  O  O33  1  0.248457  0.538856  0.975323  1
  O  O34  1  0.590238  0.034698  0.633315  1
  O  O35  1  0.965302  0.409762  0.866685  1
  O  O36  1  0.409762  0.965302  0.366685  1
  O  O37  1  0.034698  0.590238  0.133315  1
  O  O38  1  0.175951  0.157850  0.440276  1
  O  O39  1  0.842150  0.824049  0.059724  1
  O  O40  1  0.824049  0.842150  0.559724  1
  O  O41  1  0.157850  0.175951  0.940276  1
