# generated using pymatgen
data_Ba3NdEr2TmO9
_symmetry_space_group_name_H-M   'P 1'
_cell_length_a   9.23562890
_cell_length_b   9.23562951
_cell_length_c   9.23562839
_cell_angle_alpha   38.94304957
_cell_angle_beta   38.94305153
_cell_angle_gamma   38.94305273
_symmetry_Int_Tables_number   1
_chemical_formula_structural   Ba3NdEr2TmO9
_chemical_formula_sum   'Ba3 Nd1 Er2 Tm1 O9'
_cell_volume   279.86044277
_cell_formula_units_Z   1
loop_
 _symmetry_equiv_pos_site_id
 _symmetry_equiv_pos_as_xyz
  1  'x, y, z'
loop_
 _atom_site_type_symbol
 _atom_site_label
 _atom_site_symmetry_multiplicity
 _atom_site_fract_x
 _atom_site_fract_y
 _atom_site_fract_z
 _atom_site_occupancy
  Ba  Ba0  1  0.001178  0.001178  0.001178  1
  Ba  Ba1  1  0.833120  0.833120  0.833120  1
  Ba  Ba2  1  0.403360  0.403360  0.403360  1
  Nd  Nd3  1  0.574160  0.574160  0.574160  1
  Er  Er4  1  0.135890  0.135890  0.135890  1
  Er  Er5  1  0.261461  0.261461  0.261461  1
  Tm  Tm6  1  0.701125  0.701125  0.701125  1
  O  O7  1  0.520666  0.441938  0.972469  1
  O  O8  1  0.441938  0.972469  0.520666  1
  O  O9  1  0.972469  0.520666  0.441938  1
  O  O10  1  0.430825  0.265756  0.896027  1
  O  O11  1  0.265756  0.896027  0.430825  1
  O  O12  1  0.896027  0.430825  0.265756  1
  O  O13  1  0.974548  0.415424  0.862552  1
  O  O14  1  0.862552  0.974548  0.415424  1
  O  O15  1  0.415424  0.862552  0.974548  1
