# generated using pymatgen
data_Tb5Er9(Lu3Pb8)2
_symmetry_space_group_name_H-M   'P 1'
_cell_length_a   8.14599368
_cell_length_b   8.22313726
_cell_length_c   15.53120966
_cell_angle_alpha   90.02403795
_cell_angle_beta   89.96095478
_cell_angle_gamma   89.97407244
_symmetry_Int_Tables_number   1
_chemical_formula_structural   Tb5Er9(Lu3Pb8)2
_chemical_formula_sum   'Tb5 Er9 Lu6 Pb16'
_cell_volume   1040.36733305
_cell_formula_units_Z   1
loop_
 _symmetry_equiv_pos_site_id
 _symmetry_equiv_pos_as_xyz
  1  'x, y, z'
loop_
 _atom_site_type_symbol
 _atom_site_label
 _atom_site_symmetry_multiplicity
 _atom_site_fract_x
 _atom_site_fract_y
 _atom_site_fract_z
 _atom_site_occupancy
  Tb  Tb0  1  0.965833  0.823150  0.098189  1
  Tb  Tb1  1  0.468350  0.678601  0.096735  1
  Tb  Tb2  1  0.968299  0.821286  0.403172  1
  Tb  Tb3  1  0.533166  0.324803  0.599357  1
  Tb  Tb4  1  0.033104  0.175332  0.900579  1
  Er  Er5  1  0.626845  0.157174  0.379808  1
  Er  Er6  1  0.126965  0.342783  0.120196  1
  Er  Er7  1  0.624973  0.158794  0.121601  1
  Er  Er8  1  0.125047  0.341301  0.378476  1
  Er  Er9  1  0.375068  0.842787  0.621510  1
  Er  Er10  1  0.874919  0.657141  0.878311  1
  Er  Er11  1  0.534139  0.323449  0.901104  1
  Er  Er12  1  0.034339  0.176451  0.598996  1
  Er  Er13  1  0.465474  0.676682  0.401804  1
  Lu  Lu14  1  0.372355  0.844104  0.876266  1
  Lu  Lu15  1  0.872542  0.656042  0.623731  1
  Lu  Lu16  1  0.206010  0.505554  0.749960  1
  Lu  Lu17  1  0.706009  0.994418  0.749981  1
  Lu  Lu18  1  0.793929  0.494730  0.250852  1
  Lu  Lu19  1  0.294173  0.005349  0.249360  1
  Pb  Pb20  1  0.284681  0.034326  0.041909  1
  Pb  Pb21  1  0.783643  0.466414  0.457964  1
  Pb  Pb22  1  0.718570  0.962843  0.544440  1
  Pb  Pb23  1  0.218466  0.537231  0.955555  1
  Pb  Pb24  1  0.711611  0.963993  0.956152  1
  Pb  Pb25  1  0.212164  0.536479  0.543448  1
  Pb  Pb26  1  0.284811  0.035138  0.456767  1
  Pb  Pb27  1  0.784514  0.464196  0.043115  1
  Pb  Pb28  1  0.568226  0.626630  0.750471  1
  Pb  Pb29  1  0.068234  0.873244  0.749503  1
  Pb  Pb30  1  0.431239  0.374848  0.250546  1
  Pb  Pb31  1  0.931176  0.125498  0.249460  1
  Pb  Pb32  1  0.346357  0.156491  0.750497  1
  Pb  Pb33  1  0.846464  0.343572  0.749484  1
  Pb  Pb34  1  0.653715  0.844047  0.250742  1
  Pb  Pb35  1  0.154587  0.655118  0.249957  1
