# generated using pymatgen
data_Ca5Bi2P
_symmetry_space_group_name_H-M   'P 1'
_cell_length_a   8.20629900
_cell_length_b   9.38058500
_cell_length_c   12.56388000
_cell_angle_alpha   90.00000000
_cell_angle_beta   90.00000000
_cell_angle_gamma   90.00000000
_symmetry_Int_Tables_number   1
_chemical_formula_structural   Ca5Bi2P
_chemical_formula_sum   'Ca20 Bi8 P4'
_cell_volume   967.16604138
_cell_formula_units_Z   4
loop_
 _symmetry_equiv_pos_site_id
 _symmetry_equiv_pos_as_xyz
  1  'x, y, z'
loop_
 _atom_site_type_symbol
 _atom_site_label
 _atom_site_symmetry_multiplicity
 _atom_site_fract_x
 _atom_site_fract_y
 _atom_site_fract_z
 _atom_site_occupancy
  Ca  Ca0  1  0.318688  0.960750  0.070005  1
  Ca  Ca1  1  0.818688  0.039250  0.429995  1
  Ca  Ca2  1  0.681312  0.460750  0.929995  1
  Ca  Ca3  1  0.181312  0.539250  0.570005  1
  Ca  Ca4  1  0.681312  0.039250  0.929995  1
  Ca  Ca5  1  0.181312  0.960750  0.570005  1
  Ca  Ca6  1  0.318688  0.539250  0.070005  1
  Ca  Ca7  1  0.818688  0.460750  0.429995  1
  Ca  Ca8  1  0.664765  0.750000  0.210947  1
  Ca  Ca9  1  0.164765  0.250000  0.289053  1
  Ca  Ca10  1  0.335235  0.250000  0.789053  1
  Ca  Ca11  1  0.835235  0.750000  0.710947  1
  Ca  Ca12  1  0.131951  0.750000  0.300341  1
  Ca  Ca13  1  0.631951  0.250000  0.199659  1
  Ca  Ca14  1  0.868049  0.250000  0.699659  1
  Ca  Ca15  1  0.368049  0.750000  0.800341  1
  Ca  Ca16  1  0.547921  0.750000  0.502001  1
  Ca  Ca17  1  0.047921  0.250000  0.997999  1
  Ca  Ca18  1  0.452079  0.250000  0.497999  1
  Ca  Ca19  1  0.952079  0.750000  0.002001  1
  Bi  Bi20  1  0.933222  0.011803  0.172227  1
  Bi  Bi21  1  0.433222  0.988197  0.327773  1
  Bi  Bi22  1  0.066778  0.511803  0.827773  1
  Bi  Bi23  1  0.566778  0.488197  0.672227  1
  Bi  Bi24  1  0.066778  0.988197  0.827773  1
  Bi  Bi25  1  0.566778  0.011803  0.672227  1
  Bi  Bi26  1  0.933222  0.488197  0.172227  1
  Bi  Bi27  1  0.433222  0.511803  0.327773  1
  P  P28  1  0.575745  0.750000  0.986741  1
  P  P29  1  0.075745  0.250000  0.513259  1
  P  P30  1  0.424255  0.250000  0.013259  1
  P  P31  1  0.924255  0.750000  0.486741  1
