# generated using pymatgen
data_Zr6Zn6Pd5Pt
_symmetry_space_group_name_H-M   'P 1'
_cell_length_a   7.26623200
_cell_length_b   7.26623280
_cell_length_c   6.96527700
_cell_angle_alpha   90.00000000
_cell_angle_beta   90.00000000
_cell_angle_gamma   119.99998726
_symmetry_Int_Tables_number   1
_chemical_formula_structural   Zr6Zn6Pd5Pt
_chemical_formula_sum   'Zr6 Zn6 Pd5 Pt1'
_cell_volume   318.48402101
_cell_formula_units_Z   1
loop_
 _symmetry_equiv_pos_site_id
 _symmetry_equiv_pos_as_xyz
  1  'x, y, z'
loop_
 _atom_site_type_symbol
 _atom_site_label
 _atom_site_symmetry_multiplicity
 _atom_site_fract_x
 _atom_site_fract_y
 _atom_site_fract_z
 _atom_site_occupancy
  Zr  Zr0  1  0.389770  0.412397  0.751110  1
  Zr  Zr1  1  0.022627  0.610230  0.751110  1
  Zr  Zr2  1  0.587603  0.977373  0.751110  1
  Zr  Zr3  1  0.607863  0.017998  0.248998  1
  Zr  Zr4  1  0.982002  0.589865  0.248998  1
  Zr  Zr5  1  0.410135  0.392137  0.248998  1
  Zn  Zn6  1  0.268994  0.002840  0.000571  1
  Zn  Zn7  1  0.733847  0.731006  0.000571  1
  Zn  Zn8  1  0.997160  0.266153  0.000571  1
  Zn  Zn9  1  0.731025  0.730482  0.500661  1
  Zn  Zn10  1  0.269518  0.000543  0.500661  1
  Zn  Zn11  1  0.999457  0.268975  0.500661  1
  Pd  Pd12  1  0.666667  0.333333  0.973983  1
  Pd  Pd13  1  0.000000  0.000000  0.749851  1
  Pd  Pd14  1  0.666667  0.333333  0.525671  1
  Pd  Pd15  1  0.333333  0.666667  0.472111  1
  Pd  Pd16  1  0.000000  0.000000  0.251573  1
  Pt  Pt17  1  0.333333  0.666667  0.022794  1
