# generated using pymatgen
data_Ce2Tm14MgCo4Hg3
_symmetry_space_group_name_H-M   'P 1'
_cell_length_a   9.36660378
_cell_length_b   9.36239413
_cell_length_c   9.33961600
_cell_angle_alpha   60.08044131
_cell_angle_beta   60.09525915
_cell_angle_gamma   60.69905860
_symmetry_Int_Tables_number   1
_chemical_formula_structural   Ce2Tm14MgCo4Hg3
_chemical_formula_sum   'Ce2 Tm14 Mg1 Co4 Hg3'
_cell_volume   582.91691871
_cell_formula_units_Z   1
loop_
 _symmetry_equiv_pos_site_id
 _symmetry_equiv_pos_as_xyz
  1  'x, y, z'
loop_
 _atom_site_type_symbol
 _atom_site_label
 _atom_site_symmetry_multiplicity
 _atom_site_fract_x
 _atom_site_fract_y
 _atom_site_fract_z
 _atom_site_occupancy
  Ce  Ce0  1  0.348026  0.978978  0.336498  1
  Ce  Ce1  1  0.967756  0.351351  0.340446  1
  Tm  Tm2  1  0.808313  0.186992  0.190724  1
  Tm  Tm3  1  0.183040  0.812285  0.816068  1
  Tm  Tm4  1  0.183040  0.812285  0.188608  1
  Tm  Tm5  1  0.808313  0.186992  0.813971  1
  Tm  Tm6  1  0.183717  0.186288  0.814998  1
  Tm  Tm7  1  0.808907  0.809813  0.190640  1
  Tm  Tm8  1  0.936850  0.562813  0.563179  1
  Tm  Tm9  1  0.563109  0.936469  0.937277  1
  Tm  Tm10  1  0.563109  0.936469  0.563144  1
  Tm  Tm11  1  0.936850  0.562813  0.937157  1
  Tm  Tm12  1  0.561855  0.564591  0.936777  1
  Tm  Tm13  1  0.937724  0.939620  0.561327  1
  Tm  Tm14  1  0.350404  0.348272  0.347715  1
  Tm  Tm15  1  0.350404  0.348272  0.953608  1
  Mg  Mg16  1  0.285148  0.575332  0.569760  1
  Co  Co17  1  0.137156  0.140200  0.153606  1
  Co  Co18  1  0.137156  0.140200  0.569039  1
  Co  Co19  1  0.132359  0.569346  0.149147  1
  Co  Co20  1  0.566697  0.131165  0.151069  1
  Hg  Hg21  1  0.584245  0.586798  0.586176  1
  Hg  Hg22  1  0.584245  0.586798  0.242780  1
  Hg  Hg23  1  0.581576  0.245859  0.586283  1
