# generated using pymatgen
data_ErScB6Mo
_symmetry_space_group_name_H-M   'P 1'
_cell_length_a   3.50072400
_cell_length_b   9.14115900
_cell_length_c   11.51297800
_cell_angle_alpha   90.00000000
_cell_angle_beta   90.00000000
_cell_angle_gamma   90.00000000
_symmetry_Int_Tables_number   1
_chemical_formula_structural   ErScB6Mo
_chemical_formula_sum   'Er4 Sc4 B24 Mo4'
_cell_volume   368.42306380
_cell_formula_units_Z   4
loop_
 _symmetry_equiv_pos_site_id
 _symmetry_equiv_pos_as_xyz
  1  'x, y, z'
loop_
 _atom_site_type_symbol
 _atom_site_label
 _atom_site_symmetry_multiplicity
 _atom_site_fract_x
 _atom_site_fract_y
 _atom_site_fract_z
 _atom_site_occupancy
  Er  Er0  1  0.500000  0.320668  0.414016  1
  Er  Er1  1  0.500000  0.679332  0.585984  1
  Er  Er2  1  0.500000  0.179332  0.914016  1
  Er  Er3  1  0.500000  0.820668  0.085984  1
  Sc  Sc4  1  0.500000  0.445064  0.128036  1
  Sc  Sc5  1  0.500000  0.554936  0.871964  1
  Sc  Sc6  1  0.500000  0.054936  0.628036  1
  Sc  Sc7  1  0.500000  0.945064  0.371964  1
  B  B8  1  0.000000  0.095861  0.473615  1
  B  B9  1  0.000000  0.904139  0.526385  1
  B  B10  1  0.000000  0.404139  0.973615  1
  B  B11  1  0.000000  0.595861  0.026385  1
  B  B12  1  0.000000  0.129797  0.319667  1
  B  B13  1  0.000000  0.870203  0.680333  1
  B  B14  1  0.000000  0.370203  0.819667  1
  B  B15  1  0.000000  0.629797  0.180333  1
  B  B16  1  0.000000  0.052252  0.065430  1
  B  B17  1  0.000000  0.947748  0.934570  1
  B  B18  1  0.000000  0.447748  0.565430  1
  B  B19  1  0.000000  0.552252  0.434570  1
  B  B20  1  0.000000  0.478771  0.285465  1
  B  B21  1  0.000000  0.521229  0.714535  1
  B  B22  1  0.000000  0.021229  0.785465  1
  B  B23  1  0.000000  0.978771  0.214535  1
  B  B24  1  0.000000  0.256510  0.078661  1
  B  B25  1  0.000000  0.743490  0.921339  1
  B  B26  1  0.000000  0.243490  0.578661  1
  B  B27  1  0.000000  0.756510  0.421339  1
  B  B28  1  0.000000  0.297993  0.236131  1
  B  B29  1  0.000000  0.702007  0.763869  1
  B  B30  1  0.000000  0.202007  0.736131  1
  B  B31  1  0.000000  0.797993  0.263869  1
  Mo  Mo32  1  0.500000  0.141630  0.181294  1
  Mo  Mo33  1  0.500000  0.858370  0.818706  1
  Mo  Mo34  1  0.500000  0.358370  0.681294  1
  Mo  Mo35  1  0.500000  0.641630  0.318706  1
