# generated using pymatgen
data_PrDy4(RhO6)2
_symmetry_space_group_name_H-M   'P 1'
_cell_length_a   6.92731360
_cell_length_b   6.92731293
_cell_length_c   7.37229175
_cell_angle_alpha   74.61585457
_cell_angle_beta   74.61585762
_cell_angle_gamma   50.79962213
_symmetry_Int_Tables_number   1
_chemical_formula_structural   PrDy4(RhO6)2
_chemical_formula_sum   'Pr1 Dy4 Rh2 O12'
_cell_volume   262.06861629
_cell_formula_units_Z   1
loop_
 _symmetry_equiv_pos_site_id
 _symmetry_equiv_pos_as_xyz
  1  'x, y, z'
loop_
 _atom_site_type_symbol
 _atom_site_label
 _atom_site_symmetry_multiplicity
 _atom_site_fract_x
 _atom_site_fract_y
 _atom_site_fract_z
 _atom_site_occupancy
  Pr  Pr0  1  0.000000  0.000000  0.500000  1
  Dy  Dy1  1  0.303345  0.303345  0.359267  1
  Dy  Dy2  1  0.696655  0.696655  0.640733  1
  Dy  Dy3  1  0.305997  0.305997  0.832827  1
  Dy  Dy4  1  0.694003  0.694003  0.167173  1
  Rh  Rh5  1  0.751127  0.248873  0.000000  1
  Rh  Rh6  1  0.248873  0.751127  0.000000  1
  O  O7  1  0.899309  0.430720  0.917803  1
  O  O8  1  0.430720  0.899309  0.917803  1
  O  O9  1  0.100691  0.569280  0.082197  1
  O  O10  1  0.569280  0.100691  0.082197  1
  O  O11  1  0.095704  0.586751  0.579348  1
  O  O12  1  0.586751  0.095704  0.579348  1
  O  O13  1  0.904296  0.413249  0.420652  1
  O  O14  1  0.413249  0.904296  0.420652  1
  O  O15  1  0.000110  0.000110  0.824092  1
  O  O16  1  0.999890  0.999890  0.175908  1
  O  O17  1  0.499538  0.499538  0.809862  1
  O  O18  1  0.500462  0.500462  0.190138  1
