# generated using pymatgen
data_Dy2Al9CoNi2
_symmetry_space_group_name_H-M   'P 1'
_cell_length_a   7.41585100
_cell_length_b   7.41585058
_cell_length_c   9.28955800
_cell_angle_alpha   90.00000000
_cell_angle_beta   90.00000000
_cell_angle_gamma   119.26560302
_symmetry_Int_Tables_number   1
_chemical_formula_structural   Dy2Al9CoNi2
_chemical_formula_sum   'Dy4 Al18 Co2 Ni4'
_cell_volume   445.67083014
_cell_formula_units_Z   2
loop_
 _symmetry_equiv_pos_site_id
 _symmetry_equiv_pos_as_xyz
  1  'x, y, z'
loop_
 _atom_site_type_symbol
 _atom_site_label
 _atom_site_symmetry_multiplicity
 _atom_site_fract_x
 _atom_site_fract_y
 _atom_site_fract_z
 _atom_site_occupancy
  Dy  Dy0  1  0.992371  0.669584  0.250000  1
  Dy  Dy1  1  0.007629  0.330416  0.750000  1
  Dy  Dy2  1  0.669584  0.992371  0.250000  1
  Dy  Dy3  1  0.330416  0.007629  0.750000  1
  Al  Al4  1  0.123689  0.123689  0.250000  1
  Al  Al5  1  0.876311  0.876311  0.750000  1
  Al  Al6  1  0.329772  0.329772  0.545610  1
  Al  Al7  1  0.670228  0.670228  0.045610  1
  Al  Al8  1  0.329772  0.329772  0.954390  1
  Al  Al9  1  0.670228  0.670228  0.454390  1
  Al  Al10  1  0.340498  0.552816  0.250000  1
  Al  Al11  1  0.659502  0.447184  0.750000  1
  Al  Al12  1  0.552816  0.340498  0.250000  1
  Al  Al13  1  0.447184  0.659502  0.750000  1
  Al  Al14  1  0.997044  0.331854  0.072209  1
  Al  Al15  1  0.002956  0.668146  0.572209  1
  Al  Al16  1  0.331854  0.997044  0.427791  1
  Al  Al17  1  0.668146  0.002956  0.927791  1
  Al  Al18  1  0.002956  0.668146  0.927791  1
  Al  Al19  1  0.997044  0.331854  0.427791  1
  Al  Al20  1  0.668146  0.002956  0.572209  1
  Al  Al21  1  0.331854  0.997044  0.072209  1
  Co  Co22  1  0.000000  0.000000  0.000000  1
  Co  Co23  1  0.000000  0.000000  0.500000  1
  Ni  Ni24  1  0.671307  0.328693  0.000000  1
  Ni  Ni25  1  0.328693  0.671307  0.500000  1
  Ni  Ni26  1  0.328693  0.671307  0.000000  1
  Ni  Ni27  1  0.671307  0.328693  0.500000  1
