# generated using pymatgen
data_ErHf7Ti5Nb7Si16
_symmetry_space_group_name_H-M   'P 1'
_cell_length_a   6.85994147
_cell_length_b   6.86615309
_cell_length_c   12.64401565
_cell_angle_alpha   89.98406844
_cell_angle_beta   89.96584085
_cell_angle_gamma   89.96313790
_symmetry_Int_Tables_number   1
_chemical_formula_structural   ErHf7Ti5Nb7Si16
_chemical_formula_sum   'Er1 Hf7 Ti5 Nb7 Si16'
_cell_volume   595.55069230
_cell_formula_units_Z   1
loop_
 _symmetry_equiv_pos_site_id
 _symmetry_equiv_pos_as_xyz
  1  'x, y, z'
loop_
 _atom_site_type_symbol
 _atom_site_label
 _atom_site_symmetry_multiplicity
 _atom_site_fract_x
 _atom_site_fract_y
 _atom_site_fract_z
 _atom_site_occupancy
  Er  Er0  1  0.997318  0.660678  0.031022  1
  Hf  Hf1  1  0.342609  0.999205  0.469991  1
  Hf  Hf2  1  0.500671  0.843787  0.718071  1
  Hf  Hf3  1  0.497394  0.157261  0.221309  1
  Hf  Hf4  1  0.842355  0.502367  0.282150  1
  Hf  Hf5  1  0.160142  0.498460  0.780501  1
  Hf  Hf6  1  0.653933  0.002191  0.968233  1
  Hf  Hf7  1  0.998898  0.342255  0.530535  1
  Ti  Ti8  1  0.651906  0.492936  0.875401  1
  Ti  Ti9  1  0.348364  0.503587  0.378160  1
  Ti  Ti10  1  0.848086  0.996624  0.374280  1
  Ti  Ti11  1  0.005428  0.151748  0.128702  1
  Ti  Ti12  1  0.995342  0.848376  0.625990  1
  Nb  Nb13  1  0.331597  0.328459  0.999775  1
  Nb  Nb14  1  0.170284  0.831278  0.251358  1
  Nb  Nb15  1  0.829640  0.170026  0.748057  1
  Nb  Nb16  1  0.671087  0.670129  0.499525  1
  Nb  Nb17  1  0.154645  0.003022  0.871310  1
  Nb  Nb18  1  0.496691  0.650996  0.124605  1
  Nb  Nb19  1  0.503343  0.348025  0.622467  1
  Si  Si20  1  0.205930  0.133516  0.674646  1
  Si  Si21  1  0.369803  0.705926  0.924655  1
  Si  Si22  1  0.635124  0.291194  0.424202  1
  Si  Si23  1  0.706355  0.357323  0.073047  1
  Si  Si24  1  0.290866  0.638746  0.573018  1
  Si  Si25  1  0.791307  0.870955  0.180784  1
  Si  Si26  1  0.135615  0.206782  0.325025  1
  Si  Si27  1  0.859880  0.793479  0.819729  1
  Si  Si28  1  0.298055  0.957948  0.064700  1
  Si  Si29  1  0.544572  0.798207  0.315652  1
  Si  Si30  1  0.456178  0.203940  0.812832  1
  Si  Si31  1  0.799511  0.547216  0.686111  1
  Si  Si32  1  0.202257  0.451521  0.189468  1
  Si  Si33  1  0.705637  0.043560  0.561557  1
  Si  Si34  1  0.952837  0.293986  0.936468  1
  Si  Si35  1  0.046343  0.704291  0.436662  1
