# generated using pymatgen
data_Dy5Tc3P12Ir13Rh3
_symmetry_space_group_name_H-M   'P 1'
_cell_length_a   12.65235200
_cell_length_b   12.65235265
_cell_length_c   3.96783600
_cell_angle_alpha   90.00000000
_cell_angle_beta   90.00000000
_cell_angle_gamma   119.99999830
_symmetry_Int_Tables_number   1
_chemical_formula_structural   Dy5Tc3P12Ir13Rh3
_chemical_formula_sum   'Dy5 Tc3 P12 Ir13 Rh3'
_cell_volume   550.08133201
_cell_formula_units_Z   1
loop_
 _symmetry_equiv_pos_site_id
 _symmetry_equiv_pos_as_xyz
  1  'x, y, z'
loop_
 _atom_site_type_symbol
 _atom_site_label
 _atom_site_symmetry_multiplicity
 _atom_site_fract_x
 _atom_site_fract_y
 _atom_site_fract_z
 _atom_site_occupancy
  Dy  Dy0  1  0.333333  0.666667  0.500000  1
  Dy  Dy1  1  0.666667  0.333333  0.500000  1
  Dy  Dy2  1  0.999750  0.816502  0.000000  1
  Dy  Dy3  1  0.183498  0.183248  0.000000  1
  Dy  Dy4  1  0.816752  0.000250  0.000000  1
  Tc  Tc5  1  0.999839  0.454818  0.500000  1
  Tc  Tc6  1  0.545182  0.545021  0.500000  1
  Tc  Tc7  1  0.454979  0.000161  0.500000  1
  P  P8  1  0.000577  0.638437  0.500000  1
  P  P9  1  0.361563  0.362140  0.500000  1
  P  P10  1  0.637860  0.999423  0.500000  1
  P  P11  1  0.515979  0.684821  0.000000  1
  P  P12  1  0.315179  0.831159  0.000000  1
  P  P13  1  0.168841  0.484021  0.000000  1
  P  P14  1  0.484205  0.169041  0.000000  1
  P  P15  1  0.684836  0.515795  0.000000  1
  P  P16  1  0.830959  0.315164  0.000000  1
  P  P17  1  0.000019  0.177057  0.500000  1
  P  P18  1  0.822943  0.822962  0.500000  1
  P  P19  1  0.177038  0.999981  0.500000  1
  Ir  Ir20  1  0.511370  0.869439  0.000000  1
  Ir  Ir21  1  0.130561  0.641933  0.000000  1
  Ir  Ir22  1  0.358067  0.488630  0.000000  1
  Ir  Ir23  1  0.490042  0.358411  0.000000  1
  Ir  Ir24  1  0.868370  0.509958  0.000000  1
  Ir  Ir25  1  0.641589  0.131630  0.000000  1
  Ir  Ir26  1  0.999416  0.289122  0.000000  1
  Ir  Ir27  1  0.710878  0.710295  0.000000  1
  Ir  Ir28  1  0.289705  0.000584  0.000000  1
  Ir  Ir29  1  0.374133  0.179421  0.500000  1
  Ir  Ir30  1  0.805288  0.625867  0.500000  1
  Ir  Ir31  1  0.820579  0.194712  0.500000  1
  Ir  Ir32  1  0.000000  0.000000  0.500000  1
  Rh  Rh33  1  0.626310  0.805559  0.500000  1
  Rh  Rh34  1  0.194441  0.820751  0.500000  1
  Rh  Rh35  1  0.179249  0.373690  0.500000  1
