# generated using pymatgen
data_ErTh2(SnIr)3
_symmetry_space_group_name_H-M   'P 1'
_cell_length_a   7.55973808
_cell_length_b   7.54455586
_cell_length_c   4.08062700
_cell_angle_alpha   90.00000000
_cell_angle_beta   90.00000000
_cell_angle_gamma   119.93359277
_symmetry_Int_Tables_number   1
_chemical_formula_structural   ErTh2(SnIr)3
_chemical_formula_sum   'Er1 Th2 Sn3 Ir3'
_cell_volume   201.69177271
_cell_formula_units_Z   1
loop_
 _symmetry_equiv_pos_site_id
 _symmetry_equiv_pos_as_xyz
  1  'x, y, z'
loop_
 _atom_site_type_symbol
 _atom_site_label
 _atom_site_symmetry_multiplicity
 _atom_site_fract_x
 _atom_site_fract_y
 _atom_site_fract_z
 _atom_site_occupancy
  Er  Er0  1  0.000000  0.595501  0.500000  1
  Th  Th1  1  0.410614  0.411288  0.500000  1
  Th  Th2  1  0.589386  0.000674  0.500000  1
  Sn  Sn3  1  0.754048  0.744769  0.000000  1
  Sn  Sn4  1  0.245952  0.990721  0.000000  1
  Sn  Sn5  1  0.000000  0.260834  0.000000  1
  Ir  Ir6  1  0.660094  0.327226  0.000000  1
  Ir  Ir7  1  0.339906  0.667133  0.000000  1
  Ir  Ir8  1  0.000000  0.001853  0.500000  1
