# generated using pymatgen
data_BaGd2(AgPb)3
_symmetry_space_group_name_H-M   'P 1'
_cell_length_a   5.12141500
_cell_length_b   5.12141382
_cell_length_c   12.36248100
_cell_angle_alpha   90.00000000
_cell_angle_beta   90.00000000
_cell_angle_gamma   119.99998823
_symmetry_Int_Tables_number   1
_chemical_formula_structural   BaGd2(AgPb)3
_chemical_formula_sum   'Ba1 Gd2 Ag3 Pb3'
_cell_volume   280.81232081
_cell_formula_units_Z   1
loop_
 _symmetry_equiv_pos_site_id
 _symmetry_equiv_pos_as_xyz
  1  'x, y, z'
loop_
 _atom_site_type_symbol
 _atom_site_label
 _atom_site_symmetry_multiplicity
 _atom_site_fract_x
 _atom_site_fract_y
 _atom_site_fract_z
 _atom_site_occupancy
  Ba  Ba0  1  0.666667  0.333333  0.833615  1
  Gd  Gd1  1  0.666667  0.333333  0.485270  1
  Gd  Gd2  1  0.666667  0.333333  0.178752  1
  Ag  Ag3  1  0.333333  0.666667  0.043671  1
  Ag  Ag4  1  0.000000  0.000000  0.613607  1
  Ag  Ag5  1  0.000000  0.000000  0.305701  1
  Pb  Pb6  1  0.333333  0.666667  0.626787  1
  Pb  Pb7  1  0.333333  0.666667  0.346662  1
  Pb  Pb8  1  0.000000  0.000000  0.043838  1
