# generated using pymatgen
data_Tb3Bi3(WO7)2
_symmetry_space_group_name_H-M   'P 1'
_cell_length_a   6.44479157
_cell_length_b   6.72691834
_cell_length_c   7.64235200
_cell_angle_alpha   106.70392383
_cell_angle_beta   89.87816798
_cell_angle_gamma   98.21020579
_symmetry_Int_Tables_number   1
_chemical_formula_structural   Tb3Bi3(WO7)2
_chemical_formula_sum   'Tb3 Bi3 W2 O14'
_cell_volume   313.82513866
_cell_formula_units_Z   1
loop_
 _symmetry_equiv_pos_site_id
 _symmetry_equiv_pos_as_xyz
  1  'x, y, z'
loop_
 _atom_site_type_symbol
 _atom_site_label
 _atom_site_symmetry_multiplicity
 _atom_site_fract_x
 _atom_site_fract_y
 _atom_site_fract_z
 _atom_site_occupancy
  Tb  Tb0  1  0.547382  0.992075  0.749220  1
  Tb  Tb1  1  0.457320  0.006888  0.254570  1
  Tb  Tb2  1  0.252868  0.535023  0.884878  1
  Bi  Bi3  1  0.746557  0.480507  0.113828  1
  Bi  Bi4  1  0.725180  0.458175  0.615661  1
  Bi  Bi5  1  0.264836  0.538173  0.385381  1
  W  W6  1  0.003751  0.007130  0.502064  1
  W  W7  1  0.004671  0.001937  0.999996  1
  O  O8  1  0.444642  0.651525  0.165339  1
  O  O9  1  0.543886  0.344639  0.827359  1
  O  O10  1  0.289456  0.923878  0.949055  1
  O  O11  1  0.713231  0.047495  0.049555  1
  O  O12  1  0.293998  0.916092  0.509371  1
  O  O13  1  0.707459  0.087598  0.493304  1
  O  O14  1  0.530211  0.358954  0.346913  1
  O  O15  1  0.454809  0.639881  0.660940  1
  O  O16  1  0.932751  0.677675  0.953576  1
  O  O17  1  0.083140  0.311574  0.036335  1
  O  O18  1  0.095628  0.301980  0.624338  1
  O  O19  1  0.901065  0.712499  0.377552  1
  O  O20  1  0.901215  0.943245  0.736057  1
  O  O21  1  0.105942  0.063058  0.264708  1
