# generated using pymatgen
data_Dy3Cd(PtPb)2
_symmetry_space_group_name_H-M   'P 1'
_cell_length_a   7.92896759
_cell_length_b   7.92896774
_cell_length_c   3.63597600
_cell_angle_alpha   90.00000000
_cell_angle_beta   90.00000000
_cell_angle_gamma   121.42560990
_symmetry_Int_Tables_number   1
_chemical_formula_structural   Dy3Cd(PtPb)2
_chemical_formula_sum   'Dy3 Cd1 Pt2 Pb2'
_cell_volume   195.05860900
_cell_formula_units_Z   1
loop_
 _symmetry_equiv_pos_site_id
 _symmetry_equiv_pos_as_xyz
  1  'x, y, z'
loop_
 _atom_site_type_symbol
 _atom_site_label
 _atom_site_symmetry_multiplicity
 _atom_site_fract_x
 _atom_site_fract_y
 _atom_site_fract_z
 _atom_site_occupancy
  Dy  Dy0  1  0.578805  0.999193  0.500000  1
  Dy  Dy1  1  0.427641  0.427640  0.500000  1
  Dy  Dy2  1  0.999193  0.578806  0.500000  1
  Cd  Cd3  1  0.763786  0.763785  0.000000  1
  Pt  Pt4  1  0.666175  0.339680  0.000000  1
  Pt  Pt5  1  0.339680  0.666176  0.000000  1
  Pb  Pb6  1  0.230252  0.994468  0.000000  1
  Pb  Pb7  1  0.994468  0.230252  0.000000  1
