# generated using pymatgen
data_Tm6NbSi12Ni17
_symmetry_space_group_name_H-M   'P 1'
_cell_length_a   3.80606700
_cell_length_b   10.63500100
_cell_length_c   12.55685200
_cell_angle_alpha   90.00000000
_cell_angle_beta   90.00000000
_cell_angle_gamma   90.00000000
_symmetry_Int_Tables_number   1
_chemical_formula_structural   Tm6NbSi12Ni17
_chemical_formula_sum   'Tm6 Nb1 Si12 Ni17'
_cell_volume   508.27030772
_cell_formula_units_Z   1
loop_
 _symmetry_equiv_pos_site_id
 _symmetry_equiv_pos_as_xyz
  1  'x, y, z'
loop_
 _atom_site_type_symbol
 _atom_site_label
 _atom_site_symmetry_multiplicity
 _atom_site_fract_x
 _atom_site_fract_y
 _atom_site_fract_z
 _atom_site_occupancy
  Tm  Tm0  1  0.000000  0.500000  0.524271  1
  Tm  Tm1  1  0.500000  0.000000  0.479021  1
  Tm  Tm2  1  0.500000  0.816078  0.210899  1
  Tm  Tm3  1  0.500000  0.183922  0.210899  1
  Tm  Tm4  1  0.000000  0.686811  0.797226  1
  Tm  Tm5  1  0.000000  0.313189  0.797226  1
  Nb  Nb6  1  0.500000  0.500000  0.146968  1
  Si  Si7  1  0.500000  0.500000  0.881180  1
  Si  Si8  1  0.000000  0.000000  0.127017  1
  Si  Si9  1  0.500000  0.500000  0.350233  1
  Si  Si10  1  0.000000  0.000000  0.656276  1
  Si  Si11  1  0.500000  0.309916  0.617139  1
  Si  Si12  1  0.500000  0.690084  0.617139  1
  Si  Si13  1  0.000000  0.191445  0.388257  1
  Si  Si14  1  0.000000  0.808555  0.388257  1
  Si  Si15  1  0.500000  0.862988  0.887438  1
  Si  Si16  1  0.500000  0.137012  0.887438  1
  Si  Si17  1  0.000000  0.662635  0.100310  1
  Si  Si18  1  0.000000  0.337365  0.100310  1
  Ni  Ni19  1  0.000000  0.000000  0.840692  1
  Ni  Ni20  1  0.500000  0.500000  0.701830  1
  Ni  Ni21  1  0.000000  0.000000  0.304639  1
  Ni  Ni22  1  0.000000  0.500000  0.979621  1
  Ni  Ni23  1  0.500000  0.000000  0.027565  1
  Ni  Ni24  1  0.500000  0.321952  0.988088  1
  Ni  Ni25  1  0.500000  0.678048  0.988088  1
  Ni  Ni26  1  0.000000  0.157100  0.001433  1
  Ni  Ni27  1  0.000000  0.842900  0.001433  1
  Ni  Ni28  1  0.500000  0.301143  0.432248  1
  Ni  Ni29  1  0.500000  0.698857  0.432248  1
  Ni  Ni30  1  0.000000  0.200088  0.570830  1
  Ni  Ni31  1  0.000000  0.799912  0.570830  1
  Ni  Ni32  1  0.500000  0.881028  0.705449  1
  Ni  Ni33  1  0.500000  0.118972  0.705449  1
  Ni  Ni34  1  0.000000  0.620863  0.291025  1
  Ni  Ni35  1  0.000000  0.379137  0.291025  1
