# generated using pymatgen
data_La5ZnTcO12
_symmetry_space_group_name_H-M   'P 1'
_cell_length_a   7.13293348
_cell_length_b   7.13293504
_cell_length_c   7.74286300
_cell_angle_alpha   74.38350834
_cell_angle_beta   74.38350485
_cell_angle_gamma   51.75887683
_symmetry_Int_Tables_number   1
_chemical_formula_structural   La5ZnTcO12
_chemical_formula_sum   'La5 Zn1 Tc1 O12'
_cell_volume   295.23692251
_cell_formula_units_Z   1
loop_
 _symmetry_equiv_pos_site_id
 _symmetry_equiv_pos_as_xyz
  1  'x, y, z'
loop_
 _atom_site_type_symbol
 _atom_site_label
 _atom_site_symmetry_multiplicity
 _atom_site_fract_x
 _atom_site_fract_y
 _atom_site_fract_z
 _atom_site_occupancy
  La  La0  1  0.322432  0.294636  0.355324  1
  La  La1  1  0.705364  0.677568  0.644676  1
  La  La2  1  0.693178  0.691020  0.165015  1
  La  La3  1  0.308980  0.306822  0.834985  1
  La  La4  1  0.013437  0.986563  0.500000  1
  Zn  Zn5  1  0.742966  0.257034  0.000000  1
  Tc  Tc6  1  0.229042  0.770958  0.000000  1
  O  O7  1  0.101952  0.590361  0.575891  1
  O  O8  1  0.022531  0.975338  0.173272  1
  O  O9  1  0.409639  0.898048  0.424109  1
  O  O10  1  0.460179  0.542702  0.174915  1
  O  O11  1  0.103700  0.585997  0.078536  1
  O  O12  1  0.915340  0.393575  0.419886  1
  O  O13  1  0.024662  0.977469  0.826728  1
  O  O14  1  0.606425  0.084659  0.580114  1
  O  O15  1  0.457298  0.539821  0.825085  1
  O  O16  1  0.573191  0.104321  0.077984  1
  O  O17  1  0.414003  0.896300  0.921464  1
  O  O18  1  0.895679  0.426809  0.922016  1
