# generated using pymatgen
data_V12Fe3Pt
_symmetry_space_group_name_H-M   'P 1'
_cell_length_a   4.67014000
_cell_length_b   4.67181400
_cell_length_c   9.35189700
_cell_angle_alpha   90.00000000
_cell_angle_beta   90.00000000
_cell_angle_gamma   90.00000000
_symmetry_Int_Tables_number   1
_chemical_formula_structural   V12Fe3Pt
_chemical_formula_sum   'V12 Fe3 Pt1'
_cell_volume   204.03992660
_cell_formula_units_Z   1
loop_
 _symmetry_equiv_pos_site_id
 _symmetry_equiv_pos_as_xyz
  1  'x, y, z'
loop_
 _atom_site_type_symbol
 _atom_site_label
 _atom_site_symmetry_multiplicity
 _atom_site_fract_x
 _atom_site_fract_y
 _atom_site_fract_z
 _atom_site_occupancy
  V  V0  1  0.000000  0.500000  0.129578  1
  V  V1  1  0.000000  0.500000  0.623886  1
  V  V2  1  0.500000  0.247722  0.742902  1
  V  V3  1  0.500000  0.247722  0.257098  1
  V  V4  1  0.757287  0.000000  0.000000  1
  V  V5  1  0.750606  0.000000  0.500000  1
  V  V6  1  0.000000  0.500000  0.870422  1
  V  V7  1  0.000000  0.500000  0.376114  1
  V  V8  1  0.500000  0.752278  0.742902  1
  V  V9  1  0.500000  0.752278  0.257098  1
  V  V10  1  0.242713  0.000000  0.000000  1
  V  V11  1  0.249394  0.000000  0.500000  1
  Fe  Fe12  1  0.500000  0.500000  0.500000  1
  Fe  Fe13  1  0.000000  0.000000  0.750041  1
  Fe  Fe14  1  0.000000  0.000000  0.249959  1
  Pt  Pt15  1  0.500000  0.500000  0.000000  1
