# generated using pymatgen
data_Tm15Sc5(Bi3As)3
_symmetry_space_group_name_H-M   'P 1'
_cell_length_a   7.84905693
_cell_length_b   9.13171584
_cell_length_c   11.66851488
_cell_angle_alpha   89.96298959
_cell_angle_beta   89.97188239
_cell_angle_gamma   89.93171346
_symmetry_Int_Tables_number   1
_chemical_formula_structural   Tm15Sc5(Bi3As)3
_chemical_formula_sum   'Tm15 Sc5 Bi9 As3'
_cell_volume   836.34410652
_cell_formula_units_Z   1
loop_
 _symmetry_equiv_pos_site_id
 _symmetry_equiv_pos_as_xyz
  1  'x, y, z'
loop_
 _atom_site_type_symbol
 _atom_site_label
 _atom_site_symmetry_multiplicity
 _atom_site_fract_x
 _atom_site_fract_y
 _atom_site_fract_z
 _atom_site_occupancy
  Tm  Tm0  1  0.351778  0.248447  0.291705  1
  Tm  Tm1  1  0.648525  0.750042  0.706522  1
  Tm  Tm2  1  0.146583  0.749190  0.791271  1
  Tm  Tm3  1  0.850337  0.249629  0.217092  1
  Tm  Tm4  1  0.187975  0.249815  0.774753  1
  Tm  Tm5  1  0.830159  0.749800  0.212550  1
  Tm  Tm6  1  0.332736  0.750655  0.289197  1
  Tm  Tm7  1  0.666353  0.249079  0.710620  1
  Tm  Tm8  1  0.813282  0.929018  0.944338  1
  Tm  Tm9  1  0.314984  0.939493  0.556144  1
  Tm  Tm10  1  0.813391  0.571851  0.944736  1
  Tm  Tm11  1  0.683508  0.058547  0.443834  1
  Tm  Tm12  1  0.190463  0.449144  0.060350  1
  Tm  Tm13  1  0.683568  0.440782  0.444299  1
  Tm  Tm14  1  0.315296  0.560595  0.556529  1
  Sc  Sc15  1  0.030060  0.249755  0.509608  1
  Sc  Sc16  1  0.967340  0.749712  0.487356  1
  Sc  Sc17  1  0.464182  0.751216  0.014502  1
  Sc  Sc18  1  0.518281  0.247952  0.990069  1
  Sc  Sc19  1  0.191073  0.053111  0.059779  1
  Bi  Bi20  1  0.905913  0.248177  0.956668  1
  Bi  Bi21  1  0.066493  0.001214  0.327618  1
  Bi  Bi22  1  0.934799  0.997722  0.669678  1
  Bi  Bi23  1  0.433982  0.994423  0.830912  1
  Bi  Bi24  1  0.934355  0.501393  0.670087  1
  Bi  Bi25  1  0.563701  0.002903  0.170641  1
  Bi  Bi26  1  0.066385  0.498730  0.329596  1
  Bi  Bi27  1  0.566128  0.496807  0.171659  1
  Bi  Bi28  1  0.436195  0.504871  0.830340  1
  As  As29  1  0.400265  0.250101  0.537146  1
  As  As30  1  0.595935  0.749617  0.463416  1
  As  As31  1  0.095976  0.756208  0.036985  1
