# generated using pymatgen
data_Sr3(AcPb2)2
_symmetry_space_group_name_H-M   'P 1'
_cell_length_a   8.61489500
_cell_length_b   9.20407800
_cell_length_c   17.58897600
_cell_angle_alpha   90.00000000
_cell_angle_beta   90.00000000
_cell_angle_gamma   90.00000000
_symmetry_Int_Tables_number   1
_chemical_formula_structural   Sr3(AcPb2)2
_chemical_formula_sum   'Sr12 Ac8 Pb16'
_cell_volume   1394.66799670
_cell_formula_units_Z   4
loop_
 _symmetry_equiv_pos_site_id
 _symmetry_equiv_pos_as_xyz
  1  'x, y, z'
loop_
 _atom_site_type_symbol
 _atom_site_label
 _atom_site_symmetry_multiplicity
 _atom_site_fract_x
 _atom_site_fract_y
 _atom_site_fract_z
 _atom_site_occupancy
  Sr  Sr0  1  0.507488  0.689896  0.592966  1
  Sr  Sr1  1  0.007488  0.810104  0.907034  1
  Sr  Sr2  1  0.492512  0.310104  0.092966  1
  Sr  Sr3  1  0.992512  0.189896  0.407034  1
  Sr  Sr4  1  0.492512  0.310104  0.407034  1
  Sr  Sr5  1  0.992512  0.189896  0.092966  1
  Sr  Sr6  1  0.507488  0.689896  0.907034  1
  Sr  Sr7  1  0.007488  0.810104  0.592966  1
  Sr  Sr8  1  0.835161  0.518271  0.750000  1
  Sr  Sr9  1  0.335161  0.981729  0.750000  1
  Sr  Sr10  1  0.164839  0.481729  0.250000  1
  Sr  Sr11  1  0.664839  0.018271  0.250000  1
  Ac  Ac12  1  0.675323  0.164906  0.620964  1
  Ac  Ac13  1  0.175323  0.335094  0.879036  1
  Ac  Ac14  1  0.324677  0.835094  0.120964  1
  Ac  Ac15  1  0.824677  0.664906  0.379036  1
  Ac  Ac16  1  0.324677  0.835094  0.379036  1
  Ac  Ac17  1  0.824677  0.664906  0.120964  1
  Ac  Ac18  1  0.675323  0.164906  0.879036  1
  Ac  Ac19  1  0.175323  0.335094  0.620964  1
  Pb  Pb20  1  0.669039  0.966829  0.457571  1
  Pb  Pb21  1  0.169039  0.533171  0.042429  1
  Pb  Pb22  1  0.330961  0.033171  0.957571  1
  Pb  Pb23  1  0.830961  0.466829  0.542429  1
  Pb  Pb24  1  0.330961  0.033171  0.542429  1
  Pb  Pb25  1  0.830961  0.466829  0.957571  1
  Pb  Pb26  1  0.669039  0.966829  0.042429  1
  Pb  Pb27  1  0.169039  0.533171  0.457571  1
  Pb  Pb28  1  0.474680  0.382509  0.750000  1
  Pb  Pb29  1  0.974680  0.117491  0.750000  1
  Pb  Pb30  1  0.525320  0.617491  0.250000  1
  Pb  Pb31  1  0.025320  0.882509  0.250000  1
  Pb  Pb32  1  0.720218  0.872456  0.750000  1
  Pb  Pb33  1  0.220218  0.627544  0.750000  1
  Pb  Pb34  1  0.279782  0.127544  0.250000  1
  Pb  Pb35  1  0.779782  0.372456  0.250000  1
