# generated using pymatgen
data_Tm8Si12PtRh3
_symmetry_space_group_name_H-M   'P 1'
_cell_length_a   8.13350200
_cell_length_b   8.13350256
_cell_length_c   7.77696600
_cell_angle_alpha   90.00000000
_cell_angle_beta   90.00000000
_cell_angle_gamma   119.99999772
_symmetry_Int_Tables_number   1
_chemical_formula_structural   Tm8Si12PtRh3
_chemical_formula_sum   'Tm8 Si12 Pt1 Rh3'
_cell_volume   445.54956850
_cell_formula_units_Z   1
loop_
 _symmetry_equiv_pos_site_id
 _symmetry_equiv_pos_as_xyz
  1  'x, y, z'
loop_
 _atom_site_type_symbol
 _atom_site_label
 _atom_site_symmetry_multiplicity
 _atom_site_fract_x
 _atom_site_fract_y
 _atom_site_fract_z
 _atom_site_occupancy
  Tm  Tm0  1  0.977861  0.488931  0.252866  1
  Tm  Tm1  1  0.511069  0.488931  0.252866  1
  Tm  Tm2  1  0.491042  0.982082  0.747730  1
  Tm  Tm3  1  0.017918  0.508958  0.747730  1
  Tm  Tm4  1  0.491042  0.508958  0.747730  1
  Tm  Tm5  1  0.511069  0.022139  0.252866  1
  Tm  Tm6  1  0.000000  0.000000  0.748199  1
  Tm  Tm7  1  0.000000  0.000000  0.250814  1
  Si  Si8  1  0.166884  0.833116  0.499418  1
  Si  Si9  1  0.166884  0.333768  0.499418  1
  Si  Si10  1  0.666232  0.833116  0.499418  1
  Si  Si11  1  0.335860  0.167931  0.000415  1
  Si  Si12  1  0.833466  0.666933  0.500657  1
  Si  Si13  1  0.832069  0.167931  0.000415  1
  Si  Si14  1  0.832069  0.664140  0.000415  1
  Si  Si15  1  0.164204  0.328407  0.999720  1
  Si  Si16  1  0.671593  0.835796  0.999720  1
  Si  Si17  1  0.333067  0.166534  0.500657  1
  Si  Si18  1  0.833466  0.166534  0.500657  1
  Si  Si19  1  0.164204  0.835796  0.999720  1
  Pt  Pt20  1  0.333333  0.666667  0.035635  1
  Rh  Rh21  1  0.666667  0.333333  0.961249  1
  Rh  Rh22  1  0.666667  0.333333  0.538300  1
  Rh  Rh23  1  0.333333  0.666667  0.463388  1
