# generated using pymatgen
data_Dy6VB14W
_symmetry_space_group_name_H-M   'P 1'
_cell_length_a   8.16984726
_cell_length_b   8.16984681
_cell_length_c   9.47199100
_cell_angle_alpha   90.00000000
_cell_angle_beta   90.00000000
_cell_angle_gamma   155.60894773
_symmetry_Int_Tables_number   1
_chemical_formula_structural   Dy6VB14W
_chemical_formula_sum   'Dy6 V1 B14 W1'
_cell_volume   261.08350473
_cell_formula_units_Z   1
loop_
 _symmetry_equiv_pos_site_id
 _symmetry_equiv_pos_as_xyz
  1  'x, y, z'
loop_
 _atom_site_type_symbol
 _atom_site_label
 _atom_site_symmetry_multiplicity
 _atom_site_fract_x
 _atom_site_fract_y
 _atom_site_fract_z
 _atom_site_occupancy
  Dy  Dy0  1  0.893851  0.106149  0.437810  1
  Dy  Dy1  1  0.106716  0.893284  0.557781  1
  Dy  Dy2  1  0.893851  0.106149  0.062190  1
  Dy  Dy3  1  0.106716  0.893284  0.942219  1
  Dy  Dy4  1  0.241816  0.758184  0.250000  1
  Dy  Dy5  1  0.755159  0.244841  0.750000  1
  V  V6  1  0.052597  0.947403  0.250000  1
  B  B7  1  0.727219  0.272781  0.467162  1
  B  B8  1  0.272712  0.727288  0.531626  1
  B  B9  1  0.727219  0.272781  0.032838  1
  B  B10  1  0.272712  0.727288  0.968374  1
  B  B11  1  0.632561  0.367439  0.150136  1
  B  B12  1  0.365280  0.634720  0.853728  1
  B  B13  1  0.632561  0.367439  0.349864  1
  B  B14  1  0.365280  0.634720  0.646272  1
  B  B15  1  0.521324  0.478676  0.095273  1
  B  B16  1  0.480329  0.519671  0.908979  1
  B  B17  1  0.521324  0.478676  0.404727  1
  B  B18  1  0.480329  0.519671  0.591021  1
  B  B19  1  0.459394  0.540606  0.250000  1
  B  B20  1  0.544203  0.455797  0.750000  1
  W  W21  1  0.946848  0.053152  0.750000  1
