# generated using pymatgen
data_NdEr2Ga9Pd2
_symmetry_space_group_name_H-M   'P 1'
_cell_length_a   8.18955839
_cell_length_b   8.18955939
_cell_length_c   8.18955800
_cell_angle_alpha   149.37164707
_cell_angle_beta   109.14303613
_cell_angle_gamma   79.13954523
_symmetry_Int_Tables_number   1
_chemical_formula_structural   NdEr2Ga9Pd2
_chemical_formula_sum   'Nd1 Er2 Ga9 Pd2'
_cell_volume   259.29354328
_cell_formula_units_Z   1
loop_
 _symmetry_equiv_pos_site_id
 _symmetry_equiv_pos_as_xyz
  1  'x, y, z'
loop_
 _atom_site_type_symbol
 _atom_site_label
 _atom_site_symmetry_multiplicity
 _atom_site_fract_x
 _atom_site_fract_y
 _atom_site_fract_z
 _atom_site_occupancy
  Nd  Nd0  1  0.500000  0.500000  0.000000  1
  Er  Er1  1  0.197893  0.197893  0.000000  1
  Er  Er2  1  0.802107  0.802107  0.000000  1
  Ga  Ga3  1  0.643997  0.359983  0.284015  1
  Ga  Ga4  1  0.356003  0.640017  0.715985  1
  Ga  Ga5  1  0.075968  0.359983  0.715985  1
  Ga  Ga6  1  0.924032  0.640017  0.284015  1
  Ga  Ga7  1  0.523861  0.158297  0.365564  1
  Ga  Ga8  1  0.476139  0.841703  0.634436  1
  Ga  Ga9  1  0.792732  0.158297  0.634436  1
  Ga  Ga10  1  0.207268  0.841703  0.365564  1
  Ga  Ga11  1  0.000000  0.500000  0.500000  1
  Pd  Pd12  1  0.184640  0.000000  0.184640  1
  Pd  Pd13  1  0.815360  0.000000  0.815360  1
