# generated using pymatgen
data_Ho2CuPd5
_symmetry_space_group_name_H-M   'P 1'
_cell_length_a   5.75876460
_cell_length_b   5.75876447
_cell_length_c   5.84582700
_cell_angle_alpha   59.49861309
_cell_angle_beta   59.49861384
_cell_angle_gamma   61.00275499
_symmetry_Int_Tables_number   1
_chemical_formula_structural   Ho2CuPd5
_chemical_formula_sum   'Ho2 Cu1 Pd5'
_cell_volume   137.02124591
_cell_formula_units_Z   1
loop_
 _symmetry_equiv_pos_site_id
 _symmetry_equiv_pos_as_xyz
  1  'x, y, z'
loop_
 _atom_site_type_symbol
 _atom_site_label
 _atom_site_symmetry_multiplicity
 _atom_site_fract_x
 _atom_site_fract_y
 _atom_site_fract_z
 _atom_site_occupancy
  Ho  Ho0  1  0.000000  0.000000  0.500000  1
  Ho  Ho1  1  0.500000  0.500000  0.000000  1
  Cu  Cu2  1  0.500000  0.500000  0.500000  1
  Pd  Pd3  1  0.000000  0.000000  0.000000  1
  Pd  Pd4  1  0.000000  0.500000  0.000000  1
  Pd  Pd5  1  0.500000  0.000000  0.000000  1
  Pd  Pd6  1  0.000000  0.500000  0.500000  1
  Pd  Pd7  1  0.500000  0.000000  0.500000  1
