# generated using pymatgen
data_Yb4GaSiIr4
_symmetry_space_group_name_H-M   'P 1'
_cell_length_a   5.70110120
_cell_length_b   5.70110136
_cell_length_c   7.40945842
_cell_angle_alpha   79.52384580
_cell_angle_beta   79.52384978
_cell_angle_gamma   59.64556874
_symmetry_Int_Tables_number   1
_chemical_formula_structural   Yb4GaSiIr4
_chemical_formula_sum   'Yb4 Ga1 Si1 Ir4'
_cell_volume   203.19758061
_cell_formula_units_Z   1
loop_
 _symmetry_equiv_pos_site_id
 _symmetry_equiv_pos_as_xyz
  1  'x, y, z'
loop_
 _atom_site_type_symbol
 _atom_site_label
 _atom_site_symmetry_multiplicity
 _atom_site_fract_x
 _atom_site_fract_y
 _atom_site_fract_z
 _atom_site_occupancy
  Yb  Yb0  1  0.994230  0.717438  0.140259  1
  Yb  Yb1  1  0.282562  0.005770  0.359741  1
  Yb  Yb2  1  0.007409  0.284851  0.858704  1
  Yb  Yb3  1  0.715149  0.992591  0.641296  1
  Ga  Ga4  1  0.407990  0.592010  0.750000  1
  Si  Si5  1  0.576739  0.423261  0.250000  1
  Ir  Ir6  1  0.498562  0.780075  0.998920  1
  Ir  Ir7  1  0.219925  0.501438  0.501080  1
  Ir  Ir8  1  0.515632  0.218196  0.022348  1
  Ir  Ir9  1  0.781804  0.484368  0.477652  1
