# generated using pymatgen
data_Th5Tl2BiSe
_symmetry_space_group_name_H-M   'P 1'
_cell_length_a   9.55073900
_cell_length_b   9.57174046
_cell_length_c   6.67160400
_cell_angle_alpha   90.00000000
_cell_angle_beta   90.00000000
_cell_angle_gamma   120.07277348
_symmetry_Int_Tables_number   1
_chemical_formula_structural   Th5Tl2BiSe
_chemical_formula_sum   'Th10 Tl4 Bi2 Se2'
_cell_volume   527.80055380
_cell_formula_units_Z   2
loop_
 _symmetry_equiv_pos_site_id
 _symmetry_equiv_pos_as_xyz
  1  'x, y, z'
loop_
 _atom_site_type_symbol
 _atom_site_label
 _atom_site_symmetry_multiplicity
 _atom_site_fract_x
 _atom_site_fract_y
 _atom_site_fract_z
 _atom_site_occupancy
  Th  Th0  1  0.738297  0.735564  0.750000  1
  Th  Th1  1  0.261703  0.997267  0.750000  1
  Th  Th2  1  0.000000  0.264778  0.750000  1
  Th  Th3  1  0.263311  0.263430  0.250000  1
  Th  Th4  1  0.736689  0.000117  0.250000  1
  Th  Th5  1  0.000000  0.735244  0.250000  1
  Th  Th6  1  0.666864  0.334168  0.001216  1
  Th  Th7  1  0.333136  0.667304  0.001216  1
  Th  Th8  1  0.333136  0.667304  0.498784  1
  Th  Th9  1  0.666864  0.334168  0.498784  1
  Tl  Tl10  1  0.000000  0.611833  0.750000  1
  Tl  Tl11  1  0.615063  0.614878  0.250000  1
  Tl  Tl12  1  0.384937  0.999815  0.250000  1
  Tl  Tl13  1  0.000000  0.386488  0.250000  1
  Bi  Bi14  1  0.387246  0.386830  0.750000  1
  Bi  Bi15  1  0.612754  0.999584  0.750000  1
  Se  Se16  1  0.000000  0.000615  0.999949  1
  Se  Se17  1  0.000000  0.000615  0.500051  1
