# generated using pymatgen
data_Y8Cd2IrRu
_symmetry_space_group_name_H-M   'P 1'
_cell_length_a   9.68034655
_cell_length_b   9.69686471
_cell_length_c   9.68034647
_cell_angle_alpha   59.94354085
_cell_angle_beta   59.89705589
_cell_angle_gamma   59.94353831
_symmetry_Int_Tables_number   1
_chemical_formula_structural   Y8Cd2IrRu
_chemical_formula_sum   'Y16 Cd4 Ir2 Ru2'
_cell_volume   641.48801526
_cell_formula_units_Z   2
loop_
 _symmetry_equiv_pos_site_id
 _symmetry_equiv_pos_as_xyz
  1  'x, y, z'
loop_
 _atom_site_type_symbol
 _atom_site_label
 _atom_site_symmetry_multiplicity
 _atom_site_fract_x
 _atom_site_fract_y
 _atom_site_fract_z
 _atom_site_occupancy
  Y  Y0  1  0.438797  0.438185  0.062388  1
  Y  Y1  1  0.062388  0.060630  0.438797  1
  Y  Y2  1  0.438797  0.060630  0.062388  1
  Y  Y3  1  0.847997  0.846396  0.847997  1
  Y  Y4  1  0.689121  0.312044  0.308317  1
  Y  Y5  1  0.062388  0.438185  0.438797  1
  Y  Y6  1  0.308317  0.690519  0.689121  1
  Y  Y7  1  0.308317  0.312044  0.689121  1
  Y  Y8  1  0.849057  0.847049  0.456845  1
  Y  Y9  1  0.689121  0.690519  0.308317  1
  Y  Y10  1  0.456845  0.847049  0.849057  1
  Y  Y11  1  0.061096  0.438904  0.061096  1
  Y  Y12  1  0.847997  0.457611  0.847997  1
  Y  Y13  1  0.437818  0.062182  0.437818  1
  Y  Y14  1  0.310671  0.689329  0.310671  1
  Y  Y15  1  0.690253  0.309747  0.690253  1
  Cd  Cd16  1  0.080191  0.759251  0.080191  1
  Cd  Cd17  1  0.080128  0.080396  0.759081  1
  Cd  Cd18  1  0.759081  0.080396  0.080128  1
  Cd  Cd19  1  0.080191  0.080366  0.080191  1
  Ir  Ir20  1  0.640819  0.077718  0.640819  1
  Ir  Ir21  1  0.640819  0.640642  0.640819  1
  Ru  Ru22  1  0.640397  0.640104  0.079395  1
  Ru  Ru23  1  0.079395  0.640104  0.640397  1
