# generated using pymatgen
data_Y3ErAl18Co5Pd
_symmetry_space_group_name_H-M   'P 1'
_cell_length_a   7.41321420
_cell_length_b   7.40963665
_cell_length_c   9.31991341
_cell_angle_alpha   89.85474470
_cell_angle_beta   89.82518353
_cell_angle_gamma   119.11884530
_symmetry_Int_Tables_number   1
_chemical_formula_structural   Y3ErAl18Co5Pd
_chemical_formula_sum   'Y3 Er1 Al18 Co5 Pd1'
_cell_volume   447.22638306
_cell_formula_units_Z   1
loop_
 _symmetry_equiv_pos_site_id
 _symmetry_equiv_pos_as_xyz
  1  'x, y, z'
loop_
 _atom_site_type_symbol
 _atom_site_label
 _atom_site_symmetry_multiplicity
 _atom_site_fract_x
 _atom_site_fract_y
 _atom_site_fract_z
 _atom_site_occupancy
  Y  Y0  1  0.005512  0.325032  0.748550  1
  Y  Y1  1  0.675149  0.994360  0.251497  1
  Y  Y2  1  0.324859  0.005306  0.748504  1
  Er  Er3  1  0.994714  0.675263  0.251581  1
  Al  Al4  1  0.132200  0.131101  0.258355  1
  Al  Al5  1  0.867803  0.867592  0.741580  1
  Al  Al6  1  0.332147  0.332145  0.541086  1
  Al  Al7  1  0.660661  0.659812  0.048317  1
  Al  Al8  1  0.340163  0.340173  0.952831  1
  Al  Al9  1  0.668766  0.667812  0.457758  1
  Al  Al10  1  0.338682  0.556302  0.251524  1
  Al  Al11  1  0.660444  0.444085  0.748472  1
  Al  Al12  1  0.557616  0.341143  0.251544  1
  Al  Al13  1  0.443926  0.660230  0.748498  1
  Al  Al14  1  0.000249  0.345476  0.075395  1
  Al  Al15  1  0.002837  0.664075  0.569502  1
  Al  Al16  1  0.334940  0.996067  0.428612  1
  Al  Al17  1  0.655444  0.999625  0.925438  1
  Al  Al18  1  0.999679  0.655625  0.926411  1
  Al  Al19  1  0.997140  0.337049  0.428561  1
  Al  Al20  1  0.663963  0.002815  0.570690  1
  Al  Al21  1  0.343452  0.999313  0.075289  1
  Co  Co22  1  0.999749  0.999342  0.499329  1
  Co  Co23  1  0.671457  0.329084  0.000417  1
  Co  Co24  1  0.328627  0.671177  0.499546  1
  Co  Co25  1  0.328539  0.671241  0.000492  1
  Co  Co26  1  0.671480  0.329250  0.499545  1
  Pd  Pd27  1  0.999804  0.999504  0.000675  1
