# generated using pymatgen
data_DyHf(GaPt)2
_symmetry_space_group_name_H-M   'P 1'
_cell_length_a   7.27275100
_cell_length_b   7.27275028
_cell_length_c   7.37133100
_cell_angle_alpha   90.00000000
_cell_angle_beta   90.00000000
_cell_angle_gamma   120.00000783
_symmetry_Int_Tables_number   1
_chemical_formula_structural   DyHf(GaPt)2
_chemical_formula_sum   'Dy3 Hf3 Ga6 Pt6'
_cell_volume   337.65555957
_cell_formula_units_Z   3
loop_
 _symmetry_equiv_pos_site_id
 _symmetry_equiv_pos_as_xyz
  1  'x, y, z'
loop_
 _atom_site_type_symbol
 _atom_site_label
 _atom_site_symmetry_multiplicity
 _atom_site_fract_x
 _atom_site_fract_y
 _atom_site_fract_z
 _atom_site_occupancy
  Dy  Dy0  1  0.590590  0.997517  0.750000  1
  Dy  Dy1  1  0.406927  0.409410  0.750000  1
  Dy  Dy2  1  0.002483  0.593073  0.750000  1
  Hf  Hf3  1  0.391381  0.388613  0.250000  1
  Hf  Hf4  1  0.997232  0.608619  0.250000  1
  Hf  Hf5  1  0.611387  0.002768  0.250000  1
  Ga  Ga6  1  0.262494  0.998557  0.008055  1
  Ga  Ga7  1  0.262494  0.998557  0.491945  1
  Ga  Ga8  1  0.001443  0.263936  0.491945  1
  Ga  Ga9  1  0.001443  0.263936  0.008055  1
  Ga  Ga10  1  0.736064  0.737506  0.008055  1
  Ga  Ga11  1  0.736064  0.737506  0.491945  1
  Pt  Pt12  1  0.666667  0.333333  0.473493  1
  Pt  Pt13  1  0.000000  0.000000  0.750000  1
  Pt  Pt14  1  0.666667  0.333333  0.026507  1
  Pt  Pt15  1  0.333333  0.666667  0.034237  1
  Pt  Pt16  1  0.333333  0.666667  0.465763  1
  Pt  Pt17  1  0.000000  0.000000  0.250000  1
