# generated using pymatgen
data_Y7Er(BBr6)2
_symmetry_space_group_name_H-M   'P 1'
_cell_length_a   3.97275200
_cell_length_b   13.18710324
_cell_length_c   13.65615232
_cell_angle_alpha   89.93327274
_cell_angle_beta   90.00000000
_cell_angle_gamma   90.00000000
_symmetry_Int_Tables_number   1
_chemical_formula_structural   Y7Er(BBr6)2
_chemical_formula_sum   'Y7 Er1 B2 Br12'
_cell_volume   715.43291782
_cell_formula_units_Z   1
loop_
 _symmetry_equiv_pos_site_id
 _symmetry_equiv_pos_as_xyz
  1  'x, y, z'
loop_
 _atom_site_type_symbol
 _atom_site_label
 _atom_site_symmetry_multiplicity
 _atom_site_fract_x
 _atom_site_fract_y
 _atom_site_fract_z
 _atom_site_occupancy
  Y  Y0  1  0.000000  0.101961  0.080926  1
  Y  Y1  1  0.000000  0.898134  0.919017  1
  Y  Y2  1  0.000000  0.601232  0.419573  1
  Y  Y3  1  0.500000  0.122869  0.855592  1
  Y  Y4  1  0.500000  0.877301  0.144249  1
  Y  Y5  1  0.500000  0.622213  0.644181  1
  Y  Y6  1  0.500000  0.377283  0.356241  1
  Er  Er7  1  0.000000  0.398905  0.580322  1
  B  B8  1  0.500000  0.000109  0.999883  1
  B  B9  1  0.500000  0.498858  0.500923  1
  Br  Br10  1  0.500000  0.269819  0.680818  1
  Br  Br11  1  0.500000  0.731908  0.317889  1
  Br  Br12  1  0.500000  0.767721  0.817556  1
  Br  Br13  1  0.500000  0.232242  0.182471  1
  Br  Br14  1  0.000000  0.261163  0.931009  1
  Br  Br15  1  0.000000  0.738968  0.068845  1
  Br  Br16  1  0.000000  0.480742  0.239489  1
  Br  Br17  1  0.000000  0.517738  0.759588  1
  Br  Br18  1  0.000000  0.980702  0.260706  1
  Br  Br19  1  0.000000  0.019523  0.739182  1
  Br  Br20  1  0.000000  0.239767  0.432786  1
  Br  Br21  1  0.000000  0.760842  0.568754  1
