# generated using pymatgen
data_Tm12Si12PtRh3
_symmetry_space_group_name_H-M   'P 1'
_cell_length_a   4.18969000
_cell_length_b   10.57312412
_cell_length_c   12.19816714
_cell_angle_alpha   90.01751463
_cell_angle_beta   90.00000000
_cell_angle_gamma   90.00000000
_symmetry_Int_Tables_number   1
_chemical_formula_structural   Tm12Si12PtRh3
_chemical_formula_sum   'Tm12 Si12 Pt1 Rh3'
_cell_volume   540.35575401
_cell_formula_units_Z   1
loop_
 _symmetry_equiv_pos_site_id
 _symmetry_equiv_pos_as_xyz
  1  'x, y, z'
loop_
 _atom_site_type_symbol
 _atom_site_label
 _atom_site_symmetry_multiplicity
 _atom_site_fract_x
 _atom_site_fract_y
 _atom_site_fract_z
 _atom_site_occupancy
  Tm  Tm0  1  0.250000  0.878853  0.020664  1
  Tm  Tm1  1  0.250000  0.621482  0.519793  1
  Tm  Tm2  1  0.750000  0.122050  0.980933  1
  Tm  Tm3  1  0.750000  0.379170  0.479793  1
  Tm  Tm4  1  0.250000  0.919946  0.602999  1
  Tm  Tm5  1  0.250000  0.580164  0.103429  1
  Tm  Tm6  1  0.750000  0.079623  0.396815  1
  Tm  Tm7  1  0.750000  0.420150  0.897011  1
  Tm  Tm8  1  0.250000  0.659388  0.800322  1
  Tm  Tm9  1  0.250000  0.839942  0.300534  1
  Tm  Tm10  1  0.750000  0.340668  0.199318  1
  Tm  Tm11  1  0.750000  0.161025  0.698416  1
  Si  Si12  1  0.250000  0.017310  0.823383  1
  Si  Si13  1  0.250000  0.486537  0.322419  1
  Si  Si14  1  0.750000  0.986495  0.177217  1
  Si  Si15  1  0.750000  0.513191  0.677776  1
  Si  Si16  1  0.250000  0.248403  0.841077  1
  Si  Si17  1  0.250000  0.251639  0.341237  1
  Si  Si18  1  0.750000  0.751753  0.158838  1
  Si  Si19  1  0.750000  0.745893  0.656449  1
  Si  Si20  1  0.250000  0.197396  0.541755  1
  Si  Si21  1  0.250000  0.302641  0.042316  1
  Si  Si22  1  0.750000  0.803597  0.457452  1
  Si  Si23  1  0.750000  0.693644  0.959051  1
  Pt  Pt24  1  0.750000  0.889510  0.819589  1
  Rh  Rh25  1  0.250000  0.390026  0.681035  1
  Rh  Rh26  1  0.250000  0.109684  0.180771  1
  Rh  Rh27  1  0.750000  0.609822  0.319606  1
