# generated using pymatgen
data_Tb7Ni2Sn23Ru4
_symmetry_space_group_name_H-M   'P 1'
_cell_length_a   9.83832326
_cell_length_b   9.82265897
_cell_length_c   10.08609239
_cell_angle_alpha   90.00000037
_cell_angle_beta   89.54605716
_cell_angle_gamma   119.94734480
_symmetry_Int_Tables_number   1
_chemical_formula_structural   Tb7Ni2Sn23Ru4
_chemical_formula_sum   'Tb7 Ni2 Sn23 Ru4'
_cell_volume   844.53132017
_cell_formula_units_Z   1
loop_
 _symmetry_equiv_pos_site_id
 _symmetry_equiv_pos_as_xyz
  1  'x, y, z'
loop_
 _atom_site_type_symbol
 _atom_site_label
 _atom_site_symmetry_multiplicity
 _atom_site_fract_x
 _atom_site_fract_y
 _atom_site_fract_z
 _atom_site_occupancy
  Tb  Tb0  1  0.000000  0.000000  0.000000  1
  Tb  Tb1  1  0.481864  0.520204  0.305885  1
  Tb  Tb2  1  0.518136  0.479796  0.694115  1
  Tb  Tb3  1  0.481864  0.961659  0.305885  1
  Tb  Tb4  1  0.518136  0.038341  0.694115  1
  Tb  Tb5  1  0.039582  0.519791  0.305942  1
  Tb  Tb6  1  0.960418  0.480209  0.694058  1
  Ni  Ni7  1  0.340250  0.170125  0.198359  1
  Ni  Ni8  1  0.659750  0.829875  0.801641  1
  Sn  Sn9  1  0.349819  0.000807  0.001536  1
  Sn  Sn10  1  0.650181  0.999193  0.998464  1
  Sn  Sn11  1  0.000000  0.349682  0.000000  1
  Sn  Sn12  1  0.000000  0.650318  0.000000  1
  Sn  Sn13  1  0.650181  0.650988  0.998464  1
  Sn  Sn14  1  0.349819  0.349012  0.001536  1
  Sn  Sn15  1  0.331361  0.665681  0.818080  1
  Sn  Sn16  1  0.668639  0.334319  0.181920  1
  Sn  Sn17  1  0.000000  0.000000  0.500000  1
  Sn  Sn18  1  0.781137  0.218834  0.457582  1
  Sn  Sn19  1  0.218863  0.781166  0.542418  1
  Sn  Sn20  1  0.781137  0.562303  0.457582  1
  Sn  Sn21  1  0.218863  0.437697  0.542418  1
  Sn  Sn22  1  0.437693  0.218847  0.454171  1
  Sn  Sn23  1  0.562307  0.781153  0.545829  1
  Sn  Sn24  1  0.334135  0.667068  0.120331  1
  Sn  Sn25  1  0.665865  0.332932  0.879669  1
  Sn  Sn26  1  0.120936  0.884949  0.272428  1
  Sn  Sn27  1  0.879064  0.115051  0.727572  1
  Sn  Sn28  1  0.120936  0.235987  0.272428  1
  Sn  Sn29  1  0.879064  0.764013  0.727572  1
  Sn  Sn30  1  0.763750  0.881875  0.279169  1
  Sn  Sn31  1  0.236250  0.118125  0.720831  1
  Ru  Ru32  1  0.830696  0.167150  0.199025  1
  Ru  Ru33  1  0.169304  0.832850  0.800975  1
  Ru  Ru34  1  0.830696  0.663546  0.199025  1
  Ru  Ru35  1  0.169304  0.336454  0.800975  1
