# generated using pymatgen
data_La2AlCd2Ga3Au2
_symmetry_space_group_name_H-M   'P 1'
_cell_length_a   4.47281300
_cell_length_b   4.47281300
_cell_length_c   11.09246100
_cell_angle_alpha   90.00000000
_cell_angle_beta   90.00000000
_cell_angle_gamma   90.00000000
_symmetry_Int_Tables_number   1
_chemical_formula_structural   La2AlCd2Ga3Au2
_chemical_formula_sum   'La2 Al1 Cd2 Ga3 Au2'
_cell_volume   221.91639742
_cell_formula_units_Z   1
loop_
 _symmetry_equiv_pos_site_id
 _symmetry_equiv_pos_as_xyz
  1  'x, y, z'
loop_
 _atom_site_type_symbol
 _atom_site_label
 _atom_site_symmetry_multiplicity
 _atom_site_fract_x
 _atom_site_fract_y
 _atom_site_fract_z
 _atom_site_occupancy
  La  La0  1  0.000000  0.500000  0.260774  1
  La  La1  1  0.500000  0.000000  0.739226  1
  Al  Al2  1  0.000000  0.000000  0.500000  1
  Cd  Cd3  1  0.000000  0.000000  0.000000  1
  Cd  Cd4  1  0.500000  0.500000  0.000000  1
  Ga  Ga5  1  0.500000  0.500000  0.500000  1
  Ga  Ga6  1  0.000000  0.500000  0.849382  1
  Ga  Ga7  1  0.500000  0.000000  0.150618  1
  Au  Au8  1  0.000000  0.500000  0.621386  1
  Au  Au9  1  0.500000  0.000000  0.378614  1
