# generated using pymatgen
data_Tb6Ho6ZnCo4Sn
_symmetry_space_group_name_H-M   'P 1'
_cell_length_a   8.32728803
_cell_length_b   8.32728878
_cell_length_c   8.32660928
_cell_angle_alpha   112.09119984
_cell_angle_beta   109.14775954
_cell_angle_gamma   107.21571155
_symmetry_Int_Tables_number   1
_chemical_formula_structural   Tb6Ho6ZnCo4Sn
_chemical_formula_sum   'Tb6 Ho6 Zn1 Co4 Sn1'
_cell_volume   443.64197205
_cell_formula_units_Z   1
loop_
 _symmetry_equiv_pos_site_id
 _symmetry_equiv_pos_as_xyz
  1  'x, y, z'
loop_
 _atom_site_type_symbol
 _atom_site_label
 _atom_site_symmetry_multiplicity
 _atom_site_fract_x
 _atom_site_fract_y
 _atom_site_fract_z
 _atom_site_occupancy
  Tb  Tb0  1  0.428968  0.227642  0.200124  1
  Tb  Tb1  1  0.571032  0.772358  0.799876  1
  Tb  Tb2  1  0.027518  0.228843  0.799876  1
  Tb  Tb3  1  0.972482  0.771157  0.200124  1
  Tb  Tb4  1  0.181078  0.284098  0.465175  1
  Tb  Tb5  1  0.818922  0.715902  0.534825  1
  Ho  Ho6  1  0.181232  0.716180  0.897412  1
  Ho  Ho7  1  0.818768  0.283820  0.102588  1
  Ho  Ho8  1  0.323411  0.635931  0.311446  1
  Ho  Ho9  1  0.676589  0.364069  0.688554  1
  Ho  Ho10  1  0.324485  0.011964  0.688554  1
  Ho  Ho11  1  0.675515  0.988036  0.311446  1
  Zn  Zn12  1  0.000000  0.000000  0.000000  1
  Co  Co13  1  0.347807  0.999409  0.347216  1
  Co  Co14  1  0.652193  0.000591  0.652784  1
  Co  Co15  1  0.114147  0.614147  0.500000  1
  Co  Co16  1  0.885853  0.385853  0.500000  1
  Sn  Sn17  1  0.500000  0.500000  0.000000  1
