# generated using pymatgen
data_Gd(BeB14)2
_symmetry_space_group_name_H-M   'P 1'
_cell_length_a   7.18797264
_cell_length_b   7.18797257
_cell_length_c   5.73075429
_cell_angle_alpha   66.63054899
_cell_angle_beta   66.63055339
_cell_angle_gamma   91.98603420
_symmetry_Int_Tables_number   1
_chemical_formula_structural   Gd(BeB14)2
_chemical_formula_sum   'Gd1 Be2 B28'
_cell_volume   242.94187620
_cell_formula_units_Z   1
loop_
 _symmetry_equiv_pos_site_id
 _symmetry_equiv_pos_as_xyz
  1  'x, y, z'
loop_
 _atom_site_type_symbol
 _atom_site_label
 _atom_site_symmetry_multiplicity
 _atom_site_fract_x
 _atom_site_fract_y
 _atom_site_fract_z
 _atom_site_occupancy
  Gd  Gd0  1  0.886710  0.886710  0.364865  1
  Be  Be1  1  0.493090  0.493090  0.517691  1
  Be  Be2  1  0.243556  0.243556  0.313722  1
  B  B3  1  0.419161  0.732484  0.181098  1
  B  B4  1  0.578566  0.255886  0.835370  1
  B  B5  1  0.255886  0.578566  0.835370  1
  B  B6  1  0.732484  0.419161  0.181098  1
  B  B7  1  0.694749  0.860501  0.978761  1
  B  B8  1  0.302589  0.129562  0.038754  1
  B  B9  1  0.129562  0.302589  0.038754  1
  B  B10  1  0.860501  0.694749  0.978761  1
  B  B11  1  0.529806  0.869718  0.307158  1
  B  B12  1  0.467451  0.119600  0.217265  1
  B  B13  1  0.119600  0.467451  0.217265  1
  B  B14  1  0.869718  0.529806  0.307158  1
  B  B15  1  0.461655  0.118581  0.714283  1
  B  B16  1  0.530484  0.866883  0.803883  1
  B  B17  1  0.866883  0.530484  0.803883  1
  B  B18  1  0.118581  0.461655  0.714283  1
  B  B19  1  0.720191  0.100308  0.004779  1
  B  B20  1  0.276718  0.889782  0.334286  1
  B  B21  1  0.889782  0.276718  0.334286  1
  B  B22  1  0.100308  0.720191  0.004779  1
  B  B23  1  0.276461  0.890849  0.011896  1
  B  B24  1  0.717791  0.097895  0.688419  1
  B  B25  1  0.097895  0.717791  0.688419  1
  B  B26  1  0.890849  0.276461  0.011896  1
  B  B27  1  0.283515  0.466399  0.385766  1
  B  B28  1  0.699707  0.519350  0.650144  1
  B  B29  1  0.519350  0.699707  0.650144  1
  B  B30  1  0.466399  0.283515  0.385766  1
