# generated using pymatgen
data_Ce2Ho(InIr)3
_symmetry_space_group_name_H-M   'P 1'
_cell_length_a   7.65015108
_cell_length_b   7.65015149
_cell_length_c   3.94249000
_cell_angle_alpha   90.00000000
_cell_angle_beta   90.00000000
_cell_angle_gamma   121.14227016
_symmetry_Int_Tables_number   1
_chemical_formula_structural   Ce2Ho(InIr)3
_chemical_formula_sum   'Ce2 Ho1 In3 Ir3'
_cell_volume   197.48151804
_cell_formula_units_Z   1
loop_
 _symmetry_equiv_pos_site_id
 _symmetry_equiv_pos_as_xyz
  1  'x, y, z'
loop_
 _atom_site_type_symbol
 _atom_site_label
 _atom_site_symmetry_multiplicity
 _atom_site_fract_x
 _atom_site_fract_y
 _atom_site_fract_z
 _atom_site_occupancy
  Ce  Ce0  1  0.586974  0.998948  0.000000  1
  Ce  Ce1  1  0.998948  0.586974  0.000000  1
  Ho  Ho2  1  0.406436  0.406436  0.000000  1
  In  In3  1  0.005787  0.254620  0.500000  1
  In  In4  1  0.739692  0.739692  0.500000  1
  In  In5  1  0.254620  0.005787  0.500000  1
  Ir  Ir6  1  0.998511  0.998511  0.000000  1
  Ir  Ir7  1  0.331721  0.677310  0.500000  1
  Ir  Ir8  1  0.677310  0.331721  0.500000  1
