# generated using pymatgen
data_Er3Tm(ReB6)2
_symmetry_space_group_name_H-M   'P 1'
_cell_length_a   3.65310700
_cell_length_b   9.12156801
_cell_length_c   11.49164301
_cell_angle_alpha   90.00521437
_cell_angle_beta   90.00000000
_cell_angle_gamma   90.00000000
_symmetry_Int_Tables_number   1
_chemical_formula_structural   Er3Tm(ReB6)2
_chemical_formula_sum   'Er6 Tm2 Re4 B24'
_cell_volume   382.92526170
_cell_formula_units_Z   2
loop_
 _symmetry_equiv_pos_site_id
 _symmetry_equiv_pos_as_xyz
  1  'x, y, z'
loop_
 _atom_site_type_symbol
 _atom_site_label
 _atom_site_symmetry_multiplicity
 _atom_site_fract_x
 _atom_site_fract_y
 _atom_site_fract_z
 _atom_site_occupancy
  Er  Er0  1  0.000000  0.323656  0.413781  1
  Er  Er1  1  0.000000  0.676344  0.586219  1
  Er  Er2  1  0.000000  0.823496  0.086130  1
  Er  Er3  1  0.000000  0.176504  0.913870  1
  Er  Er4  1  0.000000  0.943503  0.370225  1
  Er  Er5  1  0.000000  0.056497  0.629775  1
  Tm  Tm6  1  0.000000  0.443515  0.129665  1
  Tm  Tm7  1  0.000000  0.556485  0.870335  1
  Re  Re8  1  0.000000  0.638811  0.320597  1
  Re  Re9  1  0.000000  0.361189  0.679403  1
  Re  Re10  1  0.000000  0.139384  0.179065  1
  Re  Re11  1  0.000000  0.860616  0.820935  1
  B  B12  1  0.500000  0.553187  0.433168  1
  B  B13  1  0.500000  0.446813  0.566832  1
  B  B14  1  0.500000  0.053369  0.066731  1
  B  B15  1  0.500000  0.946631  0.933269  1
  B  B16  1  0.500000  0.749672  0.419077  1
  B  B17  1  0.500000  0.250328  0.580923  1
  B  B18  1  0.500000  0.250212  0.080839  1
  B  B19  1  0.500000  0.749788  0.919161  1
  B  B20  1  0.500000  0.792725  0.265268  1
  B  B21  1  0.500000  0.207275  0.734732  1
  B  B22  1  0.500000  0.293207  0.234516  1
  B  B23  1  0.500000  0.706793  0.765484  1
  B  B24  1  0.500000  0.630733  0.184958  1
  B  B25  1  0.500000  0.369267  0.815042  1
  B  B26  1  0.500000  0.131199  0.314732  1
  B  B27  1  0.500000  0.868801  0.685268  1
  B  B28  1  0.500000  0.982072  0.211930  1
  B  B29  1  0.500000  0.017928  0.788070  1
  B  B30  1  0.500000  0.481812  0.287760  1
  B  B31  1  0.500000  0.518188  0.712240  1
  B  B32  1  0.500000  0.599428  0.027785  1
  B  B33  1  0.500000  0.400572  0.972215  1
  B  B34  1  0.500000  0.100090  0.472065  1
  B  B35  1  0.500000  0.899910  0.527935  1
