# generated using pymatgen
data_TbSc2Co8P6Ru
_symmetry_space_group_name_H-M   'P 1'
_cell_length_a   3.64949700
_cell_length_b   10.43156500
_cell_length_c   12.08759700
_cell_angle_alpha   90.00000000
_cell_angle_beta   90.00000000
_cell_angle_gamma   90.00000000
_symmetry_Int_Tables_number   1
_chemical_formula_structural   TbSc2Co8P6Ru
_chemical_formula_sum   'Tb2 Sc4 Co16 P12 Ru2'
_cell_volume   460.17439681
_cell_formula_units_Z   2
loop_
 _symmetry_equiv_pos_site_id
 _symmetry_equiv_pos_as_xyz
  1  'x, y, z'
loop_
 _atom_site_type_symbol
 _atom_site_label
 _atom_site_symmetry_multiplicity
 _atom_site_fract_x
 _atom_site_fract_y
 _atom_site_fract_z
 _atom_site_occupancy
  Tb  Tb0  1  0.000000  0.500000  0.527057  1
  Tb  Tb1  1  0.500000  0.000000  0.472943  1
  Sc  Sc2  1  0.500000  0.817707  0.206691  1
  Sc  Sc3  1  0.500000  0.182293  0.206691  1
  Sc  Sc4  1  0.000000  0.682293  0.793309  1
  Sc  Sc5  1  0.000000  0.317707  0.793309  1
  Co  Co6  1  0.500000  0.500000  0.705938  1
  Co  Co7  1  0.000000  0.000000  0.294062  1
  Co  Co8  1  0.000000  0.500000  0.985459  1
  Co  Co9  1  0.500000  0.000000  0.014541  1
  Co  Co10  1  0.500000  0.332229  0.989555  1
  Co  Co11  1  0.500000  0.667771  0.989555  1
  Co  Co12  1  0.000000  0.167771  0.010445  1
  Co  Co13  1  0.000000  0.832229  0.010445  1
  Co  Co14  1  0.500000  0.296453  0.430125  1
  Co  Co15  1  0.500000  0.703547  0.430125  1
  Co  Co16  1  0.000000  0.203547  0.569875  1
  Co  Co17  1  0.000000  0.796453  0.569875  1
  Co  Co18  1  0.500000  0.876530  0.709364  1
  Co  Co19  1  0.500000  0.123470  0.709364  1
  Co  Co20  1  0.000000  0.623470  0.290636  1
  Co  Co21  1  0.000000  0.376530  0.290636  1
  P  P22  1  0.500000  0.500000  0.879859  1
  P  P23  1  0.000000  0.000000  0.120141  1
  P  P24  1  0.500000  0.500000  0.350666  1
  P  P25  1  0.000000  0.000000  0.649334  1
  P  P26  1  0.500000  0.312472  0.620157  1
  P  P27  1  0.500000  0.687528  0.620157  1
  P  P28  1  0.000000  0.187528  0.379843  1
  P  P29  1  0.000000  0.812472  0.379843  1
  P  P30  1  0.500000  0.843881  0.891727  1
  P  P31  1  0.500000  0.156119  0.891727  1
  P  P32  1  0.000000  0.656119  0.108273  1
  P  P33  1  0.000000  0.343881  0.108273  1
  Ru  Ru34  1  0.500000  0.500000  0.158696  1
  Ru  Ru35  1  0.000000  0.000000  0.841304  1
