# generated using pymatgen
data_Lu8AlCd3
_symmetry_space_group_name_H-M   'P 1'
_cell_length_a   6.61862315
_cell_length_b   5.12236300
_cell_length_c   9.20701217
_cell_angle_alpha   90.00000000
_cell_angle_beta   89.97688305
_cell_angle_gamma   90.00000000
_symmetry_Int_Tables_number   1
_chemical_formula_structural   Lu8AlCd3
_chemical_formula_sum   'Lu8 Al1 Cd3'
_cell_volume   312.14521910
_cell_formula_units_Z   1
loop_
 _symmetry_equiv_pos_site_id
 _symmetry_equiv_pos_as_xyz
  1  'x, y, z'
loop_
 _atom_site_type_symbol
 _atom_site_label
 _atom_site_symmetry_multiplicity
 _atom_site_fract_x
 _atom_site_fract_y
 _atom_site_fract_z
 _atom_site_occupancy
  Lu  Lu0  1  0.180016  0.250000  0.067626  1
  Lu  Lu1  1  0.476287  0.750001  0.207119  1
  Lu  Lu2  1  0.976628  0.750001  0.289933  1
  Lu  Lu3  1  0.677243  0.250000  0.431515  1
  Lu  Lu4  1  0.319122  0.750001  0.571204  1
  Lu  Lu5  1  0.025602  0.250000  0.711864  1
  Lu  Lu6  1  0.520217  0.250000  0.793257  1
  Lu  Lu7  1  0.819394  0.750001  0.927461  1
  Al  Al8  1  0.287282  0.750001  0.898883  1
  Cd  Cd9  1  0.719220  0.250000  0.101716  1
  Cd  Cd10  1  0.217920  0.250000  0.397718  1
  Cd  Cd11  1  0.781069  0.750001  0.601710  1
