# generated using pymatgen
data_Er5AlGaRu3
_symmetry_space_group_name_H-M   'P 1'
_cell_length_a   8.26323605
_cell_length_b   8.28876731
_cell_length_c   8.28876748
_cell_angle_alpha   109.55980635
_cell_angle_beta   109.49227120
_cell_angle_gamma   109.48652561
_symmetry_Int_Tables_number   1
_chemical_formula_structural   Er5AlGaRu3
_chemical_formula_sum   'Er10 Al2 Ga2 Ru6'
_cell_volume   436.35156666
_cell_formula_units_Z   2
loop_
 _symmetry_equiv_pos_site_id
 _symmetry_equiv_pos_as_xyz
  1  'x, y, z'
loop_
 _atom_site_type_symbol
 _atom_site_label
 _atom_site_symmetry_multiplicity
 _atom_site_fract_x
 _atom_site_fract_y
 _atom_site_fract_z
 _atom_site_occupancy
  Er  Er0  1  0.784553  0.784845  0.784113  1
  Er  Er1  1  0.318611  0.568329  0.749584  1
  Er  Er2  1  0.750000  0.319155  0.569155  1
  Er  Er3  1  0.567947  0.749364  0.318810  1
  Er  Er4  1  0.715447  0.499560  0.000292  1
  Er  Er5  1  0.000805  0.714783  0.500438  1
  Er  Er6  1  0.499195  0.999633  0.713978  1
  Er  Er7  1  0.250000  0.181556  0.931556  1
  Er  Er8  1  0.932053  0.250863  0.181417  1
  Er  Er9  1  0.181389  0.930973  0.249718  1
  Al  Al10  1  0.999569  0.089105  0.499842  1
  Al  Al11  1  0.500431  0.000273  0.089536  1
  Ga  Ga12  1  0.411602  0.411460  0.411647  1
  Ga  Ga13  1  0.088398  0.500046  0.999858  1
  Ru  Ru14  1  0.874850  0.124323  0.748252  1
  Ru  Ru15  1  0.750000  0.875844  0.125844  1
  Ru  Ru16  1  0.126472  0.751692  0.876130  1
  Ru  Ru17  1  0.250000  0.625136  0.375136  1
  Ru  Ru18  1  0.373528  0.249659  0.625221  1
  Ru  Ru19  1  0.625150  0.373402  0.249474  1
