# generated using pymatgen
data_Pr8Ho12Bi11Pb5
_symmetry_space_group_name_H-M   'P 1'
_cell_length_a   8.40529487
_cell_length_b   8.38728916
_cell_length_c   15.70734700
_cell_angle_alpha   90.00000000
_cell_angle_beta   90.00000000
_cell_angle_gamma   90.24387521
_symmetry_Int_Tables_number   1
_chemical_formula_structural   Pr8Ho12Bi11Pb5
_chemical_formula_sum   'Pr8 Ho12 Bi11 Pb5'
_cell_volume   1107.32084049
_cell_formula_units_Z   1
loop_
 _symmetry_equiv_pos_site_id
 _symmetry_equiv_pos_as_xyz
  1  'x, y, z'
loop_
 _atom_site_type_symbol
 _atom_site_label
 _atom_site_symmetry_multiplicity
 _atom_site_fract_x
 _atom_site_fract_y
 _atom_site_fract_z
 _atom_site_occupancy
  Pr  Pr0  1  0.473748  0.679573  0.596625  1
  Pr  Pr1  1  0.973518  0.821998  0.903295  1
  Pr  Pr2  1  0.527061  0.320464  0.097786  1
  Pr  Pr3  1  0.025547  0.176398  0.403762  1
  Pr  Pr4  1  0.527061  0.320464  0.402214  1
  Pr  Pr5  1  0.025547  0.176398  0.096238  1
  Pr  Pr6  1  0.473748  0.679573  0.903375  1
  Pr  Pr7  1  0.973518  0.821998  0.596705  1
  Ho  Ho8  1  0.642690  0.150498  0.624219  1
  Ho  Ho9  1  0.139968  0.349974  0.875607  1
  Ho  Ho10  1  0.356202  0.848285  0.124720  1
  Ho  Ho11  1  0.863607  0.654079  0.374603  1
  Ho  Ho12  1  0.356202  0.848285  0.375280  1
  Ho  Ho13  1  0.863607  0.654079  0.125397  1
  Ho  Ho14  1  0.642690  0.150498  0.875781  1
  Ho  Ho15  1  0.139968  0.349974  0.624393  1
  Ho  Ho16  1  0.808676  0.503320  0.750000  1
  Ho  Ho17  1  0.308828  0.997009  0.750000  1
  Ho  Ho18  1  0.192138  0.497351  0.250000  1
  Ho  Ho19  1  0.692644  0.002805  0.250000  1
  Bi  Bi20  1  0.704631  0.956878  0.454044  1
  Bi  Bi21  1  0.208093  0.540344  0.046006  1
  Bi  Bi22  1  0.293045  0.042849  0.953211  1
  Bi  Bi23  1  0.792321  0.458795  0.545726  1
  Bi  Bi24  1  0.293045  0.042849  0.546789  1
  Bi  Bi25  1  0.792321  0.458795  0.954274  1
  Bi  Bi26  1  0.704631  0.956878  0.045956  1
  Bi  Bi27  1  0.208093  0.540344  0.453994  1
  Bi  Bi28  1  0.445188  0.368943  0.750000  1
  Bi  Bi29  1  0.944885  0.130440  0.750000  1
  Bi  Bi30  1  0.555180  0.631048  0.250000  1
  Pb  Pb31  1  0.054789  0.872143  0.250000  1
  Pb  Pb32  1  0.658824  0.845479  0.750000  1
  Pb  Pb33  1  0.159039  0.654544  0.750000  1
  Pb  Pb34  1  0.336673  0.151336  0.250000  1
  Pb  Pb35  1  0.842276  0.345311  0.250000  1
