# generated using pymatgen
data_Yb2ErAl3CuGe2
_symmetry_space_group_name_H-M   'P 1'
_cell_length_a   6.98207415
_cell_length_b   6.98207337
_cell_length_c   4.24676000
_cell_angle_alpha   90.00000000
_cell_angle_beta   90.00000000
_cell_angle_gamma   120.60161343
_symmetry_Int_Tables_number   1
_chemical_formula_structural   Yb2ErAl3CuGe2
_chemical_formula_sum   'Yb2 Er1 Al3 Cu1 Ge2'
_cell_volume   178.19370552
_cell_formula_units_Z   1
loop_
 _symmetry_equiv_pos_site_id
 _symmetry_equiv_pos_as_xyz
  1  'x, y, z'
loop_
 _atom_site_type_symbol
 _atom_site_label
 _atom_site_symmetry_multiplicity
 _atom_site_fract_x
 _atom_site_fract_y
 _atom_site_fract_z
 _atom_site_occupancy
  Yb  Yb0  1  0.413078  0.999333  0.000000  1
  Yb  Yb1  1  0.999333  0.413078  0.000000  1
  Er  Er2  1  0.587910  0.587910  0.000000  1
  Al  Al3  1  0.765385  0.990467  0.500000  1
  Al  Al4  1  0.238141  0.238141  0.500000  1
  Al  Al5  1  0.990467  0.765385  0.500000  1
  Cu  Cu6  1  0.001467  0.001467  0.000000  1
  Ge  Ge7  1  0.665948  0.338272  0.500000  1
  Ge  Ge8  1  0.338272  0.665949  0.500000  1
