# generated using pymatgen
data_Zr8In4PdAu7
_symmetry_space_group_name_H-M   'P 1'
_cell_length_a   7.61778233
_cell_length_b   7.61778251
_cell_length_c   7.13941938
_cell_angle_alpha   90.07421805
_cell_angle_beta   89.92577715
_cell_angle_gamma   89.88180725
_symmetry_Int_Tables_number   1
_chemical_formula_structural   Zr8In4PdAu7
_chemical_formula_sum   'Zr8 In4 Pd1 Au7'
_cell_volume   414.30327630
_cell_formula_units_Z   1
loop_
 _symmetry_equiv_pos_site_id
 _symmetry_equiv_pos_as_xyz
  1  'x, y, z'
loop_
 _atom_site_type_symbol
 _atom_site_label
 _atom_site_symmetry_multiplicity
 _atom_site_fract_x
 _atom_site_fract_y
 _atom_site_fract_z
 _atom_site_occupancy
  Zr  Zr0  1  0.150152  0.142153  0.996415  1
  Zr  Zr1  1  0.857847  0.849848  0.996415  1
  Zr  Zr2  1  0.646402  0.353598  0.499628  1
  Zr  Zr3  1  0.350090  0.649910  0.503584  1
  Zr  Zr4  1  0.695370  0.304630  0.999515  1
  Zr  Zr5  1  0.300432  0.699568  0.996015  1
  Zr  Zr6  1  0.809357  0.804847  0.502926  1
  Zr  Zr7  1  0.195153  0.190643  0.502926  1
  In  In8  1  0.501454  0.999917  0.249424  1
  In  In9  1  0.495425  0.998726  0.748163  1
  In  In10  1  0.000083  0.498546  0.249424  1
  In  In11  1  0.001274  0.504575  0.748163  1
  Pd  Pd12  1  0.129488  0.870512  0.706731  1
  Au  Au13  1  0.368580  0.371511  0.207283  1
  Au  Au14  1  0.628681  0.630244  0.795423  1
  Au  Au15  1  0.628489  0.631420  0.207283  1
  Au  Au16  1  0.871357  0.128643  0.705874  1
  Au  Au17  1  0.870739  0.129261  0.292982  1
  Au  Au18  1  0.369756  0.371319  0.795423  1
  Au  Au19  1  0.129870  0.870130  0.296404  1
