# generated using pymatgen
data_TbY9(Tl3Se)2
_symmetry_space_group_name_H-M   'P 1'
_cell_length_a   9.15772700
_cell_length_b   9.15772730
_cell_length_c   6.74557700
_cell_angle_alpha   90.00000000
_cell_angle_beta   90.00000000
_cell_angle_gamma   120.00907683
_symmetry_Int_Tables_number   1
_chemical_formula_structural   TbY9(Tl3Se)2
_chemical_formula_sum   'Tb1 Y9 Tl6 Se2'
_cell_volume   489.87514595
_cell_formula_units_Z   1
loop_
 _symmetry_equiv_pos_site_id
 _symmetry_equiv_pos_as_xyz
  1  'x, y, z'
loop_
 _atom_site_type_symbol
 _atom_site_label
 _atom_site_symmetry_multiplicity
 _atom_site_fract_x
 _atom_site_fract_y
 _atom_site_fract_z
 _atom_site_occupancy
  Tb  Tb0  1  0.749138  0.749138  0.750000  1
  Y  Y1  1  0.250283  0.999951  0.750000  1
  Y  Y2  1  0.999951  0.250283  0.750000  1
  Y  Y3  1  0.250641  0.250641  0.250000  1
  Y  Y4  1  0.749737  0.000148  0.250000  1
  Y  Y5  1  0.000148  0.749737  0.250000  1
  Y  Y6  1  0.666640  0.333207  0.000135  1
  Y  Y7  1  0.333207  0.666640  0.000135  1
  Y  Y8  1  0.333207  0.666640  0.499865  1
  Y  Y9  1  0.666640  0.333207  0.499865  1
  Tl  Tl10  1  0.401098  0.401098  0.750000  1
  Tl  Tl11  1  0.599063  0.000261  0.750000  1
  Tl  Tl12  1  0.000261  0.599063  0.750000  1
  Tl  Tl13  1  0.598776  0.598776  0.250000  1
  Tl  Tl14  1  0.401009  0.000092  0.250000  1
  Tl  Tl15  1  0.000092  0.401009  0.250000  1
  Se  Se16  1  0.000055  0.000055  0.000166  1
  Se  Se17  1  0.000055  0.000055  0.499834  1
