# generated using pymatgen
data_Cs(CoO2)4
_symmetry_space_group_name_H-M   'P 1'
_cell_length_a   5.65666015
_cell_length_b   5.65666033
_cell_length_c   7.88110913
_cell_angle_alpha   69.23202447
_cell_angle_beta   69.23202336
_cell_angle_gamma   60.11269897
_symmetry_Int_Tables_number   1
_chemical_formula_structural   Cs(CoO2)4
_chemical_formula_sum   'Cs1 Co4 O8'
_cell_volume   199.45092170
_cell_formula_units_Z   1
loop_
 _symmetry_equiv_pos_site_id
 _symmetry_equiv_pos_as_xyz
  1  'x, y, z'
loop_
 _atom_site_type_symbol
 _atom_site_label
 _atom_site_symmetry_multiplicity
 _atom_site_fract_x
 _atom_site_fract_y
 _atom_site_fract_z
 _atom_site_occupancy
  Cs  Cs0  1  0.000000  0.000000  0.000000  1
  Co  Co1  1  0.000000  0.500000  0.500000  1
  Co  Co2  1  0.500000  0.000000  0.500000  1
  Co  Co3  1  0.000000  0.000000  0.500000  1
  Co  Co4  1  0.500000  0.500000  0.500000  1
  O  O5  1  0.211042  0.211042  0.364635  1
  O  O6  1  0.712727  0.712727  0.366202  1
  O  O7  1  0.712113  0.207306  0.366436  1
  O  O8  1  0.207306  0.712113  0.366436  1
  O  O9  1  0.287887  0.792694  0.633564  1
  O  O10  1  0.792694  0.287887  0.633564  1
  O  O11  1  0.788958  0.788958  0.635365  1
  O  O12  1  0.287273  0.287273  0.633798  1
