# generated using pymatgen
data_Tb2Nd2Re16Si7P
_symmetry_space_group_name_H-M   'P 1'
_cell_length_a   4.14039000
_cell_length_b   7.34057385
_cell_length_c   15.45604105
_cell_angle_alpha   90.24156759
_cell_angle_beta   90.00000000
_cell_angle_gamma   90.00000000
_symmetry_Int_Tables_number   1
_chemical_formula_structural   Tb2Nd2Re16Si7P
_chemical_formula_sum   'Tb2 Nd2 Re16 Si7 P1'
_cell_volume   469.74878564
_cell_formula_units_Z   1
loop_
 _symmetry_equiv_pos_site_id
 _symmetry_equiv_pos_as_xyz
  1  'x, y, z'
loop_
 _atom_site_type_symbol
 _atom_site_label
 _atom_site_symmetry_multiplicity
 _atom_site_fract_x
 _atom_site_fract_y
 _atom_site_fract_z
 _atom_site_occupancy
  Tb  Tb0  1  0.000000  0.578215  0.118458  1
  Tb  Tb1  1  0.000000  0.420740  0.882543  1
  Nd  Nd2  1  0.500000  0.077208  0.381468  1
  Nd  Nd3  1  0.500000  0.920294  0.618060  1
  Re  Re4  1  0.000000  0.141626  0.051255  1
  Re  Re5  1  0.000000  0.858362  0.949455  1
  Re  Re6  1  0.500000  0.642769  0.447739  1
  Re  Re7  1  0.500000  0.364420  0.550370  1
  Re  Re8  1  0.000000  0.736556  0.323080  1
  Re  Re9  1  0.000000  0.269667  0.679932  1
  Re  Re10  1  0.500000  0.235994  0.176448  1
  Re  Re11  1  0.500000  0.764910  0.822947  1
  Re  Re12  1  0.000000  0.427382  0.416207  1
  Re  Re13  1  0.000000  0.573350  0.579270  1
  Re  Re14  1  0.500000  0.929424  0.082534  1
  Re  Re15  1  0.500000  0.068716  0.918899  1
  Re  Re16  1  0.000000  0.985966  0.204904  1
  Re  Re17  1  0.000000  0.010540  0.794609  1
  Re  Re18  1  0.500000  0.488279  0.293111  1
  Re  Re19  1  0.500000  0.507658  0.707656  1
  Si  Si20  1  0.000000  0.176385  0.524871  1
  Si  Si21  1  0.500000  0.334672  0.022515  1
  Si  Si22  1  0.500000  0.665452  0.977419  1
  Si  Si23  1  0.000000  0.289660  0.270713  1
  Si  Si24  1  0.000000  0.705360  0.727866  1
  Si  Si25  1  0.500000  0.787570  0.226269  1
  Si  Si26  1  0.500000  0.210118  0.775759  1
  P  P27  1  0.000000  0.828705  0.475644  1
