# generated using pymatgen
data_SmErCuNi7B2
_symmetry_space_group_name_H-M   'P 1'
_cell_length_a   4.99477178
_cell_length_b   5.00057161
_cell_length_c   6.94822400
_cell_angle_alpha   90.00000000
_cell_angle_beta   90.00000000
_cell_angle_gamma   120.01129490
_symmetry_Int_Tables_number   1
_chemical_formula_structural   SmErCuNi7B2
_chemical_formula_sum   'Sm1 Er1 Cu1 Ni7 B2'
_cell_volume   150.27623404
_cell_formula_units_Z   1
loop_
 _symmetry_equiv_pos_site_id
 _symmetry_equiv_pos_as_xyz
  1  'x, y, z'
loop_
 _atom_site_type_symbol
 _atom_site_label
 _atom_site_symmetry_multiplicity
 _atom_site_fract_x
 _atom_site_fract_y
 _atom_site_fract_z
 _atom_site_occupancy
  Sm  Sm0  1  0.999940  0.999981  0.000000  1
  Er  Er1  1  0.999990  0.000006  0.500000  1
  Cu  Cu2  1  0.333285  0.666698  0.000000  1
  Ni  Ni3  1  0.666663  0.333338  0.000000  1
  Ni  Ni4  1  0.500642  0.001313  0.295654  1
  Ni  Ni5  1  0.500654  0.499339  0.295581  1
  Ni  Ni6  1  0.998681  0.499347  0.295548  1
  Ni  Ni7  1  0.500642  0.001313  0.704346  1
  Ni  Ni8  1  0.500654  0.499339  0.704419  1
  Ni  Ni9  1  0.998681  0.499347  0.704452  1
  B  B10  1  0.333330  0.666635  0.500000  1
  B  B11  1  0.666636  0.333344  0.500000  1
