# generated using pymatgen
data_SrSmYGa8Ag3
_symmetry_space_group_name_H-M   'P 1'
_cell_length_a   4.39768647
_cell_length_b   8.54807889
_cell_length_c   8.54808035
_cell_angle_alpha   68.59210429
_cell_angle_beta   75.09409244
_cell_angle_gamma   75.09409553
_symmetry_Int_Tables_number   1
_chemical_formula_structural   SrSmYGa8Ag3
_chemical_formula_sum   'Sr1 Sm1 Y1 Ga8 Ag3'
_cell_volume   284.29523224
_cell_formula_units_Z   1
loop_
 _symmetry_equiv_pos_site_id
 _symmetry_equiv_pos_as_xyz
  1  'x, y, z'
loop_
 _atom_site_type_symbol
 _atom_site_label
 _atom_site_symmetry_multiplicity
 _atom_site_fract_x
 _atom_site_fract_y
 _atom_site_fract_z
 _atom_site_occupancy
  Sr  Sr0  1  0.999817  0.000183  0.000183  1
  Sm  Sm1  1  0.300468  0.699532  0.699532  1
  Y  Y2  1  0.699347  0.300653  0.300653  1
  Ga  Ga3  1  0.336695  0.296989  0.029620  1
  Ga  Ga4  1  0.662954  0.702862  0.971231  1
  Ga  Ga5  1  0.336695  0.029620  0.296989  1
  Ga  Ga6  1  0.662954  0.971231  0.702862  1
  Ga  Ga7  1  0.146243  0.570668  0.136845  1
  Ga  Ga8  1  0.853794  0.428536  0.863876  1
  Ga  Ga9  1  0.146243  0.136845  0.570668  1
  Ga  Ga10  1  0.853794  0.863876  0.428536  1
  Ag  Ag11  1  0.500319  0.306635  0.692726  1
  Ag  Ag12  1  0.500319  0.692726  0.306635  1
  Ag  Ag13  1  0.000357  0.499643  0.499643  1
