# generated using pymatgen
data_YTiFeB6
_symmetry_space_group_name_H-M   'P 1'
_cell_length_a   3.34155800
_cell_length_b   8.83809700
_cell_length_c   11.18859200
_cell_angle_alpha   90.00000000
_cell_angle_beta   90.00000000
_cell_angle_gamma   90.00000000
_symmetry_Int_Tables_number   1
_chemical_formula_structural   YTiFeB6
_chemical_formula_sum   'Y4 Ti4 Fe4 B24'
_cell_volume   330.43284121
_cell_formula_units_Z   4
loop_
 _symmetry_equiv_pos_site_id
 _symmetry_equiv_pos_as_xyz
  1  'x, y, z'
loop_
 _atom_site_type_symbol
 _atom_site_label
 _atom_site_symmetry_multiplicity
 _atom_site_fract_x
 _atom_site_fract_y
 _atom_site_fract_z
 _atom_site_occupancy
  Y  Y0  1  0.000000  0.821629  0.085636  1
  Y  Y1  1  0.000000  0.178371  0.914364  1
  Y  Y2  1  0.000000  0.321629  0.414364  1
  Y  Y3  1  0.000000  0.678371  0.585636  1
  Ti  Ti4  1  0.000000  0.444859  0.126593  1
  Ti  Ti5  1  0.000000  0.555141  0.873407  1
  Ti  Ti6  1  0.000000  0.944859  0.373407  1
  Ti  Ti7  1  0.000000  0.055141  0.626593  1
  Fe  Fe8  1  0.000000  0.144374  0.183971  1
  Fe  Fe9  1  0.000000  0.855626  0.816029  1
  Fe  Fe10  1  0.000000  0.644374  0.316029  1
  Fe  Fe11  1  0.000000  0.355626  0.683971  1
  B  B12  1  0.500000  0.056300  0.068722  1
  B  B13  1  0.500000  0.943700  0.931278  1
  B  B14  1  0.500000  0.556300  0.431278  1
  B  B15  1  0.500000  0.443700  0.568722  1
  B  B16  1  0.500000  0.254785  0.083712  1
  B  B17  1  0.500000  0.745215  0.916288  1
  B  B18  1  0.500000  0.754785  0.416288  1
  B  B19  1  0.500000  0.245215  0.583712  1
  B  B20  1  0.500000  0.295794  0.234929  1
  B  B21  1  0.500000  0.704206  0.765071  1
  B  B22  1  0.500000  0.795794  0.265071  1
  B  B23  1  0.500000  0.204206  0.734929  1
  B  B24  1  0.500000  0.128447  0.317445  1
  B  B25  1  0.500000  0.871553  0.682555  1
  B  B26  1  0.500000  0.628447  0.182555  1
  B  B27  1  0.500000  0.371553  0.817445  1
  B  B28  1  0.500000  0.483968  0.285361  1
  B  B29  1  0.500000  0.516032  0.714639  1
  B  B30  1  0.500000  0.983968  0.214639  1
  B  B31  1  0.500000  0.016032  0.785361  1
  B  B32  1  0.500000  0.096876  0.474330  1
  B  B33  1  0.500000  0.903124  0.525670  1
  B  B34  1  0.500000  0.596876  0.025670  1
  B  B35  1  0.500000  0.403124  0.974330  1
