# generated using pymatgen
data_Ho4MgCu2Bi
_symmetry_space_group_name_H-M   'P 1'
_cell_length_a   8.59834792
_cell_length_b   8.59834940
_cell_length_c   8.59240809
_cell_angle_alpha   127.27779184
_cell_angle_beta   127.27779743
_cell_angle_gamma   77.86161828
_symmetry_Int_Tables_number   1
_chemical_formula_structural   Ho4MgCu2Bi
_chemical_formula_sum   'Ho8 Mg2 Cu4 Bi2'
_cell_volume   389.71741733
_cell_formula_units_Z   2
loop_
 _symmetry_equiv_pos_site_id
 _symmetry_equiv_pos_as_xyz
  1  'x, y, z'
loop_
 _atom_site_type_symbol
 _atom_site_label
 _atom_site_symmetry_multiplicity
 _atom_site_fract_x
 _atom_site_fract_y
 _atom_site_fract_z
 _atom_site_occupancy
  Ho  Ho0  1  0.026893  0.526893  0.822968  1
  Ho  Ho1  1  0.703890  0.203890  0.176999  1
  Ho  Ho2  1  0.527145  0.703872  0.500029  1
  Ho  Ho3  1  0.203872  0.027145  0.500029  1
  Ho  Ho4  1  0.973107  0.473107  0.177032  1
  Ho  Ho5  1  0.296110  0.796110  0.823001  1
  Ho  Ho6  1  0.472855  0.296128  0.499971  1
  Ho  Ho7  1  0.796128  0.972855  0.499971  1
  Mg  Mg8  1  0.000000  0.000000  0.000000  1
  Mg  Mg9  1  0.500000  0.500000  0.000000  1
  Cu  Cu10  1  0.373958  0.873958  0.247884  1
  Cu  Cu11  1  0.626042  0.126042  0.752116  1
  Cu  Cu12  1  0.874173  0.625827  0.500000  1
  Cu  Cu13  1  0.125827  0.374173  0.500000  1
  Bi  Bi14  1  0.750014  0.749986  0.000000  1
  Bi  Bi15  1  0.249986  0.250014  0.000000  1
