# generated using pymatgen
data_Tb2Dy2Cd2Si3Ge
_symmetry_space_group_name_H-M   'P 1'
_cell_length_a   7.21237720
_cell_length_b   7.21237759
_cell_length_c   4.22532500
_cell_angle_alpha   90.00000000
_cell_angle_beta   90.00000000
_cell_angle_gamma   89.99039558
_symmetry_Int_Tables_number   1
_chemical_formula_structural   Tb2Dy2Cd2Si3Ge
_chemical_formula_sum   'Tb2 Dy2 Cd2 Si3 Ge1'
_cell_volume   219.79459079
_cell_formula_units_Z   1
loop_
 _symmetry_equiv_pos_site_id
 _symmetry_equiv_pos_as_xyz
  1  'x, y, z'
loop_
 _atom_site_type_symbol
 _atom_site_label
 _atom_site_symmetry_multiplicity
 _atom_site_fract_x
 _atom_site_fract_y
 _atom_site_fract_z
 _atom_site_occupancy
  Tb  Tb0  1  0.680153  0.177832  0.500000  1
  Tb  Tb1  1  0.322168  0.819847  0.500000  1
  Dy  Dy2  1  0.175979  0.324021  0.500000  1
  Dy  Dy3  1  0.822716  0.677284  0.500000  1
  Cd  Cd4  1  0.501164  0.502793  0.000000  1
  Cd  Cd5  1  0.997207  0.998836  0.000000  1
  Si  Si6  1  0.116796  0.616914  0.000000  1
  Si  Si7  1  0.883086  0.383204  0.000000  1
  Si  Si8  1  0.620225  0.879775  0.000000  1
  Ge  Ge9  1  0.380509  0.119491  0.000000  1
