# generated using pymatgen
data_CaScV3Ni9As7
_symmetry_space_group_name_H-M   'P 1'
_cell_length_a   3.75986700
_cell_length_b   9.49463502
_cell_length_c   9.49463300
_cell_angle_alpha   119.99998947
_cell_angle_beta   90.00000000
_cell_angle_gamma   90.00000000
_symmetry_Int_Tables_number   1
_chemical_formula_structural   CaScV3Ni9As7
_chemical_formula_sum   'Ca1 Sc1 V3 Ni9 As7'
_cell_volume   293.53481441
_cell_formula_units_Z   1
loop_
 _symmetry_equiv_pos_site_id
 _symmetry_equiv_pos_as_xyz
  1  'x, y, z'
loop_
 _atom_site_type_symbol
 _atom_site_label
 _atom_site_symmetry_multiplicity
 _atom_site_fract_x
 _atom_site_fract_y
 _atom_site_fract_z
 _atom_site_occupancy
  Ca  Ca0  1  0.500000  0.333333  0.666667  1
  Sc  Sc1  1  0.000000  0.666667  0.333333  1
  V  V2  1  0.500000  0.781900  0.898127  1
  V  V3  1  0.500000  0.116226  0.218100  1
  V  V4  1  0.500000  0.101873  0.883774  1
  Ni  Ni5  1  0.000000  0.571652  0.941630  1
  Ni  Ni6  1  0.000000  0.369977  0.428348  1
  Ni  Ni7  1  0.000000  0.058370  0.630023  1
  Ni  Ni8  1  0.000000  0.874698  0.155864  1
  Ni  Ni9  1  0.000000  0.281167  0.125302  1
  Ni  Ni10  1  0.000000  0.844136  0.718833  1
  Ni  Ni11  1  0.500000  0.940016  0.378862  1
  Ni  Ni12  1  0.500000  0.438846  0.059984  1
  Ni  Ni13  1  0.500000  0.621138  0.561154  1
  As  As14  1  0.500000  0.706694  0.117546  1
  As  As15  1  0.500000  0.410853  0.293306  1
  As  As16  1  0.500000  0.882454  0.589147  1
  As  As17  1  0.000000  0.000000  0.000000  1
  As  As18  1  0.000000  0.589636  0.704061  1
  As  As19  1  0.000000  0.114424  0.410364  1
  As  As20  1  0.000000  0.295939  0.885576  1
