# generated using pymatgen
data_Ho11Lu9(Bi2Os)4
_symmetry_space_group_name_H-M   'P 1'
_cell_length_a   7.85830753
_cell_length_b   8.98141500
_cell_length_c   12.43122369
_cell_angle_alpha   90.00000000
_cell_angle_beta   89.86428424
_cell_angle_gamma   90.00000000
_symmetry_Int_Tables_number   1
_chemical_formula_structural   Ho11Lu9(Bi2Os)4
_chemical_formula_sum   'Ho11 Lu9 Bi8 Os4'
_cell_volume   877.37740863
_cell_formula_units_Z   1
loop_
 _symmetry_equiv_pos_site_id
 _symmetry_equiv_pos_as_xyz
  1  'x, y, z'
loop_
 _atom_site_type_symbol
 _atom_site_label
 _atom_site_symmetry_multiplicity
 _atom_site_fract_x
 _atom_site_fract_y
 _atom_site_fract_z
 _atom_site_occupancy
  Ho  Ho0  1  0.160053  0.250000  0.208517  1
  Ho  Ho1  1  0.338442  0.250000  0.709169  1
  Ho  Ho2  1  0.661208  0.750000  0.290536  1
  Ho  Ho3  1  0.375359  0.750000  0.688718  1
  Ho  Ho4  1  0.625248  0.250000  0.311678  1
  Ho  Ho5  1  0.874961  0.250000  0.811735  1
  Ho  Ho6  1  0.125798  0.750000  0.189044  1
  Ho  Ho7  1  0.942099  0.750000  0.504762  1
  Ho  Ho8  1  0.057334  0.250000  0.496300  1
  Ho  Ho9  1  0.441953  0.250000  0.994951  1
  Ho  Ho10  1  0.558313  0.750000  0.004108  1
  Lu  Lu11  1  0.840323  0.750000  0.792576  1
  Lu  Lu12  1  0.669572  0.041333  0.565543  1
  Lu  Lu13  1  0.329785  0.957986  0.434374  1
  Lu  Lu14  1  0.169973  0.956781  0.933780  1
  Lu  Lu15  1  0.329785  0.542014  0.434374  1
  Lu  Lu16  1  0.830277  0.041134  0.064927  1
  Lu  Lu17  1  0.669572  0.458667  0.565543  1
  Lu  Lu18  1  0.830277  0.458866  0.064927  1
  Lu  Lu19  1  0.169973  0.543219  0.933780  1
  Bi  Bi20  1  0.565081  0.495109  0.827104  1
  Bi  Bi21  1  0.435742  0.505265  0.172460  1
  Bi  Bi22  1  0.062647  0.506735  0.672900  1
  Bi  Bi23  1  0.435742  0.994735  0.172460  1
  Bi  Bi24  1  0.936436  0.494206  0.328262  1
  Bi  Bi25  1  0.565081  0.004891  0.827104  1
  Bi  Bi26  1  0.936436  0.005794  0.328262  1
  Bi  Bi27  1  0.062647  0.993265  0.672900  1
  Os  Os28  1  0.573199  0.750000  0.507311  1
  Os  Os29  1  0.427004  0.250000  0.492715  1
  Os  Os30  1  0.073603  0.250000  0.991921  1
  Os  Os31  1  0.926079  0.750000  0.007261  1
