# generated using pymatgen
data_Cs3LiTl11
_symmetry_space_group_name_H-M   'P 1'
_cell_length_a   11.10630000
_cell_length_b   11.10630005
_cell_length_c   10.35534500
_cell_angle_alpha   90.00000000
_cell_angle_beta   90.00000000
_cell_angle_gamma   119.99999985
_symmetry_Int_Tables_number   1
_chemical_formula_structural   Cs3LiTl11
_chemical_formula_sum   'Cs6 Li2 Tl22'
_cell_volume   1106.20089993
_cell_formula_units_Z   2
loop_
 _symmetry_equiv_pos_site_id
 _symmetry_equiv_pos_as_xyz
  1  'x, y, z'
loop_
 _atom_site_type_symbol
 _atom_site_label
 _atom_site_symmetry_multiplicity
 _atom_site_fract_x
 _atom_site_fract_y
 _atom_site_fract_z
 _atom_site_occupancy
  Cs  Cs0  1  0.525528  0.051057  0.250000  1
  Cs  Cs1  1  0.474472  0.948943  0.750000  1
  Cs  Cs2  1  0.948943  0.474472  0.250000  1
  Cs  Cs3  1  0.051057  0.525528  0.750000  1
  Cs  Cs4  1  0.525528  0.474472  0.250000  1
  Cs  Cs5  1  0.474472  0.525528  0.750000  1
  Li  Li6  1  0.000000  0.000000  0.000000  1
  Li  Li7  1  0.000000  0.000000  0.500000  1
  Tl  Tl8  1  0.165166  0.330331  0.050301  1
  Tl  Tl9  1  0.834834  0.669669  0.949699  1
  Tl  Tl10  1  0.669669  0.834834  0.050301  1
  Tl  Tl11  1  0.834834  0.669669  0.550301  1
  Tl  Tl12  1  0.330331  0.165166  0.949699  1
  Tl  Tl13  1  0.165166  0.330331  0.449699  1
  Tl  Tl14  1  0.165166  0.834834  0.050301  1
  Tl  Tl15  1  0.330331  0.165166  0.550301  1
  Tl  Tl16  1  0.834834  0.165166  0.949699  1
  Tl  Tl17  1  0.669669  0.834834  0.449699  1
  Tl  Tl18  1  0.834834  0.165166  0.550301  1
  Tl  Tl19  1  0.165166  0.834834  0.449699  1
  Tl  Tl20  1  0.900041  0.800082  0.250000  1
  Tl  Tl21  1  0.099959  0.199918  0.750000  1
  Tl  Tl22  1  0.199918  0.099959  0.250000  1
  Tl  Tl23  1  0.800082  0.900041  0.750000  1
  Tl  Tl24  1  0.900041  0.099959  0.250000  1
  Tl  Tl25  1  0.099959  0.900041  0.750000  1
  Tl  Tl26  1  0.333333  0.666667  0.097978  1
  Tl  Tl27  1  0.666667  0.333333  0.902022  1
  Tl  Tl28  1  0.666667  0.333333  0.597978  1
  Tl  Tl29  1  0.333333  0.666667  0.402022  1
