# generated using pymatgen
data_Rb8ScNb2SnBr24
_symmetry_space_group_name_H-M   'P 1'
_cell_length_a   13.24794504
_cell_length_b   13.24812999
_cell_length_c   13.24622000
_cell_angle_alpha   131.64531866
_cell_angle_beta   131.54816044
_cell_angle_gamma   70.87771990
_symmetry_Int_Tables_number   1
_chemical_formula_structural   Rb8ScNb2SnBr24
_chemical_formula_sum   'Rb8 Sc1 Nb2 Sn1 Br24'
_cell_volume   1273.29907192
_cell_formula_units_Z   1
loop_
 _symmetry_equiv_pos_site_id
 _symmetry_equiv_pos_as_xyz
  1  'x, y, z'
loop_
 _atom_site_type_symbol
 _atom_site_label
 _atom_site_symmetry_multiplicity
 _atom_site_fract_x
 _atom_site_fract_y
 _atom_site_fract_z
 _atom_site_occupancy
  Rb  Rb0  1  0.365273  0.347425  0.469011  1
  Rb  Rb1  1  0.103503  0.634240  0.981486  1
  Rb  Rb2  1  0.878355  0.896355  0.531051  1
  Rb  Rb3  1  0.102946  0.122689  0.470477  1
  Rb  Rb4  1  0.367787  0.896669  0.019488  1
  Rb  Rb5  1  0.652325  0.632439  0.529480  1
  Rb  Rb6  1  0.652645  0.121896  0.018323  1
  Rb  Rb7  1  0.877206  0.348367  0.980567  1
  Sc  Sc8  1  0.000151  0.000086  0.000143  1
  Nb  Nb9  1  0.249870  0.749865  0.499906  1
  Nb  Nb10  1  0.500113  0.500081  0.000004  1
  Sn  Sn11  1  0.749938  0.249945  0.499994  1
  Br  Br12  1  0.011996  0.767584  0.283454  1
  Br  Br13  1  0.015583  0.247607  0.258363  1
  Br  Br14  1  0.271149  0.988270  0.755777  1
  Br  Br15  1  0.995851  0.241527  0.732714  1
  Br  Br16  1  0.131186  0.631146  0.499821  1
  Br  Br17  1  0.265726  0.521978  0.784672  1
  Br  Br18  1  0.484209  0.729026  0.716950  1
  Br  Br19  1  0.508719  0.263017  0.267112  1
  Br  Br20  1  0.477735  0.262233  0.742908  1
  Br  Br21  1  0.619254  0.619337  0.000142  1
  Br  Br22  1  0.519321  0.734836  0.257070  1
  Br  Br23  1  0.124005  0.123952  0.000081  1
  Br  Br24  1  0.876158  0.876163  0.999965  1
  Br  Br25  1  0.989209  0.757289  0.741682  1
  Br  Br26  1  0.752850  0.010778  0.768364  1
  Br  Br27  1  0.242608  0.984496  0.231836  1
  Br  Br28  1  0.737367  0.481076  0.215323  1
  Br  Br29  1  0.232487  0.515338  0.244161  1
  Br  Br30  1  0.368748  0.868656  0.500019  1
  Br  Br31  1  0.872888  0.372881  0.499952  1
  Br  Br32  1  0.380789  0.380810  0.999918  1
  Br  Br33  1  0.626882  0.126877  0.499903  1
  Br  Br34  1  0.758362  0.491500  0.754701  1
  Br  Br35  1  0.736804  0.003563  0.245180  1
