# generated using pymatgen
data_YbPr(HoS2)2
_symmetry_space_group_name_H-M   'P 1'
_cell_length_a   13.31996959
_cell_length_b   13.31996954
_cell_length_c   13.31997100
_cell_angle_alpha   17.13491165
_cell_angle_beta   17.13491237
_cell_angle_gamma   17.13491198
_symmetry_Int_Tables_number   1
_chemical_formula_structural   YbPr(HoS2)2
_chemical_formula_sum   'Yb1 Pr1 Ho2 S4'
_cell_volume   178.97692529
_cell_formula_units_Z   1
loop_
 _symmetry_equiv_pos_site_id
 _symmetry_equiv_pos_as_xyz
  1  'x, y, z'
loop_
 _atom_site_type_symbol
 _atom_site_label
 _atom_site_symmetry_multiplicity
 _atom_site_fract_x
 _atom_site_fract_y
 _atom_site_fract_z
 _atom_site_occupancy
  Yb  Yb0  1  0.500000  0.500000  0.500000  1
  Pr  Pr1  1  0.000000  0.000000  0.000000  1
  Ho  Ho2  1  0.249251  0.249251  0.249251  1
  Ho  Ho3  1  0.750749  0.750749  0.750749  1
  S  S4  1  0.379745  0.379745  0.379745  1
  S  S5  1  0.124894  0.124894  0.124894  1
  S  S6  1  0.620255  0.620255  0.620255  1
  S  S7  1  0.875106  0.875106  0.875106  1
