# generated using pymatgen
data_Nb6TeAs2Se5
_symmetry_space_group_name_H-M   'P 1'
_cell_length_a   10.05425240
_cell_length_b   10.26044299
_cell_length_c   3.53018200
_cell_angle_alpha   90.00000000
_cell_angle_beta   90.00000000
_cell_angle_gamma   120.05352331
_symmetry_Int_Tables_number   1
_chemical_formula_structural   Nb6TeAs2Se5
_chemical_formula_sum   'Nb6 Te1 As2 Se5'
_cell_volume   315.21664291
_cell_formula_units_Z   1
loop_
 _symmetry_equiv_pos_site_id
 _symmetry_equiv_pos_as_xyz
  1  'x, y, z'
loop_
 _atom_site_type_symbol
 _atom_site_label
 _atom_site_symmetry_multiplicity
 _atom_site_fract_x
 _atom_site_fract_y
 _atom_site_fract_z
 _atom_site_occupancy
  Nb  Nb0  1  0.625016  0.118304  0.750000  1
  Nb  Nb1  1  0.499217  0.383269  0.750000  1
  Nb  Nb2  1  0.374164  0.873162  0.250000  1
  Nb  Nb3  1  0.879546  0.502876  0.750000  1
  Nb  Nb4  1  0.511834  0.628639  0.250000  1
  Nb  Nb5  1  0.119432  0.492481  0.250000  1
  Te  Te6  1  0.318392  0.052494  0.750000  1
  As  As7  1  0.335685  0.665187  0.750000  1
  As  As8  1  0.664424  0.330621  0.250000  1
  Se  Se9  1  0.721038  0.662272  0.750000  1
  Se  Se10  1  0.290482  0.349179  0.250000  1
  Se  Se11  1  0.661839  0.946853  0.250000  1
  Se  Se12  1  0.944309  0.286925  0.750000  1
  Se  Se13  1  0.054622  0.707737  0.250000  1
