# generated using pymatgen
data_Tb2DyTm5Pt4
_symmetry_space_group_name_H-M   'P 1'
_cell_length_a   4.74179700
_cell_length_b   7.09432606
_cell_length_c   8.70971700
_cell_angle_alpha   89.96682566
_cell_angle_beta   90.00000000
_cell_angle_gamma   90.00000000
_symmetry_Int_Tables_number   1
_chemical_formula_structural   Tb2DyTm5Pt4
_chemical_formula_sum   'Tb2 Dy1 Tm5 Pt4'
_cell_volume   292.99355963
_cell_formula_units_Z   1
loop_
 _symmetry_equiv_pos_site_id
 _symmetry_equiv_pos_as_xyz
  1  'x, y, z'
loop_
 _atom_site_type_symbol
 _atom_site_label
 _atom_site_symmetry_multiplicity
 _atom_site_fract_x
 _atom_site_fract_y
 _atom_site_fract_z
 _atom_site_occupancy
  Tb  Tb0  1  0.250000  0.510355  0.170865  1
  Tb  Tb1  1  0.750000  0.989365  0.669833  1
  Dy  Dy2  1  0.750000  0.489463  0.829828  1
  Tm  Tm3  1  0.250000  0.143891  0.921687  1
  Tm  Tm4  1  0.250000  0.644261  0.578594  1
  Tm  Tm5  1  0.750000  0.856462  0.080179  1
  Tm  Tm6  1  0.750000  0.355186  0.421052  1
  Tm  Tm7  1  0.250000  0.010658  0.331311  1
  Pt  Pt8  1  0.250000  0.243209  0.591501  1
  Pt  Pt9  1  0.250000  0.743345  0.906278  1
  Pt  Pt10  1  0.750000  0.757859  0.405668  1
  Pt  Pt11  1  0.750000  0.255946  0.093203  1
