# generated using pymatgen
data_Ta4AsPRu10
_symmetry_space_group_name_H-M   'P 1'
_cell_length_a   4.13108800
_cell_length_b   5.43904036
_cell_length_c   10.54280700
_cell_angle_alpha   90.02088926
_cell_angle_beta   90.00000000
_cell_angle_gamma   90.00000000
_symmetry_Int_Tables_number   1
_chemical_formula_structural   Ta4AsPRu10
_chemical_formula_sum   'Ta4 As1 P1 Ru10'
_cell_volume   236.88794222
_cell_formula_units_Z   1
loop_
 _symmetry_equiv_pos_site_id
 _symmetry_equiv_pos_as_xyz
  1  'x, y, z'
loop_
 _atom_site_type_symbol
 _atom_site_label
 _atom_site_symmetry_multiplicity
 _atom_site_fract_x
 _atom_site_fract_y
 _atom_site_fract_z
 _atom_site_occupancy
  Ta  Ta0  1  0.500000  0.844671  0.357342  1
  Ta  Ta1  1  0.500000  0.155329  0.642658  1
  Ta  Ta2  1  0.500000  0.344411  0.144864  1
  Ta  Ta3  1  0.500000  0.655589  0.855136  1
  As  As4  1  0.000000  0.000000  0.000000  1
  P  P5  1  0.000000  0.500000  0.500000  1
  Ru  Ru6  1  0.000000  0.500000  0.000000  1
  Ru  Ru7  1  0.000000  0.000000  0.500000  1
  Ru  Ru8  1  0.000000  0.592056  0.260098  1
  Ru  Ru9  1  0.000000  0.407944  0.739902  1
  Ru  Ru10  1  0.000000  0.093706  0.245973  1
  Ru  Ru11  1  0.000000  0.906294  0.754027  1
  Ru  Ru12  1  0.500000  0.824783  0.106357  1
  Ru  Ru13  1  0.500000  0.175217  0.893643  1
  Ru  Ru14  1  0.500000  0.329933  0.397768  1
  Ru  Ru15  1  0.500000  0.670067  0.602232  1
