# generated using pymatgen
data_Tb3Tm2Nb3(Co4P3)4
_symmetry_space_group_name_H-M   'P 1'
_cell_length_a   12.16278801
_cell_length_b   12.16278814
_cell_length_c   3.68778000
_cell_angle_alpha   90.00000000
_cell_angle_beta   90.00000000
_cell_angle_gamma   120.00493217
_symmetry_Int_Tables_number   1
_chemical_formula_structural   Tb3Tm2Nb3(Co4P3)4
_chemical_formula_sum   'Tb3 Tm2 Nb3 Co16 P12'
_cell_volume   472.43311236
_cell_formula_units_Z   1
loop_
 _symmetry_equiv_pos_site_id
 _symmetry_equiv_pos_as_xyz
  1  'x, y, z'
loop_
 _atom_site_type_symbol
 _atom_site_label
 _atom_site_symmetry_multiplicity
 _atom_site_fract_x
 _atom_site_fract_y
 _atom_site_fract_z
 _atom_site_occupancy
  Tb  Tb0  1  0.183393  0.183393  0.500000  1
  Tb  Tb1  1  0.333538  0.666548  0.000000  1
  Tb  Tb2  1  0.666548  0.333538  0.000000  1
  Tm  Tm3  1  0.816179  0.999758  0.500000  1
  Tm  Tm4  1  0.999758  0.816179  0.500000  1
  Nb  Nb5  1  0.444384  0.999613  0.000000  1
  Nb  Nb6  1  0.999613  0.444384  0.000000  1
  Nb  Nb7  1  0.556329  0.556329  0.000000  1
  Co  Co8  1  0.277896  0.998901  0.500000  1
  Co  Co9  1  0.998901  0.277896  0.500000  1
  Co  Co10  1  0.722481  0.722481  0.500000  1
  Co  Co11  1  0.627935  0.804701  0.000000  1
  Co  Co12  1  0.195532  0.822725  0.000000  1
  Co  Co13  1  0.176442  0.373301  0.000000  1
  Co  Co14  1  0.373301  0.176442  0.000000  1
  Co  Co15  1  0.804701  0.627935  0.000000  1
  Co  Co16  1  0.822725  0.195532  0.000000  1
  Co  Co17  1  0.520558  0.873708  0.500000  1
  Co  Co18  1  0.126387  0.646477  0.500000  1
  Co  Co19  1  0.353882  0.480434  0.500000  1
  Co  Co20  1  0.480434  0.353882  0.500000  1
  Co  Co21  1  0.873708  0.520558  0.500000  1
  Co  Co22  1  0.646477  0.126387  0.500000  1
  Co  Co23  1  0.999129  0.999129  0.000000  1
  P  P24  1  0.176878  0.998429  0.000000  1
  P  P25  1  0.998429  0.176878  0.000000  1
  P  P26  1  0.822794  0.822794  0.000000  1
  P  P27  1  0.521671  0.689163  0.500000  1
  P  P28  1  0.311340  0.832089  0.500000  1
  P  P29  1  0.167289  0.478444  0.500000  1
  P  P30  1  0.478444  0.167289  0.500000  1
  P  P31  1  0.689163  0.521671  0.500000  1
  P  P32  1  0.832089  0.311340  0.500000  1
  P  P33  1  0.644851  0.000014  0.000000  1
  P  P34  1  0.000014  0.644851  0.000000  1
  P  P35  1  0.356811  0.356811  0.000000  1
