# generated using pymatgen
data_Ti20Si12B
_symmetry_space_group_name_H-M   'P 1'
_cell_length_a   5.16498784
_cell_length_b   7.48062199
_cell_length_c   12.94998900
_cell_angle_alpha   89.99997584
_cell_angle_beta   90.00000443
_cell_angle_gamma   89.98142819
_symmetry_Int_Tables_number   1
_chemical_formula_structural   Ti20Si12B
_chemical_formula_sum   'Ti20 Si12 B1'
_cell_volume   500.35286395
_cell_formula_units_Z   1
loop_
 _symmetry_equiv_pos_site_id
 _symmetry_equiv_pos_as_xyz
  1  'x, y, z'
loop_
 _atom_site_type_symbol
 _atom_site_label
 _atom_site_symmetry_multiplicity
 _atom_site_fract_x
 _atom_site_fract_y
 _atom_site_fract_z
 _atom_site_occupancy
  Ti  Ti0  1  0.500002  0.000011  0.334327  1
  Ti  Ti1  1  0.500001  0.499995  0.832771  1
  Ti  Ti2  1  0.500001  0.499993  0.167254  1
  Ti  Ti3  1  0.500003  0.000009  0.665629  1
  Ti  Ti4  1  0.999998  0.499996  0.165825  1
  Ti  Ti5  1  0.999997  0.000008  0.666981  1
  Ti  Ti6  1  0.999997  0.000010  0.332979  1
  Ti  Ti7  1  0.999999  0.499996  0.834188  1
  Ti  Ti8  1  0.756029  0.247767  0.000039  1
  Ti  Ti9  1  0.749999  0.751363  0.499965  1
  Ti  Ti10  1  0.749649  0.375913  0.375586  1
  Ti  Ti11  1  0.755959  0.875781  0.875640  1
  Ti  Ti12  1  0.755953  0.875764  0.124410  1
  Ti  Ti13  1  0.749658  0.375913  0.624372  1
  Ti  Ti14  1  0.243969  0.752235  0.000039  1
  Ti  Ti15  1  0.249997  0.248632  0.499966  1
  Ti  Ti16  1  0.244048  0.124235  0.124411  1
  Ti  Ti17  1  0.250343  0.624078  0.624376  1
  Ti  Ti18  1  0.250352  0.624073  0.375586  1
  Ti  Ti19  1  0.244041  0.124217  0.875641  1
  Si  Si20  1  0.748256  0.606122  0.000034  1
  Si  Si21  1  0.752089  0.109311  0.499973  1
  Si  Si22  1  0.750901  0.197430  0.197848  1
  Si  Si23  1  0.749986  0.696165  0.696100  1
  Si  Si24  1  0.750002  0.696176  0.303862  1
  Si  Si25  1  0.750905  0.197415  0.802165  1
  Si  Si26  1  0.251739  0.393878  0.000034  1
  Si  Si27  1  0.247909  0.890705  0.499973  1
  Si  Si28  1  0.249997  0.303818  0.303865  1
  Si  Si29  1  0.249103  0.802586  0.802168  1
  Si  Si30  1  0.249107  0.802571  0.197846  1
  Si  Si31  1  0.250012  0.303830  0.696097  1
  B  B32  1  0.999999  0.000003  0.000049  1
