# generated using pymatgen
data_Yb5YEr2(Si3Pd)4
_symmetry_space_group_name_H-M   'P 1'
_cell_length_a   8.23226800
_cell_length_b   8.23226858
_cell_length_c   8.06544100
_cell_angle_alpha   90.00000000
_cell_angle_beta   90.00000000
_cell_angle_gamma   120.22073950
_symmetry_Int_Tables_number   1
_chemical_formula_structural   Yb5YEr2(Si3Pd)4
_chemical_formula_sum   'Yb5 Y1 Er2 Si12 Pd4'
_cell_volume   472.31035696
_cell_formula_units_Z   1
loop_
 _symmetry_equiv_pos_site_id
 _symmetry_equiv_pos_as_xyz
  1  'x, y, z'
loop_
 _atom_site_type_symbol
 _atom_site_label
 _atom_site_symmetry_multiplicity
 _atom_site_fract_x
 _atom_site_fract_y
 _atom_site_fract_z
 _atom_site_occupancy
  Yb  Yb0  1  0.504137  0.007799  0.250000  1
  Yb  Yb1  1  0.495320  0.991693  0.750000  1
  Yb  Yb2  1  0.992201  0.495863  0.250000  1
  Yb  Yb3  1  0.008307  0.504680  0.750000  1
  Yb  Yb4  1  0.504048  0.495952  0.250000  1
  Y  Y5  1  0.999787  0.000213  0.250000  1
  Er  Er6  1  0.495926  0.504074  0.750000  1
  Er  Er7  1  0.000125  0.999875  0.750000  1
  Si  Si8  1  0.164890  0.328239  0.998501  1
  Si  Si9  1  0.835368  0.671887  0.995976  1
  Si  Si10  1  0.671761  0.835110  0.998501  1
  Si  Si11  1  0.835368  0.671887  0.504024  1
  Si  Si12  1  0.328113  0.164632  0.995976  1
  Si  Si13  1  0.164890  0.328239  0.501499  1
  Si  Si14  1  0.164074  0.835926  0.000246  1
  Si  Si15  1  0.328113  0.164632  0.504024  1
  Si  Si16  1  0.835873  0.164127  0.995735  1
  Si  Si17  1  0.671761  0.835110  0.501499  1
  Si  Si18  1  0.835873  0.164127  0.504265  1
  Si  Si19  1  0.164074  0.835926  0.499754  1
  Pd  Pd20  1  0.333710  0.666290  0.008833  1
  Pd  Pd21  1  0.666285  0.333715  0.984700  1
  Pd  Pd22  1  0.666285  0.333715  0.515300  1
  Pd  Pd23  1  0.333710  0.666290  0.491167  1
