# generated using pymatgen
data_Nb12Al7AuCN3
_symmetry_space_group_name_H-M   'P 1'
_cell_length_a   7.10313370
_cell_length_b   7.10313345
_cell_length_c   7.10313381
_cell_angle_alpha   89.88935018
_cell_angle_beta   90.11065163
_cell_angle_gamma   90.11064961
_symmetry_Int_Tables_number   1
_chemical_formula_structural   Nb12Al7AuCN3
_chemical_formula_sum   'Nb12 Al7 Au1 C1 N3'
_cell_volume   358.38310945
_cell_formula_units_Z   1
loop_
 _symmetry_equiv_pos_site_id
 _symmetry_equiv_pos_as_xyz
  1  'x, y, z'
loop_
 _atom_site_type_symbol
 _atom_site_label
 _atom_site_symmetry_multiplicity
 _atom_site_fract_x
 _atom_site_fract_y
 _atom_site_fract_z
 _atom_site_occupancy
  Nb  Nb0  1  0.790102  0.956490  0.373653  1
  Nb  Nb1  1  0.707690  0.044455  0.878604  1
  Nb  Nb2  1  0.206100  0.452539  0.119308  1
  Nb  Nb3  1  0.295678  0.541944  0.631730  1
  Nb  Nb4  1  0.955545  0.378604  0.792310  1
  Nb  Nb5  1  0.043510  0.873653  0.709898  1
  Nb  Nb6  1  0.458056  0.131730  0.204322  1
  Nb  Nb7  1  0.547461  0.619308  0.293900  1
  Nb  Nb8  1  0.380692  0.793900  0.952539  1
  Nb  Nb9  1  0.868270  0.704322  0.041944  1
  Nb  Nb10  1  0.126347  0.209898  0.456490  1
  Nb  Nb11  1  0.621396  0.292310  0.544455  1
  Al  Al12  1  0.321658  0.176204  0.821231  1
  Al  Al13  1  0.823796  0.321231  0.178342  1
  Al  Al14  1  0.678769  0.678342  0.676204  1
  Al  Al15  1  0.571204  0.428796  0.928796  1
  Al  Al16  1  0.425079  0.927543  0.567662  1
  Al  Al17  1  0.932338  0.574921  0.427543  1
  Al  Al18  1  0.072457  0.067662  0.074921  1
  Au  Au19  1  0.182673  0.817327  0.317327  1
  C  C20  1  0.875240  0.124760  0.624760  1
  N  N21  1  0.620210  0.875288  0.128983  1
  N  N22  1  0.124712  0.628983  0.879790  1
  N  N23  1  0.371017  0.379790  0.375288  1
