# generated using pymatgen
data_Dy12MgIn(NiOs)2
_symmetry_space_group_name_H-M   'P 1'
_cell_length_a   8.44242048
_cell_length_b   8.44242178
_cell_length_c   8.44242170
_cell_angle_alpha   113.27814975
_cell_angle_beta   110.49106629
_cell_angle_gamma   104.75838216
_symmetry_Int_Tables_number   1
_chemical_formula_structural   Dy12MgIn(NiOs)2
_chemical_formula_sum   'Dy12 Mg1 In1 Ni2 Os2'
_cell_volume   460.58816086
_cell_formula_units_Z   1
loop_
 _symmetry_equiv_pos_site_id
 _symmetry_equiv_pos_as_xyz
  1  'x, y, z'
loop_
 _atom_site_type_symbol
 _atom_site_label
 _atom_site_symmetry_multiplicity
 _atom_site_fract_x
 _atom_site_fract_y
 _atom_site_fract_z
 _atom_site_occupancy
  Dy  Dy0  1  0.435793  0.239572  0.196223  1
  Dy  Dy1  1  0.564207  0.760428  0.803777  1
  Dy  Dy2  1  0.043349  0.239572  0.803777  1
  Dy  Dy3  1  0.956651  0.760428  0.196223  1
  Dy  Dy4  1  0.185623  0.282522  0.468145  1
  Dy  Dy5  1  0.814377  0.717478  0.531855  1
  Dy  Dy6  1  0.185623  0.717478  0.903100  1
  Dy  Dy7  1  0.814377  0.282522  0.096900  1
  Dy  Dy8  1  0.326727  0.640967  0.314240  1
  Dy  Dy9  1  0.673273  0.359033  0.685760  1
  Dy  Dy10  1  0.326727  0.012487  0.685760  1
  Dy  Dy11  1  0.673273  0.987513  0.314240  1
  Mg  Mg12  1  0.000000  0.000000  0.000000  1
  In  In13  1  0.500000  0.500000  0.000000  1
  Ni  Ni14  1  0.115137  0.615137  0.500000  1
  Ni  Ni15  1  0.884863  0.384863  0.500000  1
  Os  Os16  1  0.325640  0.000000  0.325640  1
  Os  Os17  1  0.674360  0.000000  0.674360  1
