# generated using pymatgen
data_CeHo8Er(Al2Ru3)2
_symmetry_space_group_name_H-M   'P 1'
_cell_length_a   8.38708944
_cell_length_b   8.38453234
_cell_length_c   8.27119180
_cell_angle_alpha   110.08499334
_cell_angle_beta   109.24122263
_cell_angle_gamma   109.65179588
_symmetry_Int_Tables_number   1
_chemical_formula_structural   CeHo8Er(Al2Ru3)2
_chemical_formula_sum   'Ce1 Ho8 Er1 Al4 Ru6'
_cell_volume   444.58685710
_cell_formula_units_Z   1
loop_
 _symmetry_equiv_pos_site_id
 _symmetry_equiv_pos_as_xyz
  1  'x, y, z'
loop_
 _atom_site_type_symbol
 _atom_site_label
 _atom_site_symmetry_multiplicity
 _atom_site_fract_x
 _atom_site_fract_y
 _atom_site_fract_z
 _atom_site_occupancy
  Ce  Ce0  1  0.192965  0.943088  0.249990  1
  Ho  Ho1  1  0.781860  0.788472  0.785642  1
  Ho  Ho2  1  0.318144  0.568153  0.749890  1
  Ho  Ho3  1  0.754249  0.321183  0.569984  1
  Ho  Ho4  1  0.570096  0.748041  0.317831  1
  Ho  Ho5  1  0.714683  0.499857  0.997356  1
  Ho  Ho6  1  0.002708  0.717110  0.502500  1
  Ho  Ho7  1  0.502978  0.996498  0.714746  1
  Ho  Ho8  1  0.251098  0.184125  0.929953  1
  Er  Er9  1  0.929849  0.252263  0.181958  1
  Al  Al10  1  0.413660  0.414148  0.408502  1
  Al  Al11  1  0.091869  0.497127  0.004978  1
  Al  Al12  1  0.992337  0.087048  0.494959  1
  Al  Al13  1  0.505886  0.005398  0.091506  1
  Ru  Ru14  1  0.875592  0.125591  0.750205  1
  Ru  Ru15  1  0.739163  0.870765  0.117797  1
  Ru  Ru16  1  0.128846  0.762314  0.906758  1
  Ru  Ru17  1  0.252602  0.620991  0.382150  1
  Ru  Ru18  1  0.355536  0.222072  0.593274  1
  Ru  Ru19  1  0.625879  0.375756  0.250024  1
