# generated using pymatgen
data_Y16Cd4TcPd3
_symmetry_space_group_name_H-M   'P 1'
_cell_length_a   9.76770720
_cell_length_b   9.76770673
_cell_length_c   9.76770625
_cell_angle_alpha   59.29697094
_cell_angle_beta   59.29696926
_cell_angle_gamma   59.29697177
_symmetry_Int_Tables_number   1
_chemical_formula_structural   Y16Cd4TcPd3
_chemical_formula_sum   'Y16 Cd4 Tc1 Pd3'
_cell_volume   648.41680168
_cell_formula_units_Z   1
loop_
 _symmetry_equiv_pos_site_id
 _symmetry_equiv_pos_as_xyz
  1  'x, y, z'
loop_
 _atom_site_type_symbol
 _atom_site_label
 _atom_site_symmetry_multiplicity
 _atom_site_fract_x
 _atom_site_fract_y
 _atom_site_fract_z
 _atom_site_occupancy
  Y  Y0  1  0.353257  0.353257  0.353257  1
  Y  Y1  1  0.352021  0.352021  0.943201  1
  Y  Y2  1  0.352021  0.943201  0.352021  1
  Y  Y3  1  0.943201  0.352021  0.352021  1
  Y  Y4  1  0.816291  0.187860  0.187860  1
  Y  Y5  1  0.188834  0.810235  0.810235  1
  Y  Y6  1  0.187860  0.816291  0.187860  1
  Y  Y7  1  0.810235  0.188834  0.810235  1
  Y  Y8  1  0.187860  0.187860  0.816291  1
  Y  Y9  1  0.810235  0.810235  0.188834  1
  Y  Y10  1  0.935179  0.565504  0.565504  1
  Y  Y11  1  0.557356  0.937391  0.937391  1
  Y  Y12  1  0.565504  0.935179  0.565504  1
  Y  Y13  1  0.937391  0.557356  0.937391  1
  Y  Y14  1  0.565504  0.565504  0.935179  1
  Y  Y15  1  0.937391  0.937391  0.557356  1
  Cd  Cd16  1  0.580042  0.580042  0.580042  1
  Cd  Cd17  1  0.581064  0.581064  0.254061  1
  Cd  Cd18  1  0.581064  0.254061  0.581064  1
  Cd  Cd19  1  0.254061  0.581064  0.581064  1
  Tc  Tc20  1  0.144889  0.144889  0.144889  1
  Pd  Pd21  1  0.144961  0.144961  0.568818  1
  Pd  Pd22  1  0.144961  0.568818  0.144961  1
  Pd  Pd23  1  0.568818  0.144961  0.144961  1
