# generated using pymatgen
data_ErTm2Ga(SiRh3)2
_symmetry_space_group_name_H-M   'P 1'
_cell_length_a   5.55835100
_cell_length_b   5.55834924
_cell_length_c   15.19903200
_cell_angle_alpha   90.00000000
_cell_angle_beta   90.00000000
_cell_angle_gamma   119.99999264
_symmetry_Int_Tables_number   1
_chemical_formula_structural   ErTm2Ga(SiRh3)2
_chemical_formula_sum   'Er2 Tm4 Ga2 Si4 Rh12'
_cell_volume   406.66649445
_cell_formula_units_Z   2
loop_
 _symmetry_equiv_pos_site_id
 _symmetry_equiv_pos_as_xyz
  1  'x, y, z'
loop_
 _atom_site_type_symbol
 _atom_site_label
 _atom_site_symmetry_multiplicity
 _atom_site_fract_x
 _atom_site_fract_y
 _atom_site_fract_z
 _atom_site_occupancy
  Er  Er0  1  0.333333  0.666667  0.750000  1
  Er  Er1  1  0.666667  0.333333  0.250000  1
  Tm  Tm2  1  0.333333  0.666667  0.537695  1
  Tm  Tm3  1  0.666667  0.333333  0.462305  1
  Tm  Tm4  1  0.666667  0.333333  0.037695  1
  Tm  Tm5  1  0.333333  0.666667  0.962305  1
  Ga  Ga6  1  0.000000  0.000000  0.000000  1
  Ga  Ga7  1  0.000000  0.000000  0.500000  1
  Si  Si8  1  0.000000  0.000000  0.250000  1
  Si  Si9  1  0.000000  0.000000  0.750000  1
  Si  Si10  1  0.333333  0.666667  0.250000  1
  Si  Si11  1  0.666667  0.333333  0.750000  1
  Rh  Rh12  1  0.167857  0.335714  0.133017  1
  Rh  Rh13  1  0.832143  0.664286  0.866983  1
  Rh  Rh14  1  0.664286  0.832143  0.133017  1
  Rh  Rh15  1  0.832143  0.664286  0.633017  1
  Rh  Rh16  1  0.335714  0.167857  0.866983  1
  Rh  Rh17  1  0.167857  0.335714  0.366983  1
  Rh  Rh18  1  0.167857  0.832143  0.133017  1
  Rh  Rh19  1  0.335714  0.167857  0.633017  1
  Rh  Rh20  1  0.832143  0.167857  0.866983  1
  Rh  Rh21  1  0.664286  0.832143  0.366983  1
  Rh  Rh22  1  0.832143  0.167857  0.633017  1
  Rh  Rh23  1  0.167857  0.832143  0.366983  1
