# generated using pymatgen
data_Tb2FeCo16
_symmetry_space_group_name_H-M   'P 1'
_cell_length_a   6.28189844
_cell_length_b   6.28189778
_cell_length_c   6.28189900
_cell_angle_alpha   96.92984181
_cell_angle_beta   83.07015148
_cell_angle_gamma   96.92983317
_symmetry_Int_Tables_number   1
_chemical_formula_structural   Tb2FeCo16
_chemical_formula_sum   'Tb2 Fe1 Co16'
_cell_volume   242.86912765
_cell_formula_units_Z   1
loop_
 _symmetry_equiv_pos_site_id
 _symmetry_equiv_pos_as_xyz
  1  'x, y, z'
loop_
 _atom_site_type_symbol
 _atom_site_label
 _atom_site_symmetry_multiplicity
 _atom_site_fract_x
 _atom_site_fract_y
 _atom_site_fract_z
 _atom_site_occupancy
  Tb  Tb0  1  0.345506  0.654493  0.345508  1
  Tb  Tb1  1  0.655612  0.344388  0.655613  1
  Fe  Fe2  1  0.096112  0.903887  0.096114  1
  Co  Co3  1  0.501933  0.000751  0.999249  1
  Co  Co4  1  0.711067  0.711325  0.998957  1
  Co  Co5  1  0.999249  0.498066  0.999249  1
  Co  Co6  1  0.288675  0.288933  0.998957  1
  Co  Co7  1  0.654478  0.345522  0.150075  1
  Co  Co8  1  0.998957  0.288932  0.288674  1
  Co  Co9  1  0.711068  0.001043  0.288675  1
  Co  Co10  1  0.346899  0.150290  0.346898  1
  Co  Co11  1  0.849709  0.653101  0.346900  1
  Co  Co12  1  0.999249  0.000751  0.501934  1
  Co  Co13  1  0.654478  0.849925  0.654477  1
  Co  Co14  1  0.150075  0.345523  0.654478  1
  Co  Co15  1  0.288675  0.001043  0.711067  1
  Co  Co16  1  0.998957  0.711325  0.711067  1
  Co  Co17  1  0.346899  0.653102  0.849709  1
  Co  Co18  1  0.902400  0.097600  0.902401  1
