# generated using pymatgen
data_K3V4Cr3O16
_symmetry_space_group_name_H-M   'P 1'
_cell_length_a   5.13391467
_cell_length_b   7.40290906
_cell_length_c   11.17987603
_cell_angle_alpha   103.54762361
_cell_angle_beta   90.61431190
_cell_angle_gamma   97.44406417
_symmetry_Int_Tables_number   1
_chemical_formula_structural   K3V4Cr3O16
_chemical_formula_sum   'K3 V4 Cr3 O16'
_cell_volume   409.22521374
_cell_formula_units_Z   1
loop_
 _symmetry_equiv_pos_site_id
 _symmetry_equiv_pos_as_xyz
  1  'x, y, z'
loop_
 _atom_site_type_symbol
 _atom_site_label
 _atom_site_symmetry_multiplicity
 _atom_site_fract_x
 _atom_site_fract_y
 _atom_site_fract_z
 _atom_site_occupancy
  K  K0  1  0.935638  0.264484  0.517885  1
  K  K1  1  0.000000  0.000000  0.000000  1
  K  K2  1  0.064362  0.735516  0.482115  1
  V  V3  1  0.491217  0.675876  0.754677  1
  V  V4  1  0.550520  0.869101  0.240960  1
  V  V5  1  0.508783  0.324124  0.245323  1
  V  V6  1  0.449480  0.130899  0.759040  1
  Cr  Cr7  1  0.014390  0.556130  0.138344  1
  Cr  Cr8  1  0.985610  0.443870  0.861656  1
  Cr  Cr9  1  0.500000  0.500000  0.000000  1
  O  O10  1  0.686857  0.601154  0.864496  1
  O  O11  1  0.761214  0.234309  0.738243  1
  O  O12  1  0.313143  0.398846  0.135504  1
  O  O13  1  0.359236  0.343348  0.376899  1
  O  O14  1  0.284991  0.290031  0.870996  1
  O  O15  1  0.640764  0.656652  0.623101  1
  O  O16  1  0.817362  0.455937  0.273768  1
  O  O17  1  0.280883  0.070394  0.625141  1
  O  O18  1  0.715009  0.709969  0.129004  1
  O  O19  1  0.461914  0.923653  0.820174  1
  O  O20  1  0.192324  0.633349  0.996592  1
  O  O21  1  0.719117  0.929606  0.374859  1
  O  O22  1  0.238786  0.765691  0.261757  1
  O  O23  1  0.538086  0.076347  0.179826  1
  O  O24  1  0.807676  0.366651  0.003408  1
  O  O25  1  0.182638  0.544063  0.726232  1
