# generated using pymatgen
data_SmMnAgO5
_symmetry_space_group_name_H-M   'P 1'
_cell_length_a   5.85493100
_cell_length_b   7.76048600
_cell_length_c   8.82289500
_cell_angle_alpha   90.00000000
_cell_angle_beta   90.00000000
_cell_angle_gamma   90.00000000
_symmetry_Int_Tables_number   1
_chemical_formula_structural   SmMnAgO5
_chemical_formula_sum   'Sm4 Mn4 Ag4 O20'
_cell_volume   400.88685113
_cell_formula_units_Z   4
loop_
 _symmetry_equiv_pos_site_id
 _symmetry_equiv_pos_as_xyz
  1  'x, y, z'
loop_
 _atom_site_type_symbol
 _atom_site_label
 _atom_site_symmetry_multiplicity
 _atom_site_fract_x
 _atom_site_fract_y
 _atom_site_fract_z
 _atom_site_occupancy
  Sm  Sm0  1  0.000000  0.351923  0.674671  1
  Sm  Sm1  1  0.000000  0.648077  0.325329  1
  Sm  Sm2  1  0.000000  0.851923  0.825329  1
  Sm  Sm3  1  0.000000  0.148077  0.174671  1
  Mn  Mn4  1  0.257051  0.500000  0.000000  1
  Mn  Mn5  1  0.742949  0.000000  0.500000  1
  Mn  Mn6  1  0.742949  0.500000  0.000000  1
  Mn  Mn7  1  0.257051  0.000000  0.500000  1
  Ag  Ag8  1  0.500000  0.068879  0.843934  1
  Ag  Ag9  1  0.500000  0.931121  0.156066  1
  Ag  Ag10  1  0.500000  0.568879  0.656066  1
  Ag  Ag11  1  0.500000  0.431121  0.343934  1
  O  O12  1  0.231156  0.903186  0.297680  1
  O  O13  1  0.231156  0.096814  0.702320  1
  O  O14  1  0.768844  0.403186  0.202320  1
  O  O15  1  0.768844  0.596814  0.797680  1
  O  O16  1  0.768844  0.096814  0.702320  1
  O  O17  1  0.768844  0.903186  0.297680  1
  O  O18  1  0.231156  0.596814  0.797680  1
  O  O19  1  0.231156  0.403186  0.202320  1
  O  O20  1  0.500000  0.358260  0.939064  1
  O  O21  1  0.500000  0.641740  0.060936  1
  O  O22  1  0.500000  0.858260  0.560936  1
  O  O23  1  0.500000  0.141740  0.439064  1
  O  O24  1  0.252294  0.000000  0.000000  1
  O  O25  1  0.747706  0.500000  0.500000  1
  O  O26  1  0.747706  0.000000  0.000000  1
  O  O27  1  0.252294  0.500000  0.500000  1
  O  O28  1  0.000000  0.158369  0.448147  1
  O  O29  1  0.000000  0.841631  0.551853  1
  O  O30  1  0.000000  0.658369  0.051853  1
  O  O31  1  0.000000  0.341631  0.948147  1
