# generated using pymatgen
data_Ce3Y9Co8(Si2Rh)4
_symmetry_space_group_name_H-M   'P 1'
_cell_length_a   5.61049621
_cell_length_b   7.35689048
_cell_length_c   14.39251114
_cell_angle_alpha   90.37429525
_cell_angle_beta   90.28572907
_cell_angle_gamma   90.10744523
_symmetry_Int_Tables_number   1
_chemical_formula_structural   Ce3Y9Co8(Si2Rh)4
_chemical_formula_sum   'Ce3 Y9 Co8 Si8 Rh4'
_cell_volume   594.04135651
_cell_formula_units_Z   1
loop_
 _symmetry_equiv_pos_site_id
 _symmetry_equiv_pos_as_xyz
  1  'x, y, z'
loop_
 _atom_site_type_symbol
 _atom_site_label
 _atom_site_symmetry_multiplicity
 _atom_site_fract_x
 _atom_site_fract_y
 _atom_site_fract_z
 _atom_site_occupancy
  Ce  Ce0  1  0.657393  0.020829  0.394792  1
  Ce  Ce1  1  0.338912  0.976031  0.894064  1
  Ce  Ce2  1  0.841034  0.522256  0.105029  1
  Y  Y3  1  0.873817  0.840888  0.750065  1
  Y  Y4  1  0.854272  0.520231  0.393964  1
  Y  Y5  1  0.349037  0.978999  0.602732  1
  Y  Y6  1  0.148859  0.477937  0.898419  1
  Y  Y7  1  0.650099  0.020286  0.102500  1
  Y  Y8  1  0.124682  0.156177  0.251070  1
  Y  Y9  1  0.144816  0.478668  0.602922  1
  Y  Y10  1  0.375460  0.656397  0.250366  1
  Y  Y11  1  0.618193  0.344033  0.749412  1
  Co  Co12  1  0.611629  0.346184  0.968986  1
  Co  Co13  1  0.077123  0.161277  0.460614  1
  Co  Co14  1  0.101591  0.155151  0.032700  1
  Co  Co15  1  0.923446  0.840635  0.958940  1
  Co  Co16  1  0.870722  0.848064  0.529265  1
  Co  Co17  1  0.604816  0.343880  0.537921  1
  Co  Co18  1  0.424116  0.665075  0.461168  1
  Co  Co19  1  0.418149  0.657435  0.041181  1
  Si  Si20  1  0.644061  0.632908  0.905856  1
  Si  Si21  1  0.857576  0.131357  0.597409  1
  Si  Si22  1  0.146578  0.869015  0.094768  1
  Si  Si23  1  0.144335  0.862995  0.408196  1
  Si  Si24  1  0.636664  0.632341  0.597700  1
  Si  Si25  1  0.853761  0.133882  0.903457  1
  Si  Si26  1  0.355528  0.362785  0.095737  1
  Si  Si27  1  0.357494  0.370315  0.409064  1
  Rh  Rh28  1  0.403018  0.696147  0.753409  1
  Rh  Rh29  1  0.590651  0.300909  0.253035  1
  Rh  Rh30  1  0.910429  0.802661  0.245861  1
  Rh  Rh31  1  0.091739  0.194255  0.749399  1
