# generated using pymatgen
data_Dy3Zr4UF28
_symmetry_space_group_name_H-M   'P 1'
_cell_length_a   5.78745746
_cell_length_b   9.21594239
_cell_length_c   12.36326522
_cell_angle_alpha   62.15622185
_cell_angle_beta   89.95622026
_cell_angle_gamma   89.98992538
_symmetry_Int_Tables_number   1
_chemical_formula_structural   Dy3Zr4UF28
_chemical_formula_sum   'Dy3 Zr4 U1 F28'
_cell_volume   583.07321338
_cell_formula_units_Z   1
loop_
 _symmetry_equiv_pos_site_id
 _symmetry_equiv_pos_as_xyz
  1  'x, y, z'
loop_
 _atom_site_type_symbol
 _atom_site_label
 _atom_site_symmetry_multiplicity
 _atom_site_fract_x
 _atom_site_fract_y
 _atom_site_fract_z
 _atom_site_occupancy
  Dy  Dy0  1  0.743953  0.819150  0.265341  1
  Dy  Dy1  1  0.243572  0.185004  0.233781  1
  Dy  Dy2  1  0.257204  0.191697  0.733826  1
  Zr  Zr3  1  0.743486  0.280419  0.451309  1
  Zr  Zr4  1  0.245032  0.724562  0.050663  1
  Zr  Zr5  1  0.255022  0.725687  0.539071  1
  Zr  Zr6  1  0.755242  0.270484  0.957590  1
  U  U7  1  0.758305  0.818647  0.765061  1
  F  F8  1  0.460627  0.710835  0.925378  1
  F  F9  1  0.964632  0.286709  0.577573  1
  F  F10  1  0.531408  0.284803  0.079985  1
  F  F11  1  0.030264  0.711316  0.417462  1
  F  F12  1  0.457358  0.280919  0.550414  1
  F  F13  1  0.955810  0.714672  0.957670  1
  F  F14  1  0.547548  0.719547  0.446775  1
  F  F15  1  0.043977  0.277831  0.052474  1
  F  F16  1  0.764715  0.518771  0.859719  1
  F  F17  1  0.265446  0.474540  0.638720  1
  F  F18  1  0.235226  0.473544  0.143754  1
  F  F19  1  0.732975  0.528527  0.356764  1
  F  F20  1  0.760117  0.020929  0.060292  1
  F  F21  1  0.260407  0.975340  0.439465  1
  F  F22  1  0.238366  0.972758  0.942126  1
  F  F23  1  0.738038  0.029816  0.553792  1
  F  F24  1  0.984659  0.731436  0.643478  1
  F  F25  1  0.485839  0.263904  0.852003  1
  F  F26  1  0.012263  0.265078  0.349585  1
  F  F27  1  0.516318  0.735393  0.152570  1
  F  F28  1  0.031438  0.746983  0.175189  1
  F  F29  1  0.530130  0.254419  0.327970  1
  F  F30  1  0.967177  0.250912  0.829944  1
  F  F31  1  0.460315  0.737636  0.670494  1
  F  F32  1  0.429693  0.975365  0.235466  1
  F  F33  1  0.932278  0.026891  0.264591  1
  F  F34  1  0.572442  0.037206  0.766938  1
  F  F35  1  0.088718  0.978273  0.732767  1
