# generated using pymatgen
data_Pa3TaGe5
_symmetry_space_group_name_H-M   'P 1'
_cell_length_a   8.59312200
_cell_length_b   8.59312204
_cell_length_c   5.78764700
_cell_angle_alpha   90.00000000
_cell_angle_beta   90.00000000
_cell_angle_gamma   119.99999983
_symmetry_Int_Tables_number   1
_chemical_formula_structural   Pa3TaGe5
_chemical_formula_sum   'Pa6 Ta2 Ge10'
_cell_volume   370.11324295
_cell_formula_units_Z   2
loop_
 _symmetry_equiv_pos_site_id
 _symmetry_equiv_pos_as_xyz
  1  'x, y, z'
loop_
 _atom_site_type_symbol
 _atom_site_label
 _atom_site_symmetry_multiplicity
 _atom_site_fract_x
 _atom_site_fract_y
 _atom_site_fract_z
 _atom_site_occupancy
  Pa  Pa0  1  0.615962  0.000000  0.250000  1
  Pa  Pa1  1  0.615962  0.615962  0.750000  1
  Pa  Pa2  1  0.000000  0.384038  0.750000  1
  Pa  Pa3  1  0.000000  0.615962  0.250000  1
  Pa  Pa4  1  0.384038  0.384038  0.250000  1
  Pa  Pa5  1  0.384038  0.000000  0.750000  1
  Ta  Ta6  1  0.000000  0.000000  0.000000  1
  Ta  Ta7  1  0.000000  0.000000  0.500000  1
  Ge  Ge8  1  0.267703  0.000000  0.250000  1
  Ge  Ge9  1  0.267703  0.267703  0.750000  1
  Ge  Ge10  1  0.000000  0.732297  0.750000  1
  Ge  Ge11  1  0.000000  0.267703  0.250000  1
  Ge  Ge12  1  0.732297  0.732297  0.250000  1
  Ge  Ge13  1  0.732297  0.000000  0.750000  1
  Ge  Ge14  1  0.333333  0.666667  0.000000  1
  Ge  Ge15  1  0.666667  0.333333  0.500000  1
  Ge  Ge16  1  0.666667  0.333333  0.000000  1
  Ge  Ge17  1  0.333333  0.666667  0.500000  1
