# generated using pymatgen
data_NaLi7(AsPd3)4
_symmetry_space_group_name_H-M   'P 1'
_cell_length_a   7.38712167
_cell_length_b   7.38712234
_cell_length_c   7.38712200
_cell_angle_alpha   89.94286804
_cell_angle_beta   89.94286803
_cell_angle_gamma   89.94287315
_symmetry_Int_Tables_number   1
_chemical_formula_structural   NaLi7(AsPd3)4
_chemical_formula_sum   'Na1 Li7 As4 Pd12'
_cell_volume   403.11148147
_cell_formula_units_Z   1
loop_
 _symmetry_equiv_pos_site_id
 _symmetry_equiv_pos_as_xyz
  1  'x, y, z'
loop_
 _atom_site_type_symbol
 _atom_site_label
 _atom_site_symmetry_multiplicity
 _atom_site_fract_x
 _atom_site_fract_y
 _atom_site_fract_z
 _atom_site_occupancy
  Na  Na0  1  0.276855  0.276853  0.276848  1
  Li  Li1  1  0.025567  0.475883  0.535986  1
  Li  Li2  1  0.535984  0.025567  0.475881  1
  Li  Li3  1  0.475884  0.535979  0.025567  1
  Li  Li4  1  0.220275  0.721389  0.780668  1
  Li  Li5  1  0.971107  0.971108  0.971102  1
  Li  Li6  1  0.780669  0.220282  0.721394  1
  Li  Li7  1  0.721392  0.780666  0.220281  1
  As  As8  1  0.875658  0.371575  0.123282  1
  As  As9  1  0.371568  0.123267  0.875652  1
  As  As10  1  0.624855  0.624854  0.624859  1
  As  As11  1  0.123274  0.875658  0.371564  1
  Pd  Pd12  1  0.155341  0.088969  0.627613  1
  Pd  Pd13  1  0.410576  0.375464  0.662232  1
  Pd  Pd14  1  0.088971  0.627602  0.155341  1
  Pd  Pd15  1  0.900290  0.122107  0.346921  1
  Pd  Pd16  1  0.346920  0.900293  0.122106  1
  Pd  Pd17  1  0.662226  0.410574  0.375460  1
  Pd  Pd18  1  0.592384  0.876635  0.838397  1
  Pd  Pd19  1  0.627605  0.155342  0.088974  1
  Pd  Pd20  1  0.375465  0.662226  0.410575  1
  Pd  Pd21  1  0.876637  0.838403  0.592381  1
  Pd  Pd22  1  0.122098  0.346926  0.900289  1
  Pd  Pd23  1  0.838403  0.592381  0.876630  1
