# generated using pymatgen
data_Sc4Fe3Co13(P3Ru)4
_symmetry_space_group_name_H-M   'P 1'
_cell_length_a   3.64171100
_cell_length_b   10.29533247
_cell_length_c   11.60603354
_cell_angle_alpha   90.03473069
_cell_angle_beta   90.00000000
_cell_angle_gamma   90.00000000
_symmetry_Int_Tables_number   1
_chemical_formula_structural   Sc4Fe3Co13(P3Ru)4
_chemical_formula_sum   'Sc4 Fe3 Co13 P12 Ru4'
_cell_volume   435.14058903
_cell_formula_units_Z   1
loop_
 _symmetry_equiv_pos_site_id
 _symmetry_equiv_pos_as_xyz
  1  'x, y, z'
loop_
 _atom_site_type_symbol
 _atom_site_label
 _atom_site_symmetry_multiplicity
 _atom_site_fract_x
 _atom_site_fract_y
 _atom_site_fract_z
 _atom_site_occupancy
  Sc  Sc0  1  0.250000  0.584644  0.701426  1
  Sc  Sc1  1  0.250000  0.914600  0.202827  1
  Sc  Sc2  1  0.750000  0.414722  0.298457  1
  Sc  Sc3  1  0.750000  0.086148  0.797153  1
  Fe  Fe4  1  0.250000  0.406513  0.488253  1
  Fe  Fe5  1  0.250000  0.090896  0.988937  1
  Fe  Fe6  1  0.750000  0.593337  0.511643  1
  Co  Co7  1  0.750000  0.907708  0.012424  1
  Co  Co8  1  0.250000  0.222897  0.177778  1
  Co  Co9  1  0.250000  0.276805  0.678168  1
  Co  Co10  1  0.750000  0.777477  0.822107  1
  Co  Co11  1  0.750000  0.723321  0.322244  1
  Co  Co12  1  0.250000  0.887089  0.702738  1
  Co  Co13  1  0.250000  0.612056  0.204419  1
  Co  Co14  1  0.750000  0.112049  0.296144  1
  Co  Co15  1  0.750000  0.387619  0.795724  1
  Co  Co16  1  0.250000  0.465487  0.929436  1
  Co  Co17  1  0.250000  0.035433  0.429936  1
  Co  Co18  1  0.750000  0.534929  0.069901  1
  Co  Co19  1  0.750000  0.964698  0.569839  1
  P  P20  1  0.250000  0.420712  0.116230  1
  P  P21  1  0.250000  0.079172  0.616443  1
  P  P22  1  0.750000  0.579473  0.883389  1
  P  P23  1  0.750000  0.920995  0.383654  1
  P  P24  1  0.250000  0.265150  0.867856  1
  P  P25  1  0.250000  0.234917  0.367419  1
  P  P26  1  0.750000  0.733038  0.133742  1
  P  P27  1  0.750000  0.764936  0.632374  1
  P  P28  1  0.250000  0.590391  0.391852  1
  P  P29  1  0.250000  0.908966  0.888882  1
  P  P30  1  0.750000  0.409334  0.608271  1
  P  P31  1  0.750000  0.092326  0.109385  1
  Ru  Ru32  1  0.250000  0.719469  0.993061  1
  Ru  Ru33  1  0.250000  0.784193  0.489927  1
  Ru  Ru34  1  0.750000  0.282747  0.008154  1
  Ru  Ru35  1  0.750000  0.215756  0.509810  1
