# generated using pymatgen
data_Dy11Er5Cd4Os3Pd
_symmetry_space_group_name_H-M   'P 1'
_cell_length_a   9.63412006
_cell_length_b   9.74138295
_cell_length_c   9.74810600
_cell_angle_alpha   59.48482788
_cell_angle_beta   59.17909118
_cell_angle_gamma   59.18577660
_symmetry_Int_Tables_number   1
_chemical_formula_structural   Dy11Er5Cd4Os3Pd
_chemical_formula_sum   'Dy11 Er5 Cd4 Os3 Pd1'
_cell_volume   636.32998444
_cell_formula_units_Z   1
loop_
 _symmetry_equiv_pos_site_id
 _symmetry_equiv_pos_as_xyz
  1  'x, y, z'
loop_
 _atom_site_type_symbol
 _atom_site_label
 _atom_site_symmetry_multiplicity
 _atom_site_fract_x
 _atom_site_fract_y
 _atom_site_fract_z
 _atom_site_occupancy
  Dy  Dy0  1  0.182502  0.810257  0.810305  1
  Dy  Dy1  1  0.186600  0.811904  0.190292  1
  Dy  Dy2  1  0.814559  0.189730  0.802528  1
  Dy  Dy3  1  0.186419  0.190077  0.812136  1
  Dy  Dy4  1  0.814858  0.802454  0.189613  1
  Dy  Dy5  1  0.939314  0.558381  0.558404  1
  Dy  Dy6  1  0.555769  0.938932  0.938911  1
  Dy  Dy7  1  0.552214  0.940014  0.566726  1
  Dy  Dy8  1  0.936336  0.557691  0.939908  1
  Dy  Dy9  1  0.551982  0.566676  0.940232  1
  Dy  Dy10  1  0.936332  0.940410  0.557364  1
  Er  Er11  1  0.348942  0.351691  0.352137  1
  Er  Er12  1  0.345203  0.350808  0.956409  1
  Er  Er13  1  0.345300  0.956410  0.350970  1
  Er  Er14  1  0.968677  0.344254  0.343927  1
  Er  Er15  1  0.814656  0.189822  0.189897  1
  Cd  Cd16  1  0.580006  0.579208  0.579090  1
  Cd  Cd17  1  0.580934  0.579895  0.258721  1
  Cd  Cd18  1  0.580468  0.258986  0.579962  1
  Cd  Cd19  1  0.255813  0.581855  0.581616  1
  Os  Os20  1  0.145576  0.139303  0.139690  1
  Os  Os21  1  0.150455  0.141309  0.576625  1
  Os  Os22  1  0.151276  0.576408  0.141092  1
  Pd  Pd23  1  0.575812  0.143528  0.143446  1
