# generated using pymatgen
data_Hf18Cu2Mo7W
_symmetry_space_group_name_H-M   'P 1'
_cell_length_a   8.71013100
_cell_length_b   8.71013050
_cell_length_c   8.51167000
_cell_angle_alpha   90.00000000
_cell_angle_beta   90.00000000
_cell_angle_gamma   119.99999052
_symmetry_Int_Tables_number   1
_chemical_formula_structural   Hf18Cu2Mo7W
_chemical_formula_sum   'Hf18 Cu2 Mo7 W1'
_cell_volume   559.23558604
_cell_formula_units_Z   1
loop_
 _symmetry_equiv_pos_site_id
 _symmetry_equiv_pos_as_xyz
  1  'x, y, z'
loop_
 _atom_site_type_symbol
 _atom_site_label
 _atom_site_symmetry_multiplicity
 _atom_site_fract_x
 _atom_site_fract_y
 _atom_site_fract_z
 _atom_site_occupancy
  Hf  Hf0  1  0.197824  0.802176  0.053850  1
  Hf  Hf1  1  0.604352  0.802176  0.053850  1
  Hf  Hf2  1  0.801924  0.603849  0.554084  1
  Hf  Hf3  1  0.197824  0.395648  0.053850  1
  Hf  Hf4  1  0.801924  0.198076  0.554084  1
  Hf  Hf5  1  0.396151  0.198076  0.554084  1
  Hf  Hf6  1  0.802176  0.604352  0.946150  1
  Hf  Hf7  1  0.802176  0.197824  0.946150  1
  Hf  Hf8  1  0.395648  0.197824  0.946150  1
  Hf  Hf9  1  0.603849  0.801924  0.445916  1
  Hf  Hf10  1  0.198076  0.801924  0.445916  1
  Hf  Hf11  1  0.198076  0.396151  0.445916  1
  Hf  Hf12  1  0.541911  0.083824  0.250242  1
  Hf  Hf13  1  0.458089  0.916176  0.749758  1
  Hf  Hf14  1  0.916176  0.458089  0.250242  1
  Hf  Hf15  1  0.541911  0.458089  0.250242  1
  Hf  Hf16  1  0.458089  0.541911  0.749758  1
  Hf  Hf17  1  0.083824  0.541911  0.749758  1
  Cu  Cu18  1  0.666667  0.333333  0.749907  1
  Cu  Cu19  1  0.333333  0.666667  0.250093  1
  Mo  Mo20  1  0.000000  0.000000  0.500000  1
  Mo  Mo21  1  0.888417  0.776836  0.250169  1
  Mo  Mo22  1  0.111583  0.223164  0.749831  1
  Mo  Mo23  1  0.223164  0.111583  0.250169  1
  Mo  Mo24  1  0.888417  0.111583  0.250169  1
  Mo  Mo25  1  0.111583  0.888417  0.749831  1
  Mo  Mo26  1  0.776836  0.888417  0.749831  1
  W  W27  1  0.000000  0.000000  0.000000  1
