# generated using pymatgen
data_ReF16
_symmetry_space_group_name_H-M   'P 1'
_cell_length_a   9.80894200
_cell_length_b   9.80894200
_cell_length_c   5.71055300
_cell_angle_alpha   90.00000000
_cell_angle_beta   90.00000000
_cell_angle_gamma   90.00000000
_symmetry_Int_Tables_number   1
_chemical_formula_structural   ReF16
_chemical_formula_sum   'Re2 F32'
_cell_volume   549.44281654
_cell_formula_units_Z   2
loop_
 _symmetry_equiv_pos_site_id
 _symmetry_equiv_pos_as_xyz
  1  'x, y, z'
loop_
 _atom_site_type_symbol
 _atom_site_label
 _atom_site_symmetry_multiplicity
 _atom_site_fract_x
 _atom_site_fract_y
 _atom_site_fract_z
 _atom_site_occupancy
  Re  Re0  1  0.500000  0.500000  0.000000  1
  Re  Re1  1  0.000000  0.000000  0.500000  1
  F  F2  1  0.965069  0.343319  0.998677  1
  F  F3  1  0.465069  0.843319  0.501323  1
  F  F4  1  0.534931  0.156681  0.501323  1
  F  F5  1  0.343319  0.034931  0.001323  1
  F  F6  1  0.156681  0.465069  0.498677  1
  F  F7  1  0.656681  0.965069  0.001323  1
  F  F8  1  0.843319  0.534931  0.498677  1
  F  F9  1  0.034931  0.656681  0.998677  1
  F  F10  1  0.623214  0.638969  0.911401  1
  F  F11  1  0.638969  0.376786  0.088599  1
  F  F12  1  0.862833  0.391321  0.493745  1
  F  F13  1  0.575379  0.584559  0.281025  1
  F  F14  1  0.415441  0.575379  0.718975  1
  F  F15  1  0.138969  0.876786  0.411401  1
  F  F16  1  0.084559  0.924621  0.781025  1
  F  F17  1  0.361031  0.623214  0.088599  1
  F  F18  1  0.861031  0.123214  0.411401  1
  F  F19  1  0.584559  0.424621  0.718975  1
  F  F20  1  0.637167  0.108679  0.006255  1
  F  F21  1  0.137167  0.608679  0.493745  1
  F  F22  1  0.391321  0.137167  0.506255  1
  F  F23  1  0.876786  0.861031  0.588599  1
  F  F24  1  0.123214  0.138969  0.588599  1
  F  F25  1  0.608679  0.862833  0.506255  1
  F  F26  1  0.075379  0.084559  0.218975  1
  F  F27  1  0.424621  0.415441  0.281025  1
  F  F28  1  0.108679  0.362833  0.993745  1
  F  F29  1  0.891321  0.637167  0.993745  1
  F  F30  1  0.362833  0.891321  0.006255  1
  F  F31  1  0.924621  0.915441  0.218975  1
  F  F32  1  0.376786  0.361031  0.911401  1
  F  F33  1  0.915441  0.075379  0.781025  1
