# generated using pymatgen
data_Pr3DyAl17GeIr6
_symmetry_space_group_name_H-M   'P 1'
_cell_length_a   7.61378400
_cell_length_b   7.62008808
_cell_length_c   9.59938100
_cell_angle_alpha   90.00000000
_cell_angle_beta   90.00000000
_cell_angle_gamma   119.54622317
_symmetry_Int_Tables_number   1
_chemical_formula_structural   Pr3DyAl17GeIr6
_chemical_formula_sum   'Pr3 Dy1 Al17 Ge1 Ir6'
_cell_volume   484.50931863
_cell_formula_units_Z   1
loop_
 _symmetry_equiv_pos_site_id
 _symmetry_equiv_pos_as_xyz
  1  'x, y, z'
loop_
 _atom_site_type_symbol
 _atom_site_label
 _atom_site_symmetry_multiplicity
 _atom_site_fract_x
 _atom_site_fract_y
 _atom_site_fract_z
 _atom_site_occupancy
  Pr  Pr0  1  0.994239  0.675723  0.750000  1
  Pr  Pr1  1  0.002559  0.329171  0.250000  1
  Pr  Pr2  1  0.675929  0.994146  0.750000  1
  Dy  Dy3  1  0.328300  0.003062  0.250000  1
  Al  Al4  1  0.871626  0.869935  0.250000  1
  Al  Al5  1  0.002840  0.338314  0.571809  1
  Al  Al6  1  0.998827  0.666693  0.424468  1
  Al  Al7  1  0.998827  0.666693  0.075532  1
  Al  Al8  1  0.338031  0.002239  0.931414  1
  Al  Al9  1  0.002840  0.338314  0.928191  1
  Al  Al10  1  0.662867  0.996871  0.075693  1
  Al  Al11  1  0.662867  0.996871  0.424307  1
  Al  Al12  1  0.338031  0.002239  0.568586  1
  Al  Al13  1  0.333462  0.332039  0.058061  1
  Al  Al14  1  0.662743  0.662594  0.956987  1
  Al  Al15  1  0.662743  0.662594  0.543013  1
  Al  Al16  1  0.333462  0.332039  0.441939  1
  Al  Al17  1  0.337063  0.550576  0.750000  1
  Al  Al18  1  0.657635  0.450805  0.250000  1
  Al  Al19  1  0.549741  0.335421  0.750000  1
  Al  Al20  1  0.453014  0.662671  0.250000  1
  Ge  Ge21  1  0.138336  0.136968  0.750000  1
  Ir  Ir22  1  0.668961  0.327543  0.499292  1
  Ir  Ir23  1  0.328007  0.669789  0.499459  1
  Ir  Ir24  1  0.328007  0.669789  0.000541  1
  Ir  Ir25  1  0.668961  0.327543  0.000708  1
  Ir  Ir26  1  0.000040  0.999678  0.499155  1
  Ir  Ir27  1  0.000040  0.999678  0.000845  1
