# generated using pymatgen
data_Rb2Tb10Co2Br17
_symmetry_space_group_name_H-M   'P 1'
_cell_length_a   9.11033394
_cell_length_b   10.68317045
_cell_length_c   10.68332800
_cell_angle_alpha   108.14877255
_cell_angle_beta   93.38439539
_cell_angle_gamma   93.38903482
_symmetry_Int_Tables_number   1
_chemical_formula_structural   Rb2Tb10Co2Br17
_chemical_formula_sum   'Rb2 Tb10 Co2 Br17'
_cell_volume   983.03004850
_cell_formula_units_Z   1
loop_
 _symmetry_equiv_pos_site_id
 _symmetry_equiv_pos_as_xyz
  1  'x, y, z'
loop_
 _atom_site_type_symbol
 _atom_site_label
 _atom_site_symmetry_multiplicity
 _atom_site_fract_x
 _atom_site_fract_y
 _atom_site_fract_z
 _atom_site_occupancy
  Rb  Rb0  1  0.999300  0.819714  0.179374  1
  Rb  Rb1  1  0.999284  0.179372  0.819725  1
  Tb  Tb2  1  0.439442  0.170256  0.170253  1
  Tb  Tb3  1  0.573687  0.510741  0.203672  1
  Tb  Tb4  1  0.821718  0.292516  0.292522  1
  Tb  Tb5  1  0.312080  0.436103  0.436112  1
  Tb  Tb6  1  0.426498  0.796538  0.489332  1
  Tb  Tb7  1  0.573655  0.203660  0.510732  1
  Tb  Tb8  1  0.688173  0.564101  0.564099  1
  Tb  Tb9  1  0.178248  0.707345  0.707355  1
  Tb  Tb10  1  0.426505  0.489336  0.796549  1
  Tb  Tb11  1  0.560613  0.829917  0.829911  1
  Co  Co12  1  0.568897  0.360274  0.360275  1
  Co  Co13  1  0.431299  0.639884  0.639888  1
  Br  Br14  1  0.582529  0.688464  0.025658  1
  Br  Br15  1  0.713409  0.063938  0.063937  1
  Br  Br16  1  0.861086  0.449445  0.116987  1
  Br  Br17  1  0.128827  0.209235  0.209189  1
  Br  Br18  1  0.278056  0.604280  0.251560  1
  Br  Br19  1  0.417602  0.974561  0.311581  1
  Br  Br20  1  0.722164  0.748670  0.395937  1
  Br  Br21  1  0.861056  0.116975  0.449440  1
  Br  Br22  1  0.999928  0.499960  0.500017  1
  Br  Br23  1  0.138903  0.882797  0.550287  1
  Br  Br24  1  0.278038  0.251557  0.604294  1
  Br  Br25  1  0.582479  0.025672  0.688464  1
  Br  Br26  1  0.722160  0.395923  0.748654  1
  Br  Br27  1  0.871389  0.791008  0.790921  1
  Br  Br28  1  0.138892  0.550290  0.882820  1
  Br  Br29  1  0.286454  0.935863  0.935894  1
  Br  Br30  1  0.417633  0.311602  0.974564  1
