# generated using pymatgen
data_Dy9Th(Zn2Ru3)2
_symmetry_space_group_name_H-M   'P 1'
_cell_length_a   8.38135821
_cell_length_b   8.31114266
_cell_length_c   8.31114100
_cell_angle_alpha   108.59132028
_cell_angle_beta   109.86020830
_cell_angle_gamma   109.61821571
_symmetry_Int_Tables_number   1
_chemical_formula_structural   Dy9Th(Zn2Ru3)2
_chemical_formula_sum   'Dy9 Th1 Zn4 Ru6'
_cell_volume   447.50577725
_cell_formula_units_Z   1
loop_
 _symmetry_equiv_pos_site_id
 _symmetry_equiv_pos_as_xyz
  1  'x, y, z'
loop_
 _atom_site_type_symbol
 _atom_site_label
 _atom_site_symmetry_multiplicity
 _atom_site_fract_x
 _atom_site_fract_y
 _atom_site_fract_z
 _atom_site_occupancy
  Dy  Dy0  1  0.750000  0.818135  0.068135  1
  Dy  Dy1  1  0.434309  0.250509  0.685467  1
  Dy  Dy2  1  0.681977  0.433561  0.249588  1
  Dy  Dy3  1  0.065691  0.751159  0.816201  1
  Dy  Dy4  1  0.818023  0.067610  0.751584  1
  Dy  Dy5  1  0.223495  0.219349  0.222861  1
  Dy  Dy6  1  0.503143  0.001473  0.278857  1
  Dy  Dy7  1  0.276505  0.499365  0.995854  1
  Dy  Dy8  1  0.996857  0.275715  0.498331  1
  Th  Th9  1  0.250000  0.688236  0.438236  1
  Zn  Zn10  1  0.594012  0.589143  0.589718  1
  Zn  Zn11  1  0.503521  0.007024  0.916049  1
  Zn  Zn12  1  0.905988  0.495706  0.995131  1
  Zn  Zn13  1  0.996479  0.912527  0.503503  1
  Ru  Ru14  1  0.250000  0.132609  0.882609  1
  Ru  Ru15  1  0.750000  0.368188  0.618188  1
  Ru  Ru16  1  0.882812  0.247205  0.131662  1
  Ru  Ru17  1  0.135900  0.871066  0.258467  1
  Ru  Ru18  1  0.617187  0.748849  0.364392  1
  Ru  Ru19  1  0.364100  0.622568  0.735167  1
