# generated using pymatgen
data_Ho12CoTc3
_symmetry_space_group_name_H-M   'P 1'
_cell_length_a   6.26801110
_cell_length_b   7.30520884
_cell_length_c   9.15436900
_cell_angle_alpha   90.00000000
_cell_angle_beta   90.00000000
_cell_angle_gamma   90.14556325
_symmetry_Int_Tables_number   1
_chemical_formula_structural   Ho12CoTc3
_chemical_formula_sum   'Ho12 Co1 Tc3'
_cell_volume   419.16924057
_cell_formula_units_Z   1
loop_
 _symmetry_equiv_pos_site_id
 _symmetry_equiv_pos_as_xyz
  1  'x, y, z'
loop_
 _atom_site_type_symbol
 _atom_site_label
 _atom_site_symmetry_multiplicity
 _atom_site_fract_x
 _atom_site_fract_y
 _atom_site_fract_z
 _atom_site_occupancy
  Ho  Ho0  1  0.664026  0.175651  0.061526  1
  Ho  Ho1  1  0.370772  0.541055  0.250000  1
  Ho  Ho2  1  0.128240  0.041707  0.250000  1
  Ho  Ho3  1  0.829726  0.677485  0.435627  1
  Ho  Ho4  1  0.331006  0.821642  0.936203  1
  Ho  Ho5  1  0.166309  0.327006  0.565241  1
  Ho  Ho6  1  0.664026  0.175651  0.438474  1
  Ho  Ho7  1  0.166309  0.327006  0.934759  1
  Ho  Ho8  1  0.331006  0.821642  0.563797  1
  Ho  Ho9  1  0.872836  0.950949  0.750000  1
  Ho  Ho10  1  0.642747  0.457493  0.750000  1
  Ho  Ho11  1  0.829726  0.677485  0.064373  1
  Co  Co12  1  0.040093  0.615640  0.750000  1
  Tc  Tc13  1  0.959317  0.389369  0.250000  1
  Tc  Tc14  1  0.462933  0.112961  0.750000  1
  Tc  Tc15  1  0.540927  0.887259  0.250000  1
