# generated using pymatgen
data_Tm2Lu18Ir7Pd5
_symmetry_space_group_name_H-M   'P 1'
_cell_length_a   10.78321502
_cell_length_b   10.78559737
_cell_length_c   6.24702000
_cell_angle_alpha   90.02865958
_cell_angle_beta   90.00310304
_cell_angle_gamma   89.78772049
_symmetry_Int_Tables_number   1
_chemical_formula_structural   Tm2Lu18Ir7Pd5
_chemical_formula_sum   'Tm2 Lu18 Ir7 Pd5'
_cell_volume   726.54468458
_cell_formula_units_Z   1
loop_
 _symmetry_equiv_pos_site_id
 _symmetry_equiv_pos_as_xyz
  1  'x, y, z'
loop_
 _atom_site_type_symbol
 _atom_site_label
 _atom_site_symmetry_multiplicity
 _atom_site_fract_x
 _atom_site_fract_y
 _atom_site_fract_z
 _atom_site_occupancy
  Tm  Tm0  1  0.090724  0.704589  0.629111  1
  Tm  Tm1  1  0.091147  0.295794  0.129147  1
  Lu  Lu2  1  0.296811  0.089410  0.372737  1
  Lu  Lu3  1  0.296807  0.910122  0.871989  1
  Lu  Lu4  1  0.703886  0.084804  0.871142  1
  Lu  Lu5  1  0.703282  0.908986  0.370948  1
  Lu  Lu6  1  0.583188  0.789381  0.878221  1
  Lu  Lu7  1  0.581058  0.206767  0.372472  1
  Lu  Lu8  1  0.416706  0.790968  0.376794  1
  Lu  Lu9  1  0.412170  0.207502  0.879997  1
  Lu  Lu10  1  0.210624  0.416660  0.621975  1
  Lu  Lu11  1  0.208949  0.583499  0.123004  1
  Lu  Lu12  1  0.792860  0.418957  0.128026  1
  Lu  Lu13  1  0.792232  0.587939  0.620225  1
  Lu  Lu14  1  0.909636  0.703489  0.127782  1
  Lu  Lu15  1  0.914855  0.296274  0.628472  1
  Lu  Lu16  1  0.999327  0.000521  0.498748  1
  Lu  Lu17  1  0.999495  0.999854  0.999897  1
  Lu  Lu18  1  0.497716  0.501563  0.001144  1
  Lu  Lu19  1  0.498530  0.502385  0.498883  1
  Ir  Ir20  1  0.654497  0.652916  0.249697  1
  Ir  Ir21  1  0.347941  0.345335  0.251087  1
  Ir  Ir22  1  0.345919  0.655379  0.750823  1
  Ir  Ir23  1  0.500596  0.000360  0.120356  1
  Ir  Ir24  1  0.500475  0.000574  0.622369  1
  Ir  Ir25  1  0.998987  0.499772  0.878021  1
  Ir  Ir26  1  0.999259  0.499762  0.380060  1
  Pd  Pd27  1  0.844224  0.154320  0.250042  1
  Pd  Pd28  1  0.846061  0.848191  0.750268  1
  Pd  Pd29  1  0.152619  0.152343  0.748171  1
  Pd  Pd30  1  0.153422  0.847701  0.248433  1
  Pd  Pd31  1  0.655996  0.343877  0.749952  1
