# generated using pymatgen
data_Pr10Si4HgRh
_symmetry_space_group_name_H-M   'P 1'
_cell_length_a   7.71708522
_cell_length_b   7.71708551
_cell_length_c   9.34336696
_cell_angle_alpha   114.39162997
_cell_angle_beta   114.39162949
_cell_angle_gamma   90.00001103
_symmetry_Int_Tables_number   1
_chemical_formula_structural   Pr10Si4HgRh
_chemical_formula_sum   'Pr10 Si4 Hg1 Rh1'
_cell_volume   451.67161911
_cell_formula_units_Z   1
loop_
 _symmetry_equiv_pos_site_id
 _symmetry_equiv_pos_as_xyz
  1  'x, y, z'
loop_
 _atom_site_type_symbol
 _atom_site_label
 _atom_site_symmetry_multiplicity
 _atom_site_fract_x
 _atom_site_fract_y
 _atom_site_fract_z
 _atom_site_occupancy
  Pr  Pr0  1  0.471942  0.471942  0.943885  1
  Pr  Pr1  1  0.028058  0.028058  0.056115  1
  Pr  Pr2  1  0.947005  0.797321  0.281677  1
  Pr  Pr3  1  0.334673  0.484356  0.281677  1
  Pr  Pr4  1  0.797321  0.334673  0.281677  1
  Pr  Pr5  1  0.484356  0.947005  0.281677  1
  Pr  Pr6  1  0.015644  0.165327  0.718323  1
  Pr  Pr7  1  0.702679  0.552995  0.718323  1
  Pr  Pr8  1  0.165327  0.702679  0.718323  1
  Pr  Pr9  1  0.552995  0.015644  0.718323  1
  Si  Si10  1  0.615210  0.884790  0.000000  1
  Si  Si11  1  0.384790  0.115210  0.000000  1
  Si  Si12  1  0.884790  0.384790  0.000000  1
  Si  Si13  1  0.115210  0.615210  0.000000  1
  Hg  Hg14  1  0.250000  0.250000  0.500000  1
  Rh  Rh15  1  0.750000  0.750000  0.500000  1
