# generated using pymatgen
data_Ho3TmAl18(NiRh)3
_symmetry_space_group_name_H-M   'P 1'
_cell_length_a   7.49828436
_cell_length_b   7.49814529
_cell_length_c   9.31341901
_cell_angle_alpha   89.89400187
_cell_angle_beta   89.89862359
_cell_angle_gamma   119.81980359
_symmetry_Int_Tables_number   1
_chemical_formula_structural   Ho3TmAl18(NiRh)3
_chemical_formula_sum   'Ho3 Tm1 Al18 Ni3 Rh3'
_cell_volume   454.29548869
_cell_formula_units_Z   1
loop_
 _symmetry_equiv_pos_site_id
 _symmetry_equiv_pos_as_xyz
  1  'x, y, z'
loop_
 _atom_site_type_symbol
 _atom_site_label
 _atom_site_symmetry_multiplicity
 _atom_site_fract_x
 _atom_site_fract_y
 _atom_site_fract_z
 _atom_site_occupancy
  Ho  Ho0  1  0.994739  0.669016  0.249882  1
  Ho  Ho1  1  0.007035  0.332690  0.750236  1
  Ho  Ho2  1  0.667276  0.992975  0.249749  1
  Tm  Tm3  1  0.330980  0.005165  0.750072  1
  Al  Al4  1  0.120597  0.120330  0.249618  1
  Al  Al5  1  0.879933  0.879532  0.750379  1
  Al  Al6  1  0.994672  0.331584  0.074147  1
  Al  Al7  1  0.998801  0.667160  0.925864  1
  Al  Al8  1  0.000337  0.667764  0.574527  1
  Al  Al9  1  0.332461  0.999880  0.425817  1
  Al  Al10  1  0.998821  0.331277  0.425511  1
  Al  Al11  1  0.668510  0.001172  0.574631  1
  Al  Al12  1  0.668199  0.005343  0.925711  1
  Al  Al13  1  0.333088  0.001430  0.073788  1
  Al  Al14  1  0.330255  0.329468  0.550826  1
  Al  Al15  1  0.670323  0.669745  0.449354  1
  Al  Al16  1  0.669636  0.668894  0.050654  1
  Al  Al17  1  0.331120  0.330163  0.949164  1
  Al  Al18  1  0.338838  0.545885  0.249748  1
  Al  Al19  1  0.661631  0.449508  0.752697  1
  Al  Al20  1  0.550174  0.338137  0.247309  1
  Al  Al21  1  0.454064  0.661313  0.750250  1
  Ni  Ni22  1  0.671189  0.328701  0.999943  1
  Ni  Ni23  1  0.999539  0.000558  0.999927  1
  Ni  Ni24  1  0.000348  0.999767  0.500074  1
  Rh  Rh25  1  0.327324  0.672796  0.999866  1
  Rh  Rh26  1  0.328196  0.671908  0.500122  1
  Rh  Rh27  1  0.671914  0.327842  0.500134  1
