# generated using pymatgen
data_Ho6LuCoBr12
_symmetry_space_group_name_H-M   'P 1'
_cell_length_a   9.16306000
_cell_length_b   9.16306036
_cell_length_c   9.16306030
_cell_angle_alpha   106.86012723
_cell_angle_beta   106.86013361
_cell_angle_gamma   106.86014088
_symmetry_Int_Tables_number   1
_chemical_formula_structural   Ho6LuCoBr12
_chemical_formula_sum   'Ho6 Lu1 Co1 Br12'
_cell_volume   643.14753010
_cell_formula_units_Z   1
loop_
 _symmetry_equiv_pos_site_id
 _symmetry_equiv_pos_as_xyz
  1  'x, y, z'
loop_
 _atom_site_type_symbol
 _atom_site_label
 _atom_site_symmetry_multiplicity
 _atom_site_fract_x
 _atom_site_fract_y
 _atom_site_fract_z
 _atom_site_occupancy
  Ho  Ho0  1  0.300028  0.096430  0.021606  1
  Ho  Ho1  1  0.096430  0.021606  0.300028  1
  Ho  Ho2  1  0.021606  0.300028  0.096430  1
  Ho  Ho3  1  0.699972  0.903570  0.978394  1
  Ho  Ho4  1  0.903570  0.978394  0.699972  1
  Ho  Ho5  1  0.978394  0.699972  0.903570  1
  Lu  Lu6  1  0.500000  0.500000  0.500000  1
  Co  Co7  1  0.000000  0.000000  0.000000  1
  Br  Br8  1  0.221386  0.070165  0.677082  1
  Br  Br9  1  0.070165  0.677082  0.221386  1
  Br  Br10  1  0.677082  0.221386  0.070165  1
  Br  Br11  1  0.778614  0.929835  0.322918  1
  Br  Br12  1  0.929835  0.322918  0.778614  1
  Br  Br13  1  0.322918  0.778614  0.929835  1
  Br  Br14  1  0.389422  0.462939  0.172105  1
  Br  Br15  1  0.462939  0.172105  0.389422  1
  Br  Br16  1  0.172105  0.389422  0.462939  1
  Br  Br17  1  0.610578  0.537061  0.827895  1
  Br  Br18  1  0.537061  0.827895  0.610578  1
  Br  Br19  1  0.827895  0.610578  0.537061  1
