# generated using pymatgen
data_V5AsRu10
_symmetry_space_group_name_H-M   'P 1'
_cell_length_a   4.10394300
_cell_length_b   5.26475362
_cell_length_c   10.13134400
_cell_angle_alpha   89.05134880
_cell_angle_beta   90.00000000
_cell_angle_gamma   90.00000000
_symmetry_Int_Tables_number   1
_chemical_formula_structural   V5AsRu10
_chemical_formula_sum   'V5 As1 Ru10'
_cell_volume   218.87033495
_cell_formula_units_Z   1
loop_
 _symmetry_equiv_pos_site_id
 _symmetry_equiv_pos_as_xyz
  1  'x, y, z'
loop_
 _atom_site_type_symbol
 _atom_site_label
 _atom_site_symmetry_multiplicity
 _atom_site_fract_x
 _atom_site_fract_y
 _atom_site_fract_z
 _atom_site_occupancy
  V  V0  1  0.000000  0.500000  0.500000  1
  V  V1  1  0.500000  0.853889  0.359303  1
  V  V2  1  0.500000  0.146111  0.640697  1
  V  V3  1  0.500000  0.357209  0.144191  1
  V  V4  1  0.500000  0.642791  0.855809  1
  As  As5  1  0.000000  0.000000  0.000000  1
  Ru  Ru6  1  0.000000  0.500000  0.000000  1
  Ru  Ru7  1  0.000000  0.000000  0.500000  1
  Ru  Ru8  1  0.000000  0.624218  0.266161  1
  Ru  Ru9  1  0.000000  0.375782  0.733839  1
  Ru  Ru10  1  0.000000  0.123599  0.232875  1
  Ru  Ru11  1  0.000000  0.876401  0.767125  1
  Ru  Ru12  1  0.500000  0.825061  0.110773  1
  Ru  Ru13  1  0.500000  0.174939  0.889227  1
  Ru  Ru14  1  0.500000  0.322888  0.393166  1
  Ru  Ru15  1  0.500000  0.677112  0.606834  1
