# generated using pymatgen
data_Tm(BeB14)2
_symmetry_space_group_name_H-M   'P 1'
_cell_length_a   7.16872698
_cell_length_b   7.16872630
_cell_length_c   5.72801745
_cell_angle_alpha   66.58892369
_cell_angle_beta   66.58893023
_cell_angle_gamma   91.97583943
_symmetry_Int_Tables_number   1
_chemical_formula_structural   Tm(BeB14)2
_chemical_formula_sum   'Tm1 Be2 B28'
_cell_volume   241.34294086
_cell_formula_units_Z   1
loop_
 _symmetry_equiv_pos_site_id
 _symmetry_equiv_pos_as_xyz
  1  'x, y, z'
loop_
 _atom_site_type_symbol
 _atom_site_label
 _atom_site_symmetry_multiplicity
 _atom_site_fract_x
 _atom_site_fract_y
 _atom_site_fract_z
 _atom_site_occupancy
  Tm  Tm0  1  0.883017  0.883017  0.373718  1
  Be  Be1  1  0.529640  0.529640  0.446819  1
  Be  Be2  1  0.245301  0.245301  0.311085  1
  B  B3  1  0.415083  0.732439  0.183078  1
  B  B4  1  0.579455  0.255888  0.836298  1
  B  B5  1  0.255888  0.579455  0.836298  1
  B  B6  1  0.732439  0.415083  0.183078  1
  B  B7  1  0.691785  0.857929  0.981580  1
  B  B8  1  0.301963  0.129938  0.039510  1
  B  B9  1  0.129938  0.301963  0.039510  1
  B  B10  1  0.857929  0.691785  0.981580  1
  B  B11  1  0.528333  0.868497  0.310416  1
  B  B12  1  0.467256  0.118800  0.219017  1
  B  B13  1  0.118800  0.467256  0.219017  1
  B  B14  1  0.868497  0.528333  0.310416  1
  B  B15  1  0.460342  0.117198  0.717399  1
  B  B16  1  0.528773  0.866348  0.804609  1
  B  B17  1  0.866348  0.528773  0.804609  1
  B  B18  1  0.117198  0.460342  0.717399  1
  B  B19  1  0.720079  0.096484  0.008754  1
  B  B20  1  0.273453  0.890165  0.336188  1
  B  B21  1  0.890165  0.273453  0.336188  1
  B  B22  1  0.096484  0.720079  0.008754  1
  B  B23  1  0.272418  0.890640  0.015644  1
  B  B24  1  0.717501  0.095638  0.690247  1
  B  B25  1  0.095638  0.717501  0.690247  1
  B  B26  1  0.890640  0.272418  0.015644  1
  B  B27  1  0.283048  0.464712  0.390162  1
  B  B28  1  0.699319  0.518557  0.651286  1
  B  B29  1  0.518557  0.699319  0.651286  1
  B  B30  1  0.464712  0.283048  0.390162  1
