# generated using pymatgen
data_Dy4Co18Si11POs2
_symmetry_space_group_name_H-M   'P 1'
_cell_length_a   3.71906500
_cell_length_b   10.47535060
_cell_length_c   11.91188879
_cell_angle_alpha   89.93690979
_cell_angle_beta   90.00000000
_cell_angle_gamma   90.00000000
_symmetry_Int_Tables_number   1
_chemical_formula_structural   Dy4Co18Si11POs2
_chemical_formula_sum   'Dy4 Co18 Si11 P1 Os2'
_cell_volume   464.06915463
_cell_formula_units_Z   1
loop_
 _symmetry_equiv_pos_site_id
 _symmetry_equiv_pos_as_xyz
  1  'x, y, z'
loop_
 _atom_site_type_symbol
 _atom_site_label
 _atom_site_symmetry_multiplicity
 _atom_site_fract_x
 _atom_site_fract_y
 _atom_site_fract_z
 _atom_site_occupancy
  Dy  Dy0  1  0.250000  0.583561  0.701422  1
  Dy  Dy1  1  0.250000  0.915329  0.203556  1
  Dy  Dy2  1  0.750000  0.417746  0.295608  1
  Dy  Dy3  1  0.750000  0.081514  0.797680  1
  Co  Co4  1  0.750000  0.292585  0.009576  1
  Co  Co5  1  0.750000  0.205859  0.509628  1
  Co  Co6  1  0.250000  0.404092  0.490971  1
  Co  Co7  1  0.250000  0.090791  0.989487  1
  Co  Co8  1  0.750000  0.592644  0.511350  1
  Co  Co9  1  0.750000  0.907328  0.008600  1
  Co  Co10  1  0.250000  0.213839  0.174789  1
  Co  Co11  1  0.250000  0.285061  0.676489  1
  Co  Co12  1  0.750000  0.786573  0.826049  1
  Co  Co13  1  0.750000  0.715785  0.325370  1
  Co  Co14  1  0.250000  0.888038  0.703198  1
  Co  Co15  1  0.250000  0.613139  0.198401  1
  Co  Co16  1  0.750000  0.116870  0.301257  1
  Co  Co17  1  0.750000  0.382310  0.801073  1
  Co  Co18  1  0.250000  0.468505  0.929772  1
  Co  Co19  1  0.250000  0.032889  0.431565  1
  Co  Co20  1  0.750000  0.528904  0.066053  1
  Co  Co21  1  0.750000  0.972516  0.569227  1
  Si  Si22  1  0.250000  0.413047  0.109213  1
  Si  Si23  1  0.250000  0.087374  0.610818  1
  Si  Si24  1  0.750000  0.583184  0.885926  1
  Si  Si25  1  0.750000  0.917230  0.388701  1
  Si  Si26  1  0.250000  0.270479  0.871720  1
  Si  Si27  1  0.250000  0.229308  0.370389  1
  Si  Si28  1  0.750000  0.726152  0.132509  1
  Si  Si29  1  0.750000  0.773946  0.633008  1
  Si  Si30  1  0.250000  0.598970  0.392139  1
  Si  Si31  1  0.750000  0.396123  0.606416  1
  Si  Si32  1  0.750000  0.102500  0.106747  1
  P  P33  1  0.250000  0.901851  0.891472  1
  Os  Os34  1  0.250000  0.708281  0.988078  1
  Os  Os35  1  0.250000  0.795678  0.491744  1
