# generated using pymatgen
data_Li3Th4MgPt4
_symmetry_space_group_name_H-M   'P 1'
_cell_length_a   4.08381700
_cell_length_b   7.36650085
_cell_length_c   8.65673882
_cell_angle_alpha   90.22718025
_cell_angle_beta   90.00000000
_cell_angle_gamma   90.00000000
_symmetry_Int_Tables_number   1
_chemical_formula_structural   Li3Th4MgPt4
_chemical_formula_sum   'Li3 Th4 Mg1 Pt4'
_cell_volume   260.42244784
_cell_formula_units_Z   1
loop_
 _symmetry_equiv_pos_site_id
 _symmetry_equiv_pos_as_xyz
  1  'x, y, z'
loop_
 _atom_site_type_symbol
 _atom_site_label
 _atom_site_symmetry_multiplicity
 _atom_site_fract_x
 _atom_site_fract_y
 _atom_site_fract_z
 _atom_site_occupancy
  Li  Li0  1  0.250000  0.622931  0.558173  1
  Li  Li1  1  0.250000  0.124814  0.940211  1
  Li  Li2  1  0.750000  0.380479  0.443252  1
  Th  Th3  1  0.250000  0.055831  0.315940  1
  Th  Th4  1  0.250000  0.546021  0.192809  1
  Th  Th5  1  0.750000  0.947282  0.685034  1
  Th  Th6  1  0.750000  0.448285  0.809321  1
  Mg  Mg7  1  0.750000  0.876966  0.057116  1
  Pt  Pt8  1  0.250000  0.234592  0.622883  1
  Pt  Pt9  1  0.250000  0.732341  0.876457  1
  Pt  Pt10  1  0.750000  0.766872  0.375542  1
  Pt  Pt11  1  0.750000  0.263586  0.123260  1
