# generated using pymatgen
data_ZnNi3(BrO3)8
_symmetry_space_group_name_H-M   'P 1'
_cell_length_a   5.58986581
_cell_length_b   10.46370679
_cell_length_c   10.49546406
_cell_angle_alpha   119.24451428
_cell_angle_beta   90.02268409
_cell_angle_gamma   89.85487731
_symmetry_Int_Tables_number   1
_chemical_formula_structural   ZnNi3(BrO3)8
_chemical_formula_sum   'Zn1 Ni3 Br8 O24'
_cell_volume   535.64089398
_cell_formula_units_Z   1
loop_
 _symmetry_equiv_pos_site_id
 _symmetry_equiv_pos_as_xyz
  1  'x, y, z'
loop_
 _atom_site_type_symbol
 _atom_site_label
 _atom_site_symmetry_multiplicity
 _atom_site_fract_x
 _atom_site_fract_y
 _atom_site_fract_z
 _atom_site_occupancy
  Zn  Zn0  1  0.144893  0.762591  0.505557  1
  Ni  Ni1  1  0.640155  0.238402  0.493805  1
  Ni  Ni2  1  0.138923  0.261057  0.005428  1
  Ni  Ni3  1  0.639373  0.738774  0.993757  1
  Br  Br4  1  0.259101  0.414132  0.347178  1
  Br  Br5  1  0.757400  0.583145  0.652144  1
  Br  Br6  1  0.257644  0.915646  0.849849  1
  Br  Br7  1  0.757854  0.084741  0.151806  1
  Br  Br8  1  0.782286  0.088366  0.689390  1
  Br  Br9  1  0.284308  0.915310  0.311196  1
  Br  Br10  1  0.283531  0.413353  0.812320  1
  Br  Br11  1  0.783136  0.586104  0.186121  1
  O  O12  1  0.427135  0.888140  0.967694  1
  O  O13  1  0.929096  0.113236  0.035478  1
  O  O14  1  0.373783  0.800426  0.682567  1
  O  O15  1  0.871189  0.199183  0.320071  1
  O  O16  1  0.369320  0.297992  0.178445  1
  O  O17  1  0.868527  0.698693  0.820757  1
  O  O18  1  0.929070  0.230420  0.827587  1
  O  O19  1  0.428925  0.771883  0.172877  1
  O  O20  1  0.925648  0.934249  0.662312  1
  O  O21  1  0.428091  0.068720  0.338074  1
  O  O22  1  0.355914  0.081746  0.879636  1
  O  O23  1  0.857009  0.917866  0.120280  1
  O  O24  1  0.428255  0.271179  0.672306  1
  O  O25  1  0.926649  0.728683  0.325462  1
  O  O26  1  0.357204  0.393927  0.958967  1
  O  O27  1  0.856062  0.603929  0.038540  1
  O  O28  1  0.427356  0.567144  0.840344  1
  O  O29  1  0.929276  0.433030  0.159721  1
  O  O30  1  0.360486  0.579784  0.377278  1
  O  O31  1  0.856494  0.416561  0.621750  1
  O  O32  1  0.431132  0.385897  0.463402  1
  O  O33  1  0.931642  0.612429  0.537607  1
  O  O34  1  0.855032  0.104535  0.540770  1
  O  O35  1  0.357702  0.898727  0.459522  1
