# generated using pymatgen
data_PrAl10TcIr
_symmetry_space_group_name_H-M   'P 1'
_cell_length_a   6.91705080
_cell_length_b   6.91704416
_cell_length_c   9.25055162
_cell_angle_alpha   89.90155650
_cell_angle_beta   90.09850583
_cell_angle_gamma   96.79503589
_symmetry_Int_Tables_number   1
_chemical_formula_structural   PrAl10TcIr
_chemical_formula_sum   'Pr2 Al20 Tc2 Ir2'
_cell_volume   439.48761953
_cell_formula_units_Z   2
loop_
 _symmetry_equiv_pos_site_id
 _symmetry_equiv_pos_as_xyz
  1  'x, y, z'
loop_
 _atom_site_type_symbol
 _atom_site_label
 _atom_site_symmetry_multiplicity
 _atom_site_fract_x
 _atom_site_fract_y
 _atom_site_fract_z
 _atom_site_occupancy
  Pr  Pr0  1  0.874344  0.125665  0.749627  1
  Pr  Pr1  1  0.125656  0.874335  0.250373  1
  Al  Al2  1  0.410099  0.141080  0.748460  1
  Al  Al3  1  0.141079  0.410098  0.251542  1
  Al  Al4  1  0.589901  0.858920  0.251540  1
  Al  Al5  1  0.858921  0.589902  0.748458  1
  Al  Al6  1  0.517687  0.778567  0.748113  1
  Al  Al7  1  0.778563  0.517686  0.251888  1
  Al  Al8  1  0.482313  0.221433  0.251887  1
  Al  Al9  1  0.221437  0.482314  0.748112  1
  Al  Al10  1  0.838897  0.161107  0.399235  1
  Al  Al11  1  0.161103  0.838893  0.600765  1
  Al  Al12  1  0.839356  0.160643  0.104185  1
  Al  Al13  1  0.160644  0.839357  0.895815  1
  Al  Al14  1  0.622727  0.377276  0.549166  1
  Al  Al15  1  0.377273  0.622724  0.450834  1
  Al  Al16  1  0.620433  0.379564  0.948687  1
  Al  Al17  1  0.379567  0.620436  0.051313  1
  Al  Al18  1  0.773565  0.773565  0.000001  1
  Al  Al19  1  0.772901  0.772891  0.500003  1
  Al  Al20  1  0.226435  0.226435  0.999999  1
  Al  Al21  1  0.227099  0.227109  0.499997  1
  Tc  Tc22  1  0.500000  0.000000  0.500000  1
  Tc  Tc23  1  0.000000  0.500000  0.500000  1
  Ir  Ir24  1  0.500000  0.000000  0.000000  1
  Ir  Ir25  1  0.000000  0.500000  0.000000  1
