# generated using pymatgen
data_Dy2TmCdSn3Ir2
_symmetry_space_group_name_H-M   'P 1'
_cell_length_a   7.70743535
_cell_length_b   7.70261470
_cell_length_c   3.92187000
_cell_angle_alpha   90.00000000
_cell_angle_beta   90.00000000
_cell_angle_gamma   120.16790701
_symmetry_Int_Tables_number   1
_chemical_formula_structural   Dy2TmCdSn3Ir2
_chemical_formula_sum   'Dy2 Tm1 Cd1 Sn3 Ir2'
_cell_volume   201.29574731
_cell_formula_units_Z   1
loop_
 _symmetry_equiv_pos_site_id
 _symmetry_equiv_pos_as_xyz
  1  'x, y, z'
loop_
 _atom_site_type_symbol
 _atom_site_label
 _atom_site_symmetry_multiplicity
 _atom_site_fract_x
 _atom_site_fract_y
 _atom_site_fract_z
 _atom_site_occupancy
  Dy  Dy0  1  0.972658  0.381916  0.500000  1
  Dy  Dy1  1  0.617405  0.590422  0.500000  1
  Tm  Tm2  1  0.409334  0.029464  0.500000  1
  Cd  Cd3  1  0.333651  0.668095  0.000000  1
  Sn  Sn4  1  0.001317  0.745831  0.000000  1
  Sn  Sn5  1  0.255364  0.254799  0.000000  1
  Sn  Sn6  1  0.744350  0.999377  0.000000  1
  Ir  Ir7  1  0.664437  0.330149  0.000000  1
  Ir  Ir8  1  0.001483  0.999945  0.500000  1
