# generated using pymatgen
data_AlGa3(SnBr8)2
_symmetry_space_group_name_H-M   'P 1'
_cell_length_a   7.70950755
_cell_length_b   7.98126978
_cell_length_c   14.66819600
_cell_angle_alpha   87.14392424
_cell_angle_beta   90.30959684
_cell_angle_gamma   90.37780855
_symmetry_Int_Tables_number   1
_chemical_formula_structural   AlGa3(SnBr8)2
_chemical_formula_sum   'Al1 Ga3 Sn2 Br16'
_cell_volume   901.40609487
_cell_formula_units_Z   1
loop_
 _symmetry_equiv_pos_site_id
 _symmetry_equiv_pos_as_xyz
  1  'x, y, z'
loop_
 _atom_site_type_symbol
 _atom_site_label
 _atom_site_symmetry_multiplicity
 _atom_site_fract_x
 _atom_site_fract_y
 _atom_site_fract_z
 _atom_site_occupancy
  Al  Al0  1  0.937233  0.220563  0.579378  1
  Ga  Ga1  1  0.061448  0.222274  0.077919  1
  Ga  Ga2  1  0.564489  0.640605  0.777728  1
  Ga  Ga3  1  0.436476  0.639674  0.277934  1
  Sn  Sn4  1  0.756298  0.075825  0.813198  1
  Sn  Sn5  1  0.244572  0.073566  0.311397  1
  Br  Br6  1  0.425973  0.611789  0.640436  1
  Br  Br7  1  0.572965  0.611546  0.140756  1
  Br  Br8  1  0.862182  0.735610  0.761577  1
  Br  Br9  1  0.138750  0.731463  0.260558  1
  Br  Br10  1  0.938923  0.469393  0.498134  1
  Br  Br11  1  0.059565  0.473364  0.994607  1
  Br  Br12  1  0.925921  0.996000  0.003845  1
  Br  Br13  1  0.069036  0.003194  0.503950  1
  Br  Br14  1  0.651077  0.131132  0.618019  1
  Br  Br15  1  0.351911  0.130483  0.118729  1
  Br  Br16  1  0.560314  0.392013  0.874912  1
  Br  Br17  1  0.439831  0.391767  0.375349  1
  Br  Br18  1  0.441098  0.859482  0.863676  1
  Br  Br19  1  0.561157  0.861022  0.362976  1
  Br  Br20  1  0.927378  0.231735  0.225248  1
  Br  Br21  1  0.073403  0.232303  0.724076  1
