# generated using pymatgen
data_Tb20Ga3Si12Ag
_symmetry_space_group_name_H-M   'P 1'
_cell_length_a   7.51260040
_cell_length_b   7.76628069
_cell_length_c   14.84536500
_cell_angle_alpha   90.18221327
_cell_angle_beta   90.42946966
_cell_angle_gamma   90.14848728
_symmetry_Int_Tables_number   1
_chemical_formula_structural   Tb20Ga3Si12Ag
_chemical_formula_sum   'Tb20 Ga3 Si12 Ag1'
_cell_volume   866.12060225
_cell_formula_units_Z   1
loop_
 _symmetry_equiv_pos_site_id
 _symmetry_equiv_pos_as_xyz
  1  'x, y, z'
loop_
 _atom_site_type_symbol
 _atom_site_label
 _atom_site_symmetry_multiplicity
 _atom_site_fract_x
 _atom_site_fract_y
 _atom_site_fract_z
 _atom_site_occupancy
  Tb  Tb0  1  0.677169  0.171419  0.625516  1
  Tb  Tb1  1  0.181063  0.324899  0.875824  1
  Tb  Tb2  1  0.321383  0.823337  0.123509  1
  Tb  Tb3  1  0.826211  0.675481  0.375618  1
  Tb  Tb4  1  0.319896  0.826107  0.378212  1
  Tb  Tb5  1  0.818153  0.677763  0.122182  1
  Tb  Tb6  1  0.680064  0.176917  0.877808  1
  Tb  Tb7  1  0.177074  0.322610  0.622541  1
  Tb  Tb8  1  0.520746  0.680661  0.602722  1
  Tb  Tb9  1  0.025713  0.816174  0.899646  1
  Tb  Tb10  1  0.474734  0.316647  0.100382  1
  Tb  Tb11  1  0.980164  0.184548  0.396865  1
  Tb  Tb12  1  0.471464  0.322318  0.397984  1
  Tb  Tb13  1  0.972112  0.180025  0.099839  1
  Tb  Tb14  1  0.528421  0.679851  0.898476  1
  Tb  Tb15  1  0.026487  0.817826  0.602466  1
  Tb  Tb16  1  0.848831  0.507443  0.751457  1
  Tb  Tb17  1  0.347779  0.990056  0.747620  1
  Tb  Tb18  1  0.152817  0.489958  0.250571  1
  Tb  Tb19  1  0.654148  0.010613  0.248745  1
  Ga  Ga20  1  0.152201  0.531346  0.040356  1
  Ga  Ga21  1  0.346496  0.031739  0.959193  1
  Ga  Ga22  1  0.842605  0.468301  0.540071  1
  Si  Si23  1  0.342308  0.028340  0.542429  1
  Si  Si24  1  0.851612  0.469917  0.959687  1
  Si  Si25  1  0.647632  0.970912  0.040109  1
  Si  Si26  1  0.150822  0.530539  0.460225  1
  Si  Si27  1  0.476728  0.394637  0.749071  1
  Si  Si28  1  0.975190  0.103588  0.752329  1
  Si  Si29  1  0.524122  0.606859  0.249823  1
  Si  Si30  1  0.026185  0.895177  0.249309  1
  Si  Si31  1  0.733226  0.872384  0.751326  1
  Si  Si32  1  0.232963  0.626804  0.750167  1
  Si  Si33  1  0.268159  0.126033  0.248263  1
  Si  Si34  1  0.767519  0.375586  0.249021  1
  Ag  Ag35  1  0.657802  0.973191  0.460641  1
