# generated using pymatgen
data_AgS2O7
_symmetry_space_group_name_H-M   'P 1'
_cell_length_a   5.45837283
_cell_length_b   7.00928715
_cell_length_c   8.98784945
_cell_angle_alpha   90.94104312
_cell_angle_beta   87.76892324
_cell_angle_gamma   104.57940383
_symmetry_Int_Tables_number   1
_chemical_formula_structural   AgS2O7
_chemical_formula_sum   'Ag2 S4 O14'
_cell_volume   332.53609959
_cell_formula_units_Z   2
loop_
 _symmetry_equiv_pos_site_id
 _symmetry_equiv_pos_as_xyz
  1  'x, y, z'
loop_
 _atom_site_type_symbol
 _atom_site_label
 _atom_site_symmetry_multiplicity
 _atom_site_fract_x
 _atom_site_fract_y
 _atom_site_fract_z
 _atom_site_occupancy
  Ag  Ag0  1  0.000000  0.500000  0.000000  1
  Ag  Ag1  1  0.500000  0.000000  0.500000  1
  S  S2  1  0.475412  0.642395  0.761857  1
  S  S3  1  0.524588  0.357605  0.238143  1
  S  S4  1  0.146853  0.256008  0.693159  1
  S  S5  1  0.853147  0.743992  0.306841  1
  O  O6  1  0.640934  0.542919  0.831470  1
  O  O7  1  0.359066  0.457081  0.168530  1
  O  O8  1  0.290993  0.709004  0.861231  1
  O  O9  1  0.709007  0.290996  0.138769  1
  O  O10  1  0.608115  0.798241  0.659188  1
  O  O11  1  0.391885  0.201759  0.340812  1
  O  O12  1  0.300208  0.483307  0.644742  1
  O  O13  1  0.699792  0.516693  0.355258  1
  O  O14  1  0.951553  0.211106  0.586639  1
  O  O15  1  0.048447  0.788894  0.413361  1
  O  O16  1  0.334564  0.136020  0.684535  1
  O  O17  1  0.665436  0.863980  0.315465  1
  O  O18  1  0.071354  0.263752  0.852061  1
  O  O19  1  0.928646  0.736248  0.147939  1
