# generated using pymatgen
data_Tb6Ga4RuRh3
_symmetry_space_group_name_H-M   'P 1'
_cell_length_a   5.58854692
_cell_length_b   7.84840830
_cell_length_c   13.60760418
_cell_angle_alpha   89.88422417
_cell_angle_beta   90.20751788
_cell_angle_gamma   90.20297486
_symmetry_Int_Tables_number   1
_chemical_formula_structural   Tb6Ga4RuRh3
_chemical_formula_sum   'Tb12 Ga8 Ru2 Rh6'
_cell_volume   596.83695891
_cell_formula_units_Z   2
loop_
 _symmetry_equiv_pos_site_id
 _symmetry_equiv_pos_as_xyz
  1  'x, y, z'
loop_
 _atom_site_type_symbol
 _atom_site_label
 _atom_site_symmetry_multiplicity
 _atom_site_fract_x
 _atom_site_fract_y
 _atom_site_fract_z
 _atom_site_occupancy
  Tb  Tb0  1  0.628317  0.262322  0.249843  1
  Tb  Tb1  1  0.371683  0.737678  0.750157  1
  Tb  Tb2  1  0.370597  0.766656  0.248147  1
  Tb  Tb3  1  0.629403  0.233344  0.751853  1
  Tb  Tb4  1  0.153486  0.398783  0.097154  1
  Tb  Tb5  1  0.846514  0.601217  0.902846  1
  Tb  Tb6  1  0.848850  0.600035  0.596811  1
  Tb  Tb7  1  0.849119  0.900627  0.402349  1
  Tb  Tb8  1  0.151150  0.399965  0.403189  1
  Tb  Tb9  1  0.150881  0.099373  0.597651  1
  Tb  Tb10  1  0.152583  0.095987  0.903250  1
  Tb  Tb11  1  0.847417  0.904013  0.096750  1
  Ga  Ga12  1  0.123112  0.110810  0.250085  1
  Ga  Ga13  1  0.876888  0.889190  0.749915  1
  Ga  Ga14  1  0.875436  0.610266  0.249917  1
  Ga  Ga15  1  0.124564  0.389734  0.750083  1
  Ga  Ga16  1  0.640259  0.248959  0.998987  1
  Ga  Ga17  1  0.359741  0.751041  0.001013  1
  Ga  Ga18  1  0.354944  0.749514  0.499548  1
  Ga  Ga19  1  0.645056  0.250486  0.500452  1
  Ru  Ru20  1  0.356526  0.037437  0.094303  1
  Ru  Ru21  1  0.643474  0.962563  0.905697  1
  Rh  Rh22  1  0.642869  0.962046  0.592864  1
  Rh  Rh23  1  0.641841  0.537878  0.406311  1
  Rh  Rh24  1  0.357131  0.037954  0.407136  1
  Rh  Rh25  1  0.358159  0.462122  0.593689  1
  Rh  Rh26  1  0.357934  0.467406  0.905919  1
  Rh  Rh27  1  0.642066  0.532594  0.094081  1
