# generated using pymatgen
data_TmZrCuS4
_symmetry_space_group_name_H-M   'P 1'
_cell_length_a   7.53579662
_cell_length_b   7.53579562
_cell_length_c   7.53579686
_cell_angle_alpha   120.65780391
_cell_angle_beta   119.38577515
_cell_angle_gamma   89.96579896
_symmetry_Int_Tables_number   1
_chemical_formula_structural   TmZrCuS4
_chemical_formula_sum   'Tm2 Zr2 Cu2 S8'
_cell_volume   302.45611008
_cell_formula_units_Z   2
loop_
 _symmetry_equiv_pos_site_id
 _symmetry_equiv_pos_as_xyz
  1  'x, y, z'
loop_
 _atom_site_type_symbol
 _atom_site_label
 _atom_site_symmetry_multiplicity
 _atom_site_fract_x
 _atom_site_fract_y
 _atom_site_fract_z
 _atom_site_occupancy
  Tm  Tm0  1  0.500000  0.500000  0.000000  1
  Tm  Tm1  1  0.000000  0.500000  0.500000  1
  Zr  Zr2  1  0.000000  0.500000  0.000000  1
  Zr  Zr3  1  0.000000  0.000000  0.500000  1
  Cu  Cu4  1  0.372692  0.122692  0.250000  1
  Cu  Cu5  1  0.627308  0.877308  0.750000  1
  S  S6  1  0.243633  0.753719  0.489914  1
  S  S7  1  0.763805  0.753719  0.010086  1
  S  S8  1  0.758333  0.759626  0.501292  1
  S  S9  1  0.758333  0.257041  0.998708  1
  S  S10  1  0.756367  0.246281  0.510086  1
  S  S11  1  0.236195  0.246281  0.989914  1
  S  S12  1  0.241667  0.240374  0.498708  1
  S  S13  1  0.241667  0.742959  0.001292  1
