# generated using pymatgen
data_Hf3Ta(Ni4P3)2
_symmetry_space_group_name_H-M   'P 1'
_cell_length_a   12.14589164
_cell_length_b   12.11002277
_cell_length_c   3.64546200
_cell_angle_alpha   90.00000000
_cell_angle_beta   90.00000000
_cell_angle_gamma   119.90236471
_symmetry_Int_Tables_number   1
_chemical_formula_structural   Hf3Ta(Ni4P3)2
_chemical_formula_sum   'Hf6 Ta2 Ni16 P12'
_cell_volume   464.81914140
_cell_formula_units_Z   2
loop_
 _symmetry_equiv_pos_site_id
 _symmetry_equiv_pos_as_xyz
  1  'x, y, z'
loop_
 _atom_site_type_symbol
 _atom_site_label
 _atom_site_symmetry_multiplicity
 _atom_site_fract_x
 _atom_site_fract_y
 _atom_site_fract_z
 _atom_site_occupancy
  Hf  Hf0  1  0.823240  0.822127  0.500000  1
  Hf  Hf1  1  0.000000  0.175588  0.500000  1
  Hf  Hf2  1  0.333697  0.667743  0.000000  1
  Hf  Hf3  1  0.666303  0.334045  0.000000  1
  Hf  Hf4  1  0.000000  0.555115  0.000000  1
  Hf  Hf5  1  0.176760  0.998886  0.500000  1
  Ta  Ta6  1  0.446003  0.446504  0.000000  1
  Ta  Ta7  1  0.553997  0.000501  0.000000  1
  Ni  Ni8  1  0.629591  0.819887  0.000000  1
  Ni  Ni9  1  0.370409  0.190295  0.000000  1
  Ni  Ni10  1  0.000000  0.724349  0.500000  1
  Ni  Ni11  1  0.276296  0.276369  0.500000  1
  Ni  Ni12  1  0.871551  0.351617  0.500000  1
  Ni  Ni13  1  0.723704  0.000073  0.500000  1
  Ni  Ni14  1  0.817977  0.630868  0.000000  1
  Ni  Ni15  1  0.182023  0.812891  0.000000  1
  Ni  Ni16  1  0.355523  0.873723  0.500000  1
  Ni  Ni17  1  0.128449  0.480066  0.500000  1
  Ni  Ni18  1  0.644477  0.518200  0.500000  1
  Ni  Ni19  1  0.000000  0.999850  0.000000  1
  Ni  Ni20  1  0.517424  0.647198  0.500000  1
  Ni  Ni21  1  0.482576  0.129774  0.500000  1
  Ni  Ni22  1  0.191142  0.369957  0.000000  1
  Ni  Ni23  1  0.808858  0.178815  0.000000  1
  P  P24  1  0.000000  0.347700  0.000000  1
  P  P25  1  0.826528  0.513341  0.500000  1
  P  P26  1  0.683995  0.169230  0.500000  1
  P  P27  1  0.175873  0.174740  0.000000  1
  P  P28  1  0.645679  0.647165  0.000000  1
  P  P29  1  0.824127  0.998868  0.000000  1
  P  P30  1  0.515455  0.831383  0.500000  1
  P  P31  1  0.173472  0.686812  0.500000  1
  P  P32  1  0.354321  0.001486  0.000000  1
  P  P33  1  0.484545  0.315929  0.500000  1
  P  P34  1  0.000000  0.823672  0.000000  1
  P  P35  1  0.316005  0.485234  0.500000  1
