# generated using pymatgen
data_CuBi2Sb4(SO8)2
_symmetry_space_group_name_H-M   'P 1'
_cell_length_a   5.74067534
_cell_length_b   7.85130755
_cell_length_c   9.54613246
_cell_angle_alpha   97.77149096
_cell_angle_beta   93.93994358
_cell_angle_gamma   108.52209902
_symmetry_Int_Tables_number   1
_chemical_formula_structural   CuBi2Sb4(SO8)2
_chemical_formula_sum   'Cu1 Bi2 Sb4 S2 O16'
_cell_volume   401.36177054
_cell_formula_units_Z   1
loop_
 _symmetry_equiv_pos_site_id
 _symmetry_equiv_pos_as_xyz
  1  'x, y, z'
loop_
 _atom_site_type_symbol
 _atom_site_label
 _atom_site_symmetry_multiplicity
 _atom_site_fract_x
 _atom_site_fract_y
 _atom_site_fract_z
 _atom_site_occupancy
  Cu  Cu0  1  0.000000  0.500000  0.500000  1
  Bi  Bi1  1  0.711886  0.516596  0.791296  1
  Bi  Bi2  1  0.288114  0.483404  0.208704  1
  Sb  Sb3  1  0.634643  0.826420  0.520612  1
  Sb  Sb4  1  0.365357  0.173580  0.479388  1
  Sb  Sb5  1  0.337732  0.856008  0.795589  1
  Sb  Sb6  1  0.662268  0.143992  0.204411  1
  S  S7  1  0.143123  0.232795  0.857290  1
  S  S8  1  0.856877  0.767205  0.142710  1
  O  O9  1  0.040971  0.662115  0.685108  1
  O  O10  1  0.959029  0.337885  0.314892  1
  O  O11  1  0.557942  0.713151  0.708922  1
  O  O12  1  0.442058  0.286849  0.291078  1
  O  O13  1  0.055935  0.037206  0.788279  1
  O  O14  1  0.944065  0.962794  0.211721  1
  O  O15  1  0.681322  0.369455  0.572303  1
  O  O16  1  0.318678  0.630545  0.427697  1
  O  O17  1  0.333033  0.263493  0.981749  1
  O  O18  1  0.666967  0.736507  0.018251  1
  O  O19  1  0.450121  0.979541  0.626482  1
  O  O20  1  0.549879  0.020459  0.373518  1
  O  O21  1  0.265136  0.348092  0.750292  1
  O  O22  1  0.734864  0.651908  0.249708  1
  O  O23  1  0.931596  0.287704  0.902563  1
  O  O24  1  0.068404  0.712296  0.097437  1
