# generated using pymatgen
data_Ag2IrF6
_symmetry_space_group_name_H-M   'P 1'
_cell_length_a   5.25156343
_cell_length_b   5.25148484
_cell_length_c   10.83980200
_cell_angle_alpha   90.00000000
_cell_angle_beta   90.00000000
_cell_angle_gamma   89.84781195
_symmetry_Int_Tables_number   1
_chemical_formula_structural   Ag2IrF6
_chemical_formula_sum   'Ag4 Ir2 F12'
_cell_volume   298.94448694
_cell_formula_units_Z   2
loop_
 _symmetry_equiv_pos_site_id
 _symmetry_equiv_pos_as_xyz
  1  'x, y, z'
loop_
 _atom_site_type_symbol
 _atom_site_label
 _atom_site_symmetry_multiplicity
 _atom_site_fract_x
 _atom_site_fract_y
 _atom_site_fract_z
 _atom_site_occupancy
  Ag  Ag0  1  0.500000  0.499997  0.164547  1
  Ag  Ag1  1  0.000000  0.000000  0.335269  1
  Ag  Ag2  1  0.000000  0.000000  0.664731  1
  Ag  Ag3  1  0.500000  0.499997  0.835454  1
  Ir  Ir4  1  0.000000  0.000000  0.999999  1
  Ir  Ir5  1  0.500000  0.499997  0.500003  1
  F  F6  1  0.735144  0.264856  0.000000  1
  F  F7  1  0.264855  0.735145  0.000000  1
  F  F8  1  0.176766  0.176852  0.138052  1
  F  F9  1  0.823234  0.823151  0.138052  1
  F  F10  1  0.677122  0.322628  0.361996  1
  F  F11  1  0.322877  0.677371  0.361996  1
  F  F12  1  0.236152  0.236154  0.500000  1
  F  F13  1  0.763846  0.763845  0.500000  1
  F  F14  1  0.677369  0.322877  0.638004  1
  F  F15  1  0.322630  0.677121  0.638004  1
  F  F16  1  0.176849  0.176766  0.861948  1
  F  F17  1  0.823149  0.823233  0.861948  1
