# generated using pymatgen
data_Mn4CoSi3W4
_symmetry_space_group_name_H-M   'P 1'
_cell_length_a   4.76261913
_cell_length_b   4.78731521
_cell_length_c   7.74669300
_cell_angle_alpha   90.00000000
_cell_angle_beta   90.00000000
_cell_angle_gamma   120.29498865
_symmetry_Int_Tables_number   1
_chemical_formula_structural   Mn4CoSi3W4
_chemical_formula_sum   'Mn4 Co1 Si3 W4'
_cell_volume   152.50575120
_cell_formula_units_Z   1
loop_
 _symmetry_equiv_pos_site_id
 _symmetry_equiv_pos_as_xyz
  1  'x, y, z'
loop_
 _atom_site_type_symbol
 _atom_site_label
 _atom_site_symmetry_multiplicity
 _atom_site_fract_x
 _atom_site_fract_y
 _atom_site_fract_z
 _atom_site_occupancy
  Mn  Mn0  1  0.170367  0.830405  0.000000  1
  Mn  Mn1  1  0.659228  0.828766  0.000000  1
  Mn  Mn2  1  0.172198  0.347115  0.000000  1
  Mn  Mn3  1  0.822045  0.157575  0.500000  1
  Co  Co4  1  0.320279  0.151449  0.500000  1
  Si  Si5  1  0.813162  0.638424  0.500000  1
  Si  Si6  1  0.012535  0.016655  0.247724  1
  Si  Si7  1  0.012535  0.016655  0.752276  1
  W  W8  1  0.338556  0.669664  0.310864  1
  W  W9  1  0.670720  0.336362  0.182979  1
  W  W10  1  0.670720  0.336362  0.817021  1
  W  W11  1  0.338556  0.669664  0.689136  1
