# generated using pymatgen
data_Hf6Al4FeRhC2
_symmetry_space_group_name_H-M   'P 1'
_cell_length_a   8.54361366
_cell_length_b   8.54361833
_cell_length_c   8.55862900
_cell_angle_alpha   59.94352894
_cell_angle_beta   59.94349290
_cell_angle_gamma   59.95366055
_symmetry_Int_Tables_number   1
_chemical_formula_structural   Hf6Al4FeRhC2
_chemical_formula_sum   'Hf12 Al8 Fe2 Rh2 C4'
_cell_volume   441.21395029
_cell_formula_units_Z   2
loop_
 _symmetry_equiv_pos_site_id
 _symmetry_equiv_pos_as_xyz
  1  'x, y, z'
loop_
 _atom_site_type_symbol
 _atom_site_label
 _atom_site_symmetry_multiplicity
 _atom_site_fract_x
 _atom_site_fract_y
 _atom_site_fract_z
 _atom_site_occupancy
  Hf  Hf0  1  0.553335  0.943670  0.558967  1
  Hf  Hf1  1  0.306330  0.696664  0.691033  1
  Hf  Hf2  1  0.696634  0.306343  0.305989  1
  Hf  Hf3  1  0.306343  0.696634  0.305988  1
  Hf  Hf4  1  0.691950  0.691949  0.308054  1
  Hf  Hf5  1  0.305110  0.305110  0.694880  1
  Hf  Hf6  1  0.558050  0.558051  0.941946  1
  Hf  Hf7  1  0.943670  0.553336  0.558967  1
  Hf  Hf8  1  0.553366  0.943657  0.944011  1
  Hf  Hf9  1  0.944890  0.944890  0.555120  1
  Hf  Hf10  1  0.696665  0.306330  0.691033  1
  Hf  Hf11  1  0.943657  0.553366  0.944012  1
  Al  Al12  1  0.922301  0.922301  0.913423  1
  Al  Al13  1  0.009489  0.324171  0.333143  1
  Al  Al14  1  0.324172  0.009487  0.333143  1
  Al  Al15  1  0.327691  0.327687  0.008013  1
  Al  Al16  1  0.925828  0.240513  0.916857  1
  Al  Al17  1  0.922309  0.922313  0.241987  1
  Al  Al18  1  0.240511  0.925829  0.916857  1
  Al  Al19  1  0.327699  0.327699  0.336577  1
  Fe  Fe20  1  0.125000  0.125000  0.125000  1
  Fe  Fe21  1  0.125000  0.125000  0.625000  1
  Rh  Rh22  1  0.625000  0.125000  0.125000  1
  Rh  Rh23  1  0.125000  0.625000  0.125000  1
  C  C24  1  0.625000  0.625000  0.625000  1
  C  C25  1  0.125000  0.625000  0.625000  1
  C  C26  1  0.625000  0.125000  0.625000  1
  C  C27  1  0.625000  0.625000  0.125000  1
