# generated using pymatgen
data_AcDy(Si7Ir3)2
_symmetry_space_group_name_H-M   'P 1'
_cell_length_a   8.13095604
_cell_length_b   8.13095694
_cell_length_c   8.13095673
_cell_angle_alpha   56.46579761
_cell_angle_beta   56.46579456
_cell_angle_gamma   56.46579167
_symmetry_Int_Tables_number   1
_chemical_formula_structural   AcDy(Si7Ir3)2
_chemical_formula_sum   'Ac1 Dy1 Si14 Ir6'
_cell_volume   349.05502900
_cell_formula_units_Z   1
loop_
 _symmetry_equiv_pos_site_id
 _symmetry_equiv_pos_as_xyz
  1  'x, y, z'
loop_
 _atom_site_type_symbol
 _atom_site_label
 _atom_site_symmetry_multiplicity
 _atom_site_fract_x
 _atom_site_fract_y
 _atom_site_fract_z
 _atom_site_occupancy
  Ac  Ac0  1  0.500000  0.500000  0.500000  1
  Dy  Dy1  1  0.000000  0.000000  0.000000  1
  Si  Si2  1  0.059976  0.853415  0.674889  1
  Si  Si3  1  0.674889  0.059976  0.853415  1
  Si  Si4  1  0.853415  0.674889  0.059976  1
  Si  Si5  1  0.170949  0.348123  0.565194  1
  Si  Si6  1  0.565194  0.170949  0.348123  1
  Si  Si7  1  0.348123  0.565194  0.170949  1
  Si  Si8  1  0.940024  0.146585  0.325111  1
  Si  Si9  1  0.325111  0.940024  0.146585  1
  Si  Si10  1  0.146585  0.325111  0.940024  1
  Si  Si11  1  0.829051  0.651877  0.434806  1
  Si  Si12  1  0.434806  0.829051  0.651877  1
  Si  Si13  1  0.651877  0.434806  0.829051  1
  Si  Si14  1  0.749678  0.749678  0.749678  1
  Si  Si15  1  0.250322  0.250322  0.250322  1
  Ir  Ir16  1  0.064787  0.754009  0.429050  1
  Ir  Ir17  1  0.429050  0.064787  0.754009  1
  Ir  Ir18  1  0.754009  0.429050  0.064787  1
  Ir  Ir19  1  0.935213  0.245991  0.570950  1
  Ir  Ir20  1  0.570950  0.935213  0.245991  1
  Ir  Ir21  1  0.245991  0.570950  0.935213  1
