# generated using pymatgen
data_CaV2F12
_symmetry_space_group_name_H-M   'P 1'
_cell_length_a   11.51547840
_cell_length_b   5.69699683
_cell_length_c   5.75913800
_cell_angle_alpha   57.73361415
_cell_angle_beta   57.61424723
_cell_angle_gamma   57.18858368
_symmetry_Int_Tables_number   1
_chemical_formula_structural   CaV2F12
_chemical_formula_sum   'Ca1 V2 F12'
_cell_volume   251.86012192
_cell_formula_units_Z   1
loop_
 _symmetry_equiv_pos_site_id
 _symmetry_equiv_pos_as_xyz
  1  'x, y, z'
loop_
 _atom_site_type_symbol
 _atom_site_label
 _atom_site_symmetry_multiplicity
 _atom_site_fract_x
 _atom_site_fract_y
 _atom_site_fract_z
 _atom_site_occupancy
  Ca  Ca0  1  0.750000  0.500000  0.500000  1
  V  V1  1  0.011652  0.985714  0.996597  1
  V  V2  1  0.488348  0.014286  0.003403  1
  F  F3  1  0.155908  0.123365  0.780559  1
  F  F4  1  0.655011  0.130252  0.784540  1
  F  F5  1  0.059556  0.786015  0.313512  1
  F  F6  1  0.566286  0.780834  0.306219  1
  F  F7  1  0.108974  0.679605  0.877993  1
  F  F8  1  0.611044  0.686579  0.872315  1
  F  F9  1  0.440444  0.213985  0.686488  1
  F  F10  1  0.933714  0.219166  0.693781  1
  F  F11  1  0.344092  0.876635  0.219441  1
  F  F12  1  0.844989  0.869748  0.215460  1
  F  F13  1  0.391026  0.320395  0.122007  1
  F  F14  1  0.888956  0.313421  0.127685  1
