# generated using pymatgen
data_Yb11Y6Tm3Sn16
_symmetry_space_group_name_H-M   'P 1'
_cell_length_a   7.83484913
_cell_length_b   8.43309264
_cell_length_c   15.98642900
_cell_angle_alpha   90.01798414
_cell_angle_beta   90.01026737
_cell_angle_gamma   89.84159754
_symmetry_Int_Tables_number   1
_chemical_formula_structural   Yb11Y6Tm3Sn16
_chemical_formula_sum   'Yb11 Y6 Tm3 Sn16'
_cell_volume   1056.25136758
_cell_formula_units_Z   1
loop_
 _symmetry_equiv_pos_site_id
 _symmetry_equiv_pos_as_xyz
  1  'x, y, z'
loop_
 _atom_site_type_symbol
 _atom_site_label
 _atom_site_symmetry_multiplicity
 _atom_site_fract_x
 _atom_site_fract_y
 _atom_site_fract_z
 _atom_site_occupancy
  Yb  Yb0  1  0.504277  0.687852  0.594264  1
  Yb  Yb1  1  0.004009  0.813890  0.907375  1
  Yb  Yb2  1  0.494339  0.311010  0.092382  1
  Yb  Yb3  1  0.995741  0.188102  0.407981  1
  Yb  Yb4  1  0.494711  0.311028  0.407818  1
  Yb  Yb5  1  0.996058  0.188111  0.091833  1
  Yb  Yb6  1  0.504196  0.687684  0.905756  1
  Yb  Yb7  1  0.003890  0.814028  0.592613  1
  Yb  Yb8  1  0.335840  0.989561  0.750022  1
  Yb  Yb9  1  0.163532  0.488398  0.249919  1
  Yb  Yb10  1  0.662606  0.010158  0.250093  1
  Y  Y11  1  0.326648  0.832542  0.121795  1
  Y  Y12  1  0.827165  0.665306  0.378512  1
  Y  Y13  1  0.326925  0.832709  0.378080  1
  Y  Y14  1  0.827324  0.665097  0.121585  1
  Y  Y15  1  0.673279  0.164971  0.877568  1
  Y  Y16  1  0.174809  0.333970  0.623133  1
  Tm  Tm17  1  0.673227  0.164760  0.622697  1
  Tm  Tm18  1  0.174186  0.334386  0.876578  1
  Tm  Tm19  1  0.837756  0.510046  0.750011  1
  Sn  Sn20  1  0.672601  0.964946  0.460134  1
  Sn  Sn21  1  0.172599  0.534411  0.039198  1
  Sn  Sn22  1  0.327119  0.037099  0.958959  1
  Sn  Sn23  1  0.827281  0.465433  0.544141  1
  Sn  Sn24  1  0.329481  0.036133  0.540990  1
  Sn  Sn25  1  0.829468  0.466222  0.955879  1
  Sn  Sn26  1  0.672220  0.964192  0.040525  1
  Sn  Sn27  1  0.172259  0.535126  0.460100  1
  Sn  Sn28  1  0.475413  0.379944  0.750035  1
  Sn  Sn29  1  0.970539  0.132036  0.750012  1
  Sn  Sn30  1  0.528526  0.622010  0.250010  1
  Sn  Sn31  1  0.027465  0.875454  0.249989  1
  Sn  Sn32  1  0.721098  0.864974  0.749646  1
  Sn  Sn33  1  0.209459  0.630943  0.750375  1
  Sn  Sn34  1  0.280901  0.127511  0.249987  1
  Sn  Sn35  1  0.783053  0.369962  0.250004  1
