# generated using pymatgen
data_Hf18MnCuMo8
_symmetry_space_group_name_H-M   'P 1'
_cell_length_a   8.67733500
_cell_length_b   8.67733478
_cell_length_c   8.49286500
_cell_angle_alpha   90.00000000
_cell_angle_beta   90.00000000
_cell_angle_gamma   120.00000467
_symmetry_Int_Tables_number   1
_chemical_formula_structural   Hf18MnCuMo8
_chemical_formula_sum   'Hf18 Mn1 Cu1 Mo8'
_cell_volume   553.80586323
_cell_formula_units_Z   1
loop_
 _symmetry_equiv_pos_site_id
 _symmetry_equiv_pos_as_xyz
  1  'x, y, z'
loop_
 _atom_site_type_symbol
 _atom_site_label
 _atom_site_symmetry_multiplicity
 _atom_site_fract_x
 _atom_site_fract_y
 _atom_site_fract_z
 _atom_site_occupancy
  Hf  Hf0  1  0.197440  0.802560  0.445245  1
  Hf  Hf1  1  0.197440  0.394879  0.445245  1
  Hf  Hf2  1  0.605121  0.802560  0.445245  1
  Hf  Hf3  1  0.797403  0.202597  0.558146  1
  Hf  Hf4  1  0.797403  0.594808  0.558146  1
  Hf  Hf5  1  0.405192  0.202597  0.558146  1
  Hf  Hf6  1  0.797403  0.202597  0.941854  1
  Hf  Hf7  1  0.797403  0.594808  0.941854  1
  Hf  Hf8  1  0.405192  0.202597  0.941854  1
  Hf  Hf9  1  0.197440  0.802560  0.054755  1
  Hf  Hf10  1  0.197440  0.394879  0.054755  1
  Hf  Hf11  1  0.605121  0.802560  0.054755  1
  Hf  Hf12  1  0.541679  0.458321  0.250000  1
  Hf  Hf13  1  0.541679  0.083358  0.250000  1
  Hf  Hf14  1  0.916642  0.458321  0.250000  1
  Hf  Hf15  1  0.459114  0.540886  0.750000  1
  Hf  Hf16  1  0.459114  0.918229  0.750000  1
  Hf  Hf17  1  0.081771  0.540886  0.750000  1
  Mn  Mn18  1  0.666667  0.333333  0.750000  1
  Cu  Cu19  1  0.333333  0.666667  0.250000  1
  Mo  Mo20  1  0.887998  0.112002  0.250000  1
  Mo  Mo21  1  0.887998  0.775997  0.250000  1
  Mo  Mo22  1  0.224003  0.112002  0.250000  1
  Mo  Mo23  1  0.112169  0.887831  0.750000  1
  Mo  Mo24  1  0.112169  0.224337  0.750000  1
  Mo  Mo25  1  0.775663  0.887831  0.750000  1
  Mo  Mo26  1  0.000000  0.000000  0.502400  1
  Mo  Mo27  1  0.000000  0.000000  0.997600  1
