# generated using pymatgen
data_TbNdMn6P7Ir6
_symmetry_space_group_name_H-M   'P 1'
_cell_length_a   9.42496600
_cell_length_b   9.42496638
_cell_length_c   3.87820000
_cell_angle_alpha   90.00000000
_cell_angle_beta   90.00000000
_cell_angle_gamma   119.99999165
_symmetry_Int_Tables_number   1
_chemical_formula_structural   TbNdMn6P7Ir6
_chemical_formula_sum   'Tb1 Nd1 Mn6 P7 Ir6'
_cell_volume   298.34617349
_cell_formula_units_Z   1
loop_
 _symmetry_equiv_pos_site_id
 _symmetry_equiv_pos_as_xyz
  1  'x, y, z'
loop_
 _atom_site_type_symbol
 _atom_site_label
 _atom_site_symmetry_multiplicity
 _atom_site_fract_x
 _atom_site_fract_y
 _atom_site_fract_z
 _atom_site_occupancy
  Tb  Tb0  1  0.333333  0.666667  0.500000  1
  Nd  Nd1  1  0.666667  0.333333  0.000000  1
  Mn  Mn2  1  0.269136  0.110126  0.000000  1
  Mn  Mn3  1  0.840990  0.730864  0.000000  1
  Mn  Mn4  1  0.889874  0.159010  0.000000  1
  Mn  Mn5  1  0.095780  0.881497  0.500000  1
  Mn  Mn6  1  0.785718  0.904220  0.500000  1
  Mn  Mn7  1  0.118503  0.214282  0.500000  1
  P  P8  1  0.300020  0.889307  0.000000  1
  P  P9  1  0.589287  0.699980  0.000000  1
  P  P10  1  0.110693  0.410713  0.000000  1
  P  P11  1  0.394049  0.278208  0.500000  1
  P  P12  1  0.884159  0.605951  0.500000  1
  P  P13  1  0.721792  0.115841  0.500000  1
  P  P14  1  0.000000  0.000000  0.000000  1
  Ir  Ir15  1  0.064104  0.638903  0.000000  1
  Ir  Ir16  1  0.574800  0.935896  0.000000  1
  Ir  Ir17  1  0.361097  0.425200  0.000000  1
  Ir  Ir18  1  0.437422  0.050395  0.500000  1
  Ir  Ir19  1  0.612973  0.562578  0.500000  1
  Ir  Ir20  1  0.949605  0.387027  0.500000  1
