# generated using pymatgen
data_Ca6Yb4Bi5Sb
_symmetry_space_group_name_H-M   'P 1'
_cell_length_a   9.23024800
_cell_length_b   9.21556426
_cell_length_c   7.03499100
_cell_angle_alpha   90.00000000
_cell_angle_beta   90.00000000
_cell_angle_gamma   120.05271486
_symmetry_Int_Tables_number   1
_chemical_formula_structural   Ca6Yb4Bi5Sb
_chemical_formula_sum   'Ca6 Yb4 Bi5 Sb1'
_cell_volume   517.96276604
_cell_formula_units_Z   1
loop_
 _symmetry_equiv_pos_site_id
 _symmetry_equiv_pos_as_xyz
  1  'x, y, z'
loop_
 _atom_site_type_symbol
 _atom_site_label
 _atom_site_symmetry_multiplicity
 _atom_site_fract_x
 _atom_site_fract_y
 _atom_site_fract_z
 _atom_site_occupancy
  Ca  Ca0  1  0.252257  0.000000  0.250000  1
  Ca  Ca1  1  0.252449  0.249449  0.750000  1
  Ca  Ca2  1  0.003000  0.750551  0.750000  1
  Ca  Ca3  1  0.999964  0.251410  0.250000  1
  Ca  Ca4  1  0.748554  0.748590  0.250000  1
  Ca  Ca5  1  0.746056  0.000000  0.750000  1
  Yb  Yb6  1  0.333769  0.668795  0.998728  1
  Yb  Yb7  1  0.664974  0.331205  0.501272  1
  Yb  Yb8  1  0.664974  0.331205  0.998728  1
  Yb  Yb9  1  0.333769  0.668795  0.501272  1
  Bi  Bi10  1  0.610394  0.000000  0.250000  1
  Bi  Bi11  1  0.610446  0.610381  0.750000  1
  Bi  Bi12  1  0.000066  0.389619  0.750000  1
  Bi  Bi13  1  0.999973  0.610285  0.250000  1
  Bi  Bi14  1  0.389688  0.389715  0.250000  1
  Sb  Sb15  1  0.389668  0.000000  0.750000  1
