# generated using pymatgen
data_Li4Ho3Sn4
_symmetry_space_group_name_H-M   'P 1'
_cell_length_a   4.57995273
_cell_length_b   7.09834205
_cell_length_c   8.60967655
_cell_angle_alpha   114.34502515
_cell_angle_beta   105.42501621
_cell_angle_gamma   90.00000136
_symmetry_Int_Tables_number   1
_chemical_formula_structural   Li4Ho3Sn4
_chemical_formula_sum   'Li4 Ho3 Sn4'
_cell_volume   243.90338331
_cell_formula_units_Z   1
loop_
 _symmetry_equiv_pos_site_id
 _symmetry_equiv_pos_as_xyz
  1  'x, y, z'
loop_
 _atom_site_type_symbol
 _atom_site_label
 _atom_site_symmetry_multiplicity
 _atom_site_fract_x
 _atom_site_fract_y
 _atom_site_fract_z
 _atom_site_occupancy
  Li  Li0  1  0.673498  0.365832  0.346994  1
  Li  Li1  1  0.673498  0.981161  0.346994  1
  Li  Li2  1  0.326503  0.018838  0.653005  1
  Li  Li3  1  0.326503  0.634167  0.653005  1
  Ho  Ho4  1  0.000000  0.000000  0.000000  1
  Ho  Ho5  1  0.127426  0.627426  0.254853  1
  Ho  Ho6  1  0.872576  0.372575  0.745148  1
  Sn  Sn7  1  0.500001  0.298173  0.000000  1
  Sn  Sn8  1  0.500001  0.701827  0.000000  1
  Sn  Sn9  1  0.213604  0.213604  0.427207  1
  Sn  Sn10  1  0.786398  0.786397  0.572794  1
