# generated using pymatgen
data_Np8B24Ir3Ru
_symmetry_space_group_name_H-M   'P 1'
_cell_length_a   3.52330200
_cell_length_b   9.42613467
_cell_length_c   11.42101914
_cell_angle_alpha   90.04324949
_cell_angle_beta   90.00000000
_cell_angle_gamma   90.00000000
_symmetry_Int_Tables_number   1
_chemical_formula_structural   Np8B24Ir3Ru
_chemical_formula_sum   'Np8 B24 Ir3 Ru1'
_cell_volume   379.30471947
_cell_formula_units_Z   1
loop_
 _symmetry_equiv_pos_site_id
 _symmetry_equiv_pos_as_xyz
  1  'x, y, z'
loop_
 _atom_site_type_symbol
 _atom_site_label
 _atom_site_symmetry_multiplicity
 _atom_site_fract_x
 _atom_site_fract_y
 _atom_site_fract_z
 _atom_site_occupancy
  Np  Np0  1  0.000000  0.339612  0.406603  1
  Np  Np1  1  0.000000  0.661284  0.594025  1
  Np  Np2  1  0.000000  0.839468  0.092960  1
  Np  Np3  1  0.000000  0.159680  0.906245  1
  Np  Np4  1  0.000000  0.959793  0.401241  1
  Np  Np5  1  0.000000  0.038990  0.598871  1
  Np  Np6  1  0.000000  0.459646  0.098414  1
  Np  Np7  1  0.000000  0.541213  0.901785  1
  B  B8  1  0.500000  0.551144  0.433497  1
  B  B9  1  0.500000  0.449578  0.566420  1
  B  B10  1  0.500000  0.050737  0.066481  1
  B  B11  1  0.500000  0.947650  0.932686  1
  B  B12  1  0.500000  0.744542  0.423890  1
  B  B13  1  0.500000  0.256266  0.576143  1
  B  B14  1  0.500000  0.244327  0.076028  1
  B  B15  1  0.500000  0.756977  0.923977  1
  B  B16  1  0.500000  0.810445  0.273558  1
  B  B17  1  0.500000  0.189942  0.726424  1
  B  B18  1  0.500000  0.310470  0.226236  1
  B  B19  1  0.500000  0.692373  0.774445  1
  B  B20  1  0.500000  0.648057  0.188250  1
  B  B21  1  0.500000  0.351278  0.811596  1
  B  B22  1  0.500000  0.147942  0.311635  1
  B  B23  1  0.500000  0.851348  0.688984  1
  B  B24  1  0.500000  0.987598  0.220856  1
  B  B25  1  0.500000  0.010124  0.779076  1
  B  B26  1  0.500000  0.487744  0.278805  1
  B  B27  1  0.500000  0.511890  0.721023  1
  B  B28  1  0.500000  0.646864  0.041206  1
  B  B29  1  0.500000  0.352971  0.959088  1
  B  B30  1  0.500000  0.146598  0.459058  1
  B  B31  1  0.500000  0.853058  0.540758  1
  Ir  Ir32  1  0.000000  0.648776  0.319845  1
  Ir  Ir33  1  0.000000  0.351709  0.680674  1
  Ir  Ir34  1  0.000000  0.148212  0.179597  1
  Ru  Ru35  1  0.000000  0.851694  0.819617  1
