# generated using pymatgen
data_YNi2(PRu)3
_symmetry_space_group_name_H-M   'P 1'
_cell_length_a   3.80718600
_cell_length_b   10.72821500
_cell_length_c   12.11244900
_cell_angle_alpha   90.00000000
_cell_angle_beta   90.00000000
_cell_angle_gamma   90.00000000
_symmetry_Int_Tables_number   1
_chemical_formula_structural   YNi2(PRu)3
_chemical_formula_sum   'Y4 Ni8 P12 Ru12'
_cell_volume   494.72462125
_cell_formula_units_Z   4
loop_
 _symmetry_equiv_pos_site_id
 _symmetry_equiv_pos_as_xyz
  1  'x, y, z'
loop_
 _atom_site_type_symbol
 _atom_site_label
 _atom_site_symmetry_multiplicity
 _atom_site_fract_x
 _atom_site_fract_y
 _atom_site_fract_z
 _atom_site_occupancy
  Y  Y0  1  0.250000  0.588144  0.706802  1
  Y  Y1  1  0.250000  0.911856  0.206802  1
  Y  Y2  1  0.750000  0.411856  0.293198  1
  Y  Y3  1  0.750000  0.088144  0.793198  1
  Ni  Ni4  1  0.250000  0.891063  0.697925  1
  Ni  Ni5  1  0.250000  0.608937  0.197925  1
  Ni  Ni6  1  0.750000  0.108937  0.302075  1
  Ni  Ni7  1  0.750000  0.391063  0.802075  1
  Ni  Ni8  1  0.250000  0.461744  0.930181  1
  Ni  Ni9  1  0.250000  0.038256  0.430181  1
  Ni  Ni10  1  0.750000  0.538256  0.069819  1
  Ni  Ni11  1  0.750000  0.961744  0.569819  1
  P  P12  1  0.250000  0.418940  0.110080  1
  P  P13  1  0.250000  0.081060  0.610080  1
  P  P14  1  0.750000  0.581060  0.889920  1
  P  P15  1  0.750000  0.918940  0.389920  1
  P  P16  1  0.250000  0.269191  0.875306  1
  P  P17  1  0.250000  0.230809  0.375306  1
  P  P18  1  0.750000  0.730809  0.124694  1
  P  P19  1  0.750000  0.769191  0.624694  1
  P  P20  1  0.250000  0.601405  0.389141  1
  P  P21  1  0.250000  0.898595  0.889141  1
  P  P22  1  0.750000  0.398595  0.610859  1
  P  P23  1  0.750000  0.101405  0.110859  1
  Ru  Ru24  1  0.250000  0.708450  0.986252  1
  Ru  Ru25  1  0.250000  0.791550  0.486252  1
  Ru  Ru26  1  0.750000  0.291550  0.013748  1
  Ru  Ru27  1  0.750000  0.208450  0.513748  1
  Ru  Ru28  1  0.250000  0.406571  0.486891  1
  Ru  Ru29  1  0.250000  0.093429  0.986891  1
  Ru  Ru30  1  0.750000  0.593429  0.513109  1
  Ru  Ru31  1  0.750000  0.906571  0.013109  1
  Ru  Ru32  1  0.250000  0.221178  0.182702  1
  Ru  Ru33  1  0.250000  0.278822  0.682702  1
  Ru  Ru34  1  0.750000  0.778822  0.817298  1
  Ru  Ru35  1  0.750000  0.721178  0.317298  1
