# generated using pymatgen
data_NdDy5(CoSn6)2
_symmetry_space_group_name_H-M   'P 1'
_cell_length_a   8.50758082
_cell_length_b   8.50758194
_cell_length_c   13.18288996
_cell_angle_alpha   89.95855130
_cell_angle_beta   90.04144802
_cell_angle_gamma   148.84103074
_symmetry_Int_Tables_number   1
_chemical_formula_structural   NdDy5(CoSn6)2
_chemical_formula_sum   'Nd1 Dy5 Co2 Sn12'
_cell_volume   493.69778971
_cell_formula_units_Z   1
loop_
 _symmetry_equiv_pos_site_id
 _symmetry_equiv_pos_as_xyz
  1  'x, y, z'
loop_
 _atom_site_type_symbol
 _atom_site_label
 _atom_site_symmetry_multiplicity
 _atom_site_fract_x
 _atom_site_fract_y
 _atom_site_fract_z
 _atom_site_occupancy
  Nd  Nd0  1  0.900519  0.099481  0.406836  1
  Dy  Dy1  1  0.898627  0.101373  0.092292  1
  Dy  Dy2  1  0.101452  0.898548  0.594282  1
  Dy  Dy3  1  0.899910  0.100090  0.751429  1
  Dy  Dy4  1  0.100815  0.899185  0.906817  1
  Dy  Dy5  1  0.100339  0.899661  0.248791  1
  Co  Co6  1  0.299232  0.700768  0.249130  1
  Co  Co7  1  0.699897  0.300103  0.750622  1
  Sn  Sn8  1  0.755074  0.244926  0.572772  1
  Sn  Sn9  1  0.429165  0.570835  0.579436  1
  Sn  Sn10  1  0.572922  0.427078  0.423563  1
  Sn  Sn11  1  0.733748  0.266252  0.248965  1
  Sn  Sn12  1  0.265408  0.734592  0.750439  1
  Sn  Sn13  1  0.244016  0.755984  0.071046  1
  Sn  Sn14  1  0.243049  0.756951  0.427949  1
  Sn  Sn15  1  0.572302  0.427698  0.075133  1
  Sn  Sn16  1  0.454239  0.545761  0.246698  1
  Sn  Sn17  1  0.546120  0.453880  0.751148  1
  Sn  Sn18  1  0.755735  0.244265  0.928288  1
  Sn  Sn19  1  0.427431  0.572569  0.924364  1
