# generated using pymatgen
data_Ta12MnAl8Fe(CuC2)2
_symmetry_space_group_name_H-M   'P 1'
_cell_length_a   8.20785530
_cell_length_b   8.25512496
_cell_length_c   8.24135765
_cell_angle_alpha   60.36375547
_cell_angle_beta   60.13438248
_cell_angle_gamma   60.18922530
_symmetry_Int_Tables_number   1
_chemical_formula_structural   Ta12MnAl8Fe(CuC2)2
_chemical_formula_sum   'Ta12 Mn1 Al8 Fe1 Cu2 C4'
_cell_volume   396.89925084
_cell_formula_units_Z   1
loop_
 _symmetry_equiv_pos_site_id
 _symmetry_equiv_pos_as_xyz
  1  'x, y, z'
loop_
 _atom_site_type_symbol
 _atom_site_label
 _atom_site_symmetry_multiplicity
 _atom_site_fract_x
 _atom_site_fract_y
 _atom_site_fract_z
 _atom_site_occupancy
  Ta  Ta0  1  0.558098  0.935486  0.568060  1
  Ta  Ta1  1  0.308280  0.687939  0.695502  1
  Ta  Ta2  1  0.683517  0.317291  0.315676  1
  Ta  Ta3  1  0.310288  0.680870  0.311613  1
  Ta  Ta4  1  0.697230  0.680870  0.311613  1
  Ta  Ta5  1  0.311644  0.314514  0.681940  1
  Ta  Ta6  1  0.552770  0.569130  0.938387  1
  Ta  Ta7  1  0.941720  0.562061  0.554498  1
  Ta  Ta8  1  0.566483  0.932709  0.934324  1
  Ta  Ta9  1  0.938356  0.935486  0.568060  1
  Ta  Ta10  1  0.691902  0.314514  0.681940  1
  Ta  Ta11  1  0.939712  0.569130  0.938387  1
  Mn  Mn12  1  0.125000  0.625000  0.125000  1
  Al  Al13  1  0.921326  0.919637  0.915253  1
  Al  Al14  1  0.006216  0.330363  0.334747  1
  Al  Al15  1  0.332227  0.996613  0.338932  1
  Al  Al16  1  0.332722  0.334600  0.999956  1
  Al  Al17  1  0.917773  0.253387  0.911068  1
  Al  Al18  1  0.917278  0.915400  0.250044  1
  Al  Al19  1  0.243784  0.919637  0.915253  1
  Al  Al20  1  0.328674  0.330363  0.334747  1
  Fe  Fe21  1  0.125000  0.125000  0.625000  1
  Cu  Cu22  1  0.125000  0.125000  0.125000  1
  Cu  Cu23  1  0.625000  0.125000  0.125000  1
  C  C24  1  0.625000  0.625000  0.625000  1
  C  C25  1  0.125000  0.625000  0.625000  1
  C  C26  1  0.625000  0.125000  0.625000  1
  C  C27  1  0.625000  0.625000  0.125000  1
