# generated using pymatgen
data_Li2Dy5Sc(P3Ir4)4
_symmetry_space_group_name_H-M   'P 1'
_cell_length_a   12.72384439
_cell_length_b   12.87855040
_cell_length_c   3.96558900
_cell_angle_alpha   90.00000000
_cell_angle_beta   90.00000000
_cell_angle_gamma   120.40303508
_symmetry_Int_Tables_number   1
_chemical_formula_structural   Li2Dy5Sc(P3Ir4)4
_chemical_formula_sum   'Li2 Dy5 Sc1 P12 Ir16'
_cell_volume   560.46115903
_cell_formula_units_Z   1
loop_
 _symmetry_equiv_pos_site_id
 _symmetry_equiv_pos_as_xyz
  1  'x, y, z'
loop_
 _atom_site_type_symbol
 _atom_site_label
 _atom_site_symmetry_multiplicity
 _atom_site_fract_x
 _atom_site_fract_y
 _atom_site_fract_z
 _atom_site_occupancy
  Li  Li0  1  0.554803  0.555585  0.500000  1
  Li  Li1  1  0.445197  0.000782  0.500000  1
  Dy  Dy2  1  0.331087  0.666464  0.500000  1
  Dy  Dy3  1  0.668913  0.335376  0.500000  1
  Dy  Dy4  1  0.000000  0.811686  0.000000  1
  Dy  Dy5  1  0.188461  0.190258  0.000000  1
  Dy  Dy6  1  0.811539  0.001796  0.000000  1
  Sc  Sc7  1  0.000000  0.441566  0.500000  1
  P  P8  1  0.000000  0.641983  0.500000  1
  P  P9  1  0.368820  0.363658  0.500000  1
  P  P10  1  0.631180  0.994838  0.500000  1
  P  P11  1  0.515823  0.688451  0.000000  1
  P  P12  1  0.315203  0.831650  0.000000  1
  P  P13  1  0.168126  0.483163  0.000000  1
  P  P14  1  0.484177  0.172628  0.000000  1
  P  P15  1  0.684797  0.516447  0.000000  1
  P  P16  1  0.831874  0.315037  0.000000  1
  P  P17  1  0.000000  0.174759  0.500000  1
  P  P18  1  0.819585  0.819076  0.500000  1
  P  P19  1  0.180415  0.999492  0.500000  1
  Ir  Ir20  1  0.515228  0.873439  0.000000  1
  Ir  Ir21  1  0.131615  0.643578  0.000000  1
  Ir  Ir22  1  0.357254  0.494763  0.000000  1
  Ir  Ir23  1  0.484772  0.358210  0.000000  1
  Ir  Ir24  1  0.868385  0.511962  0.000000  1
  Ir  Ir25  1  0.642746  0.137508  0.000000  1
  Ir  Ir26  1  0.000000  0.279490  0.000000  1
  Ir  Ir27  1  0.719525  0.719934  0.000000  1
  Ir  Ir28  1  0.280475  0.000409  0.000000  1
  Ir  Ir29  1  0.623178  0.801378  0.500000  1
  Ir  Ir30  1  0.196825  0.822675  0.500000  1
  Ir  Ir31  1  0.183106  0.367673  0.500000  1
  Ir  Ir32  1  0.376822  0.178200  0.500000  1
  Ir  Ir33  1  0.803175  0.625852  0.500000  1
  Ir  Ir34  1  0.816894  0.184567  0.500000  1
  Ir  Ir35  1  0.000000  0.995669  0.500000  1
