# generated using pymatgen
data_Ho3ErVOs7
_symmetry_space_group_name_H-M   'P 1'
_cell_length_a   5.23242550
_cell_length_b   5.23242460
_cell_length_c   8.85215800
_cell_angle_alpha   89.99831554
_cell_angle_beta   90.00168312
_cell_angle_gamma   117.24768055
_symmetry_Int_Tables_number   1
_chemical_formula_structural   Ho3ErVOs7
_chemical_formula_sum   'Ho3 Er1 V1 Os7'
_cell_volume   215.46383159
_cell_formula_units_Z   1
loop_
 _symmetry_equiv_pos_site_id
 _symmetry_equiv_pos_as_xyz
  1  'x, y, z'
loop_
 _atom_site_type_symbol
 _atom_site_label
 _atom_site_symmetry_multiplicity
 _atom_site_fract_x
 _atom_site_fract_y
 _atom_site_fract_z
 _atom_site_occupancy
  Ho  Ho0  1  0.330912  0.669088  0.437087  1
  Ho  Ho1  1  0.668773  0.331227  0.566156  1
  Ho  Ho2  1  0.668767  0.331233  0.933980  1
  Er  Er3  1  0.330821  0.669179  0.062864  1
  V  V4  1  0.834131  0.165869  0.249729  1
  Os  Os5  1  0.996139  0.003861  0.498626  1
  Os  Os6  1  0.996186  0.003814  0.001455  1
  Os  Os7  1  0.824097  0.651446  0.249593  1
  Os  Os8  1  0.348554  0.175903  0.249593  1
  Os  Os9  1  0.170802  0.829198  0.750389  1
  Os  Os10  1  0.175001  0.344183  0.750265  1
  Os  Os11  1  0.655817  0.824999  0.750265  1
