# generated using pymatgen
data_Nd2Co9Si7Tc3
_symmetry_space_group_name_H-M   'P 1'
_cell_length_a   3.78984500
_cell_length_b   9.26585987
_cell_length_c   9.26586100
_cell_angle_alpha   120.00000046
_cell_angle_beta   90.00000000
_cell_angle_gamma   90.00000000
_symmetry_Int_Tables_number   1
_chemical_formula_structural   Nd2Co9Si7Tc3
_chemical_formula_sum   'Nd2 Co9 Si7 Tc3'
_cell_volume   281.78870870
_cell_formula_units_Z   1
loop_
 _symmetry_equiv_pos_site_id
 _symmetry_equiv_pos_as_xyz
  1  'x, y, z'
loop_
 _atom_site_type_symbol
 _atom_site_label
 _atom_site_symmetry_multiplicity
 _atom_site_fract_x
 _atom_site_fract_y
 _atom_site_fract_z
 _atom_site_occupancy
  Nd  Nd0  1  0.000000  0.666667  0.333333  1
  Nd  Nd1  1  0.500000  0.333333  0.666667  1
  Co  Co2  1  0.000000  0.570525  0.945467  1
  Co  Co3  1  0.000000  0.374942  0.429475  1
  Co  Co4  1  0.000000  0.054533  0.625058  1
  Co  Co5  1  0.000000  0.873978  0.152601  1
  Co  Co6  1  0.000000  0.278623  0.126022  1
  Co  Co7  1  0.000000  0.847399  0.721377  1
  Co  Co8  1  0.500000  0.948225  0.382664  1
  Co  Co9  1  0.500000  0.434438  0.051775  1
  Co  Co10  1  0.500000  0.617336  0.565562  1
  Si  Si11  1  0.000000  0.000000  0.000000  1
  Si  Si12  1  0.500000  0.709365  0.106716  1
  Si  Si13  1  0.500000  0.397352  0.290635  1
  Si  Si14  1  0.500000  0.893284  0.602648  1
  Si  Si15  1  0.000000  0.596333  0.703339  1
  Si  Si16  1  0.000000  0.107006  0.403667  1
  Si  Si17  1  0.000000  0.296661  0.892994  1
  Tc  Tc18  1  0.500000  0.786061  0.894821  1
  Tc  Tc19  1  0.500000  0.108760  0.213939  1
  Tc  Tc20  1  0.500000  0.105179  0.891240  1
