# generated using pymatgen
data_Tm4Ga2As4Ir7
_symmetry_space_group_name_H-M   'P 1'
_cell_length_a   7.24331295
_cell_length_b   7.24331290
_cell_length_c   7.24494211
_cell_angle_alpha   109.22371794
_cell_angle_beta   109.22371282
_cell_angle_gamma   109.95834450
_symmetry_Int_Tables_number   1
_chemical_formula_structural   Tm4Ga2As4Ir7
_chemical_formula_sum   'Tm4 Ga2 As4 Ir7'
_cell_volume   292.62532043
_cell_formula_units_Z   1
loop_
 _symmetry_equiv_pos_site_id
 _symmetry_equiv_pos_as_xyz
  1  'x, y, z'
loop_
 _atom_site_type_symbol
 _atom_site_label
 _atom_site_symmetry_multiplicity
 _atom_site_fract_x
 _atom_site_fract_y
 _atom_site_fract_z
 _atom_site_occupancy
  Tm  Tm0  1  0.999183  0.999183  0.490115  1
  Tm  Tm1  1  0.997574  0.497574  0.995148  1
  Tm  Tm2  1  0.497574  0.997574  0.995148  1
  Tm  Tm3  1  0.490932  0.490932  0.490115  1
  Ga  Ga4  1  0.692559  0.995775  0.688335  1
  Ga  Ga5  1  0.995775  0.692559  0.688335  1
  As  As6  1  0.682930  0.682930  0.994938  1
  As  As7  1  0.326911  0.996959  0.323870  1
  As  As8  1  0.996959  0.326911  0.323870  1
  As  As9  1  0.312009  0.312009  0.994938  1
  Ir  Ir10  1  0.750586  0.250586  0.501172  1
  Ir  Ir11  1  0.746617  0.501177  0.247794  1
  Ir  Ir12  1  0.500648  0.248940  0.749588  1
  Ir  Ir13  1  0.248940  0.500648  0.749588  1
  Ir  Ir14  1  0.250586  0.750586  0.501172  1
  Ir  Ir15  1  0.501177  0.746617  0.247794  1
  Ir  Ir16  1  0.009042  0.009042  0.018084  1
