# generated using pymatgen
data_Ti8Al15Ir(Pt2Rh)2
_symmetry_space_group_name_H-M   'P 1'
_cell_length_a   8.67928058
_cell_length_b   8.67901938
_cell_length_c   8.69229182
_cell_angle_alpha   120.04841493
_cell_angle_beta   119.87419912
_cell_angle_gamma   90.11276262
_symmetry_Int_Tables_number   1
_chemical_formula_structural   Ti8Al15Ir(Pt2Rh)2
_chemical_formula_sum   'Ti8 Al15 Ir1 Pt4 Rh2'
_cell_volume   463.07615178
_cell_formula_units_Z   1
loop_
 _symmetry_equiv_pos_site_id
 _symmetry_equiv_pos_as_xyz
  1  'x, y, z'
loop_
 _atom_site_type_symbol
 _atom_site_label
 _atom_site_symmetry_multiplicity
 _atom_site_fract_x
 _atom_site_fract_y
 _atom_site_fract_z
 _atom_site_occupancy
  Ti  Ti0  1  0.789916  0.292410  0.077775  1
  Ti  Ti1  1  0.214473  0.290351  0.502356  1
  Ti  Ti2  1  0.209555  0.710168  0.499145  1
  Ti  Ti3  1  0.212612  0.711352  0.921453  1
  Ti  Ti4  1  0.790858  0.713048  0.499764  1
  Ti  Ti5  1  0.786567  0.286764  0.501405  1
  Ti  Ti6  1  0.379446  0.120949  0.740924  1
  Ti  Ti7  1  0.373370  0.636511  0.254794  1
  Al  Al8  1  0.998368  0.497664  0.499669  1
  Al  Al9  1  0.152800  0.341251  0.186470  1
  Al  Al10  1  0.154843  0.969790  0.814287  1
  Al  Al11  1  0.152938  0.343415  0.810011  1
  Al  Al12  1  0.533585  0.344176  0.189744  1
  Al  Al13  1  0.847938  0.656389  0.811846  1
  Al  Al14  1  0.847723  0.037243  0.189585  1
  Al  Al15  1  0.844753  0.654896  0.186119  1
  Al  Al16  1  0.467739  0.655337  0.811151  1
  Al  Al17  1  0.374598  0.117697  0.257717  1
  Al  Al18  1  0.861648  0.122816  0.746182  1
  Al  Al19  1  0.620917  0.879412  0.259545  1
  Al  Al20  1  0.625195  0.363171  0.744113  1
  Al  Al21  1  0.626325  0.881094  0.743780  1
  Al  Al22  1  0.135417  0.877069  0.252948  1
  Ir  Ir23  1  0.001105  0.499791  0.000820  1
  Pt  Pt24  1  0.998333  0.998514  0.498042  1
  Pt  Pt25  1  0.500215  0.998914  0.000123  1
  Pt  Pt26  1  0.499937  0.500925  0.000499  1
  Pt  Pt27  1  0.499605  0.499851  0.499837  1
  Rh  Rh28  1  0.000867  0.000233  0.999864  1
  Rh  Rh29  1  0.498352  0.998796  0.500032  1
