# generated using pymatgen
data_Zr4IrPtN
_symmetry_space_group_name_H-M   'P 1'
_cell_length_a   8.87315146
_cell_length_b   8.87315118
_cell_length_c   8.87315200
_cell_angle_alpha   60.00000440
_cell_angle_beta   60.00000545
_cell_angle_gamma   60.00000473
_symmetry_Int_Tables_number   1
_chemical_formula_structural   Zr4IrPtN
_chemical_formula_sum   'Zr16 Ir4 Pt4 N4'
_cell_volume   493.99067068
_cell_formula_units_Z   4
loop_
 _symmetry_equiv_pos_site_id
 _symmetry_equiv_pos_as_xyz
  1  'x, y, z'
loop_
 _atom_site_type_symbol
 _atom_site_label
 _atom_site_symmetry_multiplicity
 _atom_site_fract_x
 _atom_site_fract_y
 _atom_site_fract_z
 _atom_site_occupancy
  Zr  Zr0  1  0.110358  0.629880  0.629880  1
  Zr  Zr1  1  0.629880  0.110358  0.629880  1
  Zr  Zr2  1  0.629880  0.629880  0.110358  1
  Zr  Zr3  1  0.629880  0.629880  0.629880  1
  Zr  Zr4  1  0.817806  0.817806  0.182194  1
  Zr  Zr5  1  0.182194  0.182194  0.817806  1
  Zr  Zr6  1  0.817806  0.182194  0.817806  1
  Zr  Zr7  1  0.182194  0.817806  0.182194  1
  Zr  Zr8  1  0.182194  0.817806  0.817806  1
  Zr  Zr9  1  0.817806  0.182194  0.182194  1
  Zr  Zr10  1  0.433167  0.433167  0.066833  1
  Zr  Zr11  1  0.066833  0.066833  0.433167  1
  Zr  Zr12  1  0.433167  0.066833  0.433167  1
  Zr  Zr13  1  0.066833  0.433167  0.066833  1
  Zr  Zr14  1  0.066833  0.433167  0.433167  1
  Zr  Zr15  1  0.433167  0.066833  0.066833  1
  Ir  Ir16  1  0.462457  0.845847  0.845847  1
  Ir  Ir17  1  0.845847  0.462457  0.845847  1
  Ir  Ir18  1  0.845847  0.845847  0.462457  1
  Ir  Ir19  1  0.845847  0.845847  0.845847  1
  Pt  Pt20  1  0.768583  0.410473  0.410473  1
  Pt  Pt21  1  0.410473  0.768583  0.410473  1
  Pt  Pt22  1  0.410473  0.410473  0.768583  1
  Pt  Pt23  1  0.410473  0.410473  0.410473  1
  N  N24  1  0.622966  0.125678  0.125678  1
  N  N25  1  0.125678  0.622966  0.125678  1
  N  N26  1  0.125678  0.125678  0.622966  1
  N  N27  1  0.125678  0.125678  0.125678  1
