# generated using pymatgen
data_Y5Er3(CdPd)2
_symmetry_space_group_name_H-M   'P 1'
_cell_length_a   9.68035941
_cell_length_b   9.69263833
_cell_length_c   9.69263777
_cell_angle_alpha   59.91621128
_cell_angle_beta   60.04189109
_cell_angle_gamma   60.04189569
_symmetry_Int_Tables_number   1
_chemical_formula_structural   Y5Er3(CdPd)2
_chemical_formula_sum   'Y10 Er6 Cd4 Pd4'
_cell_volume   643.07122439
_cell_formula_units_Z   2
loop_
 _symmetry_equiv_pos_site_id
 _symmetry_equiv_pos_as_xyz
  1  'x, y, z'
loop_
 _atom_site_type_symbol
 _atom_site_label
 _atom_site_symmetry_multiplicity
 _atom_site_fract_x
 _atom_site_fract_y
 _atom_site_fract_z
 _atom_site_occupancy
  Y  Y0  1  0.189745  0.810255  0.189745  1
  Y  Y1  1  0.810255  0.189745  0.810255  1
  Y  Y2  1  0.189745  0.189745  0.810255  1
  Y  Y3  1  0.810255  0.810255  0.189745  1
  Y  Y4  1  0.934609  0.565391  0.565391  1
  Y  Y5  1  0.565391  0.934609  0.934609  1
  Y  Y6  1  0.565275  0.934725  0.565275  1
  Y  Y7  1  0.934725  0.565275  0.934725  1
  Y  Y8  1  0.565275  0.565275  0.934725  1
  Y  Y9  1  0.934725  0.934725  0.565275  1
  Er  Er10  1  0.353881  0.353404  0.353404  1
  Er  Er11  1  0.353404  0.353881  0.939310  1
  Er  Er12  1  0.353404  0.939310  0.353881  1
  Er  Er13  1  0.939310  0.353404  0.353404  1
  Er  Er14  1  0.810113  0.189887  0.189887  1
  Er  Er15  1  0.189887  0.810113  0.810113  1
  Cd  Cd16  1  0.581798  0.581899  0.581899  1
  Cd  Cd17  1  0.581899  0.581798  0.254404  1
  Cd  Cd18  1  0.581899  0.254404  0.581798  1
  Cd  Cd19  1  0.254404  0.581899  0.581899  1
  Pd  Pd20  1  0.143992  0.145971  0.145971  1
  Pd  Pd21  1  0.145971  0.143992  0.564066  1
  Pd  Pd22  1  0.145971  0.564066  0.143992  1
  Pd  Pd23  1  0.564066  0.145971  0.145971  1
