# generated using pymatgen
data_Nd7Sm(OsI4)2
_symmetry_space_group_name_H-M   'P 1'
_cell_length_a   11.15569230
_cell_length_b   11.13426494
_cell_length_c   6.41858157
_cell_angle_alpha   90.37279541
_cell_angle_beta   90.39494290
_cell_angle_gamma   89.58997417
_symmetry_Int_Tables_number   1
_chemical_formula_structural   Nd7Sm(OsI4)2
_chemical_formula_sum   'Nd7 Sm1 Os2 I8'
_cell_volume   797.19882377
_cell_formula_units_Z   1
loop_
 _symmetry_equiv_pos_site_id
 _symmetry_equiv_pos_as_xyz
  1  'x, y, z'
loop_
 _atom_site_type_symbol
 _atom_site_label
 _atom_site_symmetry_multiplicity
 _atom_site_fract_x
 _atom_site_fract_y
 _atom_site_fract_z
 _atom_site_occupancy
  Nd  Nd0  1  0.787648  0.084401  0.998060  1
  Nd  Nd1  1  0.084591  0.788393  0.498208  1
  Nd  Nd2  1  0.082817  0.210679  0.004086  1
  Nd  Nd3  1  0.210375  0.083158  0.504165  1
  Nd  Nd4  1  0.915577  0.789053  0.995799  1
  Nd  Nd5  1  0.915193  0.211256  0.501665  1
  Nd  Nd6  1  0.210889  0.915052  0.001851  1
  Sm  Sm7  1  0.794813  0.918495  0.495770  1
  Os  Os8  1  0.000071  0.999997  0.249658  1
  Os  Os9  1  0.999994  0.000031  0.750219  1
  I  I10  1  0.631757  0.156425  0.499975  1
  I  I11  1  0.840352  0.634601  0.500703  1
  I  I12  1  0.368120  0.157917  0.999193  1
  I  I13  1  0.157776  0.368232  0.499159  1
  I  I14  1  0.631625  0.842217  0.001562  1
  I  I15  1  0.368712  0.840032  0.499932  1
  I  I16  1  0.159787  0.630765  0.000063  1
  I  I17  1  0.839903  0.369297  0.999934  1
