# generated using pymatgen
data_Ho2Tm3Lu5Sb6
_symmetry_space_group_name_H-M   'P 1'
_cell_length_a   7.96311200
_cell_length_b   9.16594101
_cell_length_c   11.57891700
_cell_angle_alpha   89.99741836
_cell_angle_beta   90.00000000
_cell_angle_gamma   90.00000000
_symmetry_Int_Tables_number   1
_chemical_formula_structural   Ho2Tm3Lu5Sb6
_chemical_formula_sum   'Ho4 Tm6 Lu10 Sb12'
_cell_volume   845.13837548
_cell_formula_units_Z   2
loop_
 _symmetry_equiv_pos_site_id
 _symmetry_equiv_pos_as_xyz
  1  'x, y, z'
loop_
 _atom_site_type_symbol
 _atom_site_label
 _atom_site_symmetry_multiplicity
 _atom_site_fract_x
 _atom_site_fract_y
 _atom_site_fract_z
 _atom_site_occupancy
  Ho  Ho0  1  0.314895  0.249975  0.218384  1
  Ho  Ho1  1  0.814895  0.250025  0.281616  1
  Ho  Ho2  1  0.685237  0.750080  0.781594  1
  Ho  Ho3  1  0.185237  0.749920  0.718406  1
  Tm  Tm4  1  0.352951  0.749965  0.216159  1
  Tm  Tm5  1  0.852951  0.750035  0.283841  1
  Tm  Tm6  1  0.647334  0.250137  0.783869  1
  Tm  Tm7  1  0.147334  0.249863  0.716131  1
  Tm  Tm8  1  0.691520  0.562605  0.059780  1
  Tm  Tm9  1  0.191520  0.937395  0.440220  1
  Lu  Lu10  1  0.308345  0.063354  0.940104  1
  Lu  Lu11  1  0.808345  0.436646  0.559896  1
  Lu  Lu12  1  0.308668  0.436519  0.940224  1
  Lu  Lu13  1  0.808668  0.063481  0.559776  1
  Lu  Lu14  1  0.691446  0.936494  0.059862  1
  Lu  Lu15  1  0.191446  0.563506  0.440138  1
  Lu  Lu16  1  0.475084  0.250103  0.489308  1
  Lu  Lu17  1  0.975084  0.249897  0.010692  1
  Lu  Lu18  1  0.525256  0.749851  0.510842  1
  Lu  Lu19  1  0.025256  0.750149  0.989158  1
  Sb  Sb20  1  0.405448  0.750298  0.959122  1
  Sb  Sb21  1  0.905448  0.749702  0.540878  1
  Sb  Sb22  1  0.594036  0.248784  0.040521  1
  Sb  Sb23  1  0.094036  0.251216  0.459479  1
  Sb  Sb24  1  0.565771  0.995163  0.327176  1
  Sb  Sb25  1  0.065771  0.504837  0.172824  1
  Sb  Sb26  1  0.434291  0.495071  0.672815  1
  Sb  Sb27  1  0.934291  0.004929  0.827185  1
  Sb  Sb28  1  0.434242  0.004870  0.672910  1
  Sb  Sb29  1  0.934242  0.495130  0.827090  1
  Sb  Sb30  1  0.565476  0.504792  0.327217  1
  Sb  Sb31  1  0.065476  0.995208  0.172783  1
