# generated using pymatgen
data_Dy4Ho2InSi2
_symmetry_space_group_name_H-M   'P 1'
_cell_length_a   8.51795648
_cell_length_b   8.51795753
_cell_length_c   8.51795835
_cell_angle_alpha   112.40532490
_cell_angle_beta   110.97511923
_cell_angle_gamma   105.12235647
_symmetry_Int_Tables_number   1
_chemical_formula_structural   Dy4Ho2InSi2
_chemical_formula_sum   'Dy8 Ho4 In2 Si4'
_cell_volume   473.64090349
_cell_formula_units_Z   2
loop_
 _symmetry_equiv_pos_site_id
 _symmetry_equiv_pos_as_xyz
  1  'x, y, z'
loop_
 _atom_site_type_symbol
 _atom_site_label
 _atom_site_symmetry_multiplicity
 _atom_site_fract_x
 _atom_site_fract_y
 _atom_site_fract_z
 _atom_site_occupancy
  Dy  Dy0  1  0.319559  0.615964  0.296404  1
  Dy  Dy1  1  0.680441  0.384036  0.703596  1
  Dy  Dy2  1  0.319559  0.023154  0.703596  1
  Dy  Dy3  1  0.680441  0.976846  0.296404  1
  Dy  Dy4  1  0.186419  0.278376  0.464794  1
  Dy  Dy5  1  0.813581  0.721624  0.535206  1
  Dy  Dy6  1  0.186419  0.721624  0.908043  1
  Dy  Dy7  1  0.813581  0.278376  0.091957  1
  Ho  Ho8  1  0.442667  0.237876  0.204792  1
  Ho  Ho9  1  0.557333  0.762124  0.795208  1
  Ho  Ho10  1  0.033083  0.237876  0.795208  1
  Ho  Ho11  1  0.966917  0.762124  0.204792  1
  In  In12  1  0.500000  0.500000  0.000000  1
  In  In13  1  0.000000  0.000000  0.000000  1
  Si  Si14  1  0.115627  0.615627  0.500000  1
  Si  Si15  1  0.884373  0.384373  0.500000  1
  Si  Si16  1  0.369324  0.000000  0.369324  1
  Si  Si17  1  0.630676  0.000000  0.630676  1
