# generated using pymatgen
data_Ce3Np(GaIr)4
_symmetry_space_group_name_H-M   'P 1'
_cell_length_a   4.35137500
_cell_length_b   6.83567284
_cell_length_c   7.93066756
_cell_angle_alpha   90.71607359
_cell_angle_beta   90.00000000
_cell_angle_gamma   90.00000000
_symmetry_Int_Tables_number   1
_chemical_formula_structural   Ce3Np(GaIr)4
_chemical_formula_sum   'Ce3 Np1 Ga4 Ir4'
_cell_volume   235.87592074
_cell_formula_units_Z   1
loop_
 _symmetry_equiv_pos_site_id
 _symmetry_equiv_pos_as_xyz
  1  'x, y, z'
loop_
 _atom_site_type_symbol
 _atom_site_label
 _atom_site_symmetry_multiplicity
 _atom_site_fract_x
 _atom_site_fract_y
 _atom_site_fract_z
 _atom_site_occupancy
  Ce  Ce0  1  0.750000  0.470832  0.810137  1
  Ce  Ce1  1  0.750000  0.969278  0.689491  1
  Ce  Ce2  1  0.250000  0.030352  0.309274  1
  Np  Np3  1  0.250000  0.528637  0.192044  1
  Ga  Ga4  1  0.250000  0.651683  0.566820  1
  Ga  Ga5  1  0.750000  0.348685  0.432027  1
  Ga  Ga6  1  0.750000  0.848993  0.068259  1
  Ga  Ga7  1  0.250000  0.151998  0.932225  1
  Ir  Ir8  1  0.250000  0.758132  0.893065  1
  Ir  Ir9  1  0.750000  0.246927  0.110084  1
  Ir  Ir10  1  0.750000  0.734053  0.385013  1
  Ir  Ir11  1  0.250000  0.260432  0.611561  1
