# generated using pymatgen
data_Ta9Al5
_symmetry_space_group_name_H-M   'P 1'
_cell_length_a   9.97048299
_cell_length_b   9.97048607
_cell_length_c   9.97048364
_cell_angle_alpha   93.83412329
_cell_angle_beta   93.83408510
_cell_angle_gamma   150.02738030
_symmetry_Int_Tables_number   1
_chemical_formula_structural   Ta9Al5
_chemical_formula_sum   'Ta18 Al10'
_cell_volume   478.33338392
_cell_formula_units_Z   2
loop_
 _symmetry_equiv_pos_site_id
 _symmetry_equiv_pos_as_xyz
  1  'x, y, z'
loop_
 _atom_site_type_symbol
 _atom_site_label
 _atom_site_symmetry_multiplicity
 _atom_site_fract_x
 _atom_site_fract_y
 _atom_site_fract_z
 _atom_site_occupancy
  Ta  Ta0  1  0.564406  0.791032  0.355436  1
  Ta  Ta1  1  0.084514  0.157953  0.242467  1
  Ta  Ta2  1  0.584514  0.342047  0.926559  1
  Ta  Ta3  1  0.657951  0.584514  0.242467  1
  Ta  Ta4  1  0.342049  0.415486  0.757533  1
  Ta  Ta5  1  0.791032  0.435595  0.226626  1
  Ta  Ta6  1  0.415486  0.657953  0.073441  1
  Ta  Ta7  1  0.157954  0.915486  0.073439  1
  Ta  Ta8  1  0.708969  0.935595  0.644564  1
  Ta  Ta9  1  0.435594  0.208968  0.644564  1
  Ta  Ta10  1  0.915486  0.842047  0.757533  1
  Ta  Ta11  1  0.064405  0.708968  0.773374  1
  Ta  Ta12  1  0.208968  0.564405  0.773374  1
  Ta  Ta13  1  0.250000  0.750000  0.500000  1
  Ta  Ta14  1  0.291031  0.064405  0.355436  1
  Ta  Ta15  1  0.750000  0.250000  0.500000  1
  Ta  Ta16  1  0.842046  0.084514  0.926561  1
  Ta  Ta17  1  0.935595  0.291032  0.226626  1
  Al  Al18  1  0.372480  0.872480  0.244960  1
  Al  Al19  1  0.872480  0.627520  0.500000  1
  Al  Al20  1  0.500000  0.000000  0.000000  1
  Al  Al21  1  0.127520  0.372480  0.500000  1
  Al  Al22  1  0.627520  0.127520  0.755040  1
  Al  Al23  1  0.000000  0.500000  0.000000  1
  Al  Al24  1  0.500000  0.500000  0.500000  1
  Al  Al25  1  0.000000  0.000000  0.500000  1
  Al  Al26  1  0.749999  0.750000  0.999999  1
  Al  Al27  1  0.250001  0.250000  0.000001  1
