# generated using pymatgen
data_LaNd3Cd2CuNi3
_symmetry_space_group_name_H-M   'P 1'
_cell_length_a   7.63547808
_cell_length_b   7.63547804
_cell_length_c   3.83491500
_cell_angle_alpha   90.00000000
_cell_angle_beta   90.00000000
_cell_angle_gamma   89.96909133
_symmetry_Int_Tables_number   1
_chemical_formula_structural   LaNd3Cd2CuNi3
_chemical_formula_sum   'La1 Nd3 Cd2 Cu1 Ni3'
_cell_volume   223.57752625
_cell_formula_units_Z   1
loop_
 _symmetry_equiv_pos_site_id
 _symmetry_equiv_pos_as_xyz
  1  'x, y, z'
loop_
 _atom_site_type_symbol
 _atom_site_label
 _atom_site_symmetry_multiplicity
 _atom_site_fract_x
 _atom_site_fract_y
 _atom_site_fract_z
 _atom_site_occupancy
  La  La0  1  0.179140  0.320860  0.000000  1
  Nd  Nd1  1  0.673707  0.186433  0.000000  1
  Nd  Nd2  1  0.313567  0.826293  0.000000  1
  Nd  Nd3  1  0.833123  0.666877  0.000000  1
  Cd  Cd4  1  0.502647  0.506269  0.500000  1
  Cd  Cd5  1  0.993731  0.997353  0.500000  1
  Cu  Cu6  1  0.616635  0.883365  0.500000  1
  Ni  Ni7  1  0.885668  0.381113  0.500000  1
  Ni  Ni8  1  0.118887  0.614332  0.500000  1
  Ni  Ni9  1  0.382896  0.117104  0.500000  1
