# generated using pymatgen
data_Sr5FeTcN7
_symmetry_space_group_name_H-M   'P 1'
_cell_length_a   6.38136577
_cell_length_b   9.01550146
_cell_length_c   9.22764839
_cell_angle_alpha   113.72610945
_cell_angle_beta   98.45817795
_cell_angle_gamma   90.27296747
_symmetry_Int_Tables_number   1
_chemical_formula_structural   Sr5FeTcN7
_chemical_formula_sum   'Sr10 Fe2 Tc2 N14'
_cell_volume   479.52140141
_cell_formula_units_Z   2
loop_
 _symmetry_equiv_pos_site_id
 _symmetry_equiv_pos_as_xyz
  1  'x, y, z'
loop_
 _atom_site_type_symbol
 _atom_site_label
 _atom_site_symmetry_multiplicity
 _atom_site_fract_x
 _atom_site_fract_y
 _atom_site_fract_z
 _atom_site_occupancy
  Sr  Sr0  1  0.856844  0.588221  0.347045  1
  Sr  Sr1  1  0.272814  0.975812  0.564863  1
  Sr  Sr2  1  0.698769  0.403466  0.837665  1
  Sr  Sr3  1  0.301231  0.596534  0.162335  1
  Sr  Sr4  1  0.394785  0.782755  0.894613  1
  Sr  Sr5  1  0.605215  0.217245  0.105387  1
  Sr  Sr6  1  0.143156  0.411779  0.652955  1
  Sr  Sr7  1  0.877682  0.835681  0.751588  1
  Sr  Sr8  1  0.122318  0.164319  0.248412  1
  Sr  Sr9  1  0.727186  0.024188  0.435137  1
  Fe  Fe10  1  0.573529  0.369855  0.478523  1
  Fe  Fe11  1  0.426471  0.630145  0.521477  1
  Tc  Tc12  1  0.122094  0.220049  0.915323  1
  Tc  Tc13  1  0.877906  0.779951  0.084677  1
  N  N14  1  0.568771  0.558027  0.666127  1
  N  N15  1  0.431229  0.441973  0.333873  1
  N  N16  1  0.176475  0.702751  0.586959  1
  N  N17  1  0.823525  0.297249  0.413041  1
  N  N18  1  0.425216  0.206930  0.494099  1
  N  N19  1  0.574784  0.793070  0.505901  1
  N  N20  1  0.950763  0.144266  0.717647  1
  N  N21  1  0.049237  0.855734  0.282353  1
  N  N22  1  0.231149  0.053199  0.961999  1
  N  N23  1  0.768851  0.946801  0.038001  1
  N  N24  1  0.350674  0.339332  0.910079  1
  N  N25  1  0.972680  0.345905  0.073165  1
  N  N26  1  0.027320  0.654095  0.926835  1
  N  N27  1  0.649326  0.660668  0.089921  1
