# generated using pymatgen
data_ScU2(AlIr)3
_symmetry_space_group_name_H-M   'P 1'
_cell_length_a   6.97007887
_cell_length_b   6.97007859
_cell_length_c   4.02182100
_cell_angle_alpha   90.00000000
_cell_angle_beta   90.00000000
_cell_angle_gamma   121.84342226
_symmetry_Int_Tables_number   1
_chemical_formula_structural   ScU2(AlIr)3
_chemical_formula_sum   'Sc1 U2 Al3 Ir3'
_cell_volume   165.98083866
_cell_formula_units_Z   1
loop_
 _symmetry_equiv_pos_site_id
 _symmetry_equiv_pos_as_xyz
  1  'x, y, z'
loop_
 _atom_site_type_symbol
 _atom_site_label
 _atom_site_symmetry_multiplicity
 _atom_site_fract_x
 _atom_site_fract_y
 _atom_site_fract_z
 _atom_site_occupancy
  Sc  Sc0  1  0.413298  0.413298  0.500000  1
  U  U1  1  0.577426  0.000328  0.500000  1
  U  U2  1  0.000328  0.577426  0.500000  1
  Al  Al3  1  0.746062  0.746062  0.000000  1
  Al  Al4  1  0.238845  0.012212  0.000000  1
  Al  Al5  1  0.012212  0.238845  0.000000  1
  Ir  Ir6  1  0.687053  0.330847  0.000000  1
  Ir  Ir7  1  0.330847  0.687053  0.000000  1
  Ir  Ir8  1  0.993928  0.993928  0.500000  1
