# generated using pymatgen
data_CeHo5AuO12
_symmetry_space_group_name_H-M   'P 1'
_cell_length_a   6.46615722
_cell_length_b   6.49911891
_cell_length_c   6.49312837
_cell_angle_alpha   98.96627793
_cell_angle_beta   98.86178197
_cell_angle_gamma   98.76986236
_symmetry_Int_Tables_number   1
_chemical_formula_structural   CeHo5AuO12
_chemical_formula_sum   'Ce1 Ho5 Au1 O12'
_cell_volume   261.92768069
_cell_formula_units_Z   1
loop_
 _symmetry_equiv_pos_site_id
 _symmetry_equiv_pos_as_xyz
  1  'x, y, z'
loop_
 _atom_site_type_symbol
 _atom_site_label
 _atom_site_symmetry_multiplicity
 _atom_site_fract_x
 _atom_site_fract_y
 _atom_site_fract_z
 _atom_site_occupancy
  Ce  Ce0  1  0.142826  0.309092  0.605295  1
  Ho  Ho1  1  0.393142  0.857695  0.693742  1
  Ho  Ho2  1  0.694908  0.391056  0.863931  1
  Ho  Ho3  1  0.310027  0.613269  0.144175  1
  Ho  Ho4  1  0.608182  0.139506  0.300873  1
  Ho  Ho5  1  0.853883  0.692956  0.387555  1
  Au  Au6  1  0.000051  0.998430  0.998911  1
  O  O7  1  0.060644  0.309518  0.956182  1
  O  O8  1  0.048155  0.936153  0.691174  1
  O  O9  1  0.409597  0.563698  0.821859  1
  O  O10  1  0.177273  0.589115  0.436573  1
  O  O11  1  0.689819  0.047111  0.938301  1
  O  O12  1  0.432668  0.180847  0.589695  1
  O  O13  1  0.563511  0.825109  0.411833  1
  O  O14  1  0.310122  0.952669  0.061348  1
  O  O15  1  0.825642  0.408250  0.565766  1
  O  O16  1  0.590091  0.436219  0.179133  1
  O  O17  1  0.950796  0.059140  0.306755  1
  O  O18  1  0.938662  0.690166  0.046900  1
