# generated using pymatgen
data_Sc2Zn2PdPt
_symmetry_space_group_name_H-M   'P 1'
_cell_length_a   5.08656877
_cell_length_b   5.08657002
_cell_length_c   5.30434600
_cell_angle_alpha   90.00000000
_cell_angle_beta   90.00000000
_cell_angle_gamma   129.90770841
_symmetry_Int_Tables_number   1
_chemical_formula_structural   Sc2Zn2PdPt
_chemical_formula_sum   'Sc2 Zn2 Pd1 Pt1'
_cell_volume   105.27416338
_cell_formula_units_Z   1
loop_
 _symmetry_equiv_pos_site_id
 _symmetry_equiv_pos_as_xyz
  1  'x, y, z'
loop_
 _atom_site_type_symbol
 _atom_site_label
 _atom_site_symmetry_multiplicity
 _atom_site_fract_x
 _atom_site_fract_y
 _atom_site_fract_z
 _atom_site_occupancy
  Sc  Sc0  1  0.707110  0.292890  0.250000  1
  Sc  Sc1  1  0.290189  0.709811  0.750000  1
  Zn  Zn2  1  0.000328  0.999672  0.499023  1
  Zn  Zn3  1  0.000328  0.999672  0.000977  1
  Pd  Pd4  1  0.401339  0.598661  0.250000  1
  Pt  Pt5  1  0.600705  0.399295  0.750000  1
