# generated using pymatgen
data_HfZr18Si16Tc
_symmetry_space_group_name_H-M   'P 1'
_cell_length_a   7.11970934
_cell_length_b   7.11897473
_cell_length_c   12.99210185
_cell_angle_alpha   89.89585151
_cell_angle_beta   90.15539890
_cell_angle_gamma   90.01341788
_symmetry_Int_Tables_number   1
_chemical_formula_structural   HfZr18Si16Tc
_chemical_formula_sum   'Hf1 Zr18 Si16 Tc1'
_cell_volume   658.50155531
_cell_formula_units_Z   1
loop_
 _symmetry_equiv_pos_site_id
 _symmetry_equiv_pos_as_xyz
  1  'x, y, z'
loop_
 _atom_site_type_symbol
 _atom_site_label
 _atom_site_symmetry_multiplicity
 _atom_site_fract_x
 _atom_site_fract_y
 _atom_site_fract_z
 _atom_site_occupancy
  Hf  Hf0  1  0.356570  0.503996  0.379672  1
  Zr  Zr1  1  0.855049  0.999196  0.373628  1
  Zr  Zr2  1  0.001744  0.145581  0.128160  1
  Zr  Zr3  1  0.999303  0.854903  0.626184  1
  Zr  Zr4  1  0.644451  0.499367  0.873839  1
  Zr  Zr5  1  0.503476  0.356310  0.620147  1
  Zr  Zr6  1  0.499206  0.644140  0.126495  1
  Zr  Zr7  1  0.145502  0.001390  0.871991  1
  Zr  Zr8  1  0.997850  0.649707  0.035677  1
  Zr  Zr9  1  0.001625  0.348089  0.533599  1
  Zr  Zr10  1  0.649558  0.997770  0.964402  1
  Zr  Zr11  1  0.149688  0.502934  0.782486  1
  Zr  Zr12  1  0.849238  0.498164  0.284711  1
  Zr  Zr13  1  0.502903  0.149904  0.217703  1
  Zr  Zr14  1  0.498121  0.849561  0.715143  1
  Zr  Zr15  1  0.347916  0.001584  0.466196  1
  Zr  Zr16  1  0.823631  0.176539  0.747359  1
  Zr  Zr17  1  0.176603  0.823479  0.252777  1
  Zr  Zr18  1  0.324158  0.324229  0.000134  1
  Si  Si19  1  0.043454  0.697211  0.438191  1
  Si  Si20  1  0.947787  0.300949  0.937215  1
  Si  Si21  1  0.697528  0.042183  0.561498  1
  Si  Si22  1  0.199911  0.448762  0.189076  1
  Si  Si23  1  0.796165  0.556998  0.682067  1
  Si  Si24  1  0.448645  0.199470  0.811471  1
  Si  Si25  1  0.556473  0.795404  0.318169  1
  Si  Si26  1  0.300917  0.947753  0.062905  1
  Si  Si27  1  0.852958  0.794551  0.821572  1
  Si  Si28  1  0.149202  0.206519  0.323368  1
  Si  Si29  1  0.794535  0.852984  0.178418  1
  Si  Si30  1  0.297199  0.647205  0.572670  1
  Si  Si31  1  0.705249  0.353561  0.072062  1
  Si  Si32  1  0.646706  0.297805  0.426510  1
  Si  Si33  1  0.353633  0.705143  0.928051  1
  Si  Si34  1  0.205606  0.148755  0.676881  1
  Tc  Tc35  1  0.677443  0.677905  0.499572  1
