# generated using pymatgen
data_Er3Tm13In3HgIr4
_symmetry_space_group_name_H-M   'P 1'
_cell_length_a   9.52538092
_cell_length_b   9.53798664
_cell_length_c   9.54888600
_cell_angle_alpha   59.96219154
_cell_angle_beta   59.91833796
_cell_angle_gamma   59.91730509
_symmetry_Int_Tables_number   1
_chemical_formula_structural   Er3Tm13In3HgIr4
_chemical_formula_sum   'Er3 Tm13 In3 Hg1 Ir4'
_cell_volume   612.50870700
_cell_formula_units_Z   1
loop_
 _symmetry_equiv_pos_site_id
 _symmetry_equiv_pos_as_xyz
  1  'x, y, z'
loop_
 _atom_site_type_symbol
 _atom_site_label
 _atom_site_symmetry_multiplicity
 _atom_site_fract_x
 _atom_site_fract_y
 _atom_site_fract_z
 _atom_site_occupancy
  Er  Er0  1  0.058188  0.438634  0.439307  1
  Er  Er1  1  0.438102  0.439313  0.061292  1
  Er  Er2  1  0.058188  0.438634  0.063871  1
  Tm  Tm3  1  0.058129  0.062909  0.439481  1
  Tm  Tm4  1  0.649795  0.049457  0.650374  1
  Tm  Tm5  1  0.191742  0.809384  0.190723  1
  Tm  Tm6  1  0.438368  0.060724  0.439735  1
  Tm  Tm7  1  0.191488  0.191249  0.808631  1
  Tm  Tm8  1  0.649953  0.650309  0.651199  1
  Tm  Tm9  1  0.047998  0.650302  0.650851  1
  Tm  Tm10  1  0.438368  0.060724  0.061172  1
  Tm  Tm11  1  0.649953  0.650309  0.048538  1
  Tm  Tm12  1  0.191742  0.809384  0.808150  1
  Tm  Tm13  1  0.809544  0.190891  0.809183  1
  Tm  Tm14  1  0.809544  0.190891  0.190382  1
  Tm  Tm15  1  0.808739  0.809758  0.190752  1
  In  In16  1  0.417707  0.416857  0.748508  1
  In  In17  1  0.417441  0.749216  0.416671  1
  In  In18  1  0.417707  0.416857  0.416928  1
  Hg  Hg19  1  0.758094  0.413871  0.414017  1
  Ir  Ir20  1  0.858198  0.859010  0.858887  1
  Ir  Ir21  1  0.424386  0.858635  0.858490  1
  Ir  Ir22  1  0.858198  0.859010  0.423906  1
  Ir  Ir23  1  0.858430  0.423669  0.858951  1
