# generated using pymatgen
data_Ho3Ni4As6Ru5
_symmetry_space_group_name_H-M   'P 1'
_cell_length_a   3.96760400
_cell_length_b   10.97707000
_cell_length_c   13.11507600
_cell_angle_alpha   90.00000000
_cell_angle_beta   90.00000000
_cell_angle_gamma   90.00000000
_symmetry_Int_Tables_number   1
_chemical_formula_structural   Ho3Ni4As6Ru5
_chemical_formula_sum   'Ho6 Ni8 As12 Ru10'
_cell_volume   571.19653561
_cell_formula_units_Z   2
loop_
 _symmetry_equiv_pos_site_id
 _symmetry_equiv_pos_as_xyz
  1  'x, y, z'
loop_
 _atom_site_type_symbol
 _atom_site_label
 _atom_site_symmetry_multiplicity
 _atom_site_fract_x
 _atom_site_fract_y
 _atom_site_fract_z
 _atom_site_occupancy
  Ho  Ho0  1  0.000000  0.500000  0.522367  1
  Ho  Ho1  1  0.500000  0.000000  0.477633  1
  Ho  Ho2  1  0.500000  0.810206  0.202184  1
  Ho  Ho3  1  0.500000  0.189794  0.202184  1
  Ho  Ho4  1  0.000000  0.689794  0.797816  1
  Ho  Ho5  1  0.000000  0.310206  0.797816  1
  Ni  Ni6  1  0.000000  0.500000  0.975468  1
  Ni  Ni7  1  0.500000  0.000000  0.024532  1
  Ni  Ni8  1  0.500000  0.332635  0.989609  1
  Ni  Ni9  1  0.500000  0.667365  0.989609  1
  Ni  Ni10  1  0.000000  0.167365  0.010391  1
  Ni  Ni11  1  0.000000  0.832635  0.010391  1
  Ni  Ni12  1  0.500000  0.500000  0.699358  1
  Ni  Ni13  1  0.000000  0.000000  0.300642  1
  As  As14  1  0.500000  0.317016  0.616877  1
  As  As15  1  0.500000  0.682984  0.616877  1
  As  As16  1  0.000000  0.182984  0.383123  1
  As  As17  1  0.000000  0.817016  0.383123  1
  As  As18  1  0.500000  0.500000  0.873432  1
  As  As19  1  0.000000  0.000000  0.126568  1
  As  As20  1  0.500000  0.850877  0.897761  1
  As  As21  1  0.500000  0.149123  0.897761  1
  As  As22  1  0.000000  0.649123  0.102239  1
  As  As23  1  0.000000  0.350877  0.102239  1
  As  As24  1  0.500000  0.500000  0.342000  1
  As  As25  1  0.000000  0.000000  0.658000  1
  Ru  Ru26  1  0.500000  0.298994  0.429831  1
  Ru  Ru27  1  0.500000  0.701006  0.429831  1
  Ru  Ru28  1  0.000000  0.201006  0.570169  1
  Ru  Ru29  1  0.000000  0.798994  0.570169  1
  Ru  Ru30  1  0.500000  0.875323  0.715524  1
  Ru  Ru31  1  0.500000  0.124677  0.715524  1
  Ru  Ru32  1  0.000000  0.624677  0.284476  1
  Ru  Ru33  1  0.000000  0.375323  0.284476  1
  Ru  Ru34  1  0.500000  0.500000  0.149989  1
  Ru  Ru35  1  0.000000  0.000000  0.850011  1
