# generated using pymatgen
data_Hf7Fe3Co5Si14W
_symmetry_space_group_name_H-M   'P 1'
_cell_length_a   9.38880100
_cell_length_b   9.38736646
_cell_length_c   9.39501543
_cell_angle_alpha   94.14049085
_cell_angle_beta   94.20690230
_cell_angle_gamma   148.75742330
_symmetry_Int_Tables_number   1
_chemical_formula_structural   Hf7Fe3Co5Si14W
_chemical_formula_sum   'Hf7 Fe3 Co5 Si14 W1'
_cell_volume   413.48907018
_cell_formula_units_Z   1
loop_
 _symmetry_equiv_pos_site_id
 _symmetry_equiv_pos_as_xyz
  1  'x, y, z'
loop_
 _atom_site_type_symbol
 _atom_site_label
 _atom_site_symmetry_multiplicity
 _atom_site_fract_x
 _atom_site_fract_y
 _atom_site_fract_z
 _atom_site_occupancy
  Hf  Hf0  1  0.864716  0.864827  0.728467  1
  Hf  Hf1  1  0.137600  0.862072  0.999533  1
  Hf  Hf2  1  0.861534  0.137674  0.999304  1
  Hf  Hf3  1  0.303061  0.499151  0.803800  1
  Hf  Hf4  1  0.694854  0.502325  0.198039  1
  Hf  Hf5  1  0.503296  0.696077  0.198732  1
  Hf  Hf6  1  0.501087  0.305217  0.804797  1
  Fe  Fe7  1  0.103396  0.602727  0.204553  1
  Fe  Fe8  1  0.398244  0.897275  0.797201  1
  Fe  Fe9  1  0.898143  0.102715  0.498108  1
  Co  Co10  1  0.600793  0.396354  0.498487  1
  Co  Co11  1  0.602376  0.102916  0.204485  1
  Co  Co12  1  0.897605  0.398555  0.797190  1
  Co  Co13  1  0.101531  0.898784  0.497956  1
  Co  Co14  1  0.396646  0.598820  0.498600  1
  Si  Si15  1  0.285027  0.285080  0.572150  1
  Si  Si16  1  0.712164  0.712525  0.422465  1
  Si  Si17  1  0.290338  0.709425  0.001036  1
  Si  Si18  1  0.710519  0.291481  0.001122  1
  Si  Si19  1  0.090036  0.499080  0.592325  1
  Si  Si20  1  0.912975  0.503805  0.406615  1
  Si  Si21  1  0.500095  0.908786  0.408088  1
  Si  Si22  1  0.496830  0.087489  0.593707  1
  Si  Si23  1  0.249250  0.249467  0.005112  1
  Si  Si24  1  0.755898  0.756084  0.005412  1
  Si  Si25  1  0.297201  0.000430  0.300715  1
  Si  Si26  1  0.697506  0.999715  0.696520  1
  Si  Si27  1  0.001623  0.699283  0.697230  1
  Si  Si28  1  0.002804  0.299036  0.300795  1
  W  W29  1  0.132849  0.132824  0.267456  1
