# generated using pymatgen
data_NdLuB6Os
_symmetry_space_group_name_H-M   'P 1'
_cell_length_a   3.67004600
_cell_length_b   9.16793300
_cell_length_c   11.60762900
_cell_angle_alpha   90.00000000
_cell_angle_beta   90.00000000
_cell_angle_gamma   90.00000000
_symmetry_Int_Tables_number   1
_chemical_formula_structural   NdLuB6Os
_chemical_formula_sum   'Nd4 Lu4 B24 Os4'
_cell_volume   390.55882663
_cell_formula_units_Z   4
loop_
 _symmetry_equiv_pos_site_id
 _symmetry_equiv_pos_as_xyz
  1  'x, y, z'
loop_
 _atom_site_type_symbol
 _atom_site_label
 _atom_site_symmetry_multiplicity
 _atom_site_fract_x
 _atom_site_fract_y
 _atom_site_fract_z
 _atom_site_occupancy
  Nd  Nd0  1  0.000000  0.321997  0.414021  1
  Nd  Nd1  1  0.000000  0.678003  0.585979  1
  Nd  Nd2  1  0.000000  0.821997  0.085979  1
  Nd  Nd3  1  0.000000  0.178003  0.914021  1
  Lu  Lu4  1  0.000000  0.944791  0.372983  1
  Lu  Lu5  1  0.000000  0.055209  0.627017  1
  Lu  Lu6  1  0.000000  0.444791  0.127017  1
  Lu  Lu7  1  0.000000  0.555209  0.872983  1
  B  B8  1  0.500000  0.556386  0.430315  1
  B  B9  1  0.500000  0.443614  0.569685  1
  B  B10  1  0.500000  0.056386  0.069685  1
  B  B11  1  0.500000  0.943614  0.930315  1
  B  B12  1  0.500000  0.750946  0.417615  1
  B  B13  1  0.500000  0.249054  0.582385  1
  B  B14  1  0.500000  0.250946  0.082385  1
  B  B15  1  0.500000  0.749054  0.917615  1
  B  B16  1  0.500000  0.791734  0.267143  1
  B  B17  1  0.500000  0.208266  0.732856  1
  B  B18  1  0.500000  0.291734  0.232857  1
  B  B19  1  0.500000  0.708266  0.767144  1
  B  B20  1  0.500000  0.630175  0.185011  1
  B  B21  1  0.500000  0.369825  0.814989  1
  B  B22  1  0.500000  0.130175  0.314989  1
  B  B23  1  0.500000  0.869825  0.685011  1
  B  B24  1  0.500000  0.984770  0.214891  1
  B  B25  1  0.500000  0.015230  0.785109  1
  B  B26  1  0.500000  0.484770  0.285109  1
  B  B27  1  0.500000  0.515230  0.714891  1
  B  B28  1  0.500000  0.601131  0.027658  1
  B  B29  1  0.500000  0.398869  0.972342  1
  B  B30  1  0.500000  0.101131  0.472342  1
  B  B31  1  0.500000  0.898869  0.527658  1
  Os  Os32  1  0.000000  0.639774  0.318884  1
  Os  Os33  1  0.000000  0.360226  0.681116  1
  Os  Os34  1  0.000000  0.139774  0.181116  1
  Os  Os35  1  0.000000  0.860226  0.818884  1
