# generated using pymatgen
data_HoZr2IrF15
_symmetry_space_group_name_H-M   'P 1'
_cell_length_a   8.14046029
_cell_length_b   8.14045898
_cell_length_c   8.13759917
_cell_angle_alpha   79.87684662
_cell_angle_beta   79.87684453
_cell_angle_gamma   99.87004252
_symmetry_Int_Tables_number   1
_chemical_formula_structural   HoZr2IrF15
_chemical_formula_sum   'Ho2 Zr4 Ir2 F30'
_cell_volume   511.08166519
_cell_formula_units_Z   2
loop_
 _symmetry_equiv_pos_site_id
 _symmetry_equiv_pos_as_xyz
  1  'x, y, z'
loop_
 _atom_site_type_symbol
 _atom_site_label
 _atom_site_symmetry_multiplicity
 _atom_site_fract_x
 _atom_site_fract_y
 _atom_site_fract_z
 _atom_site_occupancy
  Ho  Ho0  1  0.176442  0.823558  0.250000  1
  Ho  Ho1  1  0.823558  0.176442  0.750000  1
  Zr  Zr2  1  0.747534  0.677250  0.673639  1
  Zr  Zr3  1  0.322750  0.252466  0.826361  1
  Zr  Zr4  1  0.252466  0.322750  0.326361  1
  Zr  Zr5  1  0.677250  0.747534  0.173639  1
  Ir  Ir6  1  0.749656  0.250344  0.250000  1
  Ir  Ir7  1  0.250344  0.749656  0.750000  1
  F  F8  1  0.314513  0.350452  0.054485  1
  F  F9  1  0.936196  0.812352  0.152158  1
  F  F10  1  0.842038  0.457820  0.686221  1
  F  F11  1  0.457820  0.842038  0.186221  1
  F  F12  1  0.812352  0.936196  0.652158  1
  F  F13  1  0.350452  0.314513  0.554484  1
  F  F14  1  0.685487  0.649548  0.945515  1
  F  F15  1  0.063804  0.187648  0.847842  1
  F  F16  1  0.157962  0.542180  0.313779  1
  F  F17  1  0.542180  0.157962  0.813779  1
  F  F18  1  0.187648  0.063804  0.347842  1
  F  F19  1  0.649548  0.685487  0.445515  1
  F  F20  1  0.772741  0.282838  0.003260  1
  F  F21  1  0.000430  0.274545  0.213398  1
  F  F22  1  0.785445  0.502714  0.223729  1
  F  F23  1  0.502714  0.785445  0.723729  1
  F  F24  1  0.274545  0.000430  0.713398  1
  F  F25  1  0.282838  0.772741  0.503260  1
  F  F26  1  0.227259  0.717162  0.996740  1
  F  F27  1  0.999570  0.725455  0.786602  1
  F  F28  1  0.214555  0.497286  0.776271  1
  F  F29  1  0.497286  0.214555  0.276271  1
  F  F30  1  0.725455  0.999570  0.286602  1
  F  F31  1  0.717162  0.227259  0.496740  1
  F  F32  1  0.470775  0.529225  0.250000  1
  F  F33  1  0.745666  0.956349  0.972551  1
  F  F34  1  0.043651  0.254334  0.527449  1
  F  F35  1  0.254334  0.043651  0.027449  1
  F  F36  1  0.956349  0.745666  0.472551  1
  F  F37  1  0.529225  0.470775  0.750000  1
