# generated using pymatgen
data_Zr10CuSnBi4
_symmetry_space_group_name_H-M   'P 1'
_cell_length_a   5.60110769
_cell_length_b   8.52574288
_cell_length_c   8.52574238
_cell_angle_alpha   96.19430300
_cell_angle_beta   109.17668533
_cell_angle_gamma   70.82332741
_symmetry_Int_Tables_number   1
_chemical_formula_structural   Zr10CuSnBi4
_chemical_formula_sum   'Zr10 Cu1 Sn1 Bi4'
_cell_volume   363.20483256
_cell_formula_units_Z   1
loop_
 _symmetry_equiv_pos_site_id
 _symmetry_equiv_pos_as_xyz
  1  'x, y, z'
loop_
 _atom_site_type_symbol
 _atom_site_label
 _atom_site_symmetry_multiplicity
 _atom_site_fract_x
 _atom_site_fract_y
 _atom_site_fract_z
 _atom_site_occupancy
  Zr  Zr0  1  0.430921  0.859547  0.709826  1
  Zr  Zr1  1  0.580641  0.140453  0.290174  1
  Zr  Zr2  1  0.919359  0.290174  0.140453  1
  Zr  Zr3  1  0.069079  0.709826  0.859547  1
  Zr  Zr4  1  0.721093  0.709826  0.140453  1
  Zr  Zr5  1  0.290467  0.290174  0.859547  1
  Zr  Zr6  1  0.778907  0.140453  0.709826  1
  Zr  Zr7  1  0.209533  0.859547  0.290174  1
  Zr  Zr8  1  0.250000  0.500000  0.500000  1
  Zr  Zr9  1  0.750000  0.500000  0.500000  1
  Cu  Cu10  1  0.750000  0.000000  0.000000  1
  Sn  Sn11  1  0.250000  0.000000  0.000000  1
  Bi  Bi12  1  0.334873  0.500000  0.169747  1
  Bi  Bi13  1  0.665127  0.500000  0.830253  1
  Bi  Bi14  1  0.834873  0.830253  0.500000  1
  Bi  Bi15  1  0.165127  0.169747  0.500000  1
