# generated using pymatgen
data_Ho5Tm3In4
_symmetry_space_group_name_H-M   'P 1'
_cell_length_a   5.14495300
_cell_length_b   6.75858426
_cell_length_c   9.65700175
_cell_angle_alpha   90.15456664
_cell_angle_beta   90.00000000
_cell_angle_gamma   90.00000000
_symmetry_Int_Tables_number   1
_chemical_formula_structural   Ho5Tm3In4
_chemical_formula_sum   'Ho5 Tm3 In4'
_cell_volume   335.79782145
_cell_formula_units_Z   1
loop_
 _symmetry_equiv_pos_site_id
 _symmetry_equiv_pos_as_xyz
  1  'x, y, z'
loop_
 _atom_site_type_symbol
 _atom_site_label
 _atom_site_symmetry_multiplicity
 _atom_site_fract_x
 _atom_site_fract_y
 _atom_site_fract_z
 _atom_site_occupancy
  Ho  Ho0  1  0.250000  0.815896  0.931221  1
  Ho  Ho1  1  0.750000  0.533898  0.786144  1
  Ho  Ho2  1  0.250000  0.464792  0.214174  1
  Ho  Ho3  1  0.750000  0.034778  0.712807  1
  Ho  Ho4  1  0.250000  0.965652  0.286716  1
  Tm  Tm5  1  0.750000  0.682927  0.431377  1
  Tm  Tm6  1  0.250000  0.316650  0.569039  1
  Tm  Tm7  1  0.750000  0.184423  0.068511  1
  In  In8  1  0.750000  0.214391  0.393612  1
  In  In9  1  0.250000  0.785320  0.605081  1
  In  In10  1  0.750000  0.714729  0.108183  1
  In  In11  1  0.250000  0.286544  0.893136  1
