# generated using pymatgen
data_Cs12CaHgSe8
_symmetry_space_group_name_H-M   'P 1'
_cell_length_a   11.43676200
_cell_length_b   11.43676249
_cell_length_c   8.80729400
_cell_angle_alpha   90.00000000
_cell_angle_beta   90.00000000
_cell_angle_gamma   119.99999857
_symmetry_Int_Tables_number   1
_chemical_formula_structural   Cs12CaHgSe8
_chemical_formula_sum   'Cs12 Ca1 Hg1 Se8'
_cell_volume   997.65255168
_cell_formula_units_Z   1
loop_
 _symmetry_equiv_pos_site_id
 _symmetry_equiv_pos_as_xyz
  1  'x, y, z'
loop_
 _atom_site_type_symbol
 _atom_site_label
 _atom_site_symmetry_multiplicity
 _atom_site_fract_x
 _atom_site_fract_y
 _atom_site_fract_z
 _atom_site_occupancy
  Cs  Cs0  1  0.146986  0.293972  0.203602  1
  Cs  Cs1  1  0.146986  0.853014  0.203602  1
  Cs  Cs2  1  0.706028  0.853014  0.203602  1
  Cs  Cs3  1  0.852373  0.704746  0.705409  1
  Cs  Cs4  1  0.852373  0.147627  0.705409  1
  Cs  Cs5  1  0.295254  0.147627  0.705409  1
  Cs  Cs6  1  0.532893  0.065785  0.377763  1
  Cs  Cs7  1  0.532893  0.467107  0.377763  1
  Cs  Cs8  1  0.934215  0.467107  0.377763  1
  Cs  Cs9  1  0.474089  0.948178  0.884220  1
  Cs  Cs10  1  0.474089  0.525911  0.884220  1
  Cs  Cs11  1  0.051822  0.525911  0.884220  1
  Ca  Ca12  1  0.333333  0.666667  0.499102  1
  Hg  Hg13  1  0.666667  0.333333  0.997485  1
  Se  Se14  1  0.333333  0.666667  0.171022  1
  Se  Se15  1  0.666667  0.333333  0.677357  1
  Se  Se16  1  0.802059  0.604116  0.097004  1
  Se  Se17  1  0.802059  0.197941  0.097004  1
  Se  Se18  1  0.395884  0.197941  0.097004  1
  Se  Se19  1  0.194699  0.389399  0.596958  1
  Se  Se20  1  0.194699  0.805301  0.596958  1
  Se  Se21  1  0.610601  0.805301  0.596958  1
