# generated using pymatgen
data_Tb3Dy2Zr2P12Ir17
_symmetry_space_group_name_H-M   'P 1'
_cell_length_a   12.67816700
_cell_length_b   12.91189984
_cell_length_c   3.99447200
_cell_angle_alpha   90.00000000
_cell_angle_beta   90.00000000
_cell_angle_gamma   119.40296900
_symmetry_Int_Tables_number   1
_chemical_formula_structural   Tb3Dy2Zr2P12Ir17
_chemical_formula_sum   'Tb3 Dy2 Zr2 P12 Ir17'
_cell_volume   569.66307251
_cell_formula_units_Z   1
loop_
 _symmetry_equiv_pos_site_id
 _symmetry_equiv_pos_as_xyz
  1  'x, y, z'
loop_
 _atom_site_type_symbol
 _atom_site_label
 _atom_site_symmetry_multiplicity
 _atom_site_fract_x
 _atom_site_fract_y
 _atom_site_fract_z
 _atom_site_occupancy
  Tb  Tb0  1  0.000577  0.815497  0.000000  1
  Tb  Tb1  1  0.185080  0.184503  0.000000  1
  Tb  Tb2  1  0.812797  0.000000  0.000000  1
  Dy  Dy3  1  0.330158  0.661496  0.500000  1
  Dy  Dy4  1  0.668662  0.338504  0.500000  1
  Zr  Zr5  1  0.997716  0.446919  0.500000  1
  Zr  Zr6  1  0.550797  0.553081  0.500000  1
  P  P7  1  0.005897  0.650760  0.500000  1
  P  P8  1  0.355138  0.349240  0.500000  1
  P  P9  1  0.644579  0.000000  0.500000  1
  P  P10  1  0.514892  0.686413  0.000000  1
  P  P11  1  0.309665  0.825211  0.000000  1
  P  P12  1  0.164620  0.480892  0.000000  1
  P  P13  1  0.484453  0.174789  0.000000  1
  P  P14  1  0.683728  0.519108  0.000000  1
  P  P15  1  0.828479  0.313587  0.000000  1
  P  P16  1  0.999314  0.174282  0.500000  1
  P  P17  1  0.825032  0.825718  0.500000  1
  P  P18  1  0.181793  0.000000  0.500000  1
  Ir  Ir19  1  0.504864  0.864802  0.000000  1
  Ir  Ir20  1  0.127889  0.644129  0.000000  1
  Ir  Ir21  1  0.354900  0.495518  0.000000  1
  Ir  Ir22  1  0.483760  0.355871  0.000000  1
  Ir  Ir23  1  0.859383  0.504482  0.000000  1
  Ir  Ir24  1  0.640063  0.135198  0.000000  1
  Ir  Ir25  1  0.464581  0.000000  0.500000  1
  Ir  Ir26  1  0.996765  0.277732  0.000000  1
  Ir  Ir27  1  0.719033  0.722268  0.000000  1
  Ir  Ir28  1  0.290492  0.000000  0.000000  1
  Ir  Ir29  1  0.623778  0.808250  0.500000  1
  Ir  Ir30  1  0.204183  0.825841  0.500000  1
  Ir  Ir31  1  0.177757  0.366013  0.500000  1
  Ir  Ir32  1  0.378342  0.174159  0.500000  1
  Ir  Ir33  1  0.811744  0.633987  0.500000  1
  Ir  Ir34  1  0.815528  0.191750  0.500000  1
  Ir  Ir35  1  0.003566  0.000000  0.500000  1
