# generated using pymatgen
data_Hf8ZrSc3(Si3Ru)4
_symmetry_space_group_name_H-M   'P 1'
_cell_length_a   3.92885400
_cell_length_b   10.31346713
_cell_length_c   11.66387498
_cell_angle_alpha   90.01428008
_cell_angle_beta   90.00000000
_cell_angle_gamma   90.00000000
_symmetry_Int_Tables_number   1
_chemical_formula_structural   Hf8ZrSc3(Si3Ru)4
_chemical_formula_sum   'Hf8 Zr1 Sc3 Si12 Ru4'
_cell_volume   472.62144287
_cell_formula_units_Z   1
loop_
 _symmetry_equiv_pos_site_id
 _symmetry_equiv_pos_as_xyz
  1  'x, y, z'
loop_
 _atom_site_type_symbol
 _atom_site_label
 _atom_site_symmetry_multiplicity
 _atom_site_fract_x
 _atom_site_fract_y
 _atom_site_fract_z
 _atom_site_occupancy
  Hf  Hf0  1  0.250000  0.874412  0.019661  1
  Hf  Hf1  1  0.250000  0.626127  0.519595  1
  Hf  Hf2  1  0.750000  0.123642  0.979965  1
  Hf  Hf3  1  0.750000  0.374450  0.480821  1
  Hf  Hf4  1  0.250000  0.924437  0.597262  1
  Hf  Hf5  1  0.250000  0.576803  0.096028  1
  Hf  Hf6  1  0.750000  0.076182  0.403246  1
  Hf  Hf7  1  0.250000  0.658157  0.802109  1
  Zr  Zr8  1  0.750000  0.425112  0.902375  1
  Sc  Sc9  1  0.250000  0.843355  0.301842  1
  Sc  Sc10  1  0.750000  0.342016  0.198428  1
  Sc  Sc11  1  0.750000  0.157529  0.698020  1
  Si  Si12  1  0.250000  0.016641  0.825216  1
  Si  Si13  1  0.250000  0.483104  0.325028  1
  Si  Si14  1  0.750000  0.982912  0.174680  1
  Si  Si15  1  0.750000  0.517942  0.673740  1
  Si  Si16  1  0.250000  0.251122  0.839528  1
  Si  Si17  1  0.250000  0.247917  0.340097  1
  Si  Si18  1  0.750000  0.748063  0.160807  1
  Si  Si19  1  0.750000  0.752330  0.659605  1
  Si  Si20  1  0.250000  0.191012  0.543866  1
  Si  Si21  1  0.250000  0.306490  0.044110  1
  Si  Si22  1  0.750000  0.809252  0.456130  1
  Si  Si23  1  0.750000  0.692098  0.957261  1
  Ru  Ru24  1  0.250000  0.388812  0.674957  1
  Ru  Ru25  1  0.250000  0.111657  0.175289  1
  Ru  Ru26  1  0.750000  0.611721  0.325484  1
  Ru  Ru27  1  0.750000  0.886706  0.824849  1
