# generated using pymatgen
data_NdDy3(TcB2)6
_symmetry_space_group_name_H-M   'P 1'
_cell_length_a   6.21027525
_cell_length_b   6.23267411
_cell_length_c   7.53277588
_cell_angle_alpha   90.35494343
_cell_angle_beta   90.97768998
_cell_angle_gamma   113.94916798
_symmetry_Int_Tables_number   1
_chemical_formula_structural   NdDy3(TcB2)6
_chemical_formula_sum   'Nd1 Dy3 Tc6 B12'
_cell_volume   266.39974756
_cell_formula_units_Z   1
loop_
 _symmetry_equiv_pos_site_id
 _symmetry_equiv_pos_as_xyz
  1  'x, y, z'
loop_
 _atom_site_type_symbol
 _atom_site_label
 _atom_site_symmetry_multiplicity
 _atom_site_fract_x
 _atom_site_fract_y
 _atom_site_fract_z
 _atom_site_occupancy
  Nd  Nd0  1  0.437366  0.092077  0.825844  1
  Dy  Dy1  1  0.100737  0.443197  0.323341  1
  Dy  Dy2  1  0.560907  0.900154  0.178711  1
  Dy  Dy3  1  0.898402  0.557003  0.676899  1
  Tc  Tc4  1  0.588513  0.412816  0.250050  1
  Tc  Tc5  1  0.411604  0.584896  0.748267  1
  Tc  Tc6  1  0.989560  0.804555  0.089610  1
  Tc  Tc7  1  0.195054  0.010229  0.409895  1
  Tc  Tc8  1  0.008935  0.198269  0.912645  1
  Tc  Tc9  1  0.806455  0.988836  0.588856  1
  B  B10  1  0.241378  0.154178  0.133309  1
  B  B11  1  0.849001  0.752096  0.371201  1
  B  B12  1  0.757859  0.847941  0.869734  1
  B  B13  1  0.149723  0.249124  0.627527  1
  B  B14  1  0.585553  0.157908  0.478999  1
  B  B15  1  0.843286  0.417494  0.020142  1
  B  B16  1  0.417060  0.840359  0.514089  1
  B  B17  1  0.158912  0.587021  0.982280  1
  B  B18  1  0.442042  0.349911  0.532406  1
  B  B19  1  0.649802  0.558710  0.966320  1
  B  B20  1  0.557653  0.648861  0.464914  1
  B  B21  1  0.350199  0.444365  0.034961  1
