# generated using pymatgen
data_Tb15ThCd2(Ni2Hg)2
_symmetry_space_group_name_H-M   'P 1'
_cell_length_a   9.58562719
_cell_length_b   9.58562808
_cell_length_c   9.59401877
_cell_angle_alpha   60.11606599
_cell_angle_beta   60.11605899
_cell_angle_gamma   60.11114941
_symmetry_Int_Tables_number   1
_chemical_formula_structural   Tb15ThCd2(Ni2Hg)2
_chemical_formula_sum   'Tb15 Th1 Cd2 Ni4 Hg2'
_cell_volume   624.95836927
_cell_formula_units_Z   1
loop_
 _symmetry_equiv_pos_site_id
 _symmetry_equiv_pos_as_xyz
  1  'x, y, z'
loop_
 _atom_site_type_symbol
 _atom_site_label
 _atom_site_symmetry_multiplicity
 _atom_site_fract_x
 _atom_site_fract_y
 _atom_site_fract_z
 _atom_site_occupancy
  Tb  Tb0  1  0.348701  0.348701  0.950729  1
  Tb  Tb1  1  0.349357  0.949452  0.348868  1
  Tb  Tb2  1  0.949452  0.349357  0.348868  1
  Tb  Tb3  1  0.812248  0.189473  0.190164  1
  Tb  Tb4  1  0.189993  0.811464  0.811337  1
  Tb  Tb5  1  0.189473  0.812248  0.190164  1
  Tb  Tb6  1  0.811464  0.189993  0.811337  1
  Tb  Tb7  1  0.189278  0.189278  0.812870  1
  Tb  Tb8  1  0.810817  0.810817  0.190947  1
  Tb  Tb9  1  0.937842  0.563842  0.564207  1
  Tb  Tb10  1  0.562499  0.935066  0.937397  1
  Tb  Tb11  1  0.563842  0.937842  0.564207  1
  Tb  Tb12  1  0.935066  0.562499  0.937397  1
  Tb  Tb13  1  0.563584  0.563584  0.939190  1
  Tb  Tb14  1  0.935780  0.935780  0.563032  1
  Th  Th15  1  0.344153  0.344153  0.344562  1
  Cd  Cd16  1  0.581335  0.256249  0.581826  1
  Cd  Cd17  1  0.256249  0.581335  0.581826  1
  Ni  Ni18  1  0.142759  0.142759  0.143006  1
  Ni  Ni19  1  0.143403  0.143403  0.570484  1
  Ni  Ni20  1  0.143507  0.570480  0.143448  1
  Ni  Ni21  1  0.570480  0.143507  0.143448  1
  Hg  Hg22  1  0.583660  0.583660  0.585136  1
  Hg  Hg23  1  0.585057  0.585057  0.245550  1
