# generated using pymatgen
data_Tb3Pa(CdPt2)2
_symmetry_space_group_name_H-M   'P 1'
_cell_length_a   3.68906200
_cell_length_b   7.80597845
_cell_length_c   7.80597786
_cell_angle_alpha   91.76776985
_cell_angle_beta   90.00000000
_cell_angle_gamma   90.00000000
_symmetry_Int_Tables_number   1
_chemical_formula_structural   Tb3Pa(CdPt2)2
_chemical_formula_sum   'Tb3 Pa1 Cd2 Pt4'
_cell_volume   224.67972066
_cell_formula_units_Z   1
loop_
 _symmetry_equiv_pos_site_id
 _symmetry_equiv_pos_as_xyz
  1  'x, y, z'
loop_
 _atom_site_type_symbol
 _atom_site_label
 _atom_site_symmetry_multiplicity
 _atom_site_fract_x
 _atom_site_fract_y
 _atom_site_fract_z
 _atom_site_occupancy
  Tb  Tb0  1  0.500000  0.826804  0.326804  1
  Tb  Tb1  1  0.500000  0.332200  0.170499  1
  Tb  Tb2  1  0.500000  0.670499  0.832200  1
  Pa  Pa3  1  0.500000  0.166595  0.666595  1
  Cd  Cd4  1  0.000000  0.999705  0.005453  1
  Cd  Cd5  1  0.000000  0.505453  0.499705  1
  Pt  Pt6  1  0.000000  0.623730  0.123730  1
  Pt  Pt7  1  0.000000  0.357841  0.857841  1
  Pt  Pt8  1  0.000000  0.880994  0.636179  1
  Pt  Pt9  1  0.000000  0.136179  0.380994  1
