# generated using pymatgen
data_Sr4HoEr(MoO6)2
_symmetry_space_group_name_H-M   'P 1'
_cell_length_a   5.81925793
_cell_length_b   5.88782512
_cell_length_c   8.33328972
_cell_angle_alpha   90.02313839
_cell_angle_beta   90.56093076
_cell_angle_gamma   89.99587858
_symmetry_Int_Tables_number   1
_chemical_formula_structural   Sr4HoEr(MoO6)2
_chemical_formula_sum   'Sr4 Ho1 Er1 Mo2 O12'
_cell_volume   285.50790725
_cell_formula_units_Z   1
loop_
 _symmetry_equiv_pos_site_id
 _symmetry_equiv_pos_as_xyz
  1  'x, y, z'
loop_
 _atom_site_type_symbol
 _atom_site_label
 _atom_site_symmetry_multiplicity
 _atom_site_fract_x
 _atom_site_fract_y
 _atom_site_fract_z
 _atom_site_occupancy
  Sr  Sr0  1  0.005299  0.036304  0.248502  1
  Sr  Sr1  1  0.494745  0.536099  0.252339  1
  Sr  Sr2  1  0.505255  0.463900  0.747660  1
  Sr  Sr3  1  0.994700  0.963697  0.751498  1
  Ho  Ho4  1  0.500001  0.000000  0.000000  1
  Er  Er5  1  0.000000  0.500000  0.500000  1
  Mo  Mo6  1  0.000000  0.500000  0.000000  1
  Mo  Mo7  1  0.500000  0.000000  0.500000  1
  O  O8  1  0.269766  0.306843  0.036197  1
  O  O9  1  0.198388  0.779249  0.042966  1
  O  O10  1  0.923343  0.478987  0.238522  1
  O  O11  1  0.577100  0.979012  0.262274  1
  O  O12  1  0.300369  0.279193  0.457355  1
  O  O13  1  0.230231  0.805677  0.464220  1
  O  O14  1  0.769770  0.194323  0.535781  1
  O  O15  1  0.699630  0.720807  0.542646  1
  O  O16  1  0.422901  0.020988  0.737725  1
  O  O17  1  0.076656  0.521012  0.761477  1
  O  O18  1  0.801613  0.220750  0.957035  1
  O  O19  1  0.730235  0.693158  0.963803  1
