# generated using pymatgen
data_Ho5Zr5Pb6
_symmetry_space_group_name_H-M   'P 1'
_cell_length_a   8.87431563
_cell_length_b   8.87431630
_cell_length_c   6.09567600
_cell_angle_alpha   90.00000000
_cell_angle_beta   90.00000000
_cell_angle_gamma   119.61290827
_symmetry_Int_Tables_number   1
_chemical_formula_structural   Ho5Zr5Pb6
_chemical_formula_sum   'Ho5 Zr5 Pb6'
_cell_volume   417.35258391
_cell_formula_units_Z   1
loop_
 _symmetry_equiv_pos_site_id
 _symmetry_equiv_pos_as_xyz
  1  'x, y, z'
loop_
 _atom_site_type_symbol
 _atom_site_label
 _atom_site_symmetry_multiplicity
 _atom_site_fract_x
 _atom_site_fract_y
 _atom_site_fract_z
 _atom_site_occupancy
  Ho  Ho0  1  0.756207  0.756207  0.250000  1
  Ho  Ho1  1  0.001357  0.238216  0.250000  1
  Ho  Ho2  1  0.763086  0.001476  0.750000  1
  Ho  Ho3  1  0.238216  0.001357  0.250000  1
  Ho  Ho4  1  0.001476  0.763086  0.750000  1
  Zr  Zr5  1  0.332460  0.664938  0.500667  1
  Zr  Zr6  1  0.664938  0.332460  0.500667  1
  Zr  Zr7  1  0.332460  0.664938  0.999333  1
  Zr  Zr8  1  0.247260  0.247260  0.750000  1
  Zr  Zr9  1  0.664938  0.332460  0.999333  1
  Pb  Pb10  1  0.600677  0.600677  0.750000  1
  Pb  Pb11  1  0.395190  0.003211  0.750000  1
  Pb  Pb12  1  0.601278  0.000079  0.250000  1
  Pb  Pb13  1  0.003211  0.395190  0.750000  1
  Pb  Pb14  1  0.397167  0.397167  0.250000  1
  Pb  Pb15  1  0.000079  0.601278  0.250000  1
