# generated using pymatgen
data_Tb3HoMg3ZnRh4
_symmetry_space_group_name_H-M   'P 1'
_cell_length_a   4.10079800
_cell_length_b   7.08039113
_cell_length_c   8.44714400
_cell_angle_alpha   90.06756690
_cell_angle_beta   90.00000000
_cell_angle_gamma   90.00000000
_symmetry_Int_Tables_number   1
_chemical_formula_structural   Tb3HoMg3ZnRh4
_chemical_formula_sum   'Tb3 Ho1 Mg3 Zn1 Rh4'
_cell_volume   245.26479937
_cell_formula_units_Z   1
loop_
 _symmetry_equiv_pos_site_id
 _symmetry_equiv_pos_as_xyz
  1  'x, y, z'
loop_
 _atom_site_type_symbol
 _atom_site_label
 _atom_site_symmetry_multiplicity
 _atom_site_fract_x
 _atom_site_fract_y
 _atom_site_fract_z
 _atom_site_occupancy
  Tb  Tb0  1  0.250000  0.534234  0.183889  1
  Tb  Tb1  1  0.750000  0.459525  0.819237  1
  Tb  Tb2  1  0.250000  0.048950  0.328480  1
  Ho  Ho3  1  0.750000  0.962181  0.674882  1
  Mg  Mg4  1  0.250000  0.135131  0.939121  1
  Mg  Mg5  1  0.750000  0.863370  0.060096  1
  Mg  Mg6  1  0.250000  0.630575  0.555948  1
  Zn  Zn7  1  0.750000  0.366696  0.439205  1
  Rh  Rh8  1  0.750000  0.749568  0.372581  1
  Rh  Rh9  1  0.250000  0.252697  0.625154  1
  Rh  Rh10  1  0.750000  0.249081  0.131895  1
  Rh  Rh11  1  0.250000  0.747990  0.869511  1
