# generated using pymatgen
data_Ca5Mg2P12Rh17
_symmetry_space_group_name_H-M   'P 1'
_cell_length_a   12.73098200
_cell_length_b   12.68695047
_cell_length_c   3.91088000
_cell_angle_alpha   90.00000000
_cell_angle_beta   90.00000000
_cell_angle_gamma   119.88564743
_symmetry_Int_Tables_number   1
_chemical_formula_structural   Ca5Mg2P12Rh17
_chemical_formula_sum   'Ca5 Mg2 P12 Rh17'
_cell_volume   547.67580122
_cell_formula_units_Z   1
loop_
 _symmetry_equiv_pos_site_id
 _symmetry_equiv_pos_as_xyz
  1  'x, y, z'
loop_
 _atom_site_type_symbol
 _atom_site_label
 _atom_site_symmetry_multiplicity
 _atom_site_fract_x
 _atom_site_fract_y
 _atom_site_fract_z
 _atom_site_occupancy
  Ca  Ca0  1  0.667209  0.333017  0.000000  1
  Ca  Ca1  1  0.332791  0.665809  0.000000  1
  Ca  Ca2  1  0.184520  0.185646  0.500000  1
  Ca  Ca3  1  0.815480  0.001125  0.500000  1
  Ca  Ca4  1  0.000000  0.814044  0.500000  1
  Mg  Mg5  1  0.556679  0.556413  0.000000  1
  Mg  Mg6  1  0.443321  0.999734  0.000000  1
  P  P7  1  0.359386  0.361776  0.000000  1
  P  P8  1  0.640614  0.002391  0.000000  1
  P  P9  1  0.000000  0.634211  0.000000  1
  P  P10  1  0.830924  0.311892  0.500000  1
  P  P11  1  0.689319  0.513768  0.500000  1
  P  P12  1  0.482889  0.175331  0.500000  1
  P  P13  1  0.310681  0.824449  0.500000  1
  P  P14  1  0.517111  0.692441  0.500000  1
  P  P15  1  0.169076  0.480967  0.500000  1
  P  P16  1  0.821513  0.819223  0.000000  1
  P  P17  1  0.178487  0.997711  0.000000  1
  P  P18  1  0.000000  0.180093  0.000000  1
  Rh  Rh19  1  0.000000  0.453555  0.000000  1
  Rh  Rh20  1  0.822851  0.198383  0.000000  1
  Rh  Rh21  1  0.803026  0.620651  0.000000  1
  Rh  Rh22  1  0.374845  0.177665  0.000000  1
  Rh  Rh23  1  0.196974  0.817625  0.000000  1
  Rh  Rh24  1  0.625155  0.802820  0.000000  1
  Rh  Rh25  1  0.177149  0.375531  0.000000  1
  Rh  Rh26  1  0.640933  0.130969  0.500000  1
  Rh  Rh27  1  0.872432  0.510309  0.500000  1
  Rh  Rh28  1  0.487047  0.361620  0.500000  1
  Rh  Rh29  1  0.127568  0.637877  0.500000  1
  Rh  Rh30  1  0.512953  0.874572  0.500000  1
  Rh  Rh31  1  0.359067  0.490037  0.500000  1
  Rh  Rh32  1  0.720521  0.717835  0.500000  1
  Rh  Rh33  1  0.279479  0.997314  0.500000  1
  Rh  Rh34  1  0.000000  0.283945  0.500000  1
  Rh  Rh35  1  0.000000  0.999248  0.000000  1
