# generated using pymatgen
data_Si4RuPt3
_symmetry_space_group_name_H-M   'P 1'
_cell_length_a   3.54556400
_cell_length_b   5.52701088
_cell_length_c   6.13231381
_cell_angle_alpha   89.59291826
_cell_angle_beta   90.00000000
_cell_angle_gamma   90.00000000
_symmetry_Int_Tables_number   1
_chemical_formula_structural   Si4RuPt3
_chemical_formula_sum   'Si4 Ru1 Pt3'
_cell_volume   120.16806231
_cell_formula_units_Z   1
loop_
 _symmetry_equiv_pos_site_id
 _symmetry_equiv_pos_as_xyz
  1  'x, y, z'
loop_
 _atom_site_type_symbol
 _atom_site_label
 _atom_site_symmetry_multiplicity
 _atom_site_fract_x
 _atom_site_fract_y
 _atom_site_fract_z
 _atom_site_occupancy
  Si  Si0  1  0.250000  0.668927  0.067043  1
  Si  Si1  1  0.750000  0.328931  0.915598  1
  Si  Si2  1  0.250000  0.186067  0.426402  1
  Si  Si3  1  0.750000  0.803305  0.589866  1
  Ru  Ru4  1  0.250000  0.501461  0.697767  1
  Pt  Pt5  1  0.750000  0.503990  0.303244  1
  Pt  Pt6  1  0.250000  0.001798  0.800350  1
  Pt  Pt7  1  0.750000  0.005521  0.199729  1
