# generated using pymatgen
data_Er6Al24Ru7Pt
_symmetry_space_group_name_H-M   'P 1'
_cell_length_a   8.80340578
_cell_length_b   8.80340515
_cell_length_c   9.52896335
_cell_angle_alpha   89.79989661
_cell_angle_beta   90.20010514
_cell_angle_gamma   119.83335387
_symmetry_Int_Tables_number   1
_chemical_formula_structural   Er6Al24Ru7Pt
_chemical_formula_sum   'Er6 Al24 Ru7 Pt1'
_cell_volume   640.62074391
_cell_formula_units_Z   1
loop_
 _symmetry_equiv_pos_site_id
 _symmetry_equiv_pos_as_xyz
  1  'x, y, z'
loop_
 _atom_site_type_symbol
 _atom_site_label
 _atom_site_symmetry_multiplicity
 _atom_site_fract_x
 _atom_site_fract_y
 _atom_site_fract_z
 _atom_site_occupancy
  Er  Er0  1  0.192491  0.387652  0.250377  1
  Er  Er1  1  0.807509  0.612348  0.749623  1
  Er  Er2  1  0.612348  0.807509  0.250377  1
  Er  Er3  1  0.387652  0.192491  0.749623  1
  Er  Er4  1  0.194858  0.805142  0.250326  1
  Er  Er5  1  0.805142  0.194858  0.749674  1
  Al  Al6  1  0.330827  0.669173  0.020248  1
  Al  Al7  1  0.669173  0.330827  0.979752  1
  Al  Al8  1  0.666857  0.333143  0.517148  1
  Al  Al9  1  0.333143  0.666857  0.482852  1
  Al  Al10  1  0.162618  0.323804  0.579020  1
  Al  Al11  1  0.837382  0.676196  0.420980  1
  Al  Al12  1  0.676196  0.837382  0.579020  1
  Al  Al13  1  0.842437  0.676617  0.078346  1
  Al  Al14  1  0.323804  0.162618  0.420980  1
  Al  Al15  1  0.157563  0.323383  0.921654  1
  Al  Al16  1  0.162475  0.837525  0.578710  1
  Al  Al17  1  0.323383  0.157563  0.078346  1
  Al  Al18  1  0.837525  0.162475  0.421290  1
  Al  Al19  1  0.676617  0.842437  0.921654  1
  Al  Al20  1  0.837634  0.162366  0.078288  1
  Al  Al21  1  0.162366  0.837634  0.921712  1
  Al  Al22  1  0.560310  0.121181  0.248730  1
  Al  Al23  1  0.439690  0.878819  0.751270  1
  Al  Al24  1  0.878819  0.439690  0.248730  1
  Al  Al25  1  0.121181  0.560310  0.751270  1
  Al  Al26  1  0.561708  0.438292  0.252047  1
  Al  Al27  1  0.438292  0.561708  0.747953  1
  Al  Al28  1  0.999602  0.000398  0.250011  1
  Al  Al29  1  0.000398  0.999602  0.749989  1
  Ru  Ru30  1  0.500000  0.000000  0.000000  1
  Ru  Ru31  1  0.000000  0.500000  0.000000  1
  Ru  Ru32  1  0.500000  0.000000  0.500000  1
  Ru  Ru33  1  0.000000  0.500000  0.500000  1
  Ru  Ru34  1  0.500000  0.500000  0.500000  1
  Ru  Ru35  1  0.000000  0.000000  0.000000  1
  Ru  Ru36  1  0.000000  0.000000  0.500000  1
  Pt  Pt37  1  0.500000  0.500000  0.000000  1
