# generated using pymatgen
data_NbFe2MoBr16
_symmetry_space_group_name_H-M   'P 1'
_cell_length_a   10.42744200
_cell_length_b   10.42744244
_cell_length_c   9.10935400
_cell_angle_alpha   90.00000000
_cell_angle_beta   90.00000000
_cell_angle_gamma   129.31956062
_symmetry_Int_Tables_number   1
_chemical_formula_structural   NbFe2MoBr16
_chemical_formula_sum   'Nb1 Fe2 Mo1 Br16'
_cell_volume   766.25453642
_cell_formula_units_Z   1
loop_
 _symmetry_equiv_pos_site_id
 _symmetry_equiv_pos_as_xyz
  1  'x, y, z'
loop_
 _atom_site_type_symbol
 _atom_site_label
 _atom_site_symmetry_multiplicity
 _atom_site_fract_x
 _atom_site_fract_y
 _atom_site_fract_z
 _atom_site_occupancy
  Nb  Nb0  1  0.386926  0.613074  0.750000  1
  Fe  Fe1  1  0.810594  0.189406  0.250000  1
  Fe  Fe2  1  0.187527  0.812473  0.750000  1
  Mo  Mo3  1  0.615540  0.384460  0.250000  1
  Br  Br4  1  0.520011  0.067101  0.250000  1
  Br  Br5  1  0.068124  0.523215  0.750000  1
  Br  Br6  1  0.476785  0.931876  0.750000  1
  Br  Br7  1  0.932899  0.479989  0.250000  1
  Br  Br8  1  0.636926  0.363074  0.986596  1
  Br  Br9  1  0.366745  0.633255  0.019506  1
  Br  Br10  1  0.636926  0.363074  0.513404  1
  Br  Br11  1  0.366745  0.633255  0.480494  1
  Br  Br12  1  0.329011  0.269600  0.250000  1
  Br  Br13  1  0.258347  0.320755  0.750000  1
  Br  Br14  1  0.679245  0.741653  0.750000  1
  Br  Br15  1  0.730400  0.670989  0.250000  1
  Br  Br16  1  0.879198  0.120802  0.459724  1
  Br  Br17  1  0.119428  0.880572  0.539827  1
  Br  Br18  1  0.879198  0.120802  0.040276  1
  Br  Br19  1  0.119428  0.880572  0.960173  1
