# generated using pymatgen
data_Ta3Ga(TcOs)2
_symmetry_space_group_name_H-M   'P 1'
_cell_length_a   6.37582100
_cell_length_b   4.43980000
_cell_length_c   8.93145700
_cell_angle_alpha   90.00000000
_cell_angle_beta   90.00064426
_cell_angle_gamma   90.00000000
_symmetry_Int_Tables_number   1
_chemical_formula_structural   Ta3Ga(TcOs)2
_chemical_formula_sum   'Ta6 Ga2 Tc4 Os4'
_cell_volume   252.82605861
_cell_formula_units_Z   2
loop_
 _symmetry_equiv_pos_site_id
 _symmetry_equiv_pos_as_xyz
  1  'x, y, z'
loop_
 _atom_site_type_symbol
 _atom_site_label
 _atom_site_symmetry_multiplicity
 _atom_site_fract_x
 _atom_site_fract_y
 _atom_site_fract_z
 _atom_site_occupancy
  Ta  Ta0  1  0.500000  0.250000  0.366272  1
  Ta  Ta1  1  0.000014  0.250000  0.366273  1
  Ta  Ta2  1  0.000580  0.749999  0.624994  1
  Ta  Ta3  1  0.499405  0.749999  0.624995  1
  Ta  Ta4  1  0.000012  0.250000  0.883723  1
  Ta  Ta5  1  0.499999  0.250000  0.883721  1
  Ga  Ga6  1  0.499840  0.749999  0.125004  1
  Ga  Ga7  1  0.000141  0.749999  0.125006  1
  Tc  Tc8  1  0.750006  0.250000  0.125012  1
  Tc  Tc9  1  0.250000  0.749999  0.377388  1
  Tc  Tc10  1  0.749998  0.250000  0.625009  1
  Tc  Tc11  1  0.249999  0.749999  0.872619  1
  Os  Os12  1  0.250003  0.250000  0.124989  1
  Os  Os13  1  0.750001  0.749999  0.377545  1
  Os  Os14  1  0.249998  0.250000  0.624984  1
  Os  Os15  1  0.750005  0.749999  0.872467  1
