# generated using pymatgen
data_Tm11LuCo3Tc
_symmetry_space_group_name_H-M   'P 1'
_cell_length_a   6.19698812
_cell_length_b   7.02079696
_cell_length_c   9.00917019
_cell_angle_alpha   90.01119762
_cell_angle_beta   90.02060585
_cell_angle_gamma   90.09633862
_symmetry_Int_Tables_number   1
_chemical_formula_structural   Tm11LuCo3Tc
_chemical_formula_sum   'Tm11 Lu1 Co3 Tc1'
_cell_volume   391.96854576
_cell_formula_units_Z   1
loop_
 _symmetry_equiv_pos_site_id
 _symmetry_equiv_pos_as_xyz
  1  'x, y, z'
loop_
 _atom_site_type_symbol
 _atom_site_label
 _atom_site_symmetry_multiplicity
 _atom_site_fract_x
 _atom_site_fract_y
 _atom_site_fract_z
 _atom_site_occupancy
  Tm  Tm0  1  0.326034  0.673385  0.064614  1
  Tm  Tm1  1  0.175942  0.181021  0.436511  1
  Tm  Tm2  1  0.676668  0.322240  0.566969  1
  Tm  Tm3  1  0.830161  0.826399  0.936636  1
  Tm  Tm4  1  0.676893  0.322205  0.933197  1
  Tm  Tm5  1  0.829891  0.826140  0.563452  1
  Tm  Tm6  1  0.326260  0.673374  0.435416  1
  Tm  Tm7  1  0.862054  0.535196  0.249896  1
  Tm  Tm8  1  0.620572  0.044018  0.249789  1
  Tm  Tm9  1  0.135979  0.457921  0.750130  1
  Tm  Tm10  1  0.365284  0.954586  0.750281  1
  Lu  Lu11  1  0.175741  0.180863  0.063351  1
  Co  Co12  1  0.460416  0.386946  0.249730  1
  Co  Co13  1  0.963891  0.114531  0.750257  1
  Co  Co14  1  0.540603  0.610708  0.749941  1
  Tc  Tc15  1  0.033610  0.890468  0.249829  1
