# generated using pymatgen
data_Tb2Sm3(Hg2Pd)2
_symmetry_space_group_name_H-M   'P 1'
_cell_length_a   8.09354600
_cell_length_b   18.26582800
_cell_length_c   3.72365200
_cell_angle_alpha   90.00000000
_cell_angle_beta   90.00000000
_cell_angle_gamma   90.00000000
_symmetry_Int_Tables_number   1
_chemical_formula_structural   Tb2Sm3(Hg2Pd)2
_chemical_formula_sum   'Tb4 Sm6 Hg8 Pd4'
_cell_volume   550.48728181
_cell_formula_units_Z   2
loop_
 _symmetry_equiv_pos_site_id
 _symmetry_equiv_pos_as_xyz
  1  'x, y, z'
loop_
 _atom_site_type_symbol
 _atom_site_label
 _atom_site_symmetry_multiplicity
 _atom_site_fract_x
 _atom_site_fract_y
 _atom_site_fract_z
 _atom_site_occupancy
  Tb  Tb0  1  0.615831  0.085179  0.000000  1
  Tb  Tb1  1  0.384169  0.914821  0.000000  1
  Tb  Tb2  1  0.884169  0.585179  0.000000  1
  Tb  Tb3  1  0.115831  0.414821  0.000000  1
  Sm  Sm4  1  0.500000  0.500000  0.000000  1
  Sm  Sm5  1  0.000000  0.000000  0.000000  1
  Sm  Sm6  1  0.730670  0.286705  0.000000  1
  Sm  Sm7  1  0.269330  0.713295  0.000000  1
  Sm  Sm8  1  0.769330  0.786705  0.000000  1
  Sm  Sm9  1  0.230670  0.213295  0.000000  1
  Hg  Hg10  1  0.705717  0.937269  0.500000  1
  Hg  Hg11  1  0.294283  0.062731  0.500000  1
  Hg  Hg12  1  0.794283  0.437269  0.500000  1
  Hg  Hg13  1  0.205717  0.562731  0.500000  1
  Hg  Hg14  1  0.587109  0.648550  0.500000  1
  Hg  Hg15  1  0.412891  0.351450  0.500000  1
  Hg  Hg16  1  0.912891  0.148550  0.500000  1
  Hg  Hg17  1  0.087109  0.851450  0.500000  1
  Pd  Pd18  1  0.522604  0.195413  0.500000  1
  Pd  Pd19  1  0.477396  0.804587  0.500000  1
  Pd  Pd20  1  0.977396  0.695413  0.500000  1
  Pd  Pd21  1  0.022604  0.304587  0.500000  1
