# generated using pymatgen
data_CdSb2F12
_symmetry_space_group_name_H-M   'P 1'
_cell_length_a   9.98635432
_cell_length_b   9.98635446
_cell_length_c   9.98635461
_cell_angle_alpha   131.61759815
_cell_angle_beta   131.61759823
_cell_angle_gamma   70.83366392
_symmetry_Int_Tables_number   1
_chemical_formula_structural   CdSb2F12
_chemical_formula_sum   'Cd2 Sb4 F24'
_cell_volume   545.15964665
_cell_formula_units_Z   2
loop_
 _symmetry_equiv_pos_site_id
 _symmetry_equiv_pos_as_xyz
  1  'x, y, z'
loop_
 _atom_site_type_symbol
 _atom_site_label
 _atom_site_symmetry_multiplicity
 _atom_site_fract_x
 _atom_site_fract_y
 _atom_site_fract_z
 _atom_site_occupancy
  Cd  Cd0  1  0.750000  0.250000  0.500000  1
  Cd  Cd1  1  0.000000  0.000000  0.000000  1
  Sb  Sb2  1  0.779486  0.779486  0.000000  1
  Sb  Sb3  1  0.220514  0.220514  0.000000  1
  Sb  Sb4  1  0.970514  0.470514  0.500000  1
  Sb  Sb5  1  0.529486  0.029486  0.500000  1
  F  F6  1  0.870320  0.741714  0.206614  1
  F  F7  1  0.535100  0.663707  0.793386  1
  F  F8  1  0.413707  0.785100  0.293386  1
  F  F9  1  0.336293  0.129680  0.871394  1
  F  F10  1  0.258286  0.464900  0.128606  1
  F  F11  1  0.214900  0.508286  0.628606  1
  F  F12  1  0.653917  0.270953  0.684607  1
  F  F13  1  0.729047  0.413654  0.382964  1
  F  F14  1  0.030691  0.346083  0.617036  1
  F  F15  1  0.096083  0.280691  0.117036  1
  F  F16  1  0.163654  0.979047  0.882964  1
  F  F17  1  0.586346  0.969309  0.315393  1
  F  F18  1  0.719309  0.836346  0.815393  1
  F  F19  1  0.020953  0.903917  0.184607  1
  F  F20  1  0.300900  0.087389  0.322087  1
  F  F21  1  0.912611  0.234699  0.213511  1
  F  F22  1  0.021188  0.699100  0.786489  1
  F  F23  1  0.449100  0.271188  0.286489  1
  F  F24  1  0.984699  0.162611  0.713511  1
  F  F25  1  0.765301  0.978812  0.677913  1
  F  F26  1  0.728812  0.015301  0.177913  1
  F  F27  1  0.837389  0.550900  0.822087  1
  F  F28  1  0.491714  0.120320  0.706614  1
  F  F29  1  0.879680  0.586293  0.371394  1
