# generated using pymatgen
data_Nd4Mn6FeAgO20
_symmetry_space_group_name_H-M   'P 1'
_cell_length_a   5.83654700
_cell_length_b   7.65128414
_cell_length_c   8.79177688
_cell_angle_alpha   89.51505261
_cell_angle_beta   90.00000000
_cell_angle_gamma   90.00000000
_symmetry_Int_Tables_number   1
_chemical_formula_structural   Nd4Mn6FeAgO20
_chemical_formula_sum   'Nd4 Mn6 Fe1 Ag1 O20'
_cell_volume   392.60101645
_cell_formula_units_Z   1
loop_
 _symmetry_equiv_pos_site_id
 _symmetry_equiv_pos_as_xyz
  1  'x, y, z'
loop_
 _atom_site_type_symbol
 _atom_site_label
 _atom_site_symmetry_multiplicity
 _atom_site_fract_x
 _atom_site_fract_y
 _atom_site_fract_z
 _atom_site_occupancy
  Nd  Nd0  1  0.000000  0.361516  0.672741  1
  Nd  Nd1  1  0.000000  0.643154  0.328783  1
  Nd  Nd2  1  0.000000  0.856779  0.826388  1
  Nd  Nd3  1  0.000000  0.144566  0.172142  1
  Mn  Mn4  1  0.500000  0.590772  0.650235  1
  Mn  Mn5  1  0.500000  0.409455  0.352814  1
  Mn  Mn6  1  0.256156  0.503971  0.002352  1
  Mn  Mn7  1  0.744669  0.998387  0.495836  1
  Mn  Mn8  1  0.743844  0.503971  0.002352  1
  Mn  Mn9  1  0.255331  0.998387  0.495836  1
  Fe  Fe10  1  0.500000  0.890954  0.148353  1
  Ag  Ag11  1  0.500000  0.067108  0.843426  1
  O  O12  1  0.245513  0.901700  0.292843  1
  O  O13  1  0.233744  0.097212  0.698361  1
  O  O14  1  0.753356  0.406076  0.208970  1
  O  O15  1  0.752433  0.600963  0.794307  1
  O  O16  1  0.766256  0.097212  0.698361  1
  O  O17  1  0.754487  0.901700  0.292843  1
  O  O18  1  0.247567  0.600963  0.794307  1
  O  O19  1  0.246644  0.406076  0.208970  1
  O  O20  1  0.500000  0.361727  0.945052  1
  O  O21  1  0.500000  0.658144  0.067679  1
  O  O22  1  0.500000  0.848137  0.560805  1
  O  O23  1  0.500000  0.150339  0.433265  1
  O  O24  1  0.266633  0.997565  0.004912  1
  O  O25  1  0.723298  0.499144  0.502209  1
  O  O26  1  0.733367  0.997565  0.004912  1
  O  O27  1  0.276702  0.499144  0.502209  1
  O  O28  1  0.000000  0.157243  0.445411  1
  O  O29  1  0.000000  0.840271  0.550099  1
  O  O30  1  0.000000  0.661112  0.053739  1
  O  O31  1  0.000000  0.348690  0.949488  1
