# generated using pymatgen
data_Y3Cd3SnHg2
_symmetry_space_group_name_H-M   'P 1'
_cell_length_a   7.70118400
_cell_length_b   7.70118451
_cell_length_c   4.37623400
_cell_angle_alpha   90.00000000
_cell_angle_beta   90.00000000
_cell_angle_gamma   120.00000638
_symmetry_Int_Tables_number   1
_chemical_formula_structural   Y3Cd3SnHg2
_chemical_formula_sum   'Y3 Cd3 Sn1 Hg2'
_cell_volume   224.77404879
_cell_formula_units_Z   1
loop_
 _symmetry_equiv_pos_site_id
 _symmetry_equiv_pos_as_xyz
  1  'x, y, z'
loop_
 _atom_site_type_symbol
 _atom_site_label
 _atom_site_symmetry_multiplicity
 _atom_site_fract_x
 _atom_site_fract_y
 _atom_site_fract_z
 _atom_site_occupancy
  Y  Y0  1  0.587409  0.006573  0.000000  1
  Y  Y1  1  0.993427  0.580836  0.000000  1
  Y  Y2  1  0.419164  0.412591  0.000000  1
  Cd  Cd3  1  0.256418  0.009270  0.500000  1
  Cd  Cd4  1  0.990730  0.247148  0.500000  1
  Cd  Cd5  1  0.752852  0.743582  0.500000  1
  Sn  Sn6  1  0.333333  0.666667  0.500000  1
  Hg  Hg7  1  0.666667  0.333333  0.500000  1
  Hg  Hg8  1  0.000000  0.000000  0.000000  1
