# generated using pymatgen
data_Pa6TiNbGe10
_symmetry_space_group_name_H-M   'P 1'
_cell_length_a   8.59427400
_cell_length_b   8.59427434
_cell_length_c   5.78721000
_cell_angle_alpha   90.00000000
_cell_angle_beta   90.00000000
_cell_angle_gamma   119.99999870
_symmetry_Int_Tables_number   1
_chemical_formula_structural   Pa6TiNbGe10
_chemical_formula_sum   'Pa6 Ti1 Nb1 Ge10'
_cell_volume   370.18454860
_cell_formula_units_Z   1
loop_
 _symmetry_equiv_pos_site_id
 _symmetry_equiv_pos_as_xyz
  1  'x, y, z'
loop_
 _atom_site_type_symbol
 _atom_site_label
 _atom_site_symmetry_multiplicity
 _atom_site_fract_x
 _atom_site_fract_y
 _atom_site_fract_z
 _atom_site_occupancy
  Pa  Pa0  1  0.615775  0.000000  0.250203  1
  Pa  Pa1  1  0.615775  0.615775  0.749797  1
  Pa  Pa2  1  0.000000  0.384225  0.749797  1
  Pa  Pa3  1  0.000000  0.615775  0.250203  1
  Pa  Pa4  1  0.384225  0.384225  0.250203  1
  Pa  Pa5  1  0.384225  0.000000  0.749797  1
  Ti  Ti6  1  0.000000  0.000000  0.500000  1
  Nb  Nb7  1  0.000000  0.000000  0.000000  1
  Ge  Ge8  1  0.264988  0.000000  0.253282  1
  Ge  Ge9  1  0.264988  0.264988  0.746718  1
  Ge  Ge10  1  0.000000  0.735012  0.746718  1
  Ge  Ge11  1  0.000000  0.264988  0.253282  1
  Ge  Ge12  1  0.735012  0.735012  0.253282  1
  Ge  Ge13  1  0.735012  0.000000  0.746718  1
  Ge  Ge14  1  0.333333  0.666667  0.000000  1
  Ge  Ge15  1  0.666667  0.333333  0.500000  1
  Ge  Ge16  1  0.666667  0.333333  0.000000  1
  Ge  Ge17  1  0.333333  0.666667  0.500000  1
