# generated using pymatgen
data_Nd2Y3P12PdRu18
_symmetry_space_group_name_H-M   'P 1'
_cell_length_a   12.64711417
_cell_length_b   12.52556994
_cell_length_c   3.99532900
_cell_angle_alpha   90.00000000
_cell_angle_beta   90.00000000
_cell_angle_gamma   119.72967077
_symmetry_Int_Tables_number   1
_chemical_formula_structural   Nd2Y3P12PdRu18
_chemical_formula_sum   'Nd2 Y3 P12 Pd1 Ru18'
_cell_volume   549.60250916
_cell_formula_units_Z   1
loop_
 _symmetry_equiv_pos_site_id
 _symmetry_equiv_pos_as_xyz
  1  'x, y, z'
loop_
 _atom_site_type_symbol
 _atom_site_label
 _atom_site_symmetry_multiplicity
 _atom_site_fract_x
 _atom_site_fract_y
 _atom_site_fract_z
 _atom_site_occupancy
  Nd  Nd0  1  0.000193  0.182723  0.500000  1
  Nd  Nd1  1  0.815836  0.814395  0.500000  1
  Y  Y2  1  0.184386  0.999152  0.500000  1
  Y  Y3  1  0.660977  0.330513  0.000000  1
  Y  Y4  1  0.338095  0.668970  0.000000  1
  P  P5  1  0.001661  0.811135  0.000000  1
  P  P6  1  0.186030  0.185341  0.000000  1
  P  P7  1  0.814372  0.000953  0.000000  1
  P  P8  1  0.693186  0.173793  0.500000  1
  P  P9  1  0.819117  0.520123  0.500000  1
  P  P10  1  0.474724  0.304802  0.500000  1
  P  P11  1  0.181272  0.701034  0.500000  1
  P  P12  1  0.524694  0.829953  0.500000  1
  P  P13  1  0.306241  0.479502  0.500000  1
  P  P14  1  0.000164  0.367208  0.000000  1
  P  P15  1  0.625167  0.625346  0.000000  1
  P  P16  1  0.373612  0.000125  0.000000  1
  Pd  Pd17  1  0.000359  0.552867  0.000000  1
  Ru  Ru18  1  0.444244  0.445431  0.000000  1
  Ru  Ru19  1  0.555107  0.001759  0.000000  1
  Ru  Ru20  1  0.001211  0.711183  0.500000  1
  Ru  Ru21  1  0.283372  0.284372  0.500000  1
  Ru  Ru22  1  0.716011  0.002109  0.500000  1
  Ru  Ru23  1  0.804534  0.186921  0.000000  1
  Ru  Ru24  1  0.814172  0.618630  0.000000  1
  Ru  Ru25  1  0.375521  0.191178  0.000000  1
  Ru  Ru26  1  0.187032  0.807183  0.000000  1
  Ru  Ru27  1  0.622470  0.816068  0.000000  1
  Ru  Ru28  1  0.195540  0.381794  0.000000  1
  Ru  Ru29  1  0.874011  0.368249  0.500000  1
  Ru  Ru30  1  0.629427  0.506829  0.500000  1
  Ru  Ru31  1  0.492535  0.127231  0.500000  1
  Ru  Ru32  1  0.370130  0.877452  0.500000  1
  Ru  Ru33  1  0.506609  0.633795  0.500000  1
  Ru  Ru34  1  0.125935  0.493773  0.500000  1
  Ru  Ru35  1  0.002055  0.998108  0.000000  1
