# generated using pymatgen
data_Tm16MgTl(InRh2)2
_symmetry_space_group_name_H-M   'P 1'
_cell_length_a   9.54559648
_cell_length_b   9.55075619
_cell_length_c   9.55075539
_cell_angle_alpha   59.98210707
_cell_angle_beta   59.98915721
_cell_angle_gamma   59.98916388
_symmetry_Int_Tables_number   1
_chemical_formula_structural   Tm16MgTl(InRh2)2
_chemical_formula_sum   'Tm16 Mg1 Tl1 In2 Rh4'
_cell_volume   615.50790921
_cell_formula_units_Z   1
loop_
 _symmetry_equiv_pos_site_id
 _symmetry_equiv_pos_as_xyz
  1  'x, y, z'
loop_
 _atom_site_type_symbol
 _atom_site_label
 _atom_site_symmetry_multiplicity
 _atom_site_fract_x
 _atom_site_fract_y
 _atom_site_fract_z
 _atom_site_occupancy
  Tm  Tm0  1  0.061483  0.061005  0.438585  1
  Tm  Tm1  1  0.435843  0.064212  0.435795  1
  Tm  Tm2  1  0.061483  0.438585  0.061005  1
  Tm  Tm3  1  0.047871  0.650044  0.650044  1
  Tm  Tm4  1  0.435843  0.435795  0.064212  1
  Tm  Tm5  1  0.649774  0.047589  0.650362  1
  Tm  Tm6  1  0.187221  0.812318  0.187341  1
  Tm  Tm7  1  0.187221  0.187341  0.812318  1
  Tm  Tm8  1  0.809912  0.810832  0.189743  1
  Tm  Tm9  1  0.438374  0.061451  0.061451  1
  Tm  Tm10  1  0.812210  0.186910  0.186910  1
  Tm  Tm11  1  0.064418  0.436028  0.436028  1
  Tm  Tm12  1  0.809912  0.189743  0.810832  1
  Tm  Tm13  1  0.189961  0.810126  0.810126  1
  Tm  Tm14  1  0.649774  0.650362  0.047589  1
  Tm  Tm15  1  0.651311  0.651864  0.651864  1
  Mg  Mg16  1  0.422375  0.422563  0.422563  1
  Tl  Tl17  1  0.752006  0.415871  0.415871  1
  In  In18  1  0.416405  0.749912  0.417199  1
  In  In19  1  0.416405  0.417199  0.749912  1
  Rh  Rh20  1  0.858354  0.858367  0.426522  1
  Rh  Rh21  1  0.856964  0.857001  0.857001  1
  Rh  Rh22  1  0.426527  0.858359  0.858359  1
  Rh  Rh23  1  0.858354  0.426522  0.858367  1
