# generated using pymatgen
data_Ho5Er7Co4CuBi
_symmetry_space_group_name_H-M   'P 1'
_cell_length_a   8.27336290
_cell_length_b   8.27300401
_cell_length_c   8.27300457
_cell_angle_alpha   110.01629833
_cell_angle_beta   111.21653338
_cell_angle_gamma   107.20494117
_symmetry_Int_Tables_number   1
_chemical_formula_structural   Ho5Er7Co4CuBi
_chemical_formula_sum   'Ho5 Er7 Co4 Cu1 Bi1'
_cell_volume   435.35060870
_cell_formula_units_Z   1
loop_
 _symmetry_equiv_pos_site_id
 _symmetry_equiv_pos_as_xyz
  1  'x, y, z'
loop_
 _atom_site_type_symbol
 _atom_site_label
 _atom_site_symmetry_multiplicity
 _atom_site_fract_x
 _atom_site_fract_y
 _atom_site_fract_z
 _atom_site_occupancy
  Ho  Ho0  1  0.287233  0.182875  0.470434  1
  Ho  Ho1  1  0.712604  0.817205  0.529697  1
  Ho  Ho2  1  0.287233  0.816799  0.104357  1
  Ho  Ho3  1  0.712604  0.182906  0.895399  1
  Ho  Ho4  1  0.621464  0.313075  0.308388  1
  Er  Er5  1  0.378032  0.686842  0.691190  1
  Er  Er6  1  0.004652  0.313291  0.691359  1
  Er  Er7  1  0.995793  0.686950  0.308846  1
  Er  Er8  1  0.212681  0.414270  0.201405  1
  Er  Er9  1  0.787316  0.585991  0.798948  1
  Er  Er10  1  0.212681  0.011276  0.798411  1
  Er  Er11  1  0.787316  0.988368  0.201325  1
  Co  Co12  1  0.000298  0.376293  0.376268  1
  Co  Co13  1  0.000298  0.624031  0.624005  1
  Co  Co14  1  0.387089  0.887095  0.499994  1
  Co  Co15  1  0.612736  0.112656  0.500080  1
  Cu  Cu16  1  0.000019  0.000001  0.000018  1
  Bi  Bi17  1  0.499950  0.500075  0.999876  1
