# generated using pymatgen
data_Y5HoCoCl10
_symmetry_space_group_name_H-M   'P 1'
_cell_length_a   7.08916222
_cell_length_b   8.73661397
_cell_length_c   8.89565683
_cell_angle_alpha   109.15584472
_cell_angle_beta   96.75878447
_cell_angle_gamma   105.74646444
_symmetry_Int_Tables_number   1
_chemical_formula_structural   Y5HoCoCl10
_chemical_formula_sum   'Y5 Ho1 Co1 Cl10'
_cell_volume   487.79452777
_cell_formula_units_Z   1
loop_
 _symmetry_equiv_pos_site_id
 _symmetry_equiv_pos_as_xyz
  1  'x, y, z'
loop_
 _atom_site_type_symbol
 _atom_site_label
 _atom_site_symmetry_multiplicity
 _atom_site_fract_x
 _atom_site_fract_y
 _atom_site_fract_z
 _atom_site_occupancy
  Y  Y0  1  0.134569  0.859016  0.810386  1
  Y  Y1  1  0.530305  0.703545  0.903341  1
  Y  Y2  1  0.470135  0.296785  0.097385  1
  Y  Y3  1  0.634844  0.054527  0.755237  1
  Y  Y4  1  0.366177  0.946572  0.245226  1
  Ho  Ho5  1  0.862985  0.139297  0.187696  1
  Co  Co6  1  0.499962  0.000202  0.999879  1
  Cl  Cl7  1  0.743380  0.082702  0.453315  1
  Cl  Cl8  1  0.259522  0.919001  0.545555  1
  Cl  Cl9  1  0.950016  0.825650  0.076952  1
  Cl  Cl10  1  0.049415  0.175477  0.924777  1
  Cl  Cl11  1  0.283101  0.251475  0.344224  1
  Cl  Cl12  1  0.712056  0.747203  0.653291  1
  Cl  Cl13  1  0.590130  0.373646  0.838920  1
  Cl  Cl14  1  0.411609  0.627602  0.162664  1
  Cl  Cl15  1  0.851308  0.453111  0.277082  1
  Cl  Cl16  1  0.150484  0.544185  0.724066  1
