# generated using pymatgen
data_Ho5ZrBiO12
_symmetry_space_group_name_H-M   'P 1'
_cell_length_a   6.47502440
_cell_length_b   6.50377773
_cell_length_c   6.50925904
_cell_angle_alpha   98.97261179
_cell_angle_beta   99.55837126
_cell_angle_gamma   98.85751348
_symmetry_Int_Tables_number   1
_chemical_formula_structural   Ho5ZrBiO12
_chemical_formula_sum   'Ho5 Zr1 Bi1 O12'
_cell_volume   262.41304543
_cell_formula_units_Z   1
loop_
 _symmetry_equiv_pos_site_id
 _symmetry_equiv_pos_as_xyz
  1  'x, y, z'
loop_
 _atom_site_type_symbol
 _atom_site_label
 _atom_site_symmetry_multiplicity
 _atom_site_fract_x
 _atom_site_fract_y
 _atom_site_fract_z
 _atom_site_occupancy
  Ho  Ho0  1  0.390061  0.858997  0.687953  1
  Ho  Ho1  1  0.685631  0.391438  0.860155  1
  Ho  Ho2  1  0.312960  0.607921  0.144315  1
  Ho  Ho3  1  0.611278  0.141820  0.312565  1
  Ho  Ho4  1  0.854342  0.682911  0.392268  1
  Zr  Zr5  1  0.145147  0.319713  0.610432  1
  Bi  Bi6  1  0.003005  0.000932  0.999164  1
  O  O7  1  0.077075  0.316494  0.932738  1
  O  O8  1  0.049644  0.930054  0.679656  1
  O  O9  1  0.400490  0.562023  0.816206  1
  O  O10  1  0.176757  0.565922  0.432668  1
  O  O11  1  0.683200  0.051857  0.929057  1
  O  O12  1  0.415126  0.184096  0.582300  1
  O  O13  1  0.568903  0.824030  0.418921  1
  O  O14  1  0.320073  0.947802  0.070557  1
  O  O15  1  0.830756  0.406835  0.574735  1
  O  O16  1  0.586659  0.431229  0.179546  1
  O  O17  1  0.963844  0.090276  0.321436  1
  O  O18  1  0.925049  0.685650  0.055329  1
