# generated using pymatgen
data_La3Tm(PPt)4
_symmetry_space_group_name_H-M   'P 1'
_cell_length_a   4.19604400
_cell_length_b   4.19604476
_cell_length_c   16.24813600
_cell_angle_alpha   90.00000000
_cell_angle_beta   90.00000000
_cell_angle_gamma   120.00000977
_symmetry_Int_Tables_number   1
_chemical_formula_structural   La3Tm(PPt)4
_chemical_formula_sum   'La3 Tm1 P4 Pt4'
_cell_volume   247.75035208
_cell_formula_units_Z   1
loop_
 _symmetry_equiv_pos_site_id
 _symmetry_equiv_pos_as_xyz
  1  'x, y, z'
loop_
 _atom_site_type_symbol
 _atom_site_label
 _atom_site_symmetry_multiplicity
 _atom_site_fract_x
 _atom_site_fract_y
 _atom_site_fract_z
 _atom_site_occupancy
  La  La0  1  0.000000  0.000000  0.509279  1
  La  La1  1  0.000000  0.000000  0.990721  1
  La  La2  1  0.000000  0.000000  0.250000  1
  Tm  Tm3  1  0.000000  0.000000  0.750000  1
  P  P4  1  0.333333  0.666667  0.871622  1
  P  P5  1  0.666667  0.333333  0.122695  1
  P  P6  1  0.666667  0.333333  0.377305  1
  P  P7  1  0.333333  0.666667  0.628378  1
  Pt  Pt8  1  0.333333  0.666667  0.379724  1
  Pt  Pt9  1  0.666667  0.333333  0.646122  1
  Pt  Pt10  1  0.666667  0.333333  0.853878  1
  Pt  Pt11  1  0.333333  0.666667  0.120276  1
