# generated using pymatgen
data_Ho5IrOs
_symmetry_space_group_name_H-M   'P 1'
_cell_length_a   6.42783974
_cell_length_b   7.27511577
_cell_length_c   8.40361158
_cell_angle_alpha   96.58820665
_cell_angle_beta   112.48521858
_cell_angle_gamma   90.00000478
_symmetry_Int_Tables_number   1
_chemical_formula_structural   Ho5IrOs
_chemical_formula_sum   'Ho10 Ir2 Os2'
_cell_volume   360.29515648
_cell_formula_units_Z   2
loop_
 _symmetry_equiv_pos_site_id
 _symmetry_equiv_pos_as_xyz
  1  'x, y, z'
loop_
 _atom_site_type_symbol
 _atom_site_label
 _atom_site_symmetry_multiplicity
 _atom_site_fract_x
 _atom_site_fract_y
 _atom_site_fract_z
 _atom_site_occupancy
  Ho  Ho0  1  0.969251  0.916401  0.179568  1
  Ho  Ho1  1  0.789684  0.583599  0.820432  1
  Ho  Ho2  1  0.027409  0.081239  0.817228  1
  Ho  Ho3  1  0.210180  0.418761  0.182772  1
  Ho  Ho4  1  0.654203  0.817177  0.440787  1
  Ho  Ho5  1  0.213416  0.682823  0.559213  1
  Ho  Ho6  1  0.347628  0.181064  0.560853  1
  Ho  Ho7  1  0.786775  0.318936  0.439147  1
  Ho  Ho8  1  0.427511  0.750000  0.000000  1
  Ho  Ho9  1  0.575532  0.250000  0.000000  1
  Ir  Ir10  1  0.172662  0.424787  0.780237  1
  Ir  Ir11  1  0.392424  0.075213  0.219763  1
  Os  Os12  1  0.825852  0.573322  0.218379  1
  Os  Os13  1  0.607474  0.926678  0.781621  1
