# generated using pymatgen
data_Sr2Tl3Rh2
_symmetry_space_group_name_H-M   'P 1'
_cell_length_a   4.39121764
_cell_length_b   5.91322819
_cell_length_c   8.12808344
_cell_angle_alpha   99.28397429
_cell_angle_beta   105.67177303
_cell_angle_gamma   111.79609943
_symmetry_Int_Tables_number   1
_chemical_formula_structural   Sr2Tl3Rh2
_chemical_formula_sum   'Sr2 Tl3 Rh2'
_cell_volume   180.42216986
_cell_formula_units_Z   1
loop_
 _symmetry_equiv_pos_site_id
 _symmetry_equiv_pos_as_xyz
  1  'x, y, z'
loop_
 _atom_site_type_symbol
 _atom_site_label
 _atom_site_symmetry_multiplicity
 _atom_site_fract_x
 _atom_site_fract_y
 _atom_site_fract_z
 _atom_site_occupancy
  Sr  Sr0  1  0.368224  0.515384  0.221064  1
  Sr  Sr1  1  0.631776  0.484616  0.778935  1
  Tl  Tl2  1  0.500000  0.000000  0.999999  1
  Tl  Tl3  1  0.810999  0.175922  0.446075  1
  Tl  Tl4  1  0.189001  0.824077  0.553924  1
  Rh  Rh5  1  0.069814  0.941074  0.198555  1
  Rh  Rh6  1  0.930187  0.058927  0.801446  1
