# generated using pymatgen
data_LuPuB6Os
_symmetry_space_group_name_H-M   'P 1'
_cell_length_a   3.61578500
_cell_length_b   9.10293200
_cell_length_c   11.49867800
_cell_angle_alpha   90.00000000
_cell_angle_beta   90.00000000
_cell_angle_gamma   90.00000000
_symmetry_Int_Tables_number   1
_chemical_formula_structural   LuPuB6Os
_chemical_formula_sum   'Lu4 Pu4 B24 Os4'
_cell_volume   378.47030466
_cell_formula_units_Z   4
loop_
 _symmetry_equiv_pos_site_id
 _symmetry_equiv_pos_as_xyz
  1  'x, y, z'
loop_
 _atom_site_type_symbol
 _atom_site_label
 _atom_site_symmetry_multiplicity
 _atom_site_fract_x
 _atom_site_fract_y
 _atom_site_fract_z
 _atom_site_occupancy
  Lu  Lu0  1  0.000000  0.944341  0.373441  1
  Lu  Lu1  1  0.000000  0.055659  0.626559  1
  Lu  Lu2  1  0.000000  0.444341  0.126559  1
  Lu  Lu3  1  0.000000  0.555659  0.873441  1
  Pu  Pu4  1  0.000000  0.322353  0.413746  1
  Pu  Pu5  1  0.000000  0.677647  0.586254  1
  Pu  Pu6  1  0.000000  0.822353  0.086254  1
  Pu  Pu7  1  0.000000  0.177647  0.913746  1
  B  B8  1  0.500000  0.554057  0.432742  1
  B  B9  1  0.500000  0.445943  0.567258  1
  B  B10  1  0.500000  0.054057  0.067258  1
  B  B11  1  0.500000  0.945943  0.932742  1
  B  B12  1  0.500000  0.750079  0.419844  1
  B  B13  1  0.500000  0.249921  0.580156  1
  B  B14  1  0.500000  0.250079  0.080156  1
  B  B15  1  0.500000  0.749921  0.919844  1
  B  B16  1  0.500000  0.792725  0.265963  1
  B  B17  1  0.500000  0.207275  0.734036  1
  B  B18  1  0.500000  0.292725  0.234037  1
  B  B19  1  0.500000  0.707275  0.765964  1
  B  B20  1  0.500000  0.631487  0.184074  1
  B  B21  1  0.500000  0.368513  0.815926  1
  B  B22  1  0.500000  0.131487  0.315926  1
  B  B23  1  0.500000  0.868513  0.684074  1
  B  B24  1  0.500000  0.982359  0.213662  1
  B  B25  1  0.500000  0.017641  0.786338  1
  B  B26  1  0.500000  0.482359  0.286338  1
  B  B27  1  0.500000  0.517641  0.713662  1
  B  B28  1  0.500000  0.604007  0.028595  1
  B  B29  1  0.500000  0.395993  0.971405  1
  B  B30  1  0.500000  0.104007  0.471405  1
  B  B31  1  0.500000  0.895993  0.528595  1
  Os  Os32  1  0.000000  0.639042  0.319827  1
  Os  Os33  1  0.000000  0.360958  0.680173  1
  Os  Os34  1  0.000000  0.139042  0.180173  1
  Os  Os35  1  0.000000  0.860958  0.819827  1
