# generated using pymatgen
data_Pr3NdTm4(B6Os)4
_symmetry_space_group_name_H-M   'P 1'
_cell_length_a   3.69495600
_cell_length_b   9.21796900
_cell_length_c   11.66302200
_cell_angle_alpha   89.99895715
_cell_angle_beta   90.00000000
_cell_angle_gamma   90.00000000
_symmetry_Int_Tables_number   1
_chemical_formula_structural   Pr3NdTm4(B6Os)4
_chemical_formula_sum   'Pr3 Nd1 Tm4 B24 Os4'
_cell_volume   397.24241107
_cell_formula_units_Z   1
loop_
 _symmetry_equiv_pos_site_id
 _symmetry_equiv_pos_as_xyz
  1  'x, y, z'
loop_
 _atom_site_type_symbol
 _atom_site_label
 _atom_site_symmetry_multiplicity
 _atom_site_fract_x
 _atom_site_fract_y
 _atom_site_fract_z
 _atom_site_occupancy
  Pr  Pr0  1  0.000000  0.677703  0.585446  1
  Pr  Pr1  1  0.000000  0.822242  0.085523  1
  Pr  Pr2  1  0.000000  0.177779  0.914506  1
  Nd  Nd3  1  0.000000  0.322137  0.414544  1
  Tm  Tm4  1  0.000000  0.944740  0.372604  1
  Tm  Tm5  1  0.000000  0.055499  0.627318  1
  Tm  Tm6  1  0.000000  0.444555  0.127505  1
  Tm  Tm7  1  0.000000  0.555372  0.872546  1
  B  B8  1  0.500000  0.556423  0.429636  1
  B  B9  1  0.500000  0.443021  0.570066  1
  B  B10  1  0.500000  0.056910  0.070508  1
  B  B11  1  0.500000  0.943132  0.929534  1
  B  B12  1  0.500000  0.750637  0.416689  1
  B  B13  1  0.500000  0.249353  0.582893  1
  B  B14  1  0.500000  0.250729  0.083377  1
  B  B15  1  0.500000  0.749278  0.916704  1
  B  B16  1  0.500000  0.791166  0.266877  1
  B  B17  1  0.500000  0.208815  0.733040  1
  B  B18  1  0.500000  0.291405  0.233490  1
  B  B19  1  0.500000  0.708777  0.766839  1
  B  B20  1  0.500000  0.630178  0.185003  1
  B  B21  1  0.500000  0.369739  0.815015  1
  B  B22  1  0.500000  0.130579  0.315326  1
  B  B23  1  0.500000  0.869770  0.684922  1
  B  B24  1  0.500000  0.985681  0.214820  1
  B  B25  1  0.500000  0.014440  0.785232  1
  B  B26  1  0.500000  0.485163  0.285432  1
  B  B27  1  0.500000  0.514369  0.714680  1
  B  B28  1  0.500000  0.601160  0.027465  1
  B  B29  1  0.500000  0.398826  0.972555  1
  B  B30  1  0.500000  0.101796  0.472380  1
  B  B31  1  0.500000  0.898815  0.527460  1
  Os  Os32  1  0.000000  0.639527  0.318816  1
  Os  Os33  1  0.000000  0.360085  0.681029  1
  Os  Os34  1  0.000000  0.140103  0.181551  1
  Os  Os35  1  0.000000  0.860096  0.818666  1
