# generated using pymatgen
data_Ce10Si4(TcRu)3
_symmetry_space_group_name_H-M   'P 1'
_cell_length_a   8.26370845
_cell_length_b   8.26370786
_cell_length_c   8.26370826
_cell_angle_alpha   109.41300040
_cell_angle_beta   109.41300804
_cell_angle_gamma   109.41301219
_symmetry_Int_Tables_number   1
_chemical_formula_structural   Ce10Si4(TcRu)3
_chemical_formula_sum   'Ce10 Si4 Tc3 Ru3'
_cell_volume   435.34699117
_cell_formula_units_Z   1
loop_
 _symmetry_equiv_pos_site_id
 _symmetry_equiv_pos_as_xyz
  1  'x, y, z'
loop_
 _atom_site_type_symbol
 _atom_site_label
 _atom_site_symmetry_multiplicity
 _atom_site_fract_x
 _atom_site_fract_y
 _atom_site_fract_z
 _atom_site_occupancy
  Ce  Ce0  1  0.776423  0.776423  0.776423  1
  Ce  Ce1  1  0.297583  0.550204  0.750883  1
  Ce  Ce2  1  0.750883  0.297583  0.550204  1
  Ce  Ce3  1  0.550204  0.750883  0.297583  1
  Ce  Ce4  1  0.725408  0.500944  0.999162  1
  Ce  Ce5  1  0.999162  0.725408  0.500944  1
  Ce  Ce6  1  0.500944  0.999162  0.725408  1
  Ce  Ce7  1  0.247867  0.200512  0.950459  1
  Ce  Ce8  1  0.950459  0.247867  0.200512  1
  Ce  Ce9  1  0.200512  0.950459  0.247867  1
  Si  Si10  1  0.396930  0.396930  0.396930  1
  Si  Si11  1  0.101581  0.500256  0.001267  1
  Si  Si12  1  0.001267  0.101581  0.500256  1
  Si  Si13  1  0.500256  0.001267  0.101581  1
  Tc  Tc14  1  0.882507  0.131934  0.750702  1
  Tc  Tc15  1  0.750702  0.882507  0.131934  1
  Tc  Tc16  1  0.131934  0.750702  0.882507  1
  Ru  Ru17  1  0.251768  0.616612  0.366998  1
  Ru  Ru18  1  0.366998  0.251768  0.616612  1
  Ru  Ru19  1  0.616612  0.366998  0.251768  1
