# generated using pymatgen
data_Yb8PdPtO12
_symmetry_space_group_name_H-M   'P 1'
_cell_length_a   6.46590100
_cell_length_b   6.46590175
_cell_length_c   6.46590190
_cell_angle_alpha   90.51629638
_cell_angle_beta   90.51628116
_cell_angle_gamma   90.51630973
_symmetry_Int_Tables_number   1
_chemical_formula_structural   Yb8PdPtO12
_chemical_formula_sum   'Yb8 Pd1 Pt1 O12'
_cell_volume   270.29253004
_cell_formula_units_Z   1
loop_
 _symmetry_equiv_pos_site_id
 _symmetry_equiv_pos_as_xyz
  1  'x, y, z'
loop_
 _atom_site_type_symbol
 _atom_site_label
 _atom_site_symmetry_multiplicity
 _atom_site_fract_x
 _atom_site_fract_y
 _atom_site_fract_z
 _atom_site_occupancy
  Yb  Yb0  1  0.250739  0.250739  0.250739  1
  Yb  Yb1  1  0.749261  0.749261  0.749261  1
  Yb  Yb2  1  0.749879  0.117443  0.383553  1
  Yb  Yb3  1  0.383553  0.749879  0.117443  1
  Yb  Yb4  1  0.117443  0.383553  0.749879  1
  Yb  Yb5  1  0.250121  0.882557  0.616447  1
  Yb  Yb6  1  0.616447  0.250121  0.882557  1
  Yb  Yb7  1  0.882557  0.616447  0.250121  1
  Pd  Pd8  1  0.500000  0.500000  0.500000  1
  Pt  Pt9  1  0.000000  0.000000  0.000000  1
  O  O10  1  0.573019  0.801349  0.444298  1
  O  O11  1  0.444298  0.573019  0.801349  1
  O  O12  1  0.801349  0.444298  0.573019  1
  O  O13  1  0.926149  0.055819  0.697348  1
  O  O14  1  0.697348  0.926149  0.055819  1
  O  O15  1  0.055819  0.697348  0.926149  1
  O  O16  1  0.426981  0.198651  0.555702  1
  O  O17  1  0.555702  0.426981  0.198651  1
  O  O18  1  0.198651  0.555702  0.426981  1
  O  O19  1  0.073851  0.944181  0.302652  1
  O  O20  1  0.944181  0.302652  0.073851  1
  O  O21  1  0.302652  0.073851  0.944181  1
