# generated using pymatgen
data_Rb3DyV2O8
_symmetry_space_group_name_H-M   'P 1'
_cell_length_a   6.08407400
_cell_length_b   6.08407431
_cell_length_c   7.95596900
_cell_angle_alpha   90.00000000
_cell_angle_beta   90.00000000
_cell_angle_gamma   119.99999832
_symmetry_Int_Tables_number   1
_chemical_formula_structural   Rb3DyV2O8
_chemical_formula_sum   'Rb3 Dy1 V2 O8'
_cell_volume   255.04259513
_cell_formula_units_Z   1
loop_
 _symmetry_equiv_pos_site_id
 _symmetry_equiv_pos_as_xyz
  1  'x, y, z'
loop_
 _atom_site_type_symbol
 _atom_site_label
 _atom_site_symmetry_multiplicity
 _atom_site_fract_x
 _atom_site_fract_y
 _atom_site_fract_z
 _atom_site_occupancy
  Rb  Rb0  1  0.333333  0.666667  0.700219  1
  Rb  Rb1  1  0.666667  0.333333  0.299781  1
  Rb  Rb2  1  0.000000  0.000000  0.000000  1
  Dy  Dy3  1  0.000000  0.000000  0.500000  1
  V  V4  1  0.333333  0.666667  0.257317  1
  V  V5  1  0.666667  0.333333  0.742683  1
  O  O6  1  0.333333  0.666667  0.046122  1
  O  O7  1  0.666667  0.333333  0.953878  1
  O  O8  1  0.174844  0.825156  0.331653  1
  O  O9  1  0.825156  0.174844  0.668347  1
  O  O10  1  0.174844  0.349689  0.331653  1
  O  O11  1  0.825156  0.650311  0.668347  1
  O  O12  1  0.650311  0.825156  0.331653  1
  O  O13  1  0.349689  0.174844  0.668347  1
