# generated using pymatgen
data_Y4TmLu7InCo5
_symmetry_space_group_name_H-M   'P 1'
_cell_length_a   8.16540398
_cell_length_b   8.16423697
_cell_length_c   8.16540322
_cell_angle_alpha   111.11709264
_cell_angle_beta   110.59760261
_cell_angle_gamma   106.73916089
_symmetry_Int_Tables_number   1
_chemical_formula_structural   Y4TmLu7InCo5
_chemical_formula_sum   'Y4 Tm1 Lu7 In1 Co5'
_cell_volume   418.28433574
_cell_formula_units_Z   1
loop_
 _symmetry_equiv_pos_site_id
 _symmetry_equiv_pos_as_xyz
  1  'x, y, z'
loop_
 _atom_site_type_symbol
 _atom_site_label
 _atom_site_symmetry_multiplicity
 _atom_site_fract_x
 _atom_site_fract_y
 _atom_site_fract_z
 _atom_site_occupancy
  Y  Y0  1  0.289207  0.189308  0.478275  1
  Y  Y1  1  0.711404  0.810790  0.522866  1
  Y  Y2  1  0.287925  0.810790  0.099386  1
  Y  Y3  1  0.711032  0.189308  0.900101  1
  Tm  Tm4  1  0.788079  0.979002  0.190923  1
  Lu  Lu5  1  0.621167  0.314532  0.307377  1
  Lu  Lu6  1  0.378216  0.685417  0.692227  1
  Lu  Lu7  1  0.007156  0.314532  0.693365  1
  Lu  Lu8  1  0.993191  0.685417  0.307202  1
  Lu  Lu9  1  0.212055  0.403158  0.191102  1
  Lu  Lu10  1  0.787561  0.595752  0.808191  1
  Lu  Lu11  1  0.212485  0.020970  0.808485  1
  In  In12  1  0.500741  0.499858  0.999116  1
  Co  Co13  1  0.999905  0.377784  0.377879  1
  Co  Co14  1  0.999653  0.623071  0.623417  1
  Co  Co15  1  0.385697  0.886018  0.500320  1
  Co  Co16  1  0.613909  0.114753  0.500843  1
  Co  Co17  1  0.000614  0.999542  0.998928  1
