# generated using pymatgen
data_Mg3Zn(Ni3B)2
_symmetry_space_group_name_H-M   'P 1'
_cell_length_a   4.99617837
_cell_length_b   4.99617955
_cell_length_c   7.30818927
_cell_angle_alpha   109.51325880
_cell_angle_beta   109.51326199
_cell_angle_gamma   60.21315092
_symmetry_Int_Tables_number   1
_chemical_formula_structural   Mg3Zn(Ni3B)2
_chemical_formula_sum   'Mg3 Zn1 Ni6 B2'
_cell_volume   146.04560467
_cell_formula_units_Z   1
loop_
 _symmetry_equiv_pos_site_id
 _symmetry_equiv_pos_as_xyz
  1  'x, y, z'
loop_
 _atom_site_type_symbol
 _atom_site_label
 _atom_site_symmetry_multiplicity
 _atom_site_fract_x
 _atom_site_fract_y
 _atom_site_fract_z
 _atom_site_occupancy
  Mg  Mg0  1  0.357382  0.357382  0.071391  1
  Mg  Mg1  1  0.500000  0.500000  0.500001  1
  Mg  Mg2  1  0.642618  0.642618  0.928609  1
  Zn  Zn3  1  0.000000  0.000000  0.000000  1
  Ni  Ni4  1  0.933217  0.933217  0.299508  1
  Ni  Ni5  1  0.931639  0.435718  0.296666  1
  Ni  Ni6  1  0.435718  0.931639  0.296666  1
  Ni  Ni7  1  0.564281  0.068360  0.703334  1
  Ni  Ni8  1  0.068360  0.564281  0.703334  1
  Ni  Ni9  1  0.066782  0.066782  0.700492  1
  B  B10  1  0.831547  0.831547  0.501174  1
  B  B11  1  0.168452  0.168452  0.498826  1
