# generated using pymatgen
data_Ac3Ce(MgIr)4
_symmetry_space_group_name_H-M   'P 1'
_cell_length_a   4.26760000
_cell_length_b   7.45684341
_cell_length_c   8.93359436
_cell_angle_alpha   90.10994781
_cell_angle_beta   90.00000000
_cell_angle_gamma   90.00000000
_symmetry_Int_Tables_number   1
_chemical_formula_structural   Ac3Ce(MgIr)4
_chemical_formula_sum   'Ac3 Ce1 Mg4 Ir4'
_cell_volume   284.29168613
_cell_formula_units_Z   1
loop_
 _symmetry_equiv_pos_site_id
 _symmetry_equiv_pos_as_xyz
  1  'x, y, z'
loop_
 _atom_site_type_symbol
 _atom_site_label
 _atom_site_symmetry_multiplicity
 _atom_site_fract_x
 _atom_site_fract_y
 _atom_site_fract_z
 _atom_site_occupancy
  Ac  Ac0  1  0.250000  0.535684  0.181202  1
  Ac  Ac1  1  0.750000  0.459623  0.814345  1
  Ac  Ac2  1  0.750000  0.964941  0.682319  1
  Ce  Ce3  1  0.250000  0.040907  0.323643  1
  Mg  Mg4  1  0.250000  0.637583  0.550795  1
  Mg  Mg5  1  0.750000  0.364393  0.437916  1
  Mg  Mg6  1  0.750000  0.867971  0.061907  1
  Mg  Mg7  1  0.250000  0.124694  0.954841  1
  Ir  Ir8  1  0.250000  0.753742  0.875748  1
  Ir  Ir9  1  0.750000  0.227029  0.139711  1
  Ir  Ir10  1  0.750000  0.765256  0.370183  1
  Ir  Ir11  1  0.250000  0.258179  0.607389  1
