# generated using pymatgen
data_LiCaEuZn21
_symmetry_space_group_name_H-M   'P 1'
_cell_length_a   8.33889214
_cell_length_b   8.33889248
_cell_length_c   8.33889200
_cell_angle_alpha   99.81896119
_cell_angle_beta   99.81896161
_cell_angle_gamma   131.21822107
_symmetry_Int_Tables_number   1
_chemical_formula_structural   LiCaEuZn21
_chemical_formula_sum   'Li1 Ca1 Eu1 Zn21'
_cell_volume   397.24680436
_cell_formula_units_Z   1
loop_
 _symmetry_equiv_pos_site_id
 _symmetry_equiv_pos_as_xyz
  1  'x, y, z'
loop_
 _atom_site_type_symbol
 _atom_site_label
 _atom_site_symmetry_multiplicity
 _atom_site_fract_x
 _atom_site_fract_y
 _atom_site_fract_z
 _atom_site_occupancy
  Li  Li0  1  0.750000  0.250000  0.500000  1
  Ca  Ca1  1  0.000000  0.000000  0.000000  1
  Eu  Eu2  1  0.250000  0.750000  0.500000  1
  Zn  Zn3  1  0.500000  0.500000  0.000000  1
  Zn  Zn4  1  0.122472  0.373996  0.748476  1
  Zn  Zn5  1  0.626004  0.877528  0.251524  1
  Zn  Zn6  1  0.626004  0.374480  0.748476  1
  Zn  Zn7  1  0.625520  0.373996  0.251524  1
  Zn  Zn8  1  0.182359  0.508981  0.084923  1
  Zn  Zn9  1  0.182359  0.097438  0.673379  1
  Zn  Zn10  1  0.759599  0.932111  0.585304  1
  Zn  Zn11  1  0.759599  0.174295  0.827488  1
  Zn  Zn12  1  0.424059  0.508981  0.326621  1
  Zn  Zn13  1  0.424059  0.097438  0.915077  1
  Zn  Zn14  1  0.346807  0.932111  0.172512  1
  Zn  Zn15  1  0.346807  0.174295  0.414696  1
  Zn  Zn16  1  0.067889  0.240401  0.414696  1
  Zn  Zn17  1  0.067889  0.653193  0.827488  1
  Zn  Zn18  1  0.491019  0.817641  0.915077  1
  Zn  Zn19  1  0.491019  0.575941  0.673379  1
  Zn  Zn20  1  0.825705  0.240401  0.172512  1
  Zn  Zn21  1  0.825705  0.653193  0.585304  1
  Zn  Zn22  1  0.902562  0.817641  0.326621  1
  Zn  Zn23  1  0.902562  0.575941  0.084923  1
