# generated using pymatgen
data_Sm2Ho5U(InPt2)4
_symmetry_space_group_name_H-M   'P 1'
_cell_length_a   7.79206997
_cell_length_b   7.79206937
_cell_length_c   7.37128600
_cell_angle_alpha   90.00000000
_cell_angle_beta   90.00000000
_cell_angle_gamma   91.31045268
_symmetry_Int_Tables_number   1
_chemical_formula_structural   Sm2Ho5U(InPt2)4
_chemical_formula_sum   'Sm2 Ho5 U1 In4 Pt8'
_cell_volume   447.44052144
_cell_formula_units_Z   1
loop_
 _symmetry_equiv_pos_site_id
 _symmetry_equiv_pos_as_xyz
  1  'x, y, z'
loop_
 _atom_site_type_symbol
 _atom_site_label
 _atom_site_symmetry_multiplicity
 _atom_site_fract_x
 _atom_site_fract_y
 _atom_site_fract_z
 _atom_site_occupancy
  Sm  Sm0  1  0.676261  0.326988  0.500000  1
  Sm  Sm1  1  0.326988  0.676261  0.500000  1
  Ho  Ho2  1  0.176593  0.176593  0.000000  1
  Ho  Ho3  1  0.833876  0.833876  0.500000  1
  Ho  Ho4  1  0.165392  0.165392  0.500000  1
  Ho  Ho5  1  0.329778  0.660782  0.000000  1
  Ho  Ho6  1  0.660782  0.329778  0.000000  1
  U  U7  1  0.831511  0.831511  0.000000  1
  In  In8  1  0.497472  0.998653  0.243828  1
  In  In9  1  0.998653  0.497472  0.756172  1
  In  In10  1  0.497472  0.998653  0.756172  1
  In  In11  1  0.998653  0.497472  0.243828  1
  Pt  Pt12  1  0.867734  0.122174  0.233935  1
  Pt  Pt13  1  0.122174  0.867734  0.233935  1
  Pt  Pt14  1  0.373075  0.373075  0.743459  1
  Pt  Pt15  1  0.640301  0.640301  0.761302  1
  Pt  Pt16  1  0.122174  0.867734  0.766065  1
  Pt  Pt17  1  0.867734  0.122174  0.766065  1
  Pt  Pt18  1  0.640301  0.640301  0.238698  1
  Pt  Pt19  1  0.373075  0.373075  0.256541  1
