# generated using pymatgen
data_Ho7Er(Lu3Pb4)4
_symmetry_space_group_name_H-M   'P 1'
_cell_length_a   8.11266216
_cell_length_b   8.17108411
_cell_length_c   15.41462609
_cell_angle_alpha   89.99797822
_cell_angle_beta   90.01241546
_cell_angle_gamma   90.01904270
_symmetry_Int_Tables_number   1
_chemical_formula_structural   Ho7Er(Lu3Pb4)4
_chemical_formula_sum   'Ho7 Er1 Lu12 Pb16'
_cell_volume   1021.82384298
_cell_formula_units_Z   1
loop_
 _symmetry_equiv_pos_site_id
 _symmetry_equiv_pos_as_xyz
  1  'x, y, z'
loop_
 _atom_site_type_symbol
 _atom_site_label
 _atom_site_symmetry_multiplicity
 _atom_site_fract_x
 _atom_site_fract_y
 _atom_site_fract_z
 _atom_site_occupancy
  Ho  Ho0  1  0.539206  0.323477  0.900530  1
  Ho  Ho1  1  0.039175  0.176480  0.599469  1
  Ho  Ho2  1  0.460788  0.676498  0.400479  1
  Ho  Ho3  1  0.960808  0.823483  0.099482  1
  Ho  Ho4  1  0.460788  0.676487  0.099514  1
  Ho  Ho5  1  0.960822  0.823507  0.400476  1
  Ho  Ho6  1  0.539168  0.323466  0.599512  1
  Er  Er7  1  0.039286  0.176455  0.900479  1
  Lu  Lu8  1  0.377155  0.842906  0.878143  1
  Lu  Lu9  1  0.877212  0.657167  0.621899  1
  Lu  Lu10  1  0.622779  0.157187  0.378063  1
  Lu  Lu11  1  0.122834  0.342826  0.121852  1
  Lu  Lu12  1  0.622741  0.157232  0.121919  1
  Lu  Lu13  1  0.122840  0.342870  0.378096  1
  Lu  Lu14  1  0.377178  0.842879  0.621875  1
  Lu  Lu15  1  0.877177  0.657147  0.878144  1
  Lu  Lu16  1  0.208683  0.505598  0.750021  1
  Lu  Lu17  1  0.708809  0.994510  0.750045  1
  Lu  Lu18  1  0.791270  0.494423  0.249987  1
  Lu  Lu19  1  0.291296  0.005610  0.249994  1
  Pb  Pb20  1  0.281625  0.034391  0.042825  1
  Pb  Pb21  1  0.781724  0.465712  0.457068  1
  Pb  Pb22  1  0.718278  0.965746  0.542889  1
  Pb  Pb23  1  0.218206  0.534109  0.957102  1
  Pb  Pb24  1  0.718520  0.965877  0.957090  1
  Pb  Pb25  1  0.218259  0.534276  0.542888  1
  Pb  Pb26  1  0.281695  0.034244  0.457068  1
  Pb  Pb27  1  0.781622  0.465719  0.042939  1
  Pb  Pb28  1  0.571018  0.627808  0.749995  1
  Pb  Pb29  1  0.070816  0.872268  0.750000  1
  Pb  Pb30  1  0.429197  0.371912  0.250017  1
  Pb  Pb31  1  0.929101  0.127899  0.249984  1
  Pb  Pb32  1  0.350148  0.155712  0.750059  1
  Pb  Pb33  1  0.850129  0.343979  0.750157  1
  Pb  Pb34  1  0.649822  0.844285  0.249969  1
  Pb  Pb35  1  0.149826  0.655855  0.249972  1
