# generated using pymatgen
data_In3Sn2(BIr3)2
_symmetry_space_group_name_H-M   'P 1'
_cell_length_a   6.69295399
_cell_length_b   6.77294798
_cell_length_c   5.64464700
_cell_angle_alpha   90.00000000
_cell_angle_beta   90.00000000
_cell_angle_gamma   120.39616269
_symmetry_Int_Tables_number   1
_chemical_formula_structural   In3Sn2(BIr3)2
_chemical_formula_sum   'In3 Sn2 B2 Ir6'
_cell_volume   220.70664897
_cell_formula_units_Z   1
loop_
 _symmetry_equiv_pos_site_id
 _symmetry_equiv_pos_as_xyz
  1  'x, y, z'
loop_
 _atom_site_type_symbol
 _atom_site_label
 _atom_site_symmetry_multiplicity
 _atom_site_fract_x
 _atom_site_fract_y
 _atom_site_fract_z
 _atom_site_occupancy
  In  In0  1  0.670139  0.337042  0.500000  1
  In  In1  1  0.000000  0.592227  0.000000  1
  In  In2  1  0.329861  0.666904  0.500000  1
  Sn  Sn3  1  0.403157  0.405123  0.000000  1
  Sn  Sn4  1  0.596843  0.001966  0.000000  1
  B  B5  1  0.000000  0.999116  0.500000  1
  B  B6  1  0.000000  0.996260  0.000000  1
  Ir  Ir7  1  0.000000  0.248982  0.744589  1
  Ir  Ir8  1  0.000000  0.248982  0.255411  1
  Ir  Ir9  1  0.744028  0.747863  0.254104  1
  Ir  Ir10  1  0.255972  0.003835  0.745896  1
  Ir  Ir11  1  0.255972  0.003835  0.254104  1
  Ir  Ir12  1  0.744028  0.747863  0.745896  1
