# generated using pymatgen
data_Tb3Zn3CuGe2
_symmetry_space_group_name_H-M   'P 1'
_cell_length_a   6.88829800
_cell_length_b   6.88829795
_cell_length_c   4.28215500
_cell_angle_alpha   90.00000000
_cell_angle_beta   90.00000000
_cell_angle_gamma   120.00000024
_symmetry_Int_Tables_number   1
_chemical_formula_structural   Tb3Zn3CuGe2
_chemical_formula_sum   'Tb3 Zn3 Cu1 Ge2'
_cell_volume   175.96117981
_cell_formula_units_Z   1
loop_
 _symmetry_equiv_pos_site_id
 _symmetry_equiv_pos_as_xyz
  1  'x, y, z'
loop_
 _atom_site_type_symbol
 _atom_site_label
 _atom_site_symmetry_multiplicity
 _atom_site_fract_x
 _atom_site_fract_y
 _atom_site_fract_z
 _atom_site_occupancy
  Tb  Tb0  1  0.412218  0.000000  0.000000  1
  Tb  Tb1  1  0.000000  0.412219  0.000000  1
  Tb  Tb2  1  0.587782  0.587781  0.000000  1
  Zn  Zn3  1  0.767282  0.000000  0.500001  1
  Zn  Zn4  1  0.232718  0.232718  0.500001  1
  Zn  Zn5  1  0.000000  0.767282  0.500001  1
  Cu  Cu6  1  0.000000  0.000000  0.000000  1
  Ge  Ge7  1  0.666666  0.333333  0.500001  1
  Ge  Ge8  1  0.333334  0.666667  0.500001  1
