# generated using pymatgen
data_Dy8TaTi2Si16Mo9
_symmetry_space_group_name_H-M   'P 1'
_cell_length_a   6.91518645
_cell_length_b   6.91518668
_cell_length_c   12.81853875
_cell_angle_alpha   89.95915074
_cell_angle_beta   90.04085088
_cell_angle_gamma   89.76539190
_symmetry_Int_Tables_number   1
_chemical_formula_structural   Dy8TaTi2Si16Mo9
_chemical_formula_sum   'Dy8 Ta1 Ti2 Si16 Mo9'
_cell_volume   612.97457479
_cell_formula_units_Z   1
loop_
 _symmetry_equiv_pos_site_id
 _symmetry_equiv_pos_as_xyz
  1  'x, y, z'
loop_
 _atom_site_type_symbol
 _atom_site_label
 _atom_site_symmetry_multiplicity
 _atom_site_fract_x
 _atom_site_fract_y
 _atom_site_fract_z
 _atom_site_occupancy
  Dy  Dy0  1  0.998022  0.659846  0.031155  1
  Dy  Dy1  1  0.000110  0.341085  0.531390  1
  Dy  Dy2  1  0.659846  0.998022  0.968845  1
  Dy  Dy3  1  0.161135  0.502586  0.780815  1
  Dy  Dy4  1  0.837910  0.500435  0.282362  1
  Dy  Dy5  1  0.502586  0.161135  0.219185  1
  Dy  Dy6  1  0.500435  0.837910  0.717638  1
  Dy  Dy7  1  0.341085  0.000110  0.468610  1
  Ta  Ta8  1  0.330913  0.330913  0.000000  1
  Ti  Ti9  1  0.830366  0.168510  0.748764  1
  Ti  Ti10  1  0.168510  0.830366  0.251236  1
  Si  Si11  1  0.036602  0.713061  0.438689  1
  Si  Si12  1  0.957341  0.289149  0.935509  1
  Si  Si13  1  0.713061  0.036602  0.561311  1
  Si  Si14  1  0.209642  0.460529  0.187206  1
  Si  Si15  1  0.788131  0.542507  0.684746  1
  Si  Si16  1  0.460529  0.209642  0.812794  1
  Si  Si17  1  0.542507  0.788131  0.315254  1
  Si  Si18  1  0.289149  0.957341  0.064491  1
  Si  Si19  1  0.799107  0.871643  0.184205  1
  Si  Si20  1  0.303525  0.625833  0.564998  1
  Si  Si21  1  0.702146  0.371896  0.066724  1
  Si  Si22  1  0.625833  0.303525  0.435002  1
  Si  Si23  1  0.371896  0.702146  0.933276  1
  Si  Si24  1  0.127724  0.202349  0.315642  1
  Si  Si25  1  0.202349  0.127724  0.684358  1
  Si  Si26  1  0.871643  0.799107  0.815795  1
  Mo  Mo27  1  0.333029  0.503647  0.375267  1
  Mo  Mo28  1  0.844023  0.997998  0.373073  1
  Mo  Mo29  1  0.005981  0.158731  0.125533  1
  Mo  Mo30  1  0.997998  0.844023  0.626927  1
  Mo  Mo31  1  0.503647  0.333029  0.624733  1
  Mo  Mo32  1  0.158731  0.005981  0.874467  1
  Mo  Mo33  1  0.668409  0.668409  0.500000  1
  Mo  Mo34  1  0.495670  0.660414  0.124520  1
  Mo  Mo35  1  0.660414  0.495670  0.875480  1
