# generated using pymatgen
data_Cs4AlGa3(GeSe4)4
_symmetry_space_group_name_H-M   'P 1'
_cell_length_a   17.45987487
_cell_length_b   7.37694442
_cell_length_c   8.20384752
_cell_angle_alpha   70.10138670
_cell_angle_beta   89.96799379
_cell_angle_gamma   90.02887498
_symmetry_Int_Tables_number   1
_chemical_formula_structural   Cs4AlGa3(GeSe4)4
_chemical_formula_sum   'Cs4 Al1 Ga3 Ge4 Se16'
_cell_volume   993.57301826
_cell_formula_units_Z   1
loop_
 _symmetry_equiv_pos_site_id
 _symmetry_equiv_pos_as_xyz
  1  'x, y, z'
loop_
 _atom_site_type_symbol
 _atom_site_label
 _atom_site_symmetry_multiplicity
 _atom_site_fract_x
 _atom_site_fract_y
 _atom_site_fract_z
 _atom_site_occupancy
  Cs  Cs0  1  0.398061  0.961643  0.177117  1
  Cs  Cs1  1  0.897885  0.038489  0.822867  1
  Cs  Cs2  1  0.602372  0.521204  0.825239  1
  Cs  Cs3  1  0.102219  0.478465  0.174772  1
  Al  Al4  1  0.772173  0.406632  0.295605  1
  Ga  Ga5  1  0.583777  0.171853  0.470481  1
  Ga  Ga6  1  0.083591  0.828613  0.529399  1
  Ga  Ga7  1  0.271783  0.594009  0.704211  1
  Ge  Ge8  1  0.419361  0.327755  0.536645  1
  Ge  Ge9  1  0.919249  0.671927  0.463368  1
  Ge  Ge10  1  0.725647  0.911676  0.278184  1
  Ge  Ge11  1  0.225561  0.088253  0.721992  1
  Se  Se12  1  0.596044  0.892348  0.375408  1
  Se  Se13  1  0.096008  0.107454  0.624616  1
  Se  Se14  1  0.408080  0.599229  0.629319  1
  Se  Se15  1  0.906885  0.401000  0.369596  1
  Se  Se16  1  0.800067  0.785426  0.541327  1
  Se  Se17  1  0.300015  0.214724  0.458855  1
  Se  Se18  1  0.201026  0.724017  0.440126  1
  Se  Se19  1  0.701772  0.277027  0.556746  1
  Se  Se20  1  0.766393  0.225136  0.097751  1
  Se  Se21  1  0.266315  0.776904  0.904430  1
  Se  Se22  1  0.235808  0.274937  0.907336  1
  Se  Se23  1  0.736025  0.721722  0.094917  1
  Se  Se24  1  0.998952  0.914660  0.270139  1
  Se  Se25  1  0.498940  0.085052  0.729661  1
  Se  Se26  1  0.992951  0.593387  0.724882  1
  Se  Se27  1  0.493037  0.406457  0.275012  1
