# generated using pymatgen
data_Pr3Sn5Hg2
_symmetry_space_group_name_H-M   'P 1'
_cell_length_a   12.58751765
_cell_length_b   12.58751791
_cell_length_c   4.67371000
_cell_angle_alpha   90.00000000
_cell_angle_beta   90.00000000
_cell_angle_gamma   157.78713674
_symmetry_Int_Tables_number   1
_chemical_formula_structural   Pr3Sn5Hg2
_chemical_formula_sum   'Pr3 Sn5 Hg2'
_cell_volume   279.95590768
_cell_formula_units_Z   1
loop_
 _symmetry_equiv_pos_site_id
 _symmetry_equiv_pos_as_xyz
  1  'x, y, z'
loop_
 _atom_site_type_symbol
 _atom_site_label
 _atom_site_symmetry_multiplicity
 _atom_site_fract_x
 _atom_site_fract_y
 _atom_site_fract_z
 _atom_site_occupancy
  Pr  Pr0  1  0.000000  0.000000  0.000000  1
  Pr  Pr1  1  0.813825  0.186176  0.000000  1
  Pr  Pr2  1  0.186176  0.813825  0.000000  1
  Sn  Sn3  1  0.906126  0.093874  0.500001  1
  Sn  Sn4  1  0.706944  0.293056  0.500001  1
  Sn  Sn5  1  0.500000  0.500000  0.500001  1
  Sn  Sn6  1  0.293056  0.706944  0.500001  1
  Sn  Sn7  1  0.093874  0.906126  0.500001  1
  Hg  Hg8  1  0.594492  0.405508  0.000000  1
  Hg  Hg9  1  0.405508  0.594492  0.000000  1
