# generated using pymatgen
data_Ho2Co3Si4Ir3
_symmetry_space_group_name_H-M   'P 1'
_cell_length_a   6.53348415
_cell_length_b   6.45578750
_cell_length_c   6.53348409
_cell_angle_alpha   131.64729661
_cell_angle_beta   114.30994699
_cell_angle_gamma   86.03567713
_symmetry_Int_Tables_number   1
_chemical_formula_structural   Ho2Co3Si4Ir3
_chemical_formula_sum   'Ho2 Co3 Si4 Ir3'
_cell_volume   179.00791418
_cell_formula_units_Z   1
loop_
 _symmetry_equiv_pos_site_id
 _symmetry_equiv_pos_as_xyz
  1  'x, y, z'
loop_
 _atom_site_type_symbol
 _atom_site_label
 _atom_site_symmetry_multiplicity
 _atom_site_fract_x
 _atom_site_fract_y
 _atom_site_fract_z
 _atom_site_occupancy
  Ho  Ho0  1  0.254679  0.974220  0.725335  1
  Ho  Ho1  1  0.751116  0.025780  0.280460  1
  Co  Co2  1  0.275950  0.000000  0.275950  1
  Co  Co3  1  0.721569  0.000000  0.721569  1
  Co  Co4  1  0.220773  0.500000  0.720773  1
  Si  Si5  1  0.078083  0.271184  0.202846  1
  Si  Si6  1  0.931662  0.728816  0.806899  1
  Si  Si7  1  0.421865  0.640431  0.204522  1
  Si  Si8  1  0.564091  0.359569  0.781433  1
  Ir  Ir9  1  0.498782  0.508038  0.510407  1
  Ir  Ir10  1  0.002369  0.491962  0.990743  1
  Ir  Ir11  1  0.779063  0.500000  0.279063  1
