# generated using pymatgen
data_SmErNp2(SbSe)4
_symmetry_space_group_name_H-M   'P 1'
_cell_length_a   4.18046100
_cell_length_b   4.18974400
_cell_length_c   17.71516002
_cell_angle_alpha   90.00166194
_cell_angle_beta   90.00000000
_cell_angle_gamma   90.00000000
_symmetry_Int_Tables_number   1
_chemical_formula_structural   SmErNp2(SbSe)4
_chemical_formula_sum   'Sm1 Er1 Np2 Sb4 Se4'
_cell_volume   310.28211517
_cell_formula_units_Z   1
loop_
 _symmetry_equiv_pos_site_id
 _symmetry_equiv_pos_as_xyz
  1  'x, y, z'
loop_
 _atom_site_type_symbol
 _atom_site_label
 _atom_site_symmetry_multiplicity
 _atom_site_fract_x
 _atom_site_fract_y
 _atom_site_fract_z
 _atom_site_occupancy
  Sm  Sm0  1  0.250000  0.749404  0.645984  1
  Er  Er1  1  0.250000  0.751252  0.147816  1
  Np  Np2  1  0.750000  0.250061  0.854088  1
  Np  Np3  1  0.750000  0.249299  0.352036  1
  Sb  Sb4  1  0.250000  0.249260  0.497863  1
  Sb  Sb5  1  0.250000  0.250849  0.000859  1
  Sb  Sb6  1  0.750000  0.749161  0.497067  1
  Sb  Sb7  1  0.750000  0.750692  0.002112  1
  Se  Se8  1  0.750000  0.249315  0.686113  1
  Se  Se9  1  0.750000  0.251065  0.185014  1
  Se  Se10  1  0.250000  0.749667  0.313528  1
  Se  Se11  1  0.250000  0.749975  0.817519  1
