# generated using pymatgen
data_Sr8Zn2Si13Pd
_symmetry_space_group_name_H-M   'P 1'
_cell_length_a   8.31281235
_cell_length_b   8.31319857
_cell_length_c   9.38914400
_cell_angle_alpha   89.99976961
_cell_angle_beta   90.00018193
_cell_angle_gamma   119.99828164
_symmetry_Int_Tables_number   1
_chemical_formula_structural   Sr8Zn2Si13Pd
_chemical_formula_sum   'Sr8 Zn2 Si13 Pd1'
_cell_volume   561.92749484
_cell_formula_units_Z   1
loop_
 _symmetry_equiv_pos_site_id
 _symmetry_equiv_pos_as_xyz
  1  'x, y, z'
loop_
 _atom_site_type_symbol
 _atom_site_label
 _atom_site_symmetry_multiplicity
 _atom_site_fract_x
 _atom_site_fract_y
 _atom_site_fract_z
 _atom_site_occupancy
  Sr  Sr0  1  0.498769  0.501222  0.743485  1
  Sr  Sr1  1  0.499027  0.500966  0.256515  1
  Sr  Sr2  1  0.002445  0.501214  0.743478  1
  Sr  Sr3  1  0.001931  0.500957  0.256519  1
  Sr  Sr4  1  0.498789  0.997568  0.743473  1
  Sr  Sr5  1  0.499045  0.998080  0.256527  1
  Sr  Sr6  1  0.999999  0.000007  0.749030  1
  Sr  Sr7  1  0.999997  0.000007  0.250998  1
  Zn  Zn8  1  0.666655  0.333326  0.998219  1
  Zn  Zn9  1  0.333346  0.666666  0.001148  1
  Si  Si10  1  0.834557  0.165461  0.000807  1
  Si  Si11  1  0.165216  0.834761  0.999293  1
  Si  Si12  1  0.330914  0.165452  0.000811  1
  Si  Si13  1  0.159573  0.840389  0.499945  1
  Si  Si14  1  0.669547  0.834774  0.999294  1
  Si  Si15  1  0.831238  0.168796  0.500070  1
  Si  Si16  1  0.834561  0.669093  0.000806  1
  Si  Si17  1  0.680800  0.840394  0.499948  1
  Si  Si18  1  0.165210  0.330442  0.999290  1
  Si  Si19  1  0.337585  0.168799  0.500061  1
  Si  Si20  1  0.159589  0.319200  0.499946  1
  Si  Si21  1  0.831225  0.662437  0.500062  1
  Si  Si22  1  0.333336  0.666678  0.499874  1
  Pd  Pd23  1  0.666649  0.333311  0.500405  1
