# generated using pymatgen
data_SmTaP7Ru12
_symmetry_space_group_name_H-M   'P 1'
_cell_length_a   9.40139600
_cell_length_b   9.40139484
_cell_length_c   3.90375100
_cell_angle_alpha   90.00000000
_cell_angle_beta   90.00000000
_cell_angle_gamma   120.00000315
_symmetry_Int_Tables_number   1
_chemical_formula_structural   SmTaP7Ru12
_chemical_formula_sum   'Sm1 Ta1 P7 Ru12'
_cell_volume   298.81153942
_cell_formula_units_Z   1
loop_
 _symmetry_equiv_pos_site_id
 _symmetry_equiv_pos_as_xyz
  1  'x, y, z'
loop_
 _atom_site_type_symbol
 _atom_site_label
 _atom_site_symmetry_multiplicity
 _atom_site_fract_x
 _atom_site_fract_y
 _atom_site_fract_z
 _atom_site_occupancy
  Sm  Sm0  1  0.333333  0.666667  0.000000  1
  Ta  Ta1  1  0.666667  0.333333  0.500000  1
  P  P2  1  0.600267  0.719293  0.500000  1
  P  P3  1  0.000000  0.000000  0.000000  1
  P  P4  1  0.280707  0.880975  0.500000  1
  P  P5  1  0.119025  0.399733  0.500000  1
  P  P6  1  0.886541  0.573881  0.000000  1
  P  P7  1  0.426119  0.312662  0.000000  1
  P  P8  1  0.687338  0.113459  0.000000  1
  Ru  Ru9  1  0.560243  0.959832  0.500000  1
  Ru  Ru10  1  0.399591  0.439757  0.500000  1
  Ru  Ru11  1  0.912616  0.123343  0.500000  1
  Ru  Ru12  1  0.210727  0.087384  0.500000  1
  Ru  Ru13  1  0.876657  0.789273  0.500000  1
  Ru  Ru14  1  0.726008  0.887901  0.000000  1
  Ru  Ru15  1  0.112099  0.838107  0.000000  1
  Ru  Ru16  1  0.161893  0.273992  0.000000  1
  Ru  Ru17  1  0.432200  0.080136  0.000000  1
  Ru  Ru18  1  0.919864  0.352066  0.000000  1
  Ru  Ru19  1  0.647934  0.567800  0.000000  1
  Ru  Ru20  1  0.040168  0.600409  0.500000  1
