# generated using pymatgen
data_Ho2Er6Re(B8Os)3
_symmetry_space_group_name_H-M   'P 1'
_cell_length_a   3.64303400
_cell_length_b   9.11237614
_cell_length_c   11.49249401
_cell_angle_alpha   90.08729956
_cell_angle_beta   90.00000000
_cell_angle_gamma   90.00000000
_symmetry_Int_Tables_number   1
_chemical_formula_structural   Ho2Er6Re(B8Os)3
_chemical_formula_sum   'Ho2 Er6 Re1 B24 Os3'
_cell_volume   381.51238807
_cell_formula_units_Z   1
loop_
 _symmetry_equiv_pos_site_id
 _symmetry_equiv_pos_as_xyz
  1  'x, y, z'
loop_
 _atom_site_type_symbol
 _atom_site_label
 _atom_site_symmetry_multiplicity
 _atom_site_fract_x
 _atom_site_fract_y
 _atom_site_fract_z
 _atom_site_occupancy
  Ho  Ho0  1  0.000000  0.322092  0.414924  1
  Ho  Ho1  1  0.000000  0.680233  0.588109  1
  Er  Er2  1  0.000000  0.822433  0.083603  1
  Er  Er3  1  0.000000  0.176546  0.913269  1
  Er  Er4  1  0.000000  0.943456  0.371900  1
  Er  Er5  1  0.000000  0.055756  0.627751  1
  Er  Er6  1  0.000000  0.443107  0.127729  1
  Er  Er7  1  0.000000  0.556390  0.872804  1
  Re  Re8  1  0.000000  0.862522  0.821467  1
  B  B9  1  0.500000  0.553822  0.433323  1
  B  B10  1  0.500000  0.446258  0.566900  1
  B  B11  1  0.500000  0.053597  0.067028  1
  B  B12  1  0.500000  0.947210  0.933470  1
  B  B13  1  0.500000  0.748776  0.419555  1
  B  B14  1  0.500000  0.251296  0.580305  1
  B  B15  1  0.500000  0.248425  0.080423  1
  B  B16  1  0.500000  0.751223  0.919585  1
  B  B17  1  0.500000  0.790885  0.265806  1
  B  B18  1  0.500000  0.208743  0.733483  1
  B  B19  1  0.500000  0.291240  0.234038  1
  B  B20  1  0.500000  0.708150  0.765963  1
  B  B21  1  0.500000  0.631019  0.185103  1
  B  B22  1  0.500000  0.368563  0.814492  1
  B  B23  1  0.500000  0.131477  0.314909  1
  B  B24  1  0.500000  0.868876  0.685409  1
  B  B25  1  0.500000  0.982861  0.212643  1
  B  B26  1  0.500000  0.018190  0.787308  1
  B  B27  1  0.500000  0.482764  0.287627  1
  B  B28  1  0.500000  0.517218  0.712765  1
  B  B29  1  0.500000  0.605248  0.029808  1
  B  B30  1  0.500000  0.393321  0.970797  1
  B  B31  1  0.500000  0.106338  0.470238  1
  B  B32  1  0.500000  0.894171  0.528774  1
  Os  Os33  1  0.000000  0.637516  0.321269  1
  Os  Os34  1  0.000000  0.362468  0.678253  1
  Os  Os35  1  0.000000  0.137807  0.179168  1
