# generated using pymatgen
data_Ce2Dy(SnRh)3
_symmetry_space_group_name_H-M   'P 1'
_cell_length_a   7.51147903
_cell_length_b   7.46300036
_cell_length_c   4.02530000
_cell_angle_alpha   90.00000000
_cell_angle_beta   90.00000000
_cell_angle_gamma   119.78673331
_symmetry_Int_Tables_number   1
_chemical_formula_structural   Ce2Dy(SnRh)3
_chemical_formula_sum   'Ce2 Dy1 Sn3 Rh3'
_cell_volume   195.83806398
_cell_formula_units_Z   1
loop_
 _symmetry_equiv_pos_site_id
 _symmetry_equiv_pos_as_xyz
  1  'x, y, z'
loop_
 _atom_site_type_symbol
 _atom_site_label
 _atom_site_symmetry_multiplicity
 _atom_site_fract_x
 _atom_site_fract_y
 _atom_site_fract_z
 _atom_site_occupancy
  Ce  Ce0  1  0.586411  0.585894  0.000000  1
  Ce  Ce1  1  0.413589  0.999483  0.000000  1
  Dy  Dy2  1  0.000000  0.408057  0.000000  1
  Sn  Sn3  1  0.249305  0.254896  0.500000  1
  Sn  Sn4  1  0.000000  0.740710  0.500000  1
  Sn  Sn5  1  0.750695  0.005591  0.500000  1
  Rh  Rh6  1  0.656001  0.331847  0.500000  1
  Rh  Rh7  1  0.343999  0.675847  0.500000  1
  Rh  Rh8  1  0.000000  0.997675  0.000000  1
