# generated using pymatgen
data_DyErHf2(Co5P3)4
_symmetry_space_group_name_H-M   'P 1'
_cell_length_a   3.61605200
_cell_length_b   10.19707705
_cell_length_c   11.65954705
_cell_angle_alpha   90.01076867
_cell_angle_beta   90.00000000
_cell_angle_gamma   90.00000000
_symmetry_Int_Tables_number   1
_chemical_formula_structural   DyErHf2(Co5P3)4
_chemical_formula_sum   'Dy1 Er1 Hf2 Co20 P12'
_cell_volume   429.92434619
_cell_formula_units_Z   1
loop_
 _symmetry_equiv_pos_site_id
 _symmetry_equiv_pos_as_xyz
  1  'x, y, z'
loop_
 _atom_site_type_symbol
 _atom_site_label
 _atom_site_symmetry_multiplicity
 _atom_site_fract_x
 _atom_site_fract_y
 _atom_site_fract_z
 _atom_site_occupancy
  Dy  Dy0  1  0.750000  0.082405  0.796629  1
  Er  Er1  1  0.750000  0.417851  0.296818  1
  Hf  Hf2  1  0.250000  0.581244  0.701081  1
  Hf  Hf3  1  0.250000  0.918539  0.201039  1
  Co  Co4  1  0.250000  0.719465  0.994717  1
  Co  Co5  1  0.250000  0.780176  0.494032  1
  Co  Co6  1  0.750000  0.282176  0.008311  1
  Co  Co7  1  0.750000  0.218008  0.507965  1
  Co  Co8  1  0.250000  0.409828  0.490141  1
  Co  Co9  1  0.250000  0.090006  0.991211  1
  Co  Co10  1  0.750000  0.592938  0.516930  1
  Co  Co11  1  0.750000  0.906678  0.017197  1
  Co  Co12  1  0.250000  0.222359  0.178006  1
  Co  Co13  1  0.250000  0.278513  0.677627  1
  Co  Co14  1  0.750000  0.776035  0.822815  1
  Co  Co15  1  0.750000  0.723685  0.322755  1
  Co  Co16  1  0.250000  0.879833  0.698730  1
  Co  Co17  1  0.250000  0.619361  0.199352  1
  Co  Co18  1  0.750000  0.113417  0.298524  1
  Co  Co19  1  0.750000  0.387226  0.798840  1
  Co  Co20  1  0.250000  0.470836  0.928304  1
  Co  Co21  1  0.250000  0.029578  0.427451  1
  Co  Co22  1  0.750000  0.535386  0.066922  1
  Co  Co23  1  0.750000  0.964180  0.566010  1
  P  P24  1  0.250000  0.419677  0.110989  1
  P  P25  1  0.250000  0.080522  0.609854  1
  P  P26  1  0.750000  0.581737  0.884001  1
  P  P27  1  0.750000  0.918313  0.383340  1
  P  P28  1  0.250000  0.270144  0.872146  1
  P  P29  1  0.250000  0.230948  0.371575  1
  P  P30  1  0.750000  0.733287  0.132054  1
  P  P31  1  0.750000  0.766459  0.631842  1
  P  P32  1  0.250000  0.600986  0.390771  1
  P  P33  1  0.250000  0.898171  0.891043  1
  P  P34  1  0.750000  0.400448  0.610509  1
  P  P35  1  0.750000  0.099585  0.110472  1
