# generated using pymatgen
data_Nb4Si3Ge(PdRu)2
_symmetry_space_group_name_H-M   'P 1'
_cell_length_a   3.79836000
_cell_length_b   6.50207254
_cell_length_c   7.45662350
_cell_angle_alpha   90.33892280
_cell_angle_beta   90.00000000
_cell_angle_gamma   90.00000000
_symmetry_Int_Tables_number   1
_chemical_formula_structural   Nb4Si3Ge(PdRu)2
_chemical_formula_sum   'Nb4 Si3 Ge1 Pd2 Ru2'
_cell_volume   184.15459132
_cell_formula_units_Z   1
loop_
 _symmetry_equiv_pos_site_id
 _symmetry_equiv_pos_as_xyz
  1  'x, y, z'
loop_
 _atom_site_type_symbol
 _atom_site_label
 _atom_site_symmetry_multiplicity
 _atom_site_fract_x
 _atom_site_fract_y
 _atom_site_fract_z
 _atom_site_occupancy
  Nb  Nb0  1  0.750000  0.531657  0.825922  1
  Nb  Nb1  1  0.250000  0.969828  0.328199  1
  Nb  Nb2  1  0.750000  0.023832  0.668897  1
  Nb  Nb3  1  0.250000  0.472954  0.175628  1
  Si  Si4  1  0.250000  0.730501  0.631983  1
  Si  Si5  1  0.750000  0.763911  0.121223  1
  Si  Si6  1  0.750000  0.264305  0.380800  1
  Ge  Ge7  1  0.250000  0.233223  0.865984  1
  Pd  Pd8  1  0.750000  0.650670  0.435076  1
  Pd  Pd9  1  0.750000  0.145400  0.071861  1
  Ru  Ru10  1  0.250000  0.852517  0.942646  1
  Ru  Ru11  1  0.250000  0.361200  0.551781  1
