# generated using pymatgen
data_Na2Li2ScP12Ir19
_symmetry_space_group_name_H-M   'P 1'
_cell_length_a   12.61853307
_cell_length_b   12.61853263
_cell_length_c   3.92608300
_cell_angle_alpha   90.00000000
_cell_angle_beta   90.00000000
_cell_angle_gamma   120.22713847
_symmetry_Int_Tables_number   1
_chemical_formula_structural   Na2Li2ScP12Ir19
_chemical_formula_sum   'Na2 Li2 Sc1 P12 Ir19'
_cell_volume   540.14363669
_cell_formula_units_Z   1
loop_
 _symmetry_equiv_pos_site_id
 _symmetry_equiv_pos_as_xyz
  1  'x, y, z'
loop_
 _atom_site_type_symbol
 _atom_site_label
 _atom_site_symmetry_multiplicity
 _atom_site_fract_x
 _atom_site_fract_y
 _atom_site_fract_z
 _atom_site_occupancy
  Na  Na0  1  0.819989  0.999115  0.500000  1
  Na  Na1  1  0.999115  0.819989  0.500000  1
  Li  Li2  1  0.334180  0.666597  0.000000  1
  Li  Li3  1  0.666597  0.334180  0.000000  1
  Sc  Sc4  1  0.174757  0.174757  0.500000  1
  P  P5  1  0.178539  0.995724  0.000000  1
  P  P6  1  0.995724  0.178539  0.000000  1
  P  P7  1  0.820470  0.820470  0.000000  1
  P  P8  1  0.177042  0.489511  0.500000  1
  P  P9  1  0.511117  0.688758  0.500000  1
  P  P10  1  0.312850  0.824248  0.500000  1
  P  P11  1  0.688758  0.511117  0.500000  1
  P  P12  1  0.824248  0.312850  0.500000  1
  P  P13  1  0.489511  0.177042  0.500000  1
  P  P14  1  0.640071  0.000276  0.000000  1
  P  P15  1  0.000276  0.640071  0.000000  1
  P  P16  1  0.358067  0.358067  0.000000  1
  Ir  Ir17  1  0.459850  0.004363  0.000000  1
  Ir  Ir18  1  0.004363  0.459850  0.000000  1
  Ir  Ir19  1  0.540557  0.540557  0.000000  1
  Ir  Ir20  1  0.359278  0.491040  0.500000  1
  Ir  Ir21  1  0.509559  0.870868  0.500000  1
  Ir  Ir22  1  0.132387  0.640201  0.500000  1
  Ir  Ir23  1  0.870868  0.509559  0.500000  1
  Ir  Ir24  1  0.640201  0.132387  0.500000  1
  Ir  Ir25  1  0.491040  0.359278  0.500000  1
  Ir  Ir26  1  0.180960  0.371109  0.000000  1
  Ir  Ir27  1  0.620793  0.803287  0.000000  1
  Ir  Ir28  1  0.198307  0.817713  0.000000  1
  Ir  Ir29  1  0.803287  0.620793  0.000000  1
  Ir  Ir30  1  0.817713  0.198307  0.000000  1
  Ir  Ir31  1  0.371109  0.180960  0.000000  1
  Ir  Ir32  1  0.291940  0.002188  0.500000  1
  Ir  Ir33  1  0.002188  0.291940  0.500000  1
  Ir  Ir34  1  0.707778  0.707778  0.500000  1
  Ir  Ir35  1  0.006512  0.006512  0.000000  1
