# generated using pymatgen
data_Sr3ThIr8
_symmetry_space_group_name_H-M   'P 1'
_cell_length_a   9.43906538
_cell_length_b   9.43906472
_cell_length_c   9.43906439
_cell_angle_alpha   33.88504733
_cell_angle_beta   33.88505431
_cell_angle_gamma   33.88504249
_symmetry_Int_Tables_number   1
_chemical_formula_structural   Sr3ThIr8
_chemical_formula_sum   'Sr3 Th1 Ir8'
_cell_volume   232.96950604
_cell_formula_units_Z   1
loop_
 _symmetry_equiv_pos_site_id
 _symmetry_equiv_pos_as_xyz
  1  'x, y, z'
loop_
 _atom_site_type_symbol
 _atom_site_label
 _atom_site_symmetry_multiplicity
 _atom_site_fract_x
 _atom_site_fract_y
 _atom_site_fract_z
 _atom_site_occupancy
  Sr  Sr0  1  0.625659  0.625659  0.625659  1
  Sr  Sr1  1  0.997088  0.997088  0.997088  1
  Sr  Sr2  1  0.502911  0.502911  0.502911  1
  Th  Th3  1  0.125159  0.125159  0.125159  1
  Ir  Ir4  1  0.561975  0.561975  0.069182  1
  Ir  Ir5  1  0.062559  0.062559  0.556064  1
  Ir  Ir6  1  0.561975  0.069182  0.561975  1
  Ir  Ir7  1  0.062559  0.556064  0.062559  1
  Ir  Ir8  1  0.812575  0.812575  0.812575  1
  Ir  Ir9  1  0.312296  0.312296  0.312296  1
  Ir  Ir10  1  0.069182  0.561975  0.561975  1
  Ir  Ir11  1  0.556064  0.062559  0.062559  1
