# generated using pymatgen
data_CaLa19(Ir5Os)2
_symmetry_space_group_name_H-M   'P 1'
_cell_length_a   11.41137200
_cell_length_b   11.43881320
_cell_length_c   6.63014500
_cell_angle_alpha   90.00000000
_cell_angle_beta   90.00000000
_cell_angle_gamma   89.97372335
_symmetry_Int_Tables_number   1
_chemical_formula_structural   CaLa19(Ir5Os)2
_chemical_formula_sum   'Ca1 La19 Ir10 Os2'
_cell_volume   865.44966059
_cell_formula_units_Z   1
loop_
 _symmetry_equiv_pos_site_id
 _symmetry_equiv_pos_as_xyz
  1  'x, y, z'
loop_
 _atom_site_type_symbol
 _atom_site_label
 _atom_site_symmetry_multiplicity
 _atom_site_fract_x
 _atom_site_fract_y
 _atom_site_fract_z
 _atom_site_occupancy
  Ca  Ca0  1  0.000000  0.000000  0.495134  1
  La  La1  1  0.290941  0.087860  0.391399  1
  La  La2  1  0.294427  0.911194  0.890490  1
  La  La3  1  0.705573  0.088806  0.890490  1
  La  La4  1  0.709059  0.912140  0.391399  1
  La  La5  1  0.589283  0.795513  0.889226  1
  La  La6  1  0.587994  0.203883  0.388192  1
  La  La7  1  0.412006  0.796117  0.388192  1
  La  La8  1  0.410717  0.204487  0.889226  1
  La  La9  1  0.207513  0.408967  0.613858  1
  La  La10  1  0.208048  0.592136  0.112414  1
  La  La11  1  0.791952  0.407864  0.112414  1
  La  La12  1  0.792487  0.591033  0.613858  1
  La  La13  1  0.908294  0.709607  0.111568  1
  La  La14  1  0.909057  0.286810  0.610234  1
  La  La15  1  0.090943  0.713190  0.610234  1
  La  La16  1  0.091706  0.290393  0.111568  1
  La  La17  1  0.000000  0.000000  0.994629  1
  La  La18  1  0.500000  0.500000  0.995004  1
  La  La19  1  0.500000  0.500000  0.495176  1
  Ir  Ir20  1  0.847583  0.157510  0.243184  1
  Ir  Ir21  1  0.846952  0.843345  0.753931  1
  Ir  Ir22  1  0.153048  0.156655  0.753931  1
  Ir  Ir23  1  0.152417  0.842490  0.243184  1
  Ir  Ir24  1  0.654687  0.349570  0.748233  1
  Ir  Ir25  1  0.654991  0.650874  0.250201  1
  Ir  Ir26  1  0.345009  0.349126  0.250201  1
  Ir  Ir27  1  0.345313  0.650430  0.748233  1
  Ir  Ir28  1  0.000000  0.500000  0.880220  1
  Ir  Ir29  1  0.000000  0.500000  0.382272  1
  Os  Os30  1  0.500000  0.000000  0.126618  1
  Os  Os31  1  0.500000  0.000000  0.625075  1
