# generated using pymatgen
data_MgZr8In3Ni8
_symmetry_space_group_name_H-M   'P 1'
_cell_length_a   7.26829300
_cell_length_b   7.26829300
_cell_length_c   6.61045900
_cell_angle_alpha   90.00000000
_cell_angle_beta   90.00000000
_cell_angle_gamma   90.00000000
_symmetry_Int_Tables_number   1
_chemical_formula_structural   MgZr8In3Ni8
_chemical_formula_sum   'Mg1 Zr8 In3 Ni8'
_cell_volume   349.21787760
_cell_formula_units_Z   1
loop_
 _symmetry_equiv_pos_site_id
 _symmetry_equiv_pos_as_xyz
  1  'x, y, z'
loop_
 _atom_site_type_symbol
 _atom_site_label
 _atom_site_symmetry_multiplicity
 _atom_site_fract_x
 _atom_site_fract_y
 _atom_site_fract_z
 _atom_site_occupancy
  Mg  Mg0  1  0.500000  0.000000  0.750000  1
  Zr  Zr1  1  0.824684  0.825711  0.998895  1
  Zr  Zr2  1  0.674289  0.324684  0.501105  1
  Zr  Zr3  1  0.337910  0.662943  0.998733  1
  Zr  Zr4  1  0.162943  0.162090  0.501267  1
  Zr  Zr5  1  0.175316  0.174289  0.998895  1
  Zr  Zr6  1  0.837057  0.837910  0.501267  1
  Zr  Zr7  1  0.662090  0.337057  0.998733  1
  Zr  Zr8  1  0.325711  0.675316  0.501105  1
  In  In9  1  0.500000  0.000000  0.250000  1
  In  In10  1  0.000000  0.500000  0.250000  1
  In  In11  1  0.000000  0.500000  0.750000  1
  Ni  Ni12  1  0.124562  0.875625  0.233645  1
  Ni  Ni13  1  0.125820  0.875725  0.765759  1
  Ni  Ni14  1  0.624275  0.625820  0.734241  1
  Ni  Ni15  1  0.874180  0.124275  0.765759  1
  Ni  Ni16  1  0.375625  0.375438  0.266355  1
  Ni  Ni17  1  0.624375  0.624562  0.266355  1
  Ni  Ni18  1  0.875438  0.124375  0.233645  1
  Ni  Ni19  1  0.375725  0.374180  0.734241  1
