# generated using pymatgen
data_LaCe(Cu9Ge4)2
_symmetry_space_group_name_H-M   'P 1'
_cell_length_a   8.38985651
_cell_length_b   8.38985573
_cell_length_c   8.38985700
_cell_angle_alpha   121.45876383
_cell_angle_beta   121.45876058
_cell_angle_gamma   87.49138693
_symmetry_Int_Tables_number   1
_chemical_formula_structural   LaCe(Cu9Ge4)2
_chemical_formula_sum   'La1 Ce1 Cu18 Ge8'
_cell_volume   407.95615583
_cell_formula_units_Z   1
loop_
 _symmetry_equiv_pos_site_id
 _symmetry_equiv_pos_as_xyz
  1  'x, y, z'
loop_
 _atom_site_type_symbol
 _atom_site_label
 _atom_site_symmetry_multiplicity
 _atom_site_fract_x
 _atom_site_fract_y
 _atom_site_fract_z
 _atom_site_occupancy
  La  La0  1  0.749977  0.750023  0.000000  1
  Ce  Ce1  1  0.250014  0.249986  0.000000  1
  Cu  Cu2  1  0.940152  0.440666  0.736875  1
  Cu  Cu3  1  0.703790  0.203281  0.263104  1
  Cu  Cu4  1  0.440810  0.703894  0.500688  1
  Cu  Cu5  1  0.203223  0.940148  0.499363  1
  Cu  Cu6  1  0.059334  0.559848  0.263125  1
  Cu  Cu7  1  0.296719  0.796210  0.736896  1
  Cu  Cu8  1  0.559852  0.296777  0.500637  1
  Cu  Cu9  1  0.796106  0.059190  0.499312  1
  Cu  Cu10  1  0.200737  0.063213  0.264715  1
  Cu  Cu11  1  0.798524  0.936030  0.735234  1
  Cu  Cu12  1  0.701602  0.436867  0.137544  1
  Cu  Cu13  1  0.299262  0.563984  0.862410  1
  Cu  Cu14  1  0.936016  0.200738  0.137590  1
  Cu  Cu15  1  0.063133  0.798398  0.862456  1
  Cu  Cu16  1  0.563970  0.701476  0.264766  1
  Cu  Cu17  1  0.436787  0.299263  0.735285  1
  Cu  Cu18  1  0.000035  0.499965  0.500000  1
  Cu  Cu19  1  0.500001  0.999999  0.500000  1
  Ge  Ge20  1  0.199310  0.697361  0.144220  1
  Ge  Ge21  1  0.553156  0.055117  0.855801  1
  Ge  Ge22  1  0.697056  0.553008  0.497708  1
  Ge  Ge23  1  0.055271  0.199348  0.502286  1
  Ge  Ge24  1  0.802639  0.300690  0.855780  1
  Ge  Ge25  1  0.444883  0.946844  0.144199  1
  Ge  Ge26  1  0.300652  0.444729  0.497714  1
  Ge  Ge27  1  0.946992  0.802944  0.502292  1
