# generated using pymatgen
data_Hf5Ti5(In2Rh)4
_symmetry_space_group_name_H-M   'P 1'
_cell_length_a   17.21093148
_cell_length_b   7.45752320
_cell_length_c   3.32338500
_cell_angle_alpha   90.00000000
_cell_angle_beta   90.00000000
_cell_angle_gamma   89.97330530
_symmetry_Int_Tables_number   1
_chemical_formula_structural   Hf5Ti5(In2Rh)4
_chemical_formula_sum   'Hf5 Ti5 In8 Rh4'
_cell_volume   426.55947846
_cell_formula_units_Z   1
loop_
 _symmetry_equiv_pos_site_id
 _symmetry_equiv_pos_as_xyz
  1  'x, y, z'
loop_
 _atom_site_type_symbol
 _atom_site_label
 _atom_site_symmetry_multiplicity
 _atom_site_fract_x
 _atom_site_fract_y
 _atom_site_fract_z
 _atom_site_occupancy
  Hf  Hf0  1  0.078657  0.638369  0.000000  1
  Hf  Hf1  1  0.223151  0.261846  0.000000  1
  Hf  Hf2  1  0.777303  0.738551  0.000000  1
  Hf  Hf3  1  0.719724  0.238313  0.000000  1
  Hf  Hf4  1  0.281390  0.762610  0.000000  1
  Ti  Ti5  1  0.998204  0.001351  0.000000  1
  Ti  Ti6  1  0.500682  0.499812  0.000000  1
  Ti  Ti7  1  0.421010  0.139297  0.000000  1
  Ti  Ti8  1  0.580223  0.860692  0.000000  1
  Ti  Ti9  1  0.919228  0.359924  0.000000  1
  In  In10  1  0.561414  0.194714  0.500000  1
  In  In11  1  0.439916  0.805198  0.500000  1
  In  In12  1  0.061254  0.296817  0.500000  1
  In  In13  1  0.933091  0.698321  0.500000  1
  In  In14  1  0.853479  0.064852  0.500000  1
  In  In15  1  0.147099  0.942382  0.500000  1
  In  In16  1  0.357016  0.436944  0.500000  1
  In  In17  1  0.644228  0.562697  0.500000  1
  Rh  Rh18  1  0.311521  0.053134  0.500000  1
  Rh  Rh19  1  0.689402  0.947179  0.500000  1
  Rh  Rh20  1  0.808237  0.446485  0.500000  1
  Rh  Rh21  1  0.193773  0.550503  0.500000  1
