# generated using pymatgen
data_Dy8Er2Os3Ru
_symmetry_space_group_name_H-M   'P 1'
_cell_length_a   6.34596804
_cell_length_b   7.34709244
_cell_length_c   8.42887853
_cell_angle_alpha   96.82181128
_cell_angle_beta   112.23621304
_cell_angle_gamma   90.02281119
_symmetry_Int_Tables_number   1
_chemical_formula_structural   Dy8Er2Os3Ru
_chemical_formula_sum   'Dy8 Er2 Os3 Ru1'
_cell_volume   360.75010587
_cell_formula_units_Z   1
loop_
 _symmetry_equiv_pos_site_id
 _symmetry_equiv_pos_as_xyz
  1  'x, y, z'
loop_
 _atom_site_type_symbol
 _atom_site_label
 _atom_site_symmetry_multiplicity
 _atom_site_fract_x
 _atom_site_fract_y
 _atom_site_fract_z
 _atom_site_occupancy
  Dy  Dy0  1  0.794269  0.583675  0.816650  1
  Dy  Dy1  1  0.975327  0.916377  0.182801  1
  Dy  Dy2  1  0.207851  0.416940  0.186243  1
  Dy  Dy3  1  0.024714  0.084885  0.817768  1
  Dy  Dy4  1  0.204233  0.683548  0.565315  1
  Dy  Dy5  1  0.640440  0.816896  0.435695  1
  Dy  Dy6  1  0.794164  0.315758  0.434008  1
  Dy  Dy7  1  0.360554  0.182255  0.563895  1
  Er  Er8  1  0.421897  0.749857  0.000014  1
  Er  Er9  1  0.579152  0.250115  0.000517  1
  Os  Os10  1  0.603528  0.922583  0.781184  1
  Os  Os11  1  0.821162  0.577521  0.219050  1
  Os  Os12  1  0.396147  0.077419  0.217840  1
  Ru  Ru13  1  0.176563  0.422168  0.779021  1
