# generated using pymatgen
data_Ca11Tb8InSn16
_symmetry_space_group_name_H-M   'P 1'
_cell_length_a   7.90103400
_cell_length_b   8.47251803
_cell_length_c   16.15780000
_cell_angle_alpha   90.00000000
_cell_angle_beta   90.00000000
_cell_angle_gamma   89.99534061
_symmetry_Int_Tables_number   1
_chemical_formula_structural   Ca11Tb8InSn16
_chemical_formula_sum   'Ca11 Tb8 In1 Sn16'
_cell_volume   1081.62983735
_cell_formula_units_Z   1
loop_
 _symmetry_equiv_pos_site_id
 _symmetry_equiv_pos_as_xyz
  1  'x, y, z'
loop_
 _atom_site_type_symbol
 _atom_site_label
 _atom_site_symmetry_multiplicity
 _atom_site_fract_x
 _atom_site_fract_y
 _atom_site_fract_z
 _atom_site_occupancy
  Ca  Ca0  1  0.503286  0.685567  0.592489  1
  Ca  Ca1  1  0.003881  0.813626  0.907553  1
  Ca  Ca2  1  0.497273  0.310576  0.092965  1
  Ca  Ca3  1  0.995324  0.183615  0.407241  1
  Ca  Ca4  1  0.497273  0.310576  0.407035  1
  Ca  Ca5  1  0.995324  0.183615  0.092759  1
  Ca  Ca6  1  0.503286  0.685567  0.907511  1
  Ca  Ca7  1  0.003881  0.813626  0.592447  1
  Ca  Ca8  1  0.834431  0.510515  0.750000  1
  Ca  Ca9  1  0.334133  0.989569  0.750000  1
  Ca  Ca10  1  0.162178  0.492049  0.250000  1
  Tb  Tb11  1  0.672814  0.169592  0.622712  1
  Tb  Tb12  1  0.172553  0.333360  0.878292  1
  Tb  Tb13  1  0.331402  0.836677  0.123540  1
  Tb  Tb14  1  0.824049  0.671291  0.377667  1
  Tb  Tb15  1  0.331402  0.836677  0.376460  1
  Tb  Tb16  1  0.824049  0.671291  0.122333  1
  Tb  Tb17  1  0.672814  0.169592  0.877288  1
  Tb  Tb18  1  0.172553  0.333360  0.621708  1
  In  In19  1  0.664157  0.006432  0.250000  1
  Sn  Sn20  1  0.670736  0.960229  0.464296  1
  Sn  Sn21  1  0.170520  0.538157  0.041392  1
  Sn  Sn22  1  0.329786  0.037783  0.960651  1
  Sn  Sn23  1  0.830647  0.464077  0.538981  1
  Sn  Sn24  1  0.329786  0.037783  0.539349  1
  Sn  Sn25  1  0.830647  0.464077  0.961019  1
  Sn  Sn26  1  0.670736  0.960229  0.035704  1
  Sn  Sn27  1  0.170520  0.538157  0.458608  1
  Sn  Sn28  1  0.468581  0.375521  0.750000  1
  Sn  Sn29  1  0.969308  0.125300  0.750000  1
  Sn  Sn30  1  0.529507  0.615897  0.250000  1
  Sn  Sn31  1  0.029388  0.879252  0.250000  1
  Sn  Sn32  1  0.715788  0.873690  0.750000  1
  Sn  Sn33  1  0.215298  0.626481  0.750000  1
  Sn  Sn34  1  0.286142  0.129816  0.250000  1
  Sn  Sn35  1  0.786551  0.366380  0.250000  1
