# generated using pymatgen
data_DyYPa2(Al3Ir)6
_symmetry_space_group_name_H-M   'P 1'
_cell_length_a   7.59803800
_cell_length_b   7.60254745
_cell_length_c   9.37221600
_cell_angle_alpha   90.00000000
_cell_angle_beta   90.00000000
_cell_angle_gamma   119.69834790
_symmetry_Int_Tables_number   1
_chemical_formula_structural   DyYPa2(Al3Ir)6
_chemical_formula_sum   'Dy1 Y1 Pa2 Al18 Ir6'
_cell_volume   470.26820197
_cell_formula_units_Z   1
loop_
 _symmetry_equiv_pos_site_id
 _symmetry_equiv_pos_as_xyz
  1  'x, y, z'
loop_
 _atom_site_type_symbol
 _atom_site_label
 _atom_site_symmetry_multiplicity
 _atom_site_fract_x
 _atom_site_fract_y
 _atom_site_fract_z
 _atom_site_occupancy
  Dy  Dy0  1  0.330710  0.006282  0.250000  1
  Y  Y1  1  0.669279  0.993701  0.750000  1
  Pa  Pa2  1  0.997471  0.670873  0.750000  1
  Pa  Pa3  1  0.002525  0.329093  0.250000  1
  Al  Al4  1  0.130097  0.127322  0.750000  1
  Al  Al5  1  0.869954  0.872681  0.250000  1
  Al  Al6  1  0.000532  0.331569  0.577461  1
  Al  Al7  1  0.999517  0.668479  0.422480  1
  Al  Al8  1  0.999517  0.668479  0.077520  1
  Al  Al9  1  0.337921  0.003207  0.925579  1
  Al  Al10  1  0.000532  0.331569  0.922539  1
  Al  Al11  1  0.662032  0.996799  0.074530  1
  Al  Al12  1  0.662032  0.996799  0.425470  1
  Al  Al13  1  0.337921  0.003207  0.574421  1
  Al  Al14  1  0.335390  0.333329  0.053809  1
  Al  Al15  1  0.664609  0.666630  0.946244  1
  Al  Al16  1  0.664609  0.666630  0.553756  1
  Al  Al17  1  0.335390  0.333329  0.446191  1
  Al  Al18  1  0.340425  0.547711  0.750000  1
  Al  Al19  1  0.659489  0.452213  0.250000  1
  Al  Al20  1  0.548037  0.340609  0.750000  1
  Al  Al21  1  0.451974  0.659460  0.250000  1
  Ir  Ir22  1  0.676115  0.330024  0.499726  1
  Ir  Ir23  1  0.323838  0.669984  0.500210  1
  Ir  Ir24  1  0.323838  0.669984  0.999790  1
  Ir  Ir25  1  0.676115  0.330024  0.000274  1
  Ir  Ir26  1  0.000065  0.000006  0.499960  1
  Ir  Ir27  1  0.000065  0.000006  0.000040  1
