# generated using pymatgen
data_Er20(RuRh3)3
_symmetry_space_group_name_H-M   'P 1'
_cell_length_a   10.76704100
_cell_length_b   10.76704100
_cell_length_c   6.35816700
_cell_angle_alpha   90.00000000
_cell_angle_beta   90.00000000
_cell_angle_gamma   90.00000000
_symmetry_Int_Tables_number   1
_chemical_formula_structural   Er20(RuRh3)3
_chemical_formula_sum   'Er20 Ru3 Rh9'
_cell_volume   737.09703508
_cell_formula_units_Z   1
loop_
 _symmetry_equiv_pos_site_id
 _symmetry_equiv_pos_as_xyz
  1  'x, y, z'
loop_
 _atom_site_type_symbol
 _atom_site_label
 _atom_site_symmetry_multiplicity
 _atom_site_fract_x
 _atom_site_fract_y
 _atom_site_fract_z
 _atom_site_occupancy
  Er  Er0  1  0.294157  0.086375  0.376960  1
  Er  Er1  1  0.294180  0.913932  0.877157  1
  Er  Er2  1  0.705820  0.086068  0.877157  1
  Er  Er3  1  0.705843  0.913625  0.376960  1
  Er  Er4  1  0.586068  0.794180  0.877157  1
  Er  Er5  1  0.586375  0.205843  0.376960  1
  Er  Er6  1  0.413625  0.794157  0.376960  1
  Er  Er7  1  0.413932  0.205820  0.877157  1
  Er  Er8  1  0.207822  0.412753  0.624879  1
  Er  Er9  1  0.207550  0.587266  0.120654  1
  Er  Er10  1  0.792450  0.412734  0.120654  1
  Er  Er11  1  0.792178  0.587247  0.624879  1
  Er  Er12  1  0.912734  0.707550  0.120654  1
  Er  Er13  1  0.912753  0.292178  0.624879  1
  Er  Er14  1  0.087247  0.707822  0.624879  1
  Er  Er15  1  0.087266  0.292450  0.120654  1
  Er  Er16  1  0.000000  0.000000  0.499517  1
  Er  Er17  1  0.000000  0.000000  0.999625  1
  Er  Er18  1  0.500000  0.500000  0.999625  1
  Er  Er19  1  0.500000  0.500000  0.499517  1
  Ru  Ru20  1  0.500000  0.000000  0.122991  1
  Ru  Ru21  1  0.500000  0.000000  0.622886  1
  Ru  Ru22  1  0.000000  0.500000  0.878446  1
  Rh  Rh23  1  0.847856  0.153153  0.250198  1
  Rh  Rh24  1  0.847548  0.846932  0.749783  1
  Rh  Rh25  1  0.152452  0.153068  0.749783  1
  Rh  Rh26  1  0.152144  0.846847  0.250198  1
  Rh  Rh27  1  0.653068  0.347548  0.749783  1
  Rh  Rh28  1  0.653153  0.652144  0.250198  1
  Rh  Rh29  1  0.346847  0.347856  0.250198  1
  Rh  Rh30  1  0.346932  0.652452  0.749783  1
  Rh  Rh31  1  0.000000  0.500000  0.378871  1
