# generated using pymatgen
data_Dy4Al17SiRh6
_symmetry_space_group_name_H-M   'P 1'
_cell_length_a   7.55307462
_cell_length_b   7.53067134
_cell_length_c   9.45165160
_cell_angle_alpha   89.98193783
_cell_angle_beta   89.95326990
_cell_angle_gamma   119.57685849
_symmetry_Int_Tables_number   1
_chemical_formula_structural   Dy4Al17SiRh6
_chemical_formula_sum   'Dy4 Al17 Si1 Rh6'
_cell_volume   467.55374011
_cell_formula_units_Z   1
loop_
 _symmetry_equiv_pos_site_id
 _symmetry_equiv_pos_as_xyz
  1  'x, y, z'
loop_
 _atom_site_type_symbol
 _atom_site_label
 _atom_site_symmetry_multiplicity
 _atom_site_fract_x
 _atom_site_fract_y
 _atom_site_fract_z
 _atom_site_occupancy
  Dy  Dy0  1  0.994267  0.663669  0.746938  1
  Dy  Dy1  1  0.004909  0.329345  0.255272  1
  Dy  Dy2  1  0.676371  0.002303  0.746654  1
  Dy  Dy3  1  0.328695  0.005045  0.250256  1
  Al  Al4  1  0.127661  0.127198  0.749463  1
  Al  Al5  1  0.871221  0.873276  0.249337  1
  Al  Al6  1  0.998136  0.668921  0.423477  1
  Al  Al7  1  0.999332  0.665293  0.074388  1
  Al  Al8  1  0.334497  0.999276  0.924484  1
  Al  Al9  1  0.001978  0.334952  0.929985  1
  Al  Al10  1  0.664461  0.999297  0.074395  1
  Al  Al11  1  0.660190  0.994975  0.423006  1
  Al  Al12  1  0.334005  0.999576  0.575934  1
  Al  Al13  1  0.334028  0.333049  0.052271  1
  Al  Al14  1  0.667794  0.668173  0.947877  1
  Al  Al15  1  0.666793  0.667693  0.553182  1
  Al  Al16  1  0.336209  0.333637  0.448730  1
  Al  Al17  1  0.340649  0.550527  0.750112  1
  Al  Al18  1  0.661319  0.450581  0.250191  1
  Al  Al19  1  0.546144  0.339372  0.749949  1
  Al  Al20  1  0.449610  0.658198  0.249291  1
  Si  Si21  1  0.002483  0.335012  0.575304  1
  Rh  Rh22  1  0.680225  0.328657  0.502178  1
  Rh  Rh23  1  0.319690  0.664010  0.500204  1
  Rh  Rh24  1  0.327561  0.671181  0.999293  1
  Rh  Rh25  1  0.672592  0.328397  0.998699  1
  Rh  Rh26  1  0.999100  0.007414  0.500016  1
  Rh  Rh27  1  0.000078  0.000973  0.999116  1
