# generated using pymatgen
data_Zr16ZnCo4Os3
_symmetry_space_group_name_H-M   'P 1'
_cell_length_a   8.72317263
_cell_length_b   8.72292918
_cell_length_c   8.72311000
_cell_angle_alpha   60.10426656
_cell_angle_beta   60.10467824
_cell_angle_gamma   60.10724601
_symmetry_Int_Tables_number   1
_chemical_formula_structural   Zr16ZnCo4Os3
_chemical_formula_sum   'Zr16 Zn1 Co4 Os3'
_cell_volume   470.46685407
_cell_formula_units_Z   1
loop_
 _symmetry_equiv_pos_site_id
 _symmetry_equiv_pos_as_xyz
  1  'x, y, z'
loop_
 _atom_site_type_symbol
 _atom_site_label
 _atom_site_symmetry_multiplicity
 _atom_site_fract_x
 _atom_site_fract_y
 _atom_site_fract_z
 _atom_site_occupancy
  Zr  Zr0  1  0.060615  0.647453  0.647409  1
  Zr  Zr1  1  0.647418  0.060632  0.647403  1
  Zr  Zr2  1  0.647431  0.647450  0.060572  1
  Zr  Zr3  1  0.648853  0.648899  0.648884  1
  Zr  Zr4  1  0.801316  0.801300  0.199021  1
  Zr  Zr5  1  0.194929  0.194901  0.807924  1
  Zr  Zr6  1  0.801337  0.198987  0.801311  1
  Zr  Zr7  1  0.194910  0.807856  0.194908  1
  Zr  Zr8  1  0.198968  0.801355  0.801362  1
  Zr  Zr9  1  0.807861  0.194864  0.194894  1
  Zr  Zr10  1  0.435671  0.435675  0.051569  1
  Zr  Zr11  1  0.062550  0.062532  0.436283  1
  Zr  Zr12  1  0.435644  0.051558  0.435711  1
  Zr  Zr13  1  0.062548  0.436301  0.062556  1
  Zr  Zr14  1  0.051582  0.435652  0.435702  1
  Zr  Zr15  1  0.436333  0.062514  0.062533  1
  Zn  Zn16  1  0.423275  0.423289  0.423265  1
  Co  Co17  1  0.424680  0.860394  0.860353  1
  Co  Co18  1  0.860363  0.424676  0.860372  1
  Co  Co19  1  0.860335  0.860386  0.424715  1
  Co  Co20  1  0.857539  0.857549  0.857507  1
  Os  Os21  1  0.748390  0.418718  0.418695  1
  Os  Os22  1  0.418731  0.748358  0.418686  1
  Os  Os23  1  0.418723  0.418697  0.748367  1
