# generated using pymatgen
data_K3Cr(SO4)3
_symmetry_space_group_name_H-M   'P 1'
_cell_length_a   9.08207887
_cell_length_b   9.08207947
_cell_length_c   9.08207873
_cell_angle_alpha   109.16846664
_cell_angle_beta   109.16847104
_cell_angle_gamma   109.16848073
_symmetry_Int_Tables_number   1
_chemical_formula_structural   K3Cr(SO4)3
_chemical_formula_sum   'K6 Cr2 S6 O24'
_cell_volume   583.05310386
_cell_formula_units_Z   2
loop_
 _symmetry_equiv_pos_site_id
 _symmetry_equiv_pos_as_xyz
  1  'x, y, z'
loop_
 _atom_site_type_symbol
 _atom_site_label
 _atom_site_symmetry_multiplicity
 _atom_site_fract_x
 _atom_site_fract_y
 _atom_site_fract_z
 _atom_site_occupancy
  K  K0  1  0.631917  0.148901  0.783502  1
  K  K1  1  0.783502  0.631917  0.148901  1
  K  K2  1  0.148901  0.783502  0.631917  1
  K  K3  1  0.368083  0.851099  0.216498  1
  K  K4  1  0.216498  0.368083  0.851099  1
  K  K5  1  0.851099  0.216498  0.368083  1
  Cr  Cr6  1  0.000000  0.000000  0.000000  1
  Cr  Cr7  1  0.500000  0.500000  0.500000  1
  S  S8  1  0.890619  0.567237  0.766308  1
  S  S9  1  0.766308  0.890619  0.567237  1
  S  S10  1  0.567237  0.766308  0.890619  1
  S  S11  1  0.109381  0.432763  0.233692  1
  S  S12  1  0.233692  0.109381  0.432763  1
  S  S13  1  0.432763  0.233692  0.109381  1
  O  O14  1  0.745667  0.525172  0.592739  1
  O  O15  1  0.592739  0.745667  0.525172  1
  O  O16  1  0.525172  0.592739  0.745667  1
  O  O17  1  0.254333  0.474828  0.407261  1
  O  O18  1  0.407261  0.254333  0.474828  1
  O  O19  1  0.474828  0.407261  0.254333  1
  O  O20  1  0.817943  0.486795  0.859081  1
  O  O21  1  0.859081  0.817943  0.486795  1
  O  O22  1  0.486795  0.859081  0.817943  1
  O  O23  1  0.182057  0.513205  0.140919  1
  O  O24  1  0.140919  0.182057  0.513205  1
  O  O25  1  0.513205  0.140919  0.182057  1
  O  O26  1  0.009902  0.506764  0.721241  1
  O  O27  1  0.721241  0.009902  0.506764  1
  O  O28  1  0.506764  0.721241  0.009902  1
  O  O29  1  0.990098  0.493236  0.278759  1
  O  O30  1  0.278759  0.990098  0.493236  1
  O  O31  1  0.493236  0.278759  0.990098  1
  O  O32  1  0.002507  0.769387  0.882661  1
  O  O33  1  0.882661  0.002507  0.769387  1
  O  O34  1  0.769387  0.882661  0.002507  1
  O  O35  1  0.997493  0.230613  0.117339  1
  O  O36  1  0.117339  0.997493  0.230613  1
  O  O37  1  0.230613  0.117339  0.997493  1
