# generated using pymatgen
data_Dy5ErAl24Ir5Os3
_symmetry_space_group_name_H-M   'P 1'
_cell_length_a   8.83978103
_cell_length_b   8.84115875
_cell_length_c   9.51720788
_cell_angle_alpha   89.77694515
_cell_angle_beta   90.22841075
_cell_angle_gamma   120.11576531
_symmetry_Int_Tables_number   1
_chemical_formula_structural   Dy5ErAl24Ir5Os3
_chemical_formula_sum   'Dy5 Er1 Al24 Ir5 Os3'
_cell_volume   643.39635044
_cell_formula_units_Z   1
loop_
 _symmetry_equiv_pos_site_id
 _symmetry_equiv_pos_as_xyz
  1  'x, y, z'
loop_
 _atom_site_type_symbol
 _atom_site_label
 _atom_site_symmetry_multiplicity
 _atom_site_fract_x
 _atom_site_fract_y
 _atom_site_fract_z
 _atom_site_occupancy
  Dy  Dy0  1  0.804233  0.613112  0.748315  1
  Dy  Dy1  1  0.613010  0.804151  0.251651  1
  Dy  Dy2  1  0.386828  0.195667  0.748326  1
  Dy  Dy3  1  0.193276  0.806621  0.250034  1
  Dy  Dy4  1  0.806690  0.193203  0.749944  1
  Er  Er5  1  0.196782  0.388537  0.252063  1
  Al  Al6  1  0.333154  0.666421  0.027869  1
  Al  Al7  1  0.666672  0.333229  0.972284  1
  Al  Al8  1  0.666055  0.333822  0.525387  1
  Al  Al9  1  0.333730  0.665841  0.474426  1
  Al  Al10  1  0.164379  0.327503  0.574893  1
  Al  Al11  1  0.835623  0.672450  0.424822  1
  Al  Al12  1  0.672428  0.835620  0.575104  1
  Al  Al13  1  0.836624  0.673156  0.074695  1
  Al  Al14  1  0.327456  0.164455  0.424739  1
  Al  Al15  1  0.163355  0.326808  0.925536  1
  Al  Al16  1  0.163103  0.836930  0.575632  1
  Al  Al17  1  0.326760  0.163425  0.074787  1
  Al  Al18  1  0.837047  0.163124  0.424208  1
  Al  Al19  1  0.673138  0.836617  0.925335  1
  Al  Al20  1  0.837021  0.163189  0.075853  1
  Al  Al21  1  0.163130  0.836877  0.924269  1
  Al  Al22  1  0.562581  0.124268  0.249625  1
  Al  Al23  1  0.437404  0.875738  0.750363  1
  Al  Al24  1  0.875968  0.437294  0.249607  1
  Al  Al25  1  0.124254  0.562571  0.750385  1
  Al  Al26  1  0.562462  0.437014  0.250530  1
  Al  Al27  1  0.437148  0.562826  0.749446  1
  Al  Al28  1  0.000863  0.999734  0.250045  1
  Al  Al29  1  0.999319  0.000636  0.749928  1
  Ir  Ir30  1  0.499923  0.999827  0.000019  1
  Ir  Ir31  1  0.000135  0.499879  0.000157  1
  Ir  Ir32  1  0.499929  0.999833  0.499967  1
  Ir  Ir33  1  0.499756  0.499874  0.000146  1
  Ir  Ir34  1  0.000106  0.499887  0.499848  1
  Os  Os35  1  0.499687  0.499872  0.499790  1
  Os  Os36  1  0.999992  0.999989  0.000055  1
  Os  Os37  1  0.999978  0.999998  0.499917  1
