# generated using pymatgen
data_Dy5Y2Pu3(SiB4)4
_symmetry_space_group_name_H-M   'P 1'
_cell_length_a   7.22145799
_cell_length_b   7.22145768
_cell_length_c   8.09627601
_cell_angle_alpha   89.97206870
_cell_angle_beta   89.97206949
_cell_angle_gamma   89.83105113
_symmetry_Int_Tables_number   1
_chemical_formula_structural   Dy5Y2Pu3(SiB4)4
_chemical_formula_sum   'Dy5 Y2 Pu3 Si4 B16'
_cell_volume   422.21443225
_cell_formula_units_Z   1
loop_
 _symmetry_equiv_pos_site_id
 _symmetry_equiv_pos_as_xyz
  1  'x, y, z'
loop_
 _atom_site_type_symbol
 _atom_site_label
 _atom_site_symmetry_multiplicity
 _atom_site_fract_x
 _atom_site_fract_y
 _atom_site_fract_z
 _atom_site_occupancy
  Dy  Dy0  1  0.818256  0.681413  0.222675  1
  Dy  Dy1  1  0.818398  0.681550  0.777147  1
  Dy  Dy2  1  0.681660  0.181660  0.775667  1
  Dy  Dy3  1  0.181550  0.318398  0.777147  1
  Dy  Dy4  1  0.181413  0.318256  0.222675  1
  Y  Y5  1  0.002657  0.998815  0.498267  1
  Y  Y6  1  0.498815  0.502657  0.498267  1
  Pu  Pu7  1  0.683387  0.183387  0.229517  1
  Pu  Pu8  1  0.315926  0.815926  0.771117  1
  Pu  Pu9  1  0.316930  0.816930  0.228986  1
  Si  Si10  1  0.114472  0.614472  0.501295  1
  Si  Si11  1  0.883693  0.383693  0.498270  1
  Si  Si12  1  0.385896  0.115295  0.498976  1
  Si  Si13  1  0.615295  0.885896  0.498976  1
  B  B14  1  0.173964  0.038190  0.999493  1
  B  B15  1  0.826830  0.961387  0.000397  1
  B  B16  1  0.959365  0.172433  0.000108  1
  B  B17  1  0.327153  0.541544  0.999462  1
  B  B18  1  0.041544  0.827153  0.999462  1
  B  B19  1  0.672433  0.459365  0.000108  1
  B  B20  1  0.538190  0.673964  0.999493  1
  B  B21  1  0.461387  0.326830  0.000397  1
  B  B22  1  0.090546  0.590546  0.999782  1
  B  B23  1  0.909249  0.409249  0.001528  1
  B  B24  1  0.410570  0.089623  0.000682  1
  B  B25  1  0.589623  0.910570  0.000682  1
  B  B26  1  0.999867  0.999874  0.160890  1
  B  B27  1  0.001698  0.999358  0.838825  1
  B  B28  1  0.499358  0.501698  0.838825  1
  B  B29  1  0.499874  0.499867  0.160890  1
