# generated using pymatgen
data_Er3B4Mo3Ru10
_symmetry_space_group_name_H-M   'P 1'
_cell_length_a   9.56226974
_cell_length_b   9.56226897
_cell_length_c   3.05729700
_cell_angle_alpha   90.00000000
_cell_angle_beta   90.00000000
_cell_angle_gamma   89.75856948
_symmetry_Int_Tables_number   1
_chemical_formula_structural   Er3B4Mo3Ru10
_chemical_formula_sum   'Er3 B4 Mo3 Ru10'
_cell_volume   279.54756937
_cell_formula_units_Z   1
loop_
 _symmetry_equiv_pos_site_id
 _symmetry_equiv_pos_as_xyz
  1  'x, y, z'
loop_
 _atom_site_type_symbol
 _atom_site_label
 _atom_site_symmetry_multiplicity
 _atom_site_fract_x
 _atom_site_fract_y
 _atom_site_fract_z
 _atom_site_occupancy
  Er  Er0  1  0.174988  0.825012  0.000000  1
  Er  Er1  1  0.323982  0.324095  0.000000  1
  Er  Er2  1  0.675905  0.676018  0.000000  1
  B  B3  1  0.623434  0.376566  0.000000  1
  B  B4  1  0.381622  0.618378  0.000000  1
  B  B5  1  0.119357  0.122100  0.000000  1
  B  B6  1  0.877900  0.880643  0.000000  1
  Mo  Mo7  1  0.496003  0.997558  0.000000  1
  Mo  Mo8  1  0.002442  0.503997  0.000000  1
  Mo  Mo9  1  0.822789  0.177211  0.000000  1
  Ru  Ru10  1  0.503674  0.496326  0.500000  1
  Ru  Ru11  1  0.990055  0.009945  0.500000  1
  Ru  Ru12  1  0.583976  0.211262  0.500000  1
  Ru  Ru13  1  0.432376  0.782725  0.500000  1
  Ru  Ru14  1  0.056604  0.281093  0.500000  1
  Ru  Ru15  1  0.929435  0.719460  0.500000  1
  Ru  Ru16  1  0.280540  0.070565  0.500000  1
  Ru  Ru17  1  0.718907  0.943396  0.500000  1
  Ru  Ru18  1  0.217275  0.567624  0.500000  1
  Ru  Ru19  1  0.788738  0.416024  0.500000  1
