# generated using pymatgen
data_TbY(MgRh)2
_symmetry_space_group_name_H-M   'P 1'
_cell_length_a   4.11048100
_cell_length_b   7.16046432
_cell_length_c   8.58731316
_cell_angle_alpha   90.13542669
_cell_angle_beta   90.00000000
_cell_angle_gamma   90.00000000
_symmetry_Int_Tables_number   1
_chemical_formula_structural   TbY(MgRh)2
_chemical_formula_sum   'Tb2 Y2 Mg4 Rh4'
_cell_volume   252.74927492
_cell_formula_units_Z   2
loop_
 _symmetry_equiv_pos_site_id
 _symmetry_equiv_pos_as_xyz
  1  'x, y, z'
loop_
 _atom_site_type_symbol
 _atom_site_label
 _atom_site_symmetry_multiplicity
 _atom_site_fract_x
 _atom_site_fract_y
 _atom_site_fract_z
 _atom_site_occupancy
  Tb  Tb0  1  0.250000  0.536505  0.176094  1
  Tb  Tb1  1  0.750000  0.463495  0.823906  1
  Y  Y2  1  0.750000  0.963628  0.675798  1
  Y  Y3  1  0.250000  0.036372  0.324202  1
  Mg  Mg4  1  0.250000  0.637260  0.559729  1
  Mg  Mg5  1  0.750000  0.362740  0.440271  1
  Mg  Mg6  1  0.750000  0.864050  0.059690  1
  Mg  Mg7  1  0.250000  0.135950  0.940310  1
  Rh  Rh8  1  0.250000  0.750661  0.872203  1
  Rh  Rh9  1  0.750000  0.249339  0.127797  1
  Rh  Rh10  1  0.750000  0.746761  0.370637  1
  Rh  Rh11  1  0.250000  0.253239  0.629363  1
