# generated using pymatgen
data_LaY2Si4(AsPd10)2
_symmetry_space_group_name_H-M   'P 1'
_cell_length_a   8.83797574
_cell_length_b   8.83797605
_cell_length_c   8.75629800
_cell_angle_alpha   60.30524545
_cell_angle_beta   60.30524430
_cell_angle_gamma   59.38950791
_symmetry_Int_Tables_number   1
_chemical_formula_structural   LaY2Si4(AsPd10)2
_chemical_formula_sum   'La1 Y2 Si4 As2 Pd20'
_cell_volume   483.54582637
_cell_formula_units_Z   1
loop_
 _symmetry_equiv_pos_site_id
 _symmetry_equiv_pos_as_xyz
  1  'x, y, z'
loop_
 _atom_site_type_symbol
 _atom_site_label
 _atom_site_symmetry_multiplicity
 _atom_site_fract_x
 _atom_site_fract_y
 _atom_site_fract_z
 _atom_site_occupancy
  La  La0  1  0.250000  0.250000  0.250000  1
  Y  Y1  1  0.750000  0.750000  0.750000  1
  Y  Y2  1  0.000000  0.000000  0.000000  1
  Si  Si3  1  0.733792  0.266208  0.733792  1
  Si  Si4  1  0.266208  0.733792  0.266208  1
  Si  Si5  1  0.266208  0.733792  0.733792  1
  Si  Si6  1  0.733792  0.266208  0.266208  1
  As  As7  1  0.735798  0.735798  0.264202  1
  As  As8  1  0.264202  0.264202  0.735798  1
  Pd  Pd9  1  0.614483  0.614483  0.621307  1
  Pd  Pd10  1  0.388436  0.388436  0.380726  1
  Pd  Pd11  1  0.149726  0.621307  0.614483  1
  Pd  Pd12  1  0.621307  0.149726  0.614483  1
  Pd  Pd13  1  0.842403  0.380726  0.388436  1
  Pd  Pd14  1  0.380726  0.842403  0.388436  1
  Pd  Pd15  1  0.614483  0.614483  0.149726  1
  Pd  Pd16  1  0.388436  0.388436  0.842403  1
  Pd  Pd17  1  0.998894  0.998894  0.655118  1
  Pd  Pd18  1  0.998894  0.998894  0.347095  1
  Pd  Pd19  1  0.347095  0.655118  0.998894  1
  Pd  Pd20  1  0.655118  0.347095  0.998894  1
  Pd  Pd21  1  0.006106  0.654714  0.990815  1
  Pd  Pd22  1  0.654714  0.006106  0.348367  1
  Pd  Pd23  1  0.990815  0.348367  0.006106  1
  Pd  Pd24  1  0.348367  0.990815  0.654714  1
  Pd  Pd25  1  0.654714  0.006106  0.990815  1
  Pd  Pd26  1  0.348367  0.990815  0.006106  1
  Pd  Pd27  1  0.006106  0.654714  0.348367  1
  Pd  Pd28  1  0.990815  0.348367  0.654714  1
