# generated using pymatgen
data_EuPuF7
_symmetry_space_group_name_H-M   'P 1'
_cell_length_a   5.95679500
_cell_length_b   6.39045195
_cell_length_c   8.65518400
_cell_angle_alpha   101.40534390
_cell_angle_beta   90.00000000
_cell_angle_gamma   90.00000000
_symmetry_Int_Tables_number   1
_chemical_formula_structural   EuPuF7
_chemical_formula_sum   'Eu2 Pu2 F14'
_cell_volume   322.96733179
_cell_formula_units_Z   2
loop_
 _symmetry_equiv_pos_site_id
 _symmetry_equiv_pos_as_xyz
  1  'x, y, z'
loop_
 _atom_site_type_symbol
 _atom_site_label
 _atom_site_symmetry_multiplicity
 _atom_site_fract_x
 _atom_site_fract_y
 _atom_site_fract_z
 _atom_site_occupancy
  Eu  Eu0  1  0.698933  0.656069  0.685184  1
  Eu  Eu1  1  0.198933  0.343931  0.314816  1
  Pu  Pu2  1  0.708537  0.812430  0.222965  1
  Pu  Pu3  1  0.208537  0.187570  0.777035  1
  F  F4  1  0.884932  0.451160  0.475645  1
  F  F5  1  0.384932  0.548840  0.524355  1
  F  F6  1  0.422051  0.925138  0.766310  1
  F  F7  1  0.922051  0.074862  0.233690  1
  F  F8  1  0.945698  0.967215  0.761428  1
  F  F9  1  0.445698  0.032785  0.238572  1
  F  F10  1  0.999833  0.451883  0.785205  1
  F  F11  1  0.499833  0.548117  0.214795  1
  F  F12  1  0.704502  0.757212  0.978643  1
  F  F13  1  0.204502  0.242788  0.021357  1
  F  F14  1  0.712647  0.856092  0.470005  1
  F  F15  1  0.212647  0.143908  0.529995  1
  F  F16  1  0.499226  0.375948  0.781235  1
  F  F17  1  0.999226  0.624052  0.218765  1
