# generated using pymatgen
data_La3Mg3SiGeAu
_symmetry_space_group_name_H-M   'P 1'
_cell_length_a   7.60959500
_cell_length_b   7.60959525
_cell_length_c   4.46433400
_cell_angle_alpha   90.00000000
_cell_angle_beta   90.00000000
_cell_angle_gamma   120.00001197
_symmetry_Int_Tables_number   1
_chemical_formula_structural   La3Mg3SiGeAu
_chemical_formula_sum   'La3 Mg3 Si1 Ge1 Au1'
_cell_volume   223.87745370
_cell_formula_units_Z   1
loop_
 _symmetry_equiv_pos_site_id
 _symmetry_equiv_pos_as_xyz
  1  'x, y, z'
loop_
 _atom_site_type_symbol
 _atom_site_label
 _atom_site_symmetry_multiplicity
 _atom_site_fract_x
 _atom_site_fract_y
 _atom_site_fract_z
 _atom_site_occupancy
  La  La0  1  0.584091  0.001751  0.000000  1
  La  La1  1  0.998249  0.582341  0.000000  1
  La  La2  1  0.417659  0.415909  0.000000  1
  Mg  Mg3  1  0.242218  0.000698  0.500000  1
  Mg  Mg4  1  0.999302  0.241520  0.500000  1
  Mg  Mg5  1  0.758480  0.757782  0.500000  1
  Si  Si6  1  0.666667  0.333333  0.500000  1
  Ge  Ge7  1  0.333333  0.666667  0.500000  1
  Au  Au8  1  0.000000  0.000000  0.000000  1
