# generated using pymatgen
data_TbF18
_symmetry_space_group_name_H-M   'P 1'
_cell_length_a   7.10561093
_cell_length_b   8.40207533
_cell_length_c   12.64075982
_cell_angle_alpha   111.13485267
_cell_angle_beta   84.56817572
_cell_angle_gamma   110.04284189
_symmetry_Int_Tables_number   1
_chemical_formula_structural   TbF18
_chemical_formula_sum   'Tb2 F36'
_cell_volume   660.92184045
_cell_formula_units_Z   2
loop_
 _symmetry_equiv_pos_site_id
 _symmetry_equiv_pos_as_xyz
  1  'x, y, z'
loop_
 _atom_site_type_symbol
 _atom_site_label
 _atom_site_symmetry_multiplicity
 _atom_site_fract_x
 _atom_site_fract_y
 _atom_site_fract_z
 _atom_site_occupancy
  Tb  Tb0  1  0.049779  0.862020  0.169605  1
  Tb  Tb1  1  0.945689  0.133121  0.833405  1
  F  F2  1  0.702675  0.605548  0.389211  1
  F  F3  1  0.297436  0.393471  0.601812  1
  F  F4  1  0.060518  0.375057  0.381688  1
  F  F5  1  0.948750  0.617687  0.617960  1
  F  F6  1  0.165484  0.915442  0.949750  1
  F  F7  1  0.841841  0.077030  0.046611  1
  F  F8  1  0.841975  0.857671  0.312474  1
  F  F9  1  0.126613  0.143939  0.681855  1
  F  F10  1  0.124652  0.619626  0.157612  1
  F  F11  1  0.883800  0.384159  0.848308  1
  F  F12  1  0.621664  0.433750  0.403322  1
  F  F13  1  0.391833  0.569961  0.596304  1
  F  F14  1  0.992534  0.099297  0.153472  1
  F  F15  1  0.026726  0.903323  0.840724  1
  F  F16  1  0.122639  0.028775  0.347728  1
  F  F17  1  0.853409  0.957783  0.658256  1
  F  F18  1  0.079473  0.468726  0.304719  1
  F  F19  1  0.928823  0.530248  0.698516  1
  F  F20  1  0.750115  0.685978  0.081540  1
  F  F21  1  0.247699  0.314735  0.920996  1
  F  F22  1  0.819821  0.538489  0.969256  1
  F  F23  1  0.183743  0.462517  0.034020  1
  F  F24  1  0.567836  0.600192  0.824753  1
  F  F25  1  0.439931  0.397274  0.170865  1
  F  F26  1  0.569820  0.071030  0.279544  1
  F  F27  1  0.422266  0.952289  0.722164  1
  F  F28  1  0.251287  0.850326  0.484308  1
  F  F29  1  0.744882  0.152959  0.519360  1
  F  F30  1  0.306819  0.924236  0.055044  1
  F  F31  1  0.686700  0.057282  0.942967  1
  F  F32  1  0.434927  0.888071  0.236419  1
  F  F33  1  0.565925  0.130127  0.770203  1
  F  F34  1  0.600716  0.325494  0.143990  1
  F  F35  1  0.402612  0.666241  0.848968  1
  F  F36  1  0.409739  0.775450  0.460483  1
  F  F37  1  0.588850  0.230675  0.541786  1
