# generated using pymatgen
data_Sm(GdAu4)3
_symmetry_space_group_name_H-M   'P 1'
_cell_length_a   5.14758200
_cell_length_b   5.27637000
_cell_length_c   12.66680800
_cell_angle_alpha   90.00000000
_cell_angle_beta   90.00000000
_cell_angle_gamma   90.00000000
_symmetry_Int_Tables_number   1
_chemical_formula_structural   Sm(GdAu4)3
_chemical_formula_sum   'Sm1 Gd3 Au12'
_cell_volume   344.03743703
_cell_formula_units_Z   1
loop_
 _symmetry_equiv_pos_site_id
 _symmetry_equiv_pos_as_xyz
  1  'x, y, z'
loop_
 _atom_site_type_symbol
 _atom_site_label
 _atom_site_symmetry_multiplicity
 _atom_site_fract_x
 _atom_site_fract_y
 _atom_site_fract_z
 _atom_site_occupancy
  Sm  Sm0  1  0.500000  0.656733  0.000000  1
  Gd  Gd1  1  0.500000  0.647512  0.500000  1
  Gd  Gd2  1  0.000000  0.347159  0.749302  1
  Gd  Gd3  1  0.000000  0.347159  0.250698  1
  Au  Au4  1  0.000000  0.329755  0.000000  1
  Au  Au5  1  0.000000  0.326578  0.500000  1
  Au  Au6  1  0.500000  0.671075  0.748587  1
  Au  Au7  1  0.500000  0.671075  0.251413  1
  Au  Au8  1  0.500000  0.161223  0.130472  1
  Au  Au9  1  0.500000  0.156071  0.630890  1
  Au  Au10  1  0.500000  0.161223  0.869528  1
  Au  Au11  1  0.500000  0.156071  0.369110  1
  Au  Au12  1  0.000000  0.844299  0.121447  1
  Au  Au13  1  0.000000  0.839885  0.618398  1
  Au  Au14  1  0.000000  0.844299  0.878553  1
  Au  Au15  1  0.000000  0.839885  0.381602  1
