# generated using pymatgen
data_Ti10GaAs5O
_symmetry_space_group_name_H-M   'P 1'
_cell_length_a   7.52074029
_cell_length_b   7.53210156
_cell_length_c   5.19421823
_cell_angle_alpha   90.13129520
_cell_angle_beta   89.73701984
_cell_angle_gamma   119.95011136
_symmetry_Int_Tables_number   1
_chemical_formula_structural   Ti10GaAs5O
_chemical_formula_sum   'Ti10 Ga1 As5 O1'
_cell_volume   254.94183839
_cell_formula_units_Z   1
loop_
 _symmetry_equiv_pos_site_id
 _symmetry_equiv_pos_as_xyz
  1  'x, y, z'
loop_
 _atom_site_type_symbol
 _atom_site_label
 _atom_site_symmetry_multiplicity
 _atom_site_fract_x
 _atom_site_fract_y
 _atom_site_fract_z
 _atom_site_occupancy
  Ti  Ti0  1  0.001290  0.759630  0.257602  1
  Ti  Ti1  1  0.241661  0.240370  0.257602  1
  Ti  Ti2  1  0.764256  0.000000  0.257212  1
  Ti  Ti3  1  0.999427  0.240722  0.741803  1
  Ti  Ti4  1  0.758704  0.759278  0.741803  1
  Ti  Ti5  1  0.237302  0.000000  0.744215  1
  Ti  Ti6  1  0.330075  0.662358  0.500328  1
  Ti  Ti7  1  0.667718  0.337642  0.500328  1
  Ti  Ti8  1  0.667964  0.337727  0.000118  1
  Ti  Ti9  1  0.330236  0.662273  0.000118  1
  Ga  Ga10  1  0.601265  0.000000  0.754707  1
  As  As11  1  0.997970  0.392592  0.244351  1
  As  As12  1  0.605378  0.607408  0.244351  1
  As  As13  1  0.401491  0.000000  0.242991  1
  As  As14  1  0.000372  0.606622  0.756303  1
  As  As15  1  0.393750  0.393378  0.756303  1
  O  O16  1  0.001140  0.000000  0.499865  1
