# generated using pymatgen
data_ErBe12Ni
_symmetry_space_group_name_H-M   'P 1'
_cell_length_a   7.22904777
_cell_length_b   7.28506091
_cell_length_c   7.20341045
_cell_angle_alpha   59.85817692
_cell_angle_beta   59.64343899
_cell_angle_gamma   59.51005978
_symmetry_Int_Tables_number   1
_chemical_formula_structural   ErBe12Ni
_chemical_formula_sum   'Er2 Be24 Ni2'
_cell_volume   266.23580132
_cell_formula_units_Z   2
loop_
 _symmetry_equiv_pos_site_id
 _symmetry_equiv_pos_as_xyz
  1  'x, y, z'
loop_
 _atom_site_type_symbol
 _atom_site_label
 _atom_site_symmetry_multiplicity
 _atom_site_fract_x
 _atom_site_fract_y
 _atom_site_fract_z
 _atom_site_occupancy
  Er  Er0  1  0.248686  0.251314  0.248686  1
  Er  Er1  1  0.751314  0.748686  0.751314  1
  Be  Be2  1  0.500000  0.500000  0.500000  1
  Be  Be3  1  0.000000  0.000000  0.000000  1
  Be  Be4  1  0.567582  0.788892  0.432418  1
  Be  Be5  1  0.432418  0.211108  0.567582  1
  Be  Be6  1  0.292934  0.934933  0.707066  1
  Be  Be7  1  0.707066  0.065067  0.292934  1
  Be  Be8  1  0.933191  0.285284  0.066809  1
  Be  Be9  1  0.066809  0.714716  0.933191  1
  Be  Be10  1  0.205579  0.797896  0.560856  1
  Be  Be11  1  0.794421  0.202104  0.439144  1
  Be  Be12  1  0.439144  0.564330  0.794421  1
  Be  Be13  1  0.560856  0.435670  0.205579  1
  Be  Be14  1  0.711328  0.284424  0.935158  1
  Be  Be15  1  0.288672  0.715576  0.064842  1
  Be  Be16  1  0.064842  0.930910  0.288672  1
  Be  Be17  1  0.935158  0.069090  0.711328  1
  Be  Be18  1  0.561931  0.206925  0.794770  1
  Be  Be19  1  0.438069  0.793075  0.205230  1
  Be  Be20  1  0.794770  0.436373  0.561931  1
  Be  Be21  1  0.205230  0.563627  0.438069  1
  Be  Be22  1  0.936123  0.710911  0.289794  1
  Be  Be23  1  0.063877  0.289089  0.710206  1
  Be  Be24  1  0.289794  0.063172  0.936123  1
  Be  Be25  1  0.710206  0.936828  0.063877  1
  Ni  Ni26  1  0.799160  0.559321  0.200840  1
  Ni  Ni27  1  0.200840  0.440679  0.799160  1
