# generated using pymatgen
data_NdCr4O12
_symmetry_space_group_name_H-M   'P 1'
_cell_length_a   9.95747669
_cell_length_b   9.95747861
_cell_length_c   9.95747900
_cell_angle_alpha   57.95430993
_cell_angle_beta   57.95430301
_cell_angle_gamma   57.95431182
_symmetry_Int_Tables_number   1
_chemical_formula_structural   NdCr4O12
_chemical_formula_sum   'Nd2 Cr8 O24'
_cell_volume   665.35668741
_cell_formula_units_Z   2
loop_
 _symmetry_equiv_pos_site_id
 _symmetry_equiv_pos_as_xyz
  1  'x, y, z'
loop_
 _atom_site_type_symbol
 _atom_site_label
 _atom_site_symmetry_multiplicity
 _atom_site_fract_x
 _atom_site_fract_y
 _atom_site_fract_z
 _atom_site_occupancy
  Nd  Nd0  1  0.640783  0.640783  0.640783  1
  Nd  Nd1  1  0.359217  0.359217  0.359217  1
  Cr  Cr2  1  0.147958  0.147958  0.147958  1
  Cr  Cr3  1  0.852042  0.852042  0.852042  1
  Cr  Cr4  1  0.778108  0.027309  0.462101  1
  Cr  Cr5  1  0.972690  0.537900  0.221892  1
  Cr  Cr6  1  0.537900  0.221892  0.972691  1
  Cr  Cr7  1  0.462100  0.778108  0.027310  1
  Cr  Cr8  1  0.027310  0.462100  0.778108  1
  Cr  Cr9  1  0.221892  0.972690  0.537900  1
  O  O10  1  0.943272  0.073269  0.291633  1
  O  O11  1  0.792246  0.987460  0.640560  1
  O  O12  1  0.012540  0.359440  0.207754  1
  O  O13  1  0.708367  0.056728  0.926731  1
  O  O14  1  0.600380  0.190035  0.439852  1
  O  O15  1  0.858246  0.480874  0.764673  1
  O  O16  1  0.519126  0.235327  0.141754  1
  O  O17  1  0.809965  0.560148  0.399620  1
  O  O18  1  0.926731  0.708367  0.056728  1
  O  O19  1  0.560148  0.399620  0.809965  1
  O  O20  1  0.359440  0.207754  0.012540  1
  O  O21  1  0.235327  0.141754  0.519126  1
  O  O22  1  0.764673  0.858246  0.480874  1
  O  O23  1  0.640560  0.792246  0.987460  1
  O  O24  1  0.439852  0.600380  0.190035  1
  O  O25  1  0.073269  0.291633  0.943272  1
  O  O26  1  0.190035  0.439852  0.600380  1
  O  O27  1  0.480874  0.764673  0.858246  1
  O  O28  1  0.141754  0.519126  0.235327  1
  O  O29  1  0.399620  0.809965  0.560148  1
  O  O30  1  0.291633  0.943272  0.073269  1
  O  O31  1  0.987460  0.640560  0.792246  1
  O  O32  1  0.207754  0.012540  0.359440  1
  O  O33  1  0.056728  0.926731  0.708367  1
