# generated using pymatgen
data_HoSc3Al8
_symmetry_space_group_name_H-M   'P 1'
_cell_length_a   9.40218254
_cell_length_b   9.40218289
_cell_length_c   9.40218161
_cell_angle_alpha   33.48839362
_cell_angle_beta   33.48839181
_cell_angle_gamma   33.48839800
_symmetry_Int_Tables_number   1
_chemical_formula_structural   HoSc3Al8
_chemical_formula_sum   'Ho1 Sc3 Al8'
_cell_volume   225.36833291
_cell_formula_units_Z   1
loop_
 _symmetry_equiv_pos_site_id
 _symmetry_equiv_pos_as_xyz
  1  'x, y, z'
loop_
 _atom_site_type_symbol
 _atom_site_label
 _atom_site_symmetry_multiplicity
 _atom_site_fract_x
 _atom_site_fract_y
 _atom_site_fract_z
 _atom_site_occupancy
  Ho  Ho0  1  0.687441  0.687441  0.687441  1
  Sc  Sc1  1  0.187441  0.187441  0.187441  1
  Sc  Sc2  1  0.813604  0.813604  0.813604  1
  Sc  Sc3  1  0.311347  0.311347  0.311347  1
  Al  Al4  1  0.999635  0.999635  0.999635  1
  Al  Al5  1  0.500238  0.500238  0.500238  1
  Al  Al6  1  0.752085  0.250876  0.250876  1
  Al  Al7  1  0.247611  0.749422  0.749422  1
  Al  Al8  1  0.250876  0.752085  0.250876  1
  Al  Al9  1  0.749422  0.247611  0.749422  1
  Al  Al10  1  0.250876  0.250876  0.752085  1
  Al  Al11  1  0.749422  0.749422  0.247611  1
