# generated using pymatgen
data_Ca20(Zn3Hg)3
_symmetry_space_group_name_H-M   'P 1'
_cell_length_a   7.93563400
_cell_length_b   7.93563400
_cell_length_c   15.28188300
_cell_angle_alpha   90.00000000
_cell_angle_beta   90.00000000
_cell_angle_gamma   90.00000000
_symmetry_Int_Tables_number   1
_chemical_formula_structural   Ca20(Zn3Hg)3
_chemical_formula_sum   'Ca20 Zn9 Hg3'
_cell_volume   962.36568567
_cell_formula_units_Z   1
loop_
 _symmetry_equiv_pos_site_id
 _symmetry_equiv_pos_as_xyz
  1  'x, y, z'
loop_
 _atom_site_type_symbol
 _atom_site_label
 _atom_site_symmetry_multiplicity
 _atom_site_fract_x
 _atom_site_fract_y
 _atom_site_fract_z
 _atom_site_occupancy
  Ca  Ca0  1  0.672167  0.167028  0.102440  1
  Ca  Ca1  1  0.170925  0.670011  0.604692  1
  Ca  Ca2  1  0.327833  0.832972  0.102440  1
  Ca  Ca3  1  0.829075  0.329989  0.604692  1
  Ca  Ca4  1  0.832972  0.672167  0.102440  1
  Ca  Ca5  1  0.329989  0.170925  0.604692  1
  Ca  Ca6  1  0.167028  0.327833  0.102440  1
  Ca  Ca7  1  0.670011  0.829075  0.604692  1
  Ca  Ca8  1  0.832972  0.327833  0.897560  1
  Ca  Ca9  1  0.329989  0.829075  0.395308  1
  Ca  Ca10  1  0.167028  0.672167  0.897560  1
  Ca  Ca11  1  0.670011  0.170925  0.395308  1
  Ca  Ca12  1  0.672167  0.832972  0.897560  1
  Ca  Ca13  1  0.170925  0.329989  0.395308  1
  Ca  Ca14  1  0.327833  0.167028  0.897560  1
  Ca  Ca15  1  0.829075  0.670011  0.395308  1
  Ca  Ca16  1  0.500000  0.500000  0.754965  1
  Ca  Ca17  1  0.000000  0.000000  0.249406  1
  Ca  Ca18  1  0.000000  0.000000  0.750594  1
  Ca  Ca19  1  0.500000  0.500000  0.245035  1
  Zn  Zn20  1  0.618708  0.119489  0.751608  1
  Zn  Zn21  1  0.119489  0.618708  0.248392  1
  Zn  Zn22  1  0.880511  0.381292  0.248392  1
  Zn  Zn23  1  0.381292  0.880511  0.751608  1
  Zn  Zn24  1  0.880511  0.618708  0.751608  1
  Zn  Zn25  1  0.381292  0.119489  0.248392  1
  Zn  Zn26  1  0.119489  0.381292  0.751608  1
  Zn  Zn27  1  0.618708  0.880511  0.248392  1
  Zn  Zn28  1  0.000000  0.000000  0.000000  1
  Hg  Hg29  1  0.500000  0.500000  0.500000  1
  Hg  Hg30  1  0.500000  0.500000  0.000000  1
  Hg  Hg31  1  0.000000  0.000000  0.500000  1
