# generated using pymatgen
data_YTiMn4P3
_symmetry_space_group_name_H-M   'P 1'
_cell_length_a   3.61786400
_cell_length_b   10.89611000
_cell_length_c   12.40557500
_cell_angle_alpha   90.00000000
_cell_angle_beta   90.00000000
_cell_angle_gamma   90.00000000
_symmetry_Int_Tables_number   1
_chemical_formula_structural   YTiMn4P3
_chemical_formula_sum   'Y4 Ti4 Mn16 P12'
_cell_volume   489.03575704
_cell_formula_units_Z   4
loop_
 _symmetry_equiv_pos_site_id
 _symmetry_equiv_pos_as_xyz
  1  'x, y, z'
loop_
 _atom_site_type_symbol
 _atom_site_label
 _atom_site_symmetry_multiplicity
 _atom_site_fract_x
 _atom_site_fract_y
 _atom_site_fract_z
 _atom_site_occupancy
  Y  Y0  1  0.250000  0.588167  0.708098  1
  Y  Y1  1  0.250000  0.911833  0.208098  1
  Y  Y2  1  0.750000  0.411833  0.291902  1
  Y  Y3  1  0.750000  0.088167  0.791902  1
  Ti  Ti4  1  0.250000  0.710233  0.983091  1
  Ti  Ti5  1  0.250000  0.789767  0.483091  1
  Ti  Ti6  1  0.750000  0.289767  0.016909  1
  Ti  Ti7  1  0.750000  0.210233  0.516909  1
  Mn  Mn8  1  0.250000  0.410038  0.494325  1
  Mn  Mn9  1  0.250000  0.089962  0.994325  1
  Mn  Mn10  1  0.750000  0.589962  0.505675  1
  Mn  Mn11  1  0.750000  0.910038  0.005675  1
  Mn  Mn12  1  0.250000  0.210623  0.179574  1
  Mn  Mn13  1  0.250000  0.289378  0.679574  1
  Mn  Mn14  1  0.750000  0.789378  0.820426  1
  Mn  Mn15  1  0.750000  0.710622  0.320426  1
  Mn  Mn16  1  0.250000  0.883923  0.694439  1
  Mn  Mn17  1  0.250000  0.616077  0.194439  1
  Mn  Mn18  1  0.750000  0.116077  0.305561  1
  Mn  Mn19  1  0.750000  0.383923  0.805561  1
  Mn  Mn20  1  0.250000  0.464216  0.934831  1
  Mn  Mn21  1  0.250000  0.035784  0.434831  1
  Mn  Mn22  1  0.750000  0.535784  0.065169  1
  Mn  Mn23  1  0.750000  0.964216  0.565169  1
  P  P24  1  0.250000  0.414221  0.116796  1
  P  P25  1  0.250000  0.085779  0.616796  1
  P  P26  1  0.750000  0.585779  0.883204  1
  P  P27  1  0.750000  0.914221  0.383204  1
  P  P28  1  0.250000  0.265473  0.870807  1
  P  P29  1  0.250000  0.234527  0.370807  1
  P  P30  1  0.750000  0.734527  0.129193  1
  P  P31  1  0.750000  0.765473  0.629193  1
  P  P32  1  0.250000  0.586499  0.382647  1
  P  P33  1  0.250000  0.913501  0.882647  1
  P  P34  1  0.750000  0.413501  0.617353  1
  P  P35  1  0.750000  0.086499  0.117353  1
