# generated using pymatgen
data_Tb2DyLu2Pb3
_symmetry_space_group_name_H-M   'P 1'
_cell_length_a   6.54006800
_cell_length_b   9.02866485
_cell_length_c   9.03087715
_cell_angle_alpha   119.99189384
_cell_angle_beta   89.99882560
_cell_angle_gamma   90.00234569
_symmetry_Int_Tables_number   1
_chemical_formula_structural   Tb2DyLu2Pb3
_chemical_formula_sum   'Tb4 Dy2 Lu4 Pb6'
_cell_volume   461.85093848
_cell_formula_units_Z   2
loop_
 _symmetry_equiv_pos_site_id
 _symmetry_equiv_pos_as_xyz
  1  'x, y, z'
loop_
 _atom_site_type_symbol
 _atom_site_label
 _atom_site_symmetry_multiplicity
 _atom_site_fract_x
 _atom_site_fract_y
 _atom_site_fract_z
 _atom_site_occupancy
  Tb  Tb0  1  0.750001  0.237967  0.000000  1
  Tb  Tb1  1  0.750009  0.761990  0.761908  1
  Tb  Tb2  1  0.750009  0.000084  0.238092  1
  Tb  Tb3  1  0.249998  0.762061  0.000000  1
  Dy  Dy4  1  0.250003  0.237998  0.237965  1
  Dy  Dy5  1  0.250003  0.000032  0.762035  1
  Lu  Lu6  1  0.499955  0.333293  0.666664  1
  Lu  Lu7  1  0.499955  0.666630  0.333336  1
  Lu  Lu8  1  0.000043  0.666671  0.333331  1
  Lu  Lu9  1  0.000043  0.333340  0.666669  1
  Pb  Pb10  1  0.749991  0.603748  0.000000  1
  Pb  Pb11  1  0.750003  0.396304  0.396342  1
  Pb  Pb12  1  0.750003  0.999963  0.603658  1
  Pb  Pb13  1  0.249986  0.395961  0.000000  1
  Pb  Pb14  1  0.249999  0.603794  0.603625  1
  Pb  Pb15  1  0.249999  0.000168  0.396375  1
