# generated using pymatgen
data_CaPr6RhBr12
_symmetry_space_group_name_H-M   'P 1'
_cell_length_a   9.65219903
_cell_length_b   9.65219900
_cell_length_c   9.65219750
_cell_angle_alpha   107.25557623
_cell_angle_beta   107.25558055
_cell_angle_gamma   107.25557652
_symmetry_Int_Tables_number   1
_chemical_formula_structural   CaPr6RhBr12
_chemical_formula_sum   'Ca1 Pr6 Rh1 Br12'
_cell_volume   743.61803231
_cell_formula_units_Z   1
loop_
 _symmetry_equiv_pos_site_id
 _symmetry_equiv_pos_as_xyz
  1  'x, y, z'
loop_
 _atom_site_type_symbol
 _atom_site_label
 _atom_site_symmetry_multiplicity
 _atom_site_fract_x
 _atom_site_fract_y
 _atom_site_fract_z
 _atom_site_occupancy
  Ca  Ca0  1  0.500000  0.500000  0.500000  1
  Pr  Pr1  1  0.316155  0.106365  0.022954  1
  Pr  Pr2  1  0.022954  0.316155  0.106365  1
  Pr  Pr3  1  0.106365  0.022954  0.316155  1
  Pr  Pr4  1  0.683845  0.893635  0.977046  1
  Pr  Pr5  1  0.977046  0.683845  0.893635  1
  Pr  Pr6  1  0.893635  0.977046  0.683845  1
  Rh  Rh7  1  0.000000  0.000000  0.000000  1
  Br  Br8  1  0.681905  0.219383  0.071795  1
  Br  Br9  1  0.071795  0.681905  0.219383  1
  Br  Br10  1  0.219383  0.071795  0.681905  1
  Br  Br11  1  0.318095  0.780617  0.928205  1
  Br  Br12  1  0.928205  0.318095  0.780617  1
  Br  Br13  1  0.780617  0.928205  0.318095  1
  Br  Br14  1  0.457878  0.167481  0.377523  1
  Br  Br15  1  0.377523  0.457878  0.167481  1
  Br  Br16  1  0.167481  0.377523  0.457878  1
  Br  Br17  1  0.542122  0.832519  0.622477  1
  Br  Br18  1  0.622477  0.542122  0.832519  1
  Br  Br19  1  0.832519  0.622477  0.542122  1
