# generated using pymatgen
data_Ba19SrSi11Ge
_symmetry_space_group_name_H-M   'P 1'
_cell_length_a   8.41147900
_cell_length_b   8.41147900
_cell_length_c   17.01192700
_cell_angle_alpha   90.00000000
_cell_angle_beta   90.00000000
_cell_angle_gamma   90.00000000
_symmetry_Int_Tables_number   1
_chemical_formula_structural   Ba19SrSi11Ge
_chemical_formula_sum   'Ba19 Sr1 Si11 Ge1'
_cell_volume   1203.64451323
_cell_formula_units_Z   1
loop_
 _symmetry_equiv_pos_site_id
 _symmetry_equiv_pos_as_xyz
  1  'x, y, z'
loop_
 _atom_site_type_symbol
 _atom_site_label
 _atom_site_symmetry_multiplicity
 _atom_site_fract_x
 _atom_site_fract_y
 _atom_site_fract_z
 _atom_site_occupancy
  Ba  Ba0  1  0.308125  0.672366  0.107341  1
  Ba  Ba1  1  0.172366  0.191875  0.107341  1
  Ba  Ba2  1  0.328857  0.693629  0.393445  1
  Ba  Ba3  1  0.668341  0.696212  0.890993  1
  Ba  Ba4  1  0.193629  0.171143  0.393445  1
  Ba  Ba5  1  0.671143  0.306371  0.393445  1
  Ba  Ba6  1  0.173554  0.808367  0.607933  1
  Ba  Ba7  1  0.331659  0.303788  0.890993  1
  Ba  Ba8  1  0.196212  0.831659  0.890993  1
  Ba  Ba9  1  0.500000  0.000000  0.227478  1
  Ba  Ba10  1  0.826446  0.191633  0.607933  1
  Ba  Ba11  1  0.308367  0.326446  0.607933  1
  Ba  Ba12  1  0.806371  0.828857  0.393445  1
  Ba  Ba13  1  0.803788  0.168341  0.890993  1
  Ba  Ba14  1  0.827634  0.808125  0.107341  1
  Ba  Ba15  1  0.000000  0.500000  0.273228  1
  Ba  Ba16  1  0.000000  0.500000  0.772682  1
  Ba  Ba17  1  0.691875  0.327634  0.107341  1
  Ba  Ba18  1  0.691633  0.673554  0.607933  1
  Sr  Sr19  1  0.500000  0.000000  0.726557  1
  Si  Si20  1  0.104920  0.100363  0.749398  1
  Si  Si21  1  0.399637  0.604920  0.749398  1
  Si  Si22  1  0.601577  0.601480  0.250284  1
  Si  Si23  1  0.500000  0.000000  0.015642  1
  Si  Si24  1  0.101480  0.898423  0.250284  1
  Si  Si25  1  0.600363  0.395080  0.749398  1
  Si  Si26  1  0.895080  0.899637  0.749398  1
  Si  Si27  1  0.398423  0.398520  0.250284  1
  Si  Si28  1  0.898520  0.101577  0.250284  1
  Si  Si29  1  0.500000  0.000000  0.516037  1
  Si  Si30  1  0.000000  0.500000  0.484654  1
  Ge  Ge31  1  0.000000  0.500000  0.986152  1
