# generated using pymatgen
data_HgAs2F12
_symmetry_space_group_name_H-M   'P 1'
_cell_length_a   9.76494470
_cell_length_b   9.76494490
_cell_length_c   9.76494429
_cell_angle_alpha   131.14582148
_cell_angle_beta   131.14582293
_cell_angle_gamma   71.58149612
_symmetry_Int_Tables_number   1
_chemical_formula_structural   HgAs2F12
_chemical_formula_sum   'Hg2 As4 F24'
_cell_volume   516.65350021
_cell_formula_units_Z   2
loop_
 _symmetry_equiv_pos_site_id
 _symmetry_equiv_pos_as_xyz
  1  'x, y, z'
loop_
 _atom_site_type_symbol
 _atom_site_label
 _atom_site_symmetry_multiplicity
 _atom_site_fract_x
 _atom_site_fract_y
 _atom_site_fract_z
 _atom_site_occupancy
  Hg  Hg0  1  0.750000  0.250000  0.500000  1
  Hg  Hg1  1  0.000000  0.000000  0.000000  1
  As  As2  1  0.779091  0.779091  0.000000  1
  As  As3  1  0.220909  0.220909  0.000000  1
  As  As4  1  0.970909  0.470909  0.500000  1
  As  As5  1  0.529091  0.029091  0.500000  1
  F  F6  1  0.858244  0.746945  0.194227  1
  F  F7  1  0.552717  0.664017  0.805773  1
  F  F8  1  0.414017  0.802717  0.305773  1
  F  F9  1  0.335983  0.141756  0.888700  1
  F  F10  1  0.253055  0.447283  0.111300  1
  F  F11  1  0.197283  0.503055  0.611300  1
  F  F12  1  0.651561  0.259319  0.683273  1
  F  F13  1  0.740681  0.423954  0.392242  1
  F  F14  1  0.031713  0.348439  0.607758  1
  F  F15  1  0.098439  0.281713  0.107758  1
  F  F16  1  0.173954  0.990681  0.892242  1
  F  F17  1  0.576046  0.968287  0.316727  1
  F  F18  1  0.718287  0.826046  0.816727  1
  F  F19  1  0.009319  0.901561  0.183273  1
  F  F20  1  0.318520  0.093448  0.344769  1
  F  F21  1  0.906552  0.251321  0.225072  1
  F  F22  1  0.026249  0.681480  0.774928  1
  F  F23  1  0.431480  0.276249  0.274928  1
  F  F24  1  0.001321  0.156552  0.725072  1
  F  F25  1  0.748679  0.973751  0.655231  1
  F  F26  1  0.723751  0.998679  0.155231  1
  F  F27  1  0.843448  0.568520  0.844769  1
  F  F28  1  0.496945  0.108244  0.694227  1
  F  F29  1  0.891756  0.585983  0.388700  1
