# generated using pymatgen
data_TmLu7Re3B24Ru
_symmetry_space_group_name_H-M   'P 1'
_cell_length_a   3.61637100
_cell_length_b   9.05820044
_cell_length_c   11.41665700
_cell_angle_alpha   90.10487481
_cell_angle_beta   90.00000000
_cell_angle_gamma   90.00000000
_symmetry_Int_Tables_number   1
_chemical_formula_structural   TmLu7Re3B24Ru
_chemical_formula_sum   'Tm1 Lu7 Re3 B24 Ru1'
_cell_volume   373.98409319
_cell_formula_units_Z   1
loop_
 _symmetry_equiv_pos_site_id
 _symmetry_equiv_pos_as_xyz
  1  'x, y, z'
loop_
 _atom_site_type_symbol
 _atom_site_label
 _atom_site_symmetry_multiplicity
 _atom_site_fract_x
 _atom_site_fract_y
 _atom_site_fract_z
 _atom_site_occupancy
  Tm  Tm0  1  0.000000  0.321203  0.414074  1
  Lu  Lu1  1  0.000000  0.677884  0.587839  1
  Lu  Lu2  1  0.000000  0.824288  0.084121  1
  Lu  Lu3  1  0.000000  0.177194  0.913656  1
  Lu  Lu4  1  0.000000  0.942055  0.370177  1
  Lu  Lu5  1  0.000000  0.055907  0.628973  1
  Lu  Lu6  1  0.000000  0.443495  0.129835  1
  Lu  Lu7  1  0.000000  0.556637  0.871444  1
  Re  Re8  1  0.000000  0.361743  0.678620  1
  Re  Re9  1  0.000000  0.138513  0.179640  1
  Re  Re10  1  0.000000  0.861358  0.820698  1
  B  B11  1  0.500000  0.554114  0.433335  1
  B  B12  1  0.500000  0.447465  0.566161  1
  B  B13  1  0.500000  0.052999  0.066059  1
  B  B14  1  0.500000  0.947268  0.933620  1
  B  B15  1  0.500000  0.749784  0.419420  1
  B  B16  1  0.500000  0.249076  0.580499  1
  B  B17  1  0.500000  0.250800  0.080301  1
  B  B18  1  0.500000  0.749955  0.919790  1
  B  B19  1  0.500000  0.792146  0.264831  1
  B  B20  1  0.500000  0.206659  0.734972  1
  B  B21  1  0.500000  0.293187  0.235361  1
  B  B22  1  0.500000  0.706640  0.765266  1
  B  B23  1  0.500000  0.631363  0.184576  1
  B  B24  1  0.500000  0.369678  0.815376  1
  B  B25  1  0.500000  0.130482  0.315903  1
  B  B26  1  0.500000  0.868975  0.684383  1
  B  B27  1  0.500000  0.980762  0.211930  1
  B  B28  1  0.500000  0.018999  0.787644  1
  B  B29  1  0.500000  0.482746  0.287916  1
  B  B30  1  0.500000  0.519533  0.712174  1
  B  B31  1  0.500000  0.601145  0.028618  1
  B  B32  1  0.500000  0.399553  0.972404  1
  B  B33  1  0.500000  0.099054  0.471966  1
  B  B34  1  0.500000  0.898319  0.527782  1
  Ru  Ru35  1  0.000000  0.639026  0.320637  1
