# generated using pymatgen
data_Rb5Nb2S4Cl9
_symmetry_space_group_name_H-M   'P 1'
_cell_length_a   7.24721943
_cell_length_b   10.12345186
_cell_length_c   10.22694681
_cell_angle_alpha   119.66580315
_cell_angle_beta   110.75176455
_cell_angle_gamma   89.99999802
_symmetry_Int_Tables_number   1
_chemical_formula_structural   Rb5Nb2S4Cl9
_chemical_formula_sum   'Rb5 Nb2 S4 Cl9'
_cell_volume   595.30707268
_cell_formula_units_Z   1
loop_
 _symmetry_equiv_pos_site_id
 _symmetry_equiv_pos_as_xyz
  1  'x, y, z'
loop_
 _atom_site_type_symbol
 _atom_site_label
 _atom_site_symmetry_multiplicity
 _atom_site_fract_x
 _atom_site_fract_y
 _atom_site_fract_z
 _atom_site_occupancy
  Rb  Rb0  1  0.000000  0.500000  0.000000  1
  Rb  Rb1  1  0.666550  0.445609  0.333101  1
  Rb  Rb2  1  0.666550  0.887492  0.333101  1
  Rb  Rb3  1  0.333449  0.112508  0.666899  1
  Rb  Rb4  1  0.333449  0.554391  0.666899  1
  Nb  Nb5  1  0.090496  0.090496  0.180993  1
  Nb  Nb6  1  0.909504  0.909504  0.819008  1
  S  S7  1  0.245877  0.099498  0.000000  1
  S  S8  1  0.754123  0.099498  0.000000  1
  S  S9  1  0.245877  0.900502  0.000000  1
  S  S10  1  0.754123  0.900502  0.000000  1
  Cl  Cl11  1  0.500000  0.500000  0.000000  1
  Cl  Cl12  1  0.131134  0.384143  0.262270  1
  Cl  Cl13  1  0.131134  0.878127  0.262270  1
  Cl  Cl14  1  0.445609  0.206178  0.412357  1
  Cl  Cl15  1  0.966748  0.206178  0.412357  1
  Cl  Cl16  1  0.033252  0.793822  0.587642  1
  Cl  Cl17  1  0.554390  0.793822  0.587642  1
  Cl  Cl18  1  0.868865  0.121873  0.737729  1
  Cl  Cl19  1  0.868865  0.615857  0.737729  1
