# generated using pymatgen
data_Yb12Si3Ge5Pt8
_symmetry_space_group_name_H-M   'P 1'
_cell_length_a   5.56889500
_cell_length_b   8.09876237
_cell_length_c   13.35291700
_cell_angle_alpha   89.87467276
_cell_angle_beta   90.00000000
_cell_angle_gamma   90.00000000
_symmetry_Int_Tables_number   1
_chemical_formula_structural   Yb12Si3Ge5Pt8
_chemical_formula_sum   'Yb12 Si3 Ge5 Pt8'
_cell_volume   602.23056924
_cell_formula_units_Z   1
loop_
 _symmetry_equiv_pos_site_id
 _symmetry_equiv_pos_as_xyz
  1  'x, y, z'
loop_
 _atom_site_type_symbol
 _atom_site_label
 _atom_site_symmetry_multiplicity
 _atom_site_fract_x
 _atom_site_fract_y
 _atom_site_fract_z
 _atom_site_occupancy
  Yb  Yb0  1  0.638387  0.249215  0.250044  1
  Yb  Yb1  1  0.360115  0.749990  0.749197  1
  Yb  Yb2  1  0.360115  0.750010  0.250803  1
  Yb  Yb3  1  0.638387  0.250785  0.749956  1
  Yb  Yb4  1  0.141019  0.388312  0.101811  1
  Yb  Yb5  1  0.859964  0.609743  0.897237  1
  Yb  Yb6  1  0.863578  0.611048  0.602171  1
  Yb  Yb7  1  0.863578  0.888952  0.397829  1
  Yb  Yb8  1  0.137549  0.388571  0.397426  1
  Yb  Yb9  1  0.137549  0.111429  0.602574  1
  Yb  Yb10  1  0.141019  0.111688  0.898189  1
  Yb  Yb11  1  0.859964  0.890257  0.102763  1
  Si  Si12  1  0.383252  0.750000  0.000000  1
  Si  Si13  1  0.390619  0.750000  0.500000  1
  Si  Si14  1  0.609372  0.250000  0.500000  1
  Ge  Ge15  1  0.143996  0.101844  0.250097  1
  Ge  Ge16  1  0.856759  0.899643  0.749188  1
  Ge  Ge17  1  0.856759  0.600357  0.250812  1
  Ge  Ge18  1  0.143996  0.398156  0.749903  1
  Ge  Ge19  1  0.631262  0.250000  0.000000  1
  Pt  Pt20  1  0.366695  0.021005  0.089066  1
  Pt  Pt21  1  0.623964  0.959937  0.908622  1
  Pt  Pt22  1  0.629122  0.971610  0.588311  1
  Pt  Pt23  1  0.629122  0.528390  0.411689  1
  Pt  Pt24  1  0.371600  0.027953  0.411436  1
  Pt  Pt25  1  0.371600  0.472047  0.588564  1
  Pt  Pt26  1  0.366695  0.478995  0.910934  1
  Pt  Pt27  1  0.623964  0.540063  0.091378  1
