# generated using pymatgen
data_Tb8Y11ErSn16
_symmetry_space_group_name_H-M   'P 1'
_cell_length_a   8.04983900
_cell_length_b   8.19891514
_cell_length_c   15.50223400
_cell_angle_alpha   90.00000000
_cell_angle_beta   90.00000000
_cell_angle_gamma   89.95858784
_symmetry_Int_Tables_number   1
_chemical_formula_structural   Tb8Y11ErSn16
_chemical_formula_sum   'Tb8 Y11 Er1 Sn16'
_cell_volume   1023.14635303
_cell_formula_units_Z   1
loop_
 _symmetry_equiv_pos_site_id
 _symmetry_equiv_pos_as_xyz
  1  'x, y, z'
loop_
 _atom_site_type_symbol
 _atom_site_label
 _atom_site_symmetry_multiplicity
 _atom_site_fract_x
 _atom_site_fract_y
 _atom_site_fract_z
 _atom_site_occupancy
  Tb  Tb0  1  0.519974  0.320851  0.902087  1
  Tb  Tb1  1  0.020366  0.179804  0.597875  1
  Tb  Tb2  1  0.479956  0.679589  0.402510  1
  Tb  Tb3  1  0.979875  0.820400  0.097649  1
  Tb  Tb4  1  0.479956  0.679589  0.097490  1
  Tb  Tb5  1  0.979875  0.820400  0.402351  1
  Tb  Tb6  1  0.519974  0.320851  0.597913  1
  Tb  Tb7  1  0.020366  0.179804  0.902125  1
  Y  Y8  1  0.367145  0.835691  0.877827  1
  Y  Y9  1  0.868469  0.663662  0.622245  1
  Y  Y10  1  0.632498  0.164029  0.378288  1
  Y  Y11  1  0.132257  0.335915  0.121462  1
  Y  Y12  1  0.632498  0.164029  0.121712  1
  Y  Y13  1  0.132257  0.335915  0.378538  1
  Y  Y14  1  0.367145  0.835691  0.622173  1
  Y  Y15  1  0.868469  0.663662  0.877755  1
  Y  Y16  1  0.698417  0.998117  0.750000  1
  Y  Y17  1  0.800735  0.497913  0.250000  1
  Y  Y18  1  0.301020  0.002170  0.250000  1
  Er  Er19  1  0.199223  0.502705  0.750000  1
  Sn  Sn20  1  0.293109  0.035733  0.041662  1
  Sn  Sn21  1  0.792887  0.463975  0.458367  1
  Sn  Sn22  1  0.706997  0.964025  0.541743  1
  Sn  Sn23  1  0.207090  0.535566  0.957731  1
  Sn  Sn24  1  0.706997  0.964025  0.958257  1
  Sn  Sn25  1  0.207090  0.535566  0.542269  1
  Sn  Sn26  1  0.293109  0.035733  0.458338  1
  Sn  Sn27  1  0.792887  0.463975  0.041633  1
  Sn  Sn28  1  0.564936  0.618200  0.750000  1
  Sn  Sn29  1  0.065329  0.881268  0.750000  1
  Sn  Sn30  1  0.434247  0.381115  0.250000  1
  Sn  Sn31  1  0.934714  0.118873  0.250000  1
  Sn  Sn32  1  0.328309  0.147648  0.750000  1
  Sn  Sn33  1  0.829681  0.353598  0.750000  1
  Sn  Sn34  1  0.670982  0.853755  0.250000  1
  Sn  Sn35  1  0.171160  0.646160  0.250000  1
