# generated using pymatgen
data_Dy3ErAl18ZnRh5
_symmetry_space_group_name_H-M   'P 1'
_cell_length_a   7.58078614
_cell_length_b   7.58129434
_cell_length_c   9.44224750
_cell_angle_alpha   89.98361114
_cell_angle_beta   90.00784848
_cell_angle_gamma   119.49202997
_symmetry_Int_Tables_number   1
_chemical_formula_structural   Dy3ErAl18ZnRh5
_chemical_formula_sum   'Dy3 Er1 Al18 Zn1 Rh5'
_cell_volume   472.34999447
_cell_formula_units_Z   1
loop_
 _symmetry_equiv_pos_site_id
 _symmetry_equiv_pos_as_xyz
  1  'x, y, z'
loop_
 _atom_site_type_symbol
 _atom_site_label
 _atom_site_symmetry_multiplicity
 _atom_site_fract_x
 _atom_site_fract_y
 _atom_site_fract_z
 _atom_site_occupancy
  Dy  Dy0  1  0.995320  0.675453  0.749179  1
  Dy  Dy1  1  0.004664  0.324482  0.250826  1
  Dy  Dy2  1  0.675382  0.995354  0.749192  1
  Er  Er3  1  0.324525  0.004586  0.250653  1
  Al  Al4  1  0.135068  0.135042  0.756887  1
  Al  Al5  1  0.865253  0.865084  0.243144  1
  Al  Al6  1  0.001895  0.344507  0.579701  1
  Al  Al7  1  0.998369  0.655821  0.420148  1
  Al  Al8  1  0.001426  0.664555  0.073053  1
  Al  Al9  1  0.335757  0.998850  0.927384  1
  Al  Al10  1  0.998845  0.335723  0.927137  1
  Al  Al11  1  0.664012  0.001143  0.072996  1
  Al  Al12  1  0.655225  0.998121  0.420124  1
  Al  Al13  1  0.344457  0.001890  0.579475  1
  Al  Al14  1  0.332531  0.332298  0.051369  1
  Al  Al15  1  0.667478  0.667469  0.948812  1
  Al  Al16  1  0.658553  0.658529  0.557341  1
  Al  Al17  1  0.341437  0.341199  0.442482  1
  Al  Al18  1  0.339105  0.551962  0.751566  1
  Al  Al19  1  0.660665  0.447725  0.248436  1
  Al  Al20  1  0.551956  0.339094  0.751552  1
  Al  Al21  1  0.447986  0.661095  0.248444  1
  Zn  Zn22  1  0.000042  0.999978  0.499977  1
  Rh  Rh23  1  0.671978  0.327899  0.499876  1
  Rh  Rh24  1  0.327976  0.672128  0.499877  1
  Rh  Rh25  1  0.328289  0.671669  0.000107  1
  Rh  Rh26  1  0.671649  0.328313  0.000133  1
  Rh  Rh27  1  0.000156  0.000031  0.000128  1
