# generated using pymatgen
data_Ba6LaEr(BO3)6
_symmetry_space_group_name_H-M   'P 1'
_cell_length_a   8.30590753
_cell_length_b   8.30590785
_cell_length_c   8.30590798
_cell_angle_alpha   105.62738081
_cell_angle_beta   105.62739017
_cell_angle_gamma   105.62739769
_symmetry_Int_Tables_number   1
_chemical_formula_structural   Ba6LaEr(BO3)6
_chemical_formula_sum   'Ba6 La1 Er1 B6 O18'
_cell_volume   493.98790773
_cell_formula_units_Z   1
loop_
 _symmetry_equiv_pos_site_id
 _symmetry_equiv_pos_as_xyz
  1  'x, y, z'
loop_
 _atom_site_type_symbol
 _atom_site_label
 _atom_site_symmetry_multiplicity
 _atom_site_fract_x
 _atom_site_fract_y
 _atom_site_fract_z
 _atom_site_occupancy
  Ba  Ba0  1  0.355465  0.730982  0.846867  1
  Ba  Ba1  1  0.846867  0.355465  0.730982  1
  Ba  Ba2  1  0.730982  0.846867  0.355465  1
  Ba  Ba3  1  0.644535  0.269018  0.153133  1
  Ba  Ba4  1  0.153133  0.644535  0.269018  1
  Ba  Ba5  1  0.269018  0.153133  0.644535  1
  La  La6  1  0.000000  0.000000  0.000000  1
  Er  Er7  1  0.500000  0.500000  0.500000  1
  B  B8  1  0.706752  0.614262  0.952837  1
  B  B9  1  0.952837  0.706752  0.614262  1
  B  B10  1  0.614262  0.952837  0.706752  1
  B  B11  1  0.047163  0.293248  0.385738  1
  B  B12  1  0.385738  0.047163  0.293248  1
  B  B13  1  0.293248  0.385738  0.047163  1
  O  O14  1  0.050044  0.804623  0.538775  1
  O  O15  1  0.538775  0.050044  0.804623  1
  O  O16  1  0.427553  0.493180  0.217275  1
  O  O17  1  0.493180  0.217275  0.427553  1
  O  O18  1  0.217275  0.427553  0.493180  1
  O  O19  1  0.782725  0.572447  0.506820  1
  O  O20  1  0.572447  0.506820  0.782725  1
  O  O21  1  0.506820  0.782725  0.572447  1
  O  O22  1  0.264186  0.202488  0.979808  1
  O  O23  1  0.202488  0.979808  0.264186  1
  O  O24  1  0.979808  0.264186  0.202488  1
  O  O25  1  0.735814  0.797512  0.020192  1
  O  O26  1  0.797512  0.020192  0.735814  1
  O  O27  1  0.020192  0.735814  0.797512  1
  O  O28  1  0.195377  0.461225  0.949956  1
  O  O29  1  0.461225  0.949956  0.195377  1
  O  O30  1  0.949956  0.195377  0.461225  1
  O  O31  1  0.804623  0.538775  0.050044  1
