# generated using pymatgen
data_Eu5Y3Cu3Si12Pd
_symmetry_space_group_name_H-M   'P 1'
_cell_length_a   8.16642226
_cell_length_b   8.16642210
_cell_length_c   8.42955502
_cell_angle_alpha   90.00697057
_cell_angle_beta   89.99302795
_cell_angle_gamma   120.15268570
_symmetry_Int_Tables_number   1
_chemical_formula_structural   Eu5Y3Cu3Si12Pd
_chemical_formula_sum   'Eu5 Y3 Cu3 Si12 Pd1'
_cell_volume   486.10343047
_cell_formula_units_Z   1
loop_
 _symmetry_equiv_pos_site_id
 _symmetry_equiv_pos_as_xyz
  1  'x, y, z'
loop_
 _atom_site_type_symbol
 _atom_site_label
 _atom_site_symmetry_multiplicity
 _atom_site_fract_x
 _atom_site_fract_y
 _atom_site_fract_z
 _atom_site_occupancy
  Eu  Eu0  1  0.500260  0.000656  0.250649  1
  Eu  Eu1  1  0.499722  0.999510  0.749330  1
  Eu  Eu2  1  0.999344  0.499740  0.250649  1
  Eu  Eu3  1  0.000490  0.500278  0.749330  1
  Eu  Eu4  1  0.500241  0.499759  0.250901  1
  Y  Y5  1  0.499618  0.500382  0.748751  1
  Y  Y6  1  0.999827  0.000173  0.249790  1
  Y  Y7  1  0.000098  0.999902  0.750295  1
  Cu  Cu8  1  0.333941  0.666059  0.998706  1
  Cu  Cu9  1  0.665991  0.334009  0.995172  1
  Cu  Cu10  1  0.665903  0.334097  0.504676  1
  Si  Si11  1  0.168562  0.335339  0.997796  1
  Si  Si12  1  0.831957  0.665810  0.998141  1
  Si  Si13  1  0.664661  0.831438  0.997796  1
  Si  Si14  1  0.832393  0.666089  0.502236  1
  Si  Si15  1  0.334190  0.168043  0.998141  1
  Si  Si16  1  0.164806  0.328214  0.502145  1
  Si  Si17  1  0.167233  0.832767  0.998595  1
  Si  Si18  1  0.333911  0.167607  0.502236  1
  Si  Si19  1  0.833193  0.166807  0.999195  1
  Si  Si20  1  0.671786  0.835194  0.502145  1
  Si  Si21  1  0.833319  0.166681  0.501547  1
  Si  Si22  1  0.164284  0.835716  0.499756  1
  Pd  Pd23  1  0.334275  0.665725  0.502021  1
