# generated using pymatgen
data_Yb2Pr8TlSi5
_symmetry_space_group_name_H-M   'P 1'
_cell_length_a   7.84749183
_cell_length_b   7.84749170
_cell_length_c   9.16113200
_cell_angle_alpha   115.35995895
_cell_angle_beta   115.35995847
_cell_angle_gamma   90.00000146
_symmetry_Int_Tables_number   1
_chemical_formula_structural   Yb2Pr8TlSi5
_chemical_formula_sum   'Yb2 Pr8 Tl1 Si5'
_cell_volume   448.90153323
_cell_formula_units_Z   1
loop_
 _symmetry_equiv_pos_site_id
 _symmetry_equiv_pos_as_xyz
  1  'x, y, z'
loop_
 _atom_site_type_symbol
 _atom_site_label
 _atom_site_symmetry_multiplicity
 _atom_site_fract_x
 _atom_site_fract_y
 _atom_site_fract_z
 _atom_site_occupancy
  Yb  Yb0  1  0.510132  0.510132  0.020265  1
  Yb  Yb1  1  0.989868  0.989868  0.979735  1
  Pr  Pr2  1  0.970992  0.828057  0.282830  1
  Pr  Pr3  1  0.311839  0.454772  0.282830  1
  Pr  Pr4  1  0.828057  0.311839  0.282830  1
  Pr  Pr5  1  0.454772  0.970992  0.282830  1
  Pr  Pr6  1  0.045228  0.188161  0.717170  1
  Pr  Pr7  1  0.671943  0.529008  0.717170  1
  Pr  Pr8  1  0.188161  0.671943  0.717170  1
  Pr  Pr9  1  0.529008  0.045228  0.717170  1
  Tl  Tl10  1  0.750000  0.750000  0.500000  1
  Si  Si11  1  0.250000  0.250000  0.500000  1
  Si  Si12  1  0.612688  0.887312  0.000000  1
  Si  Si13  1  0.387312  0.112688  0.000000  1
  Si  Si14  1  0.887312  0.387312  0.000000  1
  Si  Si15  1  0.112688  0.612688  0.000000  1
