# generated using pymatgen
data_Tb3Pr2Nd3Au4
_symmetry_space_group_name_H-M   'P 1'
_cell_length_a   5.05835900
_cell_length_b   7.33108507
_cell_length_c   9.20172391
_cell_angle_alpha   90.05104816
_cell_angle_beta   90.00000000
_cell_angle_gamma   90.00000000
_symmetry_Int_Tables_number   1
_chemical_formula_structural   Tb3Pr2Nd3Au4
_chemical_formula_sum   'Tb3 Pr2 Nd3 Au4'
_cell_volume   341.22978646
_cell_formula_units_Z   1
loop_
 _symmetry_equiv_pos_site_id
 _symmetry_equiv_pos_as_xyz
  1  'x, y, z'
loop_
 _atom_site_type_symbol
 _atom_site_label
 _atom_site_symmetry_multiplicity
 _atom_site_fract_x
 _atom_site_fract_y
 _atom_site_fract_z
 _atom_site_occupancy
  Tb  Tb0  1  0.250000  0.850827  0.917826  1
  Tb  Tb1  1  0.250000  0.349433  0.585475  1
  Tb  Tb2  1  0.750000  0.151076  0.081364  1
  Pr  Pr3  1  0.250000  0.490862  0.176974  1
  Pr  Pr4  1  0.250000  0.993928  0.324224  1
  Nd  Nd5  1  0.750000  0.651482  0.414499  1
  Nd  Nd6  1  0.750000  0.508399  0.822862  1
  Nd  Nd7  1  0.750000  0.009069  0.678338  1
  Au  Au8  1  0.250000  0.246819  0.902140  1
  Au  Au9  1  0.250000  0.748131  0.604485  1
  Au  Au10  1  0.750000  0.754588  0.088454  1
  Au  Au11  1  0.750000  0.245389  0.403360  1
