# generated using pymatgen
data_Yb3Tm(ReB4)4
_symmetry_space_group_name_H-M   'P 1'
_cell_length_a   3.57170600
_cell_length_b   5.97592453
_cell_length_c   11.55439996
_cell_angle_alpha   90.08204513
_cell_angle_beta   90.00000000
_cell_angle_gamma   90.00000000
_symmetry_Int_Tables_number   1
_chemical_formula_structural   Yb3Tm(ReB4)4
_chemical_formula_sum   'Yb3 Tm1 Re4 B16'
_cell_volume   246.61969660
_cell_formula_units_Z   1
loop_
 _symmetry_equiv_pos_site_id
 _symmetry_equiv_pos_as_xyz
  1  'x, y, z'
loop_
 _atom_site_type_symbol
 _atom_site_label
 _atom_site_symmetry_multiplicity
 _atom_site_fract_x
 _atom_site_fract_y
 _atom_site_fract_z
 _atom_site_occupancy
  Yb  Yb0  1  0.500000  0.628808  0.848632  1
  Yb  Yb1  1  0.500000  0.128520  0.649879  1
  Yb  Yb2  1  0.500000  0.872324  0.351238  1
  Tm  Tm3  1  0.500000  0.371709  0.150450  1
  Re  Re4  1  0.500000  0.369696  0.415028  1
  Re  Re5  1  0.500000  0.631256  0.583425  1
  Re  Re6  1  0.500000  0.132163  0.916926  1
  Re  Re7  1  0.500000  0.869510  0.085468  1
  B  B8  1  0.000000  0.113732  0.048184  1
  B  B9  1  0.000000  0.885359  0.952606  1
  B  B10  1  0.000000  0.385071  0.546937  1
  B  B11  1  0.000000  0.614272  0.451752  1
  B  B12  1  0.000000  0.134407  0.467608  1
  B  B13  1  0.000000  0.865098  0.531887  1
  B  B14  1  0.000000  0.364873  0.968527  1
  B  B15  1  0.000000  0.635118  0.031880  1
  B  B16  1  0.000000  0.023963  0.193086  1
  B  B17  1  0.000000  0.976607  0.807837  1
  B  B18  1  0.000000  0.476261  0.692257  1
  B  B19  1  0.000000  0.523752  0.306738  1
  B  B20  1  0.000000  0.213916  0.314705  1
  B  B21  1  0.000000  0.784874  0.684771  1
  B  B22  1  0.000000  0.284083  0.814974  1
  B  B23  1  0.000000  0.714627  0.185205  1
