# generated using pymatgen
data_Tb5Y(ErIn4)2
_symmetry_space_group_name_H-M   'P 1'
_cell_length_a   6.53338819
_cell_length_b   6.53338865
_cell_length_c   10.21078700
_cell_angle_alpha   90.00000000
_cell_angle_beta   90.00000000
_cell_angle_gamma   101.44486491
_symmetry_Int_Tables_number   1
_chemical_formula_structural   Tb5Y(ErIn4)2
_chemical_formula_sum   'Tb5 Y1 Er2 In8'
_cell_volume   427.18274026
_cell_formula_units_Z   1
loop_
 _symmetry_equiv_pos_site_id
 _symmetry_equiv_pos_as_xyz
  1  'x, y, z'
loop_
 _atom_site_type_symbol
 _atom_site_label
 _atom_site_symmetry_multiplicity
 _atom_site_fract_x
 _atom_site_fract_y
 _atom_site_fract_z
 _atom_site_occupancy
  Tb  Tb0  1  0.527575  0.527575  0.250000  1
  Tb  Tb1  1  0.246747  0.753280  0.499946  1
  Tb  Tb2  1  0.246747  0.753280  0.000054  1
  Tb  Tb3  1  0.753280  0.246747  0.499946  1
  Tb  Tb4  1  0.753280  0.246747  0.000054  1
  Y  Y5  1  0.472711  0.472711  0.750000  1
  Er  Er6  1  0.981549  0.981549  0.250000  1
  Er  Er7  1  0.018488  0.018488  0.750000  1
  In  In8  1  0.251854  0.251854  0.016186  1
  In  In9  1  0.748037  0.748037  0.983730  1
  In  In10  1  0.251854  0.251854  0.483814  1
  In  In11  1  0.748037  0.748037  0.516270  1
  In  In12  1  0.486602  0.018369  0.250000  1
  In  In13  1  0.981584  0.513285  0.750000  1
  In  In14  1  0.513285  0.981584  0.750000  1
  In  In15  1  0.018369  0.486602  0.250000  1
