# generated using pymatgen
data_HgRh2(SeO3)4
_symmetry_space_group_name_H-M   'P 1'
_cell_length_a   6.94540858
_cell_length_b   9.27273651
_cell_length_c   8.99182735
_cell_angle_alpha   70.22919464
_cell_angle_beta   97.29250403
_cell_angle_gamma   90.01086526
_symmetry_Int_Tables_number   1
_chemical_formula_structural   HgRh2(SeO3)4
_chemical_formula_sum   'Hg2 Rh4 Se8 O24'
_cell_volume   539.98877035
_cell_formula_units_Z   2
loop_
 _symmetry_equiv_pos_site_id
 _symmetry_equiv_pos_as_xyz
  1  'x, y, z'
loop_
 _atom_site_type_symbol
 _atom_site_label
 _atom_site_symmetry_multiplicity
 _atom_site_fract_x
 _atom_site_fract_y
 _atom_site_fract_z
 _atom_site_occupancy
  Hg  Hg0  1  0.011154  0.540119  0.474555  1
  Hg  Hg1  1  0.011123  0.040077  0.974583  1
  Rh  Rh2  1  0.000282  0.749204  0.751035  1
  Rh  Rh3  1  0.499863  0.749203  0.250310  1
  Rh  Rh4  1  0.000280  0.249217  0.251078  1
  Rh  Rh5  1  0.499823  0.249146  0.750345  1
  Se  Se6  1  0.555174  0.121754  0.132565  1
  Se  Se7  1  0.555156  0.621728  0.632531  1
  Se  Se8  1  0.445637  0.876591  0.869700  1
  Se  Se9  1  0.445643  0.376635  0.369719  1
  Se  Se10  1  0.802175  0.093406  0.579659  1
  Se  Se11  1  0.802180  0.593403  0.079657  1
  Se  Se12  1  0.195226  0.909737  0.417947  1
  Se  Se13  1  0.195207  0.409716  0.917941  1
  O  O14  1  0.705250  0.734477  0.711144  1
  O  O15  1  0.705290  0.234486  0.211182  1
  O  O16  1  0.295546  0.264474  0.289616  1
  O  O17  1  0.295508  0.764451  0.789594  1
  O  O18  1  0.002018  0.173803  0.491763  1
  O  O19  1  0.002016  0.673761  0.991721  1
  O  O20  1  0.000964  0.817681  0.509651  1
  O  O21  1  0.000948  0.317705  0.009691  1
  O  O22  1  0.660437  0.610284  0.464815  1
  O  O23  1  0.660430  0.110287  0.964845  1
  O  O24  1  0.337951  0.389326  0.534863  1
  O  O25  1  0.337959  0.889329  0.034837  1
  O  O26  1  0.929922  0.961575  0.759190  1
  O  O27  1  0.929910  0.461584  0.259192  1
  O  O28  1  0.062314  0.037012  0.240080  1
  O  O29  1  0.062296  0.536993  0.740077  1
  O  O30  1  0.612210  0.944077  0.278691  1
  O  O31  1  0.612142  0.444048  0.778685  1
  O  O32  1  0.386215  0.054449  0.723544  1
  O  O33  1  0.386217  0.554496  0.223557  1
  O  O34  1  0.752392  0.234815  0.658227  1
  O  O35  1  0.752430  0.734869  0.158161  1
  O  O36  1  0.251281  0.762677  0.348494  1
  O  O37  1  0.251229  0.262604  0.848550  1
