# generated using pymatgen
data_SrHf4V6O24
_symmetry_space_group_name_H-M   'P 1'
_cell_length_a   9.36959310
_cell_length_b   9.36959177
_cell_length_c   9.66311829
_cell_angle_alpha   60.99983992
_cell_angle_beta   60.99983417
_cell_angle_gamma   60.00000173
_symmetry_Int_Tables_number   1
_chemical_formula_structural   SrHf4V6O24
_chemical_formula_sum   'Sr1 Hf4 V6 O24'
_cell_volume   608.75743369
_cell_formula_units_Z   1
loop_
 _symmetry_equiv_pos_site_id
 _symmetry_equiv_pos_as_xyz
  1  'x, y, z'
loop_
 _atom_site_type_symbol
 _atom_site_label
 _atom_site_symmetry_multiplicity
 _atom_site_fract_x
 _atom_site_fract_y
 _atom_site_fract_z
 _atom_site_occupancy
  Sr  Sr0  1  0.500000  0.500000  0.500000  1
  Hf  Hf1  1  0.140658  0.140658  0.578024  1
  Hf  Hf2  1  0.859342  0.859342  0.421976  1
  Hf  Hf3  1  0.644349  0.644349  0.066956  1
  Hf  Hf4  1  0.355651  0.355651  0.933044  1
  V  V5  1  0.962328  0.255232  0.252193  1
  V  V6  1  0.255232  0.530246  0.252193  1
  V  V7  1  0.530246  0.962328  0.252193  1
  V  V8  1  0.037672  0.744768  0.747807  1
  V  V9  1  0.744768  0.469754  0.747807  1
  V  V10  1  0.469754  0.037672  0.747807  1
  O  O11  1  0.996121  0.241075  0.418843  1
  O  O12  1  0.241075  0.343962  0.418843  1
  O  O13  1  0.343962  0.996121  0.418843  1
  O  O14  1  0.003879  0.758925  0.581157  1
  O  O15  1  0.758925  0.656038  0.581157  1
  O  O16  1  0.656038  0.003879  0.581157  1
  O  O17  1  0.504099  0.871123  0.930159  1
  O  O18  1  0.871123  0.694622  0.930159  1
  O  O19  1  0.694622  0.504099  0.930159  1
  O  O20  1  0.495901  0.128877  0.069841  1
  O  O21  1  0.128877  0.305378  0.069841  1
  O  O22  1  0.305378  0.495901  0.069841  1
  O  O23  1  0.046218  0.939799  0.714731  1
  O  O24  1  0.939799  0.299252  0.714731  1
  O  O25  1  0.299252  0.046218  0.714731  1
  O  O26  1  0.953782  0.060201  0.285269  1
  O  O27  1  0.060201  0.700748  0.285269  1
  O  O28  1  0.700748  0.953782  0.285269  1
  O  O29  1  0.577592  0.758850  0.243399  1
  O  O30  1  0.758850  0.420158  0.243399  1
  O  O31  1  0.420158  0.577592  0.243399  1
  O  O32  1  0.422408  0.241150  0.756601  1
  O  O33  1  0.241150  0.579842  0.756601  1
  O  O34  1  0.579842  0.422408  0.756601  1
