# generated using pymatgen
data_Hf2TiSi2Tc
_symmetry_space_group_name_H-M   'P 1'
_cell_length_a   3.50989000
_cell_length_b   6.89734900
_cell_length_c   8.20419500
_cell_angle_alpha   90.00000000
_cell_angle_beta   90.00000000
_cell_angle_gamma   90.00000000
_symmetry_Int_Tables_number   1
_chemical_formula_structural   Hf2TiSi2Tc
_chemical_formula_sum   'Hf4 Ti2 Si4 Tc2'
_cell_volume   198.61483400
_cell_formula_units_Z   2
loop_
 _symmetry_equiv_pos_site_id
 _symmetry_equiv_pos_as_xyz
  1  'x, y, z'
loop_
 _atom_site_type_symbol
 _atom_site_label
 _atom_site_symmetry_multiplicity
 _atom_site_fract_x
 _atom_site_fract_y
 _atom_site_fract_z
 _atom_site_occupancy
  Hf  Hf0  1  0.250000  0.545329  0.164389  1
  Hf  Hf1  1  0.250000  0.045329  0.335611  1
  Hf  Hf2  1  0.750000  0.460155  0.832183  1
  Hf  Hf3  1  0.750000  0.960155  0.667817  1
  Ti  Ti4  1  0.250000  0.627010  0.560385  1
  Ti  Ti5  1  0.250000  0.127010  0.939615  1
  Si  Si6  1  0.250000  0.756571  0.862720  1
  Si  Si7  1  0.250000  0.256571  0.637280  1
  Si  Si8  1  0.750000  0.243129  0.140783  1
  Si  Si9  1  0.750000  0.743129  0.359217  1
  Tc  Tc10  1  0.750000  0.367805  0.438438  1
  Tc  Tc11  1  0.750000  0.867805  0.061562  1
