# generated using pymatgen
data_La17Lu3Sn15Sb
_symmetry_space_group_name_H-M   'P 1'
_cell_length_a   8.43943679
_cell_length_b   8.52055441
_cell_length_c   16.30035300
_cell_angle_alpha   89.92242708
_cell_angle_beta   90.23632080
_cell_angle_gamma   90.25864392
_symmetry_Int_Tables_number   1
_chemical_formula_structural   La17Lu3Sn15Sb
_chemical_formula_sum   'La17 Lu3 Sn15 Sb1'
_cell_volume   1172.11391537
_cell_formula_units_Z   1
loop_
 _symmetry_equiv_pos_site_id
 _symmetry_equiv_pos_as_xyz
  1  'x, y, z'
loop_
 _atom_site_type_symbol
 _atom_site_label
 _atom_site_symmetry_multiplicity
 _atom_site_fract_x
 _atom_site_fract_y
 _atom_site_fract_z
 _atom_site_occupancy
  La  La0  1  0.970214  0.820463  0.897289  1
  La  La1  1  0.466939  0.681731  0.601784  1
  La  La2  1  0.528531  0.320150  0.099717  1
  La  La3  1  0.033573  0.178163  0.398974  1
  La  La4  1  0.968599  0.821715  0.603121  1
  La  La5  1  0.470404  0.682012  0.898787  1
  La  La6  1  0.527789  0.318505  0.399240  1
  La  La7  1  0.029436  0.181940  0.099044  1
  La  La8  1  0.881510  0.658246  0.384581  1
  La  La9  1  0.377210  0.841367  0.116602  1
  La  La10  1  0.620868  0.158510  0.619641  1
  La  La11  1  0.121885  0.342698  0.881774  1
  La  La12  1  0.122134  0.341018  0.617026  1
  La  La13  1  0.622342  0.158127  0.880073  1
  La  La14  1  0.378726  0.840607  0.383472  1
  La  La15  1  0.879850  0.657389  0.116640  1
  La  La16  1  0.710317  0.997662  0.248696  1
  Lu  Lu17  1  0.285371  0.002962  0.750583  1
  Lu  Lu18  1  0.785143  0.497703  0.753255  1
  Lu  Lu19  1  0.212523  0.505773  0.249145  1
  Sn  Sn20  1  0.281683  0.030726  0.951544  1
  Sn  Sn21  1  0.720711  0.968688  0.456784  1
  Sn  Sn22  1  0.219718  0.528310  0.048821  1
  Sn  Sn23  1  0.221634  0.526445  0.450673  1
  Sn  Sn24  1  0.718701  0.966410  0.042994  1
  Sn  Sn25  1  0.281234  0.028425  0.548840  1
  Sn  Sn26  1  0.781070  0.470775  0.950472  1
  Sn  Sn27  1  0.165539  0.645855  0.749479  1
  Sn  Sn28  1  0.666055  0.851759  0.749561  1
  Sn  Sn29  1  0.327229  0.147497  0.249882  1
  Sn  Sn30  1  0.838061  0.362094  0.250537  1
  Sn  Sn31  1  0.926690  0.121462  0.749187  1
  Sn  Sn32  1  0.424540  0.380377  0.749042  1
  Sn  Sn33  1  0.573673  0.613165  0.250872  1
  Sn  Sn34  1  0.081800  0.877231  0.250213  1
  Sb  Sb35  1  0.778293  0.474038  0.551658  1
