# generated using pymatgen
data_YbZr7(Ta3Si4)4
_symmetry_space_group_name_H-M   'P 1'
_cell_length_a   6.89204057
_cell_length_b   6.89758551
_cell_length_c   12.78118119
_cell_angle_alpha   89.99029795
_cell_angle_beta   90.01745710
_cell_angle_gamma   89.95689685
_symmetry_Int_Tables_number   1
_chemical_formula_structural   YbZr7(Ta3Si4)4
_chemical_formula_sum   'Yb1 Zr7 Ta12 Si16'
_cell_volume   607.59719588
_cell_formula_units_Z   1
loop_
 _symmetry_equiv_pos_site_id
 _symmetry_equiv_pos_as_xyz
  1  'x, y, z'
loop_
 _atom_site_type_symbol
 _atom_site_label
 _atom_site_symmetry_multiplicity
 _atom_site_fract_x
 _atom_site_fract_y
 _atom_site_fract_z
 _atom_site_occupancy
  Yb  Yb0  1  0.996008  0.663621  0.030645  1
  Zr  Zr1  1  0.997792  0.340217  0.531346  1
  Zr  Zr2  1  0.657043  0.003453  0.968445  1
  Zr  Zr3  1  0.161620  0.498195  0.781894  1
  Zr  Zr4  1  0.840497  0.501561  0.281932  1
  Zr  Zr5  1  0.498506  0.160322  0.219795  1
  Zr  Zr6  1  0.502038  0.839832  0.718184  1
  Zr  Zr7  1  0.340207  0.998161  0.468955  1
  Ta  Ta8  1  0.347542  0.504999  0.376830  1
  Ta  Ta9  1  0.847281  0.996226  0.375196  1
  Ta  Ta10  1  0.005875  0.152273  0.127625  1
  Ta  Ta11  1  0.994775  0.846860  0.625585  1
  Ta  Ta12  1  0.652961  0.491842  0.874014  1
  Ta  Ta13  1  0.503834  0.347139  0.622608  1
  Ta  Ta14  1  0.495536  0.651807  0.124883  1
  Ta  Ta15  1  0.156351  0.004345  0.871371  1
  Ta  Ta16  1  0.669694  0.670102  0.500051  1
  Ta  Ta17  1  0.829866  0.170059  0.749421  1
  Ta  Ta18  1  0.170156  0.830921  0.251056  1
  Ta  Ta19  1  0.332607  0.327862  0.000264  1
  Si  Si20  1  0.044910  0.701489  0.436551  1
  Si  Si21  1  0.957687  0.296578  0.937063  1
  Si  Si22  1  0.701043  0.044464  0.563436  1
  Si  Si23  1  0.201230  0.456177  0.186872  1
  Si  Si24  1  0.799132  0.543705  0.686574  1
  Si  Si25  1  0.455436  0.201179  0.812534  1
  Si  Si26  1  0.543386  0.799288  0.313626  1
  Si  Si27  1  0.299103  0.955913  0.063427  1
  Si  Si28  1  0.863783  0.794580  0.820333  1
  Si  Si29  1  0.135809  0.207698  0.322437  1
  Si  Si30  1  0.790954  0.866532  0.179850  1
  Si  Si31  1  0.291569  0.635299  0.573063  1
  Si  Si32  1  0.706335  0.362587  0.072191  1
  Si  Si33  1  0.635284  0.292587  0.426907  1
  Si  Si34  1  0.367097  0.706763  0.927468  1
  Si  Si35  1  0.207053  0.135364  0.677567  1
