# generated using pymatgen
data_Sc22Ir6RuPt
_symmetry_space_group_name_H-M   'P 1'
_cell_length_a   9.52029224
_cell_length_b   9.49337575
_cell_length_c   9.49337573
_cell_angle_alpha   59.51962394
_cell_angle_beta   59.90616323
_cell_angle_gamma   59.90616859
_symmetry_Int_Tables_number   1
_chemical_formula_structural   Sc22Ir6RuPt
_chemical_formula_sum   'Sc22 Ir6 Ru1 Pt1'
_cell_volume   603.61792472
_cell_formula_units_Z   1
loop_
 _symmetry_equiv_pos_site_id
 _symmetry_equiv_pos_as_xyz
  1  'x, y, z'
loop_
 _atom_site_type_symbol
 _atom_site_label
 _atom_site_symmetry_multiplicity
 _atom_site_fract_x
 _atom_site_fract_y
 _atom_site_fract_z
 _atom_site_occupancy
  Sc  Sc0  1  0.802878  0.801457  0.198543  1
  Sc  Sc1  1  0.197122  0.801457  0.198543  1
  Sc  Sc2  1  0.802275  0.197725  0.197725  1
  Sc  Sc3  1  0.197122  0.198543  0.801457  1
  Sc  Sc4  1  0.802878  0.198543  0.801457  1
  Sc  Sc5  1  0.197725  0.802275  0.802275  1
  Sc  Sc6  1  0.618616  0.613664  0.149104  1
  Sc  Sc7  1  0.618616  0.149104  0.613664  1
  Sc  Sc8  1  0.150717  0.616115  0.616115  1
  Sc  Sc9  1  0.617053  0.616115  0.616115  1
  Sc  Sc10  1  0.381384  0.386336  0.850896  1
  Sc  Sc11  1  0.381384  0.850896  0.386336  1
  Sc  Sc12  1  0.849283  0.383885  0.383885  1
  Sc  Sc13  1  0.382947  0.383885  0.383885  1
  Sc  Sc14  1  0.843360  0.841039  0.472240  1
  Sc  Sc15  1  0.843360  0.472240  0.841039  1
  Sc  Sc16  1  0.472351  0.840014  0.840014  1
  Sc  Sc17  1  0.847620  0.840014  0.840014  1
  Sc  Sc18  1  0.156640  0.158961  0.527760  1
  Sc  Sc19  1  0.156640  0.527760  0.158961  1
  Sc  Sc20  1  0.527649  0.159986  0.159986  1
  Sc  Sc21  1  0.152380  0.159986  0.159986  1
  Ir  Ir22  1  0.000000  0.000000  0.000000  1
  Ir  Ir23  1  0.000000  0.000000  0.500000  1
  Ir  Ir24  1  0.500000  0.000000  0.500000  1
  Ir  Ir25  1  0.000000  0.500000  0.500000  1
  Ir  Ir26  1  0.500000  0.500000  0.000000  1
  Ir  Ir27  1  0.000000  0.500000  0.000000  1
  Ru  Ru28  1  0.500000  0.500000  0.500000  1
  Pt  Pt29  1  0.500000  0.000000  0.000000  1
