# generated using pymatgen
data_Ca12La8Si15Hg
_symmetry_space_group_name_H-M   'P 1'
_cell_length_a   7.67681218
_cell_length_b   7.98627200
_cell_length_c   15.20369700
_cell_angle_alpha   89.91912428
_cell_angle_beta   89.37469674
_cell_angle_gamma   90.16885106
_symmetry_Int_Tables_number   1
_chemical_formula_structural   Ca12La8Si15Hg
_chemical_formula_sum   'Ca12 La8 Si15 Hg1'
_cell_volume   932.06460457
_cell_formula_units_Z   1
loop_
 _symmetry_equiv_pos_site_id
 _symmetry_equiv_pos_as_xyz
  1  'x, y, z'
loop_
 _atom_site_type_symbol
 _atom_site_label
 _atom_site_symmetry_multiplicity
 _atom_site_fract_x
 _atom_site_fract_y
 _atom_site_fract_z
 _atom_site_occupancy
  Ca  Ca0  1  0.155410  0.503893  0.754106  1
  Ca  Ca1  1  0.843366  0.499232  0.249675  1
  Ca  Ca2  1  0.345698  0.001066  0.248714  1
  Ca  Ca3  1  0.656478  0.998481  0.752851  1
  Ca  Ca4  1  0.339944  0.176582  0.627013  1
  Ca  Ca5  1  0.667788  0.816304  0.376218  1
  Ca  Ca6  1  0.168468  0.680663  0.372345  1
  Ca  Ca7  1  0.673828  0.818239  0.122108  1
  Ca  Ca8  1  0.820551  0.322007  0.622499  1
  Ca  Ca9  1  0.326219  0.181805  0.878267  1
  Ca  Ca10  1  0.825549  0.319401  0.878441  1
  Ca  Ca11  1  0.174037  0.680279  0.122034  1
  La  La12  1  0.023411  0.185590  0.098597  1
  La  La13  1  0.977419  0.816847  0.903644  1
  La  La14  1  0.475949  0.685667  0.903458  1
  La  La15  1  0.977562  0.822029  0.599221  1
  La  La16  1  0.523107  0.314934  0.097764  1
  La  La17  1  0.015637  0.178869  0.397144  1
  La  La18  1  0.520112  0.314921  0.399888  1
  La  La19  1  0.491101  0.684312  0.602394  1
  Si  Si20  1  0.038815  0.095597  0.748342  1
  Si  Si21  1  0.961598  0.908879  0.248538  1
  Si  Si22  1  0.461243  0.589560  0.246405  1
  Si  Si23  1  0.538930  0.412440  0.753544  1
  Si  Si24  1  0.262088  0.877891  0.751053  1
  Si  Si25  1  0.735793  0.122902  0.247519  1
  Si  Si26  1  0.235850  0.374222  0.248244  1
  Si  Si27  1  0.765382  0.626868  0.752672  1
  Si  Si28  1  0.840493  0.526002  0.460615  1
  Si  Si29  1  0.348960  0.969204  0.466644  1
  Si  Si30  1  0.857610  0.526730  0.037349  1
  Si  Si31  1  0.644438  0.026452  0.534780  1
  Si  Si32  1  0.140859  0.473837  0.962516  1
  Si  Si33  1  0.642102  0.025404  0.962630  1
  Si  Si34  1  0.357014  0.974560  0.037369  1
  Hg  Hg35  1  0.167197  0.468334  0.535398  1
