# generated using pymatgen
data_HfZr5Ni20As13
_symmetry_space_group_name_H-M   'P 1'
_cell_length_a   13.00681005
_cell_length_b   13.01770967
_cell_length_c   3.75597600
_cell_angle_alpha   90.00000000
_cell_angle_beta   90.00000000
_cell_angle_gamma   119.96318028
_symmetry_Int_Tables_number   1
_chemical_formula_structural   HfZr5Ni20As13
_chemical_formula_sum   'Hf1 Zr5 Ni20 As13'
_cell_volume   550.95969773
_cell_formula_units_Z   1
loop_
 _symmetry_equiv_pos_site_id
 _symmetry_equiv_pos_as_xyz
  1  'x, y, z'
loop_
 _atom_site_type_symbol
 _atom_site_label
 _atom_site_symmetry_multiplicity
 _atom_site_fract_x
 _atom_site_fract_y
 _atom_site_fract_z
 _atom_site_occupancy
  Hf  Hf0  1  0.805753  0.282352  0.500000  1
  Zr  Zr1  1  0.717911  0.524323  0.500000  1
  Zr  Zr2  1  0.475632  0.193593  0.500000  1
  Zr  Zr3  1  0.192776  0.718416  0.000000  1
  Zr  Zr4  1  0.280997  0.474085  0.000000  1
  Zr  Zr5  1  0.525849  0.807207  0.000000  1
  Ni  Ni6  1  0.417639  0.980698  0.000000  1
  Ni  Ni7  1  0.018074  0.436149  0.000000  1
  Ni  Ni8  1  0.584410  0.020688  0.500000  1
  Ni  Ni9  1  0.563306  0.582040  0.000000  1
  Ni  Ni10  1  0.979756  0.562900  0.500000  1
  Ni  Ni11  1  0.923575  0.082965  0.500000  1
  Ni  Ni12  1  0.159941  0.076710  0.500000  1
  Ni  Ni13  1  0.916601  0.840303  0.500000  1
  Ni  Ni14  1  0.094316  0.892781  0.000000  1
  Ni  Ni15  1  0.798478  0.905906  0.000000  1
  Ni  Ni16  1  0.106762  0.201839  0.000000  1
  Ni  Ni17  1  0.333684  0.666972  0.500000  1
  Ni  Ni18  1  0.667982  0.332748  0.000000  1
  Ni  Ni19  1  0.676959  0.748149  0.500000  1
  Ni  Ni20  1  0.251439  0.928519  0.500000  1
  Ni  Ni21  1  0.922772  0.674903  0.000000  1
  Ni  Ni22  1  0.325015  0.247589  0.000000  1
  Ni  Ni23  1  0.752762  0.078922  0.000000  1
  Ni  Ni24  1  0.436600  0.416332  0.500000  1
  Ni  Ni25  1  0.070566  0.322957  0.500000  1
  As  As26  1  0.000160  0.000264  0.000000  1
  As  As27  1  0.233248  0.287025  0.500000  1
  As  As28  1  0.713140  0.946222  0.500000  1
  As  As29  1  0.053458  0.766426  0.500000  1
  As  As30  1  0.768394  0.712727  0.000000  1
  As  As31  1  0.287349  0.055615  0.000000  1
  As  As32  1  0.472666  0.613445  0.500000  1
  As  As33  1  0.386641  0.859277  0.500000  1
  As  As34  1  0.859621  0.472325  0.000000  1
  As  As35  1  0.528019  0.386740  0.000000  1
  As  As36  1  0.612809  0.140302  0.000000  1
  As  As37  1  0.943635  0.232104  0.000000  1
  As  As38  1  0.141302  0.527475  0.500000  1
