# generated using pymatgen
data_LaCrNi(Sb6Os)2
_symmetry_space_group_name_H-M   'P 1'
_cell_length_a   8.17171850
_cell_length_b   8.12708818
_cell_length_c   8.13568975
_cell_angle_alpha   109.45307444
_cell_angle_beta   109.65497137
_cell_angle_gamma   109.51953669
_symmetry_Int_Tables_number   1
_chemical_formula_structural   LaCrNi(Sb6Os)2
_chemical_formula_sum   'La1 Cr1 Ni1 Sb12 Os2'
_cell_volume   414.82786489
_cell_formula_units_Z   1
loop_
 _symmetry_equiv_pos_site_id
 _symmetry_equiv_pos_as_xyz
  1  'x, y, z'
loop_
 _atom_site_type_symbol
 _atom_site_label
 _atom_site_symmetry_multiplicity
 _atom_site_fract_x
 _atom_site_fract_y
 _atom_site_fract_z
 _atom_site_occupancy
  La  La0  1  0.000000  0.000000  0.000000  1
  Cr  Cr1  1  0.500000  0.500000  0.500000  1
  Ni  Ni2  1  0.500000  0.000000  0.000000  1
  Sb  Sb3  1  0.341440  0.181123  0.844773  1
  Sb  Sb4  1  0.658560  0.818877  0.155227  1
  Sb  Sb5  1  0.661000  0.503725  0.840237  1
  Sb  Sb6  1  0.339000  0.496275  0.159763  1
  Sb  Sb7  1  0.181841  0.843492  0.339884  1
  Sb  Sb8  1  0.818159  0.156508  0.660116  1
  Sb  Sb9  1  0.503873  0.843285  0.662811  1
  Sb  Sb10  1  0.496127  0.156715  0.337189  1
  Sb  Sb11  1  0.840130  0.336704  0.180816  1
  Sb  Sb12  1  0.159870  0.663296  0.819184  1
  Sb  Sb13  1  0.839816  0.660567  0.503643  1
  Sb  Sb14  1  0.160184  0.339433  0.496357  1
  Os  Os15  1  0.000000  0.000000  0.500000  1
  Os  Os16  1  0.000000  0.500000  0.000000  1
