# generated using pymatgen
data_Ho3Tm5Sc12Si15B
_symmetry_space_group_name_H-M   'P 1'
_cell_length_a   6.99396540
_cell_length_b   7.34825579
_cell_length_c   13.87375340
_cell_angle_alpha   90.02136791
_cell_angle_beta   89.98285268
_cell_angle_gamma   89.38877206
_symmetry_Int_Tables_number   1
_chemical_formula_structural   Ho3Tm5Sc12Si15B
_chemical_formula_sum   'Ho3 Tm5 Sc12 Si15 B1'
_cell_volume   712.97935231
_cell_formula_units_Z   1
loop_
 _symmetry_equiv_pos_site_id
 _symmetry_equiv_pos_as_xyz
  1  'x, y, z'
loop_
 _atom_site_type_symbol
 _atom_site_label
 _atom_site_symmetry_multiplicity
 _atom_site_fract_x
 _atom_site_fract_y
 _atom_site_fract_z
 _atom_site_occupancy
  Ho  Ho0  1  0.009559  0.178367  0.403524  1
  Ho  Ho1  1  0.511057  0.324855  0.404977  1
  Ho  Ho2  1  0.489716  0.677981  0.598126  1
  Tm  Tm3  1  0.009767  0.178988  0.096297  1
  Tm  Tm4  1  0.988739  0.828730  0.903240  1
  Tm  Tm5  1  0.489497  0.678655  0.902290  1
  Tm  Tm6  1  0.988973  0.828840  0.597668  1
  Tm  Tm7  1  0.510828  0.324187  0.094754  1
  Sc  Sc8  1  0.168373  0.511799  0.750315  1
  Sc  Sc9  1  0.837847  0.497351  0.249490  1
  Sc  Sc10  1  0.337729  0.004022  0.249482  1
  Sc  Sc11  1  0.673226  0.996669  0.750324  1
  Sc  Sc12  1  0.314502  0.174049  0.629836  1
  Sc  Sc13  1  0.668958  0.823681  0.375443  1
  Sc  Sc14  1  0.167619  0.677706  0.375392  1
  Sc  Sc15  1  0.668701  0.823394  0.123806  1
  Sc  Sc16  1  0.850085  0.309325  0.632568  1
  Sc  Sc17  1  0.314888  0.174433  0.870646  1
  Sc  Sc18  1  0.850436  0.308918  0.868052  1
  Sc  Sc19  1  0.167590  0.677361  0.123945  1
  Si  Si20  1  0.965846  0.884871  0.249402  1
  Si  Si21  1  0.466750  0.615583  0.249507  1
  Si  Si22  1  0.539150  0.380957  0.750549  1
  Si  Si23  1  0.267850  0.884007  0.750531  1
  Si  Si24  1  0.711319  0.130529  0.248994  1
  Si  Si25  1  0.214108  0.371918  0.249038  1
  Si  Si26  1  0.788628  0.624277  0.750762  1
  Si  Si27  1  0.159567  0.467615  0.540172  1
  Si  Si28  1  0.839574  0.535493  0.465579  1
  Si  Si29  1  0.338918  0.964666  0.463403  1
  Si  Si30  1  0.838394  0.533942  0.034651  1
  Si  Si31  1  0.655954  0.037304  0.540956  1
  Si  Si32  1  0.160895  0.467411  0.959994  1
  Si  Si33  1  0.655299  0.037106  0.959078  1
  Si  Si34  1  0.338082  0.965317  0.036788  1
  B  B35  1  0.041578  0.099695  0.750421  1
