# generated using pymatgen
data_DyTm4Lu5(CoSb2)2
_symmetry_space_group_name_H-M   'P 1'
_cell_length_a   7.71955200
_cell_length_b   8.72561300
_cell_length_c   12.01278300
_cell_angle_alpha   90.00000000
_cell_angle_beta   90.00000000
_cell_angle_gamma   90.00000000
_symmetry_Int_Tables_number   1
_chemical_formula_structural   DyTm4Lu5(CoSb2)2
_chemical_formula_sum   'Dy2 Tm8 Lu10 Co4 Sb8'
_cell_volume   809.15491448
_cell_formula_units_Z   2
loop_
 _symmetry_equiv_pos_site_id
 _symmetry_equiv_pos_as_xyz
  1  'x, y, z'
loop_
 _atom_site_type_symbol
 _atom_site_label
 _atom_site_symmetry_multiplicity
 _atom_site_fract_x
 _atom_site_fract_y
 _atom_site_fract_z
 _atom_site_occupancy
  Dy  Dy0  1  0.378125  0.250000  0.692480  1
  Dy  Dy1  1  0.121875  0.250000  0.192480  1
  Tm  Tm2  1  0.155158  0.750000  0.203817  1
  Tm  Tm3  1  0.344842  0.750000  0.703817  1
  Tm  Tm4  1  0.845063  0.250000  0.796433  1
  Tm  Tm5  1  0.654937  0.250000  0.296433  1
  Tm  Tm6  1  0.449451  0.750000  0.997970  1
  Tm  Tm7  1  0.050549  0.750000  0.497970  1
  Tm  Tm8  1  0.620525  0.750000  0.308752  1
  Tm  Tm9  1  0.879475  0.750000  0.808752  1
  Lu  Lu10  1  0.551838  0.250000  0.002224  1
  Lu  Lu11  1  0.948162  0.250000  0.502224  1
  Lu  Lu12  1  0.823504  0.537888  0.064507  1
  Lu  Lu13  1  0.676496  0.962112  0.564507  1
  Lu  Lu14  1  0.175732  0.036369  0.934478  1
  Lu  Lu15  1  0.324268  0.463631  0.434478  1
  Lu  Lu16  1  0.175732  0.463631  0.934478  1
  Lu  Lu17  1  0.324268  0.036369  0.434478  1
  Lu  Lu18  1  0.823504  0.962112  0.064507  1
  Lu  Lu19  1  0.676496  0.537888  0.564507  1
  Co  Co20  1  0.432749  0.750000  0.491068  1
  Co  Co21  1  0.067251  0.750000  0.991068  1
  Co  Co22  1  0.567670  0.250000  0.508590  1
  Co  Co23  1  0.932330  0.250000  0.008590  1
  Sb  Sb24  1  0.929154  0.509179  0.328549  1
  Sb  Sb25  1  0.570846  0.990821  0.828549  1
  Sb  Sb26  1  0.067954  0.008241  0.671799  1
  Sb  Sb27  1  0.432046  0.491759  0.171799  1
  Sb  Sb28  1  0.067954  0.491759  0.671799  1
  Sb  Sb29  1  0.432046  0.008241  0.171799  1
  Sb  Sb30  1  0.929154  0.990821  0.328549  1
  Sb  Sb31  1  0.570846  0.509179  0.828549  1
