# generated using pymatgen
data_Hf8Cu8SnHg3
_symmetry_space_group_name_H-M   'P 1'
_cell_length_a   7.16469200
_cell_length_b   7.16469200
_cell_length_c   6.79218600
_cell_angle_alpha   90.00000000
_cell_angle_beta   90.00000000
_cell_angle_gamma   90.00000000
_symmetry_Int_Tables_number   1
_chemical_formula_structural   Hf8Cu8SnHg3
_chemical_formula_sum   'Hf8 Cu8 Sn1 Hg3'
_cell_volume   348.66200330
_cell_formula_units_Z   1
loop_
 _symmetry_equiv_pos_site_id
 _symmetry_equiv_pos_as_xyz
  1  'x, y, z'
loop_
 _atom_site_type_symbol
 _atom_site_label
 _atom_site_symmetry_multiplicity
 _atom_site_fract_x
 _atom_site_fract_y
 _atom_site_fract_z
 _atom_site_occupancy
  Hf  Hf0  1  0.148436  0.149764  0.001318  1
  Hf  Hf1  1  0.851564  0.850236  0.001318  1
  Hf  Hf2  1  0.649764  0.351564  0.498682  1
  Hf  Hf3  1  0.350236  0.648436  0.498682  1
  Hf  Hf4  1  0.691737  0.304096  0.001954  1
  Hf  Hf5  1  0.308263  0.695904  0.001954  1
  Hf  Hf6  1  0.804096  0.808263  0.498046  1
  Hf  Hf7  1  0.195904  0.191737  0.498046  1
  Cu  Cu8  1  0.375684  0.377561  0.202473  1
  Cu  Cu9  1  0.623499  0.622973  0.796247  1
  Cu  Cu10  1  0.624316  0.622439  0.202473  1
  Cu  Cu11  1  0.877027  0.123499  0.703753  1
  Cu  Cu12  1  0.877561  0.124316  0.297527  1
  Cu  Cu13  1  0.376501  0.377027  0.796247  1
  Cu  Cu14  1  0.122439  0.875684  0.297527  1
  Cu  Cu15  1  0.122973  0.876501  0.703753  1
  Sn  Sn16  1  0.000000  0.500000  0.750000  1
  Hg  Hg17  1  0.500000  0.000000  0.250000  1
  Hg  Hg18  1  0.500000  0.000000  0.750000  1
  Hg  Hg19  1  0.000000  0.500000  0.250000  1
