# generated using pymatgen
data_TbY2Pa(Al3Co)6
_symmetry_space_group_name_H-M   'P 1'
_cell_length_a   7.43041100
_cell_length_b   7.42814210
_cell_length_c   9.30207000
_cell_angle_alpha   90.00000000
_cell_angle_beta   90.00000000
_cell_angle_gamma   119.26739516
_symmetry_Int_Tables_number   1
_chemical_formula_structural   TbY2Pa(Al3Co)6
_chemical_formula_sum   'Tb1 Y2 Pa1 Al18 Co6'
_cell_volume   447.88057164
_cell_formula_units_Z   1
loop_
 _symmetry_equiv_pos_site_id
 _symmetry_equiv_pos_as_xyz
  1  'x, y, z'
loop_
 _atom_site_type_symbol
 _atom_site_label
 _atom_site_symmetry_multiplicity
 _atom_site_fract_x
 _atom_site_fract_y
 _atom_site_fract_z
 _atom_site_occupancy
  Tb  Tb0  1  0.006536  0.328149  0.750000  1
  Y  Y1  1  0.673386  0.992853  0.250000  1
  Y  Y2  1  0.327883  0.006315  0.750000  1
  Pa  Pa3  1  0.994323  0.673149  0.250000  1
  Al  Al4  1  0.128593  0.127392  0.250000  1
  Al  Al5  1  0.875715  0.876670  0.750000  1
  Al  Al6  1  0.331808  0.331765  0.543969  1
  Al  Al7  1  0.665231  0.667267  0.041688  1
  Al  Al8  1  0.331808  0.331765  0.956031  1
  Al  Al9  1  0.665231  0.667267  0.458312  1
  Al  Al10  1  0.339420  0.552350  0.250000  1
  Al  Al11  1  0.659600  0.444873  0.750000  1
  Al  Al12  1  0.552123  0.341063  0.250000  1
  Al  Al13  1  0.445470  0.660809  0.750000  1
  Al  Al14  1  0.998043  0.333110  0.071563  1
  Al  Al15  1  0.001364  0.664534  0.574008  1
  Al  Al16  1  0.338193  0.000548  0.428582  1
  Al  Al17  1  0.665128  0.002869  0.927969  1
  Al  Al18  1  0.001364  0.664534  0.925992  1
  Al  Al19  1  0.998043  0.333110  0.428437  1
  Al  Al20  1  0.665128  0.002869  0.572031  1
  Al  Al21  1  0.338193  0.000548  0.071418  1
  Co  Co22  1  0.999207  0.995175  0.004562  1
  Co  Co23  1  0.999207  0.995175  0.495438  1
  Co  Co24  1  0.673929  0.332025  0.002899  1
  Co  Co25  1  0.325569  0.670896  0.497058  1
  Co  Co26  1  0.325569  0.670896  0.002942  1
  Co  Co27  1  0.673929  0.332025  0.497101  1
