# generated using pymatgen
data_Sb12Ru2Pt2Pb
_symmetry_space_group_name_H-M   'P 1'
_cell_length_a   8.22541731
_cell_length_b   8.21285148
_cell_length_c   8.21285200
_cell_angle_alpha   109.45045766
_cell_angle_beta   109.48178786
_cell_angle_gamma   109.41949514
_symmetry_Int_Tables_number   1
_chemical_formula_structural   Sb12Ru2Pt2Pb
_chemical_formula_sum   'Sb12 Ru2 Pt2 Pb1'
_cell_volume   427.42051219
_cell_formula_units_Z   1
loop_
 _symmetry_equiv_pos_site_id
 _symmetry_equiv_pos_as_xyz
  1  'x, y, z'
loop_
 _atom_site_type_symbol
 _atom_site_label
 _atom_site_symmetry_multiplicity
 _atom_site_fract_x
 _atom_site_fract_y
 _atom_site_fract_z
 _atom_site_occupancy
  Sb  Sb0  1  0.343904  0.185011  0.850911  1
  Sb  Sb1  1  0.656095  0.814989  0.149089  1
  Sb  Sb2  1  0.656095  0.507006  0.841106  1
  Sb  Sb3  1  0.343905  0.492994  0.158894  1
  Sb  Sb4  1  0.191357  0.849327  0.342030  1
  Sb  Sb5  1  0.808643  0.150673  0.657971  1
  Sb  Sb6  1  0.508242  0.843592  0.664651  1
  Sb  Sb7  1  0.491758  0.156408  0.335350  1
  Sb  Sb8  1  0.841245  0.334291  0.184780  1
  Sb  Sb9  1  0.158755  0.665708  0.815220  1
  Sb  Sb10  1  0.841245  0.656465  0.506955  1
  Sb  Sb11  1  0.158755  0.343535  0.493045  1
  Ru  Ru12  1  0.500000  0.000000  0.000000  1
  Ru  Ru13  1  0.500000  0.500000  0.500000  1
  Pt  Pt14  1  0.000000  0.000000  0.500000  1
  Pt  Pt15  1  0.000000  0.500000  0.000000  1
  Pb  Pb16  1  0.000000  0.000000  0.000000  1
