# generated using pymatgen
data_Tm4ReTc2Ru5
_symmetry_space_group_name_H-M   'P 1'
_cell_length_a   5.22882728
_cell_length_b   5.27817238
_cell_length_c   9.00844100
_cell_angle_alpha   90.00000000
_cell_angle_beta   90.00000000
_cell_angle_gamma   120.31267478
_symmetry_Int_Tables_number   1
_chemical_formula_structural   Tm4ReTc2Ru5
_chemical_formula_sum   'Tm4 Re1 Tc2 Ru5'
_cell_volume   214.63036075
_cell_formula_units_Z   1
loop_
 _symmetry_equiv_pos_site_id
 _symmetry_equiv_pos_as_xyz
  1  'x, y, z'
loop_
 _atom_site_type_symbol
 _atom_site_label
 _atom_site_symmetry_multiplicity
 _atom_site_fract_x
 _atom_site_fract_y
 _atom_site_fract_z
 _atom_site_occupancy
  Tm  Tm0  1  0.329686  0.664844  0.434660  1
  Tm  Tm1  1  0.660969  0.330484  0.566255  1
  Tm  Tm2  1  0.660969  0.330484  0.933745  1
  Tm  Tm3  1  0.329686  0.664844  0.065340  1
  Re  Re4  1  0.677248  0.838625  0.750000  1
  Tc  Tc5  1  0.836169  0.170263  0.250000  1
  Tc  Tc6  1  0.836169  0.665905  0.250000  1
  Ru  Ru7  1  0.973140  0.986571  0.501929  1
  Ru  Ru8  1  0.973140  0.986571  0.998071  1
  Ru  Ru9  1  0.353026  0.176513  0.250000  1
  Ru  Ru10  1  0.184898  0.833236  0.750000  1
  Ru  Ru11  1  0.184898  0.351663  0.750000  1
