# generated using pymatgen
data_Sc4Al15(GaIr2)3
_symmetry_space_group_name_H-M   'P 1'
_cell_length_a   7.45450173
_cell_length_b   7.45753517
_cell_length_c   9.37866600
_cell_angle_alpha   90.00000000
_cell_angle_beta   90.00000000
_cell_angle_gamma   119.57841268
_symmetry_Int_Tables_number   1
_chemical_formula_structural   Sc4Al15(GaIr2)3
_chemical_formula_sum   'Sc4 Al15 Ga3 Ir6'
_cell_volume   453.43492417
_cell_formula_units_Z   1
loop_
 _symmetry_equiv_pos_site_id
 _symmetry_equiv_pos_as_xyz
  1  'x, y, z'
loop_
 _atom_site_type_symbol
 _atom_site_label
 _atom_site_symmetry_multiplicity
 _atom_site_fract_x
 _atom_site_fract_y
 _atom_site_fract_z
 _atom_site_occupancy
  Sc  Sc0  1  0.997714  0.675779  0.250000  1
  Sc  Sc1  1  0.005898  0.325272  0.750000  1
  Sc  Sc2  1  0.670279  0.990665  0.250000  1
  Sc  Sc3  1  0.324307  0.003932  0.750000  1
  Al  Al4  1  0.998735  0.335079  0.075094  1
  Al  Al5  1  0.001555  0.664864  0.923973  1
  Al  Al6  1  0.001555  0.664864  0.576027  1
  Al  Al7  1  0.335588  0.000182  0.424521  1
  Al  Al8  1  0.998735  0.335079  0.424906  1
  Al  Al9  1  0.664736  0.002204  0.575782  1
  Al  Al10  1  0.664736  0.002204  0.924218  1
  Al  Al11  1  0.335588  0.000182  0.075479  1
  Al  Al12  1  0.331489  0.331573  0.561428  1
  Al  Al13  1  0.668461  0.668261  0.443640  1
  Al  Al14  1  0.668461  0.668261  0.056360  1
  Al  Al15  1  0.331489  0.331573  0.938572  1
  Al  Al16  1  0.661427  0.444848  0.750000  1
  Al  Al17  1  0.556307  0.340978  0.250000  1
  Al  Al18  1  0.445366  0.661599  0.750000  1
  Ga  Ga19  1  0.128113  0.128544  0.250000  1
  Ga  Ga20  1  0.867969  0.867857  0.750000  1
  Ga  Ga21  1  0.341117  0.550511  0.250000  1
  Ir  Ir22  1  0.671685  0.329105  0.000139  1
  Ir  Ir23  1  0.328287  0.672966  0.998262  1
  Ir  Ir24  1  0.328287  0.672966  0.501738  1
  Ir  Ir25  1  0.671685  0.329105  0.499861  1
  Ir  Ir26  1  0.000214  0.000774  0.999683  1
  Ir  Ir27  1  0.000214  0.000774  0.500317  1
