# generated using pymatgen
data_NaScGeB2Rh5
_symmetry_space_group_name_H-M   'P 1'
_cell_length_a   9.54744800
_cell_length_b   2.96440900
_cell_length_c   9.50237400
_cell_angle_alpha   90.00000000
_cell_angle_beta   90.00000000
_cell_angle_gamma   90.00000000
_symmetry_Int_Tables_number   1
_chemical_formula_structural   NaScGeB2Rh5
_chemical_formula_sum   'Na2 Sc2 Ge2 B4 Rh10'
_cell_volume   268.94132763
_cell_formula_units_Z   2
loop_
 _symmetry_equiv_pos_site_id
 _symmetry_equiv_pos_as_xyz
  1  'x, y, z'
loop_
 _atom_site_type_symbol
 _atom_site_label
 _atom_site_symmetry_multiplicity
 _atom_site_fract_x
 _atom_site_fract_y
 _atom_site_fract_z
 _atom_site_occupancy
  Na  Na0  1  0.324582  0.000000  0.176124  1
  Na  Na1  1  0.824583  0.000000  0.323875  1
  Sc  Sc2  1  0.174461  0.000000  0.672897  1
  Sc  Sc3  1  0.674461  0.000000  0.827103  1
  Ge  Ge4  1  0.002128  0.000000  0.006106  1
  Ge  Ge5  1  0.502128  0.000000  0.493894  1
  B  B6  1  0.625227  0.000000  0.124670  1
  B  B7  1  0.125227  0.000000  0.375330  1
  B  B8  1  0.876097  0.000000  0.626244  1
  B  B9  1  0.376097  0.000000  0.873756  1
  Rh  Rh10  1  0.501059  0.500001  0.994145  1
  Rh  Rh11  1  0.781697  0.500001  0.059865  1
  Rh  Rh12  1  0.070230  0.500001  0.218528  1
  Rh  Rh13  1  0.570230  0.500001  0.281472  1
  Rh  Rh14  1  0.281698  0.500001  0.440135  1
  Rh  Rh15  1  0.001059  0.500001  0.505855  1
  Rh  Rh16  1  0.713983  0.500001  0.581470  1
  Rh  Rh17  1  0.430537  0.500001  0.711866  1
  Rh  Rh18  1  0.930537  0.500001  0.788133  1
  Rh  Rh19  1  0.213983  0.500001  0.918530  1
