# generated using pymatgen
data_Nd10ZnSi4Os
_symmetry_space_group_name_H-M   'P 1'
_cell_length_a   7.73326983
_cell_length_b   7.73327031
_cell_length_c   9.31433900
_cell_angle_alpha   114.52732021
_cell_angle_beta   114.52732181
_cell_angle_gamma   90.00000254
_symmetry_Int_Tables_number   1
_chemical_formula_structural   Nd10ZnSi4Os
_chemical_formula_sum   'Nd10 Zn1 Si4 Os1'
_cell_volume   450.93234628
_cell_formula_units_Z   1
loop_
 _symmetry_equiv_pos_site_id
 _symmetry_equiv_pos_as_xyz
  1  'x, y, z'
loop_
 _atom_site_type_symbol
 _atom_site_label
 _atom_site_symmetry_multiplicity
 _atom_site_fract_x
 _atom_site_fract_y
 _atom_site_fract_z
 _atom_site_occupancy
  Nd  Nd0  1  0.468099  0.468099  0.936198  1
  Nd  Nd1  1  0.031901  0.031901  0.063802  1
  Nd  Nd2  1  0.942177  0.794696  0.282222  1
  Nd  Nd3  1  0.340045  0.487526  0.282222  1
  Nd  Nd4  1  0.794696  0.340045  0.282222  1
  Nd  Nd5  1  0.487526  0.942177  0.282222  1
  Nd  Nd6  1  0.012474  0.159955  0.717778  1
  Nd  Nd7  1  0.705304  0.557823  0.717778  1
  Nd  Nd8  1  0.159955  0.705304  0.717778  1
  Nd  Nd9  1  0.557823  0.012474  0.717778  1
  Zn  Zn10  1  0.250000  0.250000  0.500000  1
  Si  Si11  1  0.615291  0.884709  0.000000  1
  Si  Si12  1  0.384709  0.115291  0.000000  1
  Si  Si13  1  0.884709  0.384709  0.000000  1
  Si  Si14  1  0.115291  0.615291  0.000000  1
  Os  Os15  1  0.750000  0.750000  0.500000  1
