# generated using pymatgen
data_Na4SrTeO6
_symmetry_space_group_name_H-M   'P 1'
_cell_length_a   5.96342865
_cell_length_b   5.96342941
_cell_length_c   5.86499573
_cell_angle_alpha   100.39795897
_cell_angle_beta   100.39794865
_cell_angle_gamma   119.70956533
_symmetry_Int_Tables_number   1
_chemical_formula_structural   Na4SrTeO6
_chemical_formula_sum   'Na4 Sr1 Te1 O6'
_cell_volume   169.05291073
_cell_formula_units_Z   1
loop_
 _symmetry_equiv_pos_site_id
 _symmetry_equiv_pos_as_xyz
  1  'x, y, z'
loop_
 _atom_site_type_symbol
 _atom_site_label
 _atom_site_symmetry_multiplicity
 _atom_site_fract_x
 _atom_site_fract_y
 _atom_site_fract_z
 _atom_site_occupancy
  Na  Na0  1  0.498978  0.501022  0.000000  1
  Na  Na1  1  0.015034  0.984966  0.500000  1
  Na  Na2  1  0.659459  0.340542  0.500000  1
  Na  Na3  1  0.328006  0.671994  0.500000  1
  Sr  Sr4  1  0.833820  0.166181  0.000000  1
  Te  Te5  1  0.166741  0.833259  0.000000  1
  O  O6  1  0.962492  0.631432  0.200738  1
  O  O7  1  0.238036  0.177631  0.216992  1
  O  O8  1  0.510720  0.904254  0.216897  1
  O  O9  1  0.095746  0.489280  0.783103  1
  O  O10  1  0.822369  0.761964  0.783008  1
  O  O11  1  0.368569  0.037508  0.799262  1
