# generated using pymatgen
data_Lu3Sc3TaTe2
_symmetry_space_group_name_H-M   'P 1'
_cell_length_a   7.85855700
_cell_length_b   7.85855538
_cell_length_c   4.24803900
_cell_angle_alpha   90.00000000
_cell_angle_beta   90.00000000
_cell_angle_gamma   119.99999417
_symmetry_Int_Tables_number   1
_chemical_formula_structural   Lu3Sc3TaTe2
_chemical_formula_sum   'Lu3 Sc3 Ta1 Te2'
_cell_volume   227.19809117
_cell_formula_units_Z   1
loop_
 _symmetry_equiv_pos_site_id
 _symmetry_equiv_pos_as_xyz
  1  'x, y, z'
loop_
 _atom_site_type_symbol
 _atom_site_label
 _atom_site_symmetry_multiplicity
 _atom_site_fract_x
 _atom_site_fract_y
 _atom_site_fract_z
 _atom_site_occupancy
  Lu  Lu0  1  0.611154  0.000000  0.000000  1
  Lu  Lu1  1  0.000000  0.611154  0.000000  1
  Lu  Lu2  1  0.388846  0.388846  0.000000  1
  Sc  Sc3  1  0.234115  0.000000  0.500000  1
  Sc  Sc4  1  0.000000  0.234115  0.500000  1
  Sc  Sc5  1  0.765885  0.765885  0.500000  1
  Ta  Ta6  1  0.000000  0.000000  0.000000  1
  Te  Te7  1  0.333333  0.666667  0.500000  1
  Te  Te8  1  0.666667  0.333333  0.500000  1
