# generated using pymatgen
data_Er8MgSc11Si15Ir
_symmetry_space_group_name_H-M   'P 1'
_cell_length_a   7.04563319
_cell_length_b   7.41414555
_cell_length_c   13.90261600
_cell_angle_alpha   90.00000000
_cell_angle_beta   90.00000000
_cell_angle_gamma   90.15471423
_symmetry_Int_Tables_number   1
_chemical_formula_structural   Er8MgSc11Si15Ir
_chemical_formula_sum   'Er8 Mg1 Sc11 Si15 Ir1'
_cell_volume   726.23317001
_cell_formula_units_Z   1
loop_
 _symmetry_equiv_pos_site_id
 _symmetry_equiv_pos_as_xyz
  1  'x, y, z'
loop_
 _atom_site_type_symbol
 _atom_site_label
 _atom_site_symmetry_multiplicity
 _atom_site_fract_x
 _atom_site_fract_y
 _atom_site_fract_z
 _atom_site_occupancy
  Er  Er0  1  0.010843  0.178282  0.095585  1
  Er  Er1  1  0.991542  0.821768  0.902352  1
  Er  Er2  1  0.486151  0.677007  0.903537  1
  Er  Er3  1  0.991542  0.821768  0.597648  1
  Er  Er4  1  0.510737  0.323271  0.095961  1
  Er  Er5  1  0.010843  0.178282  0.404415  1
  Er  Er6  1  0.510737  0.323271  0.404039  1
  Er  Er7  1  0.486151  0.677007  0.596463  1
  Mg  Mg8  1  0.158868  0.500762  0.750000  1
  Sc  Sc9  1  0.838205  0.496470  0.250000  1
  Sc  Sc10  1  0.338904  0.007359  0.250000  1
  Sc  Sc11  1  0.665521  0.994273  0.750000  1
  Sc  Sc12  1  0.316684  0.174478  0.627747  1
  Sc  Sc13  1  0.671784  0.826135  0.373974  1
  Sc  Sc14  1  0.171168  0.680050  0.373653  1
  Sc  Sc15  1  0.671784  0.826135  0.126026  1
  Sc  Sc16  1  0.839476  0.322405  0.628661  1
  Sc  Sc17  1  0.316684  0.174478  0.872253  1
  Sc  Sc18  1  0.839476  0.322405  0.871339  1
  Sc  Sc19  1  0.171168  0.680050  0.126347  1
  Si  Si20  1  0.968888  0.889255  0.250000  1
  Si  Si21  1  0.469872  0.613015  0.250000  1
  Si  Si22  1  0.532440  0.388566  0.750000  1
  Si  Si23  1  0.289451  0.870429  0.750000  1
  Si  Si24  1  0.714112  0.131993  0.250000  1
  Si  Si25  1  0.213031  0.371499  0.250000  1
  Si  Si26  1  0.773799  0.627197  0.750000  1
  Si  Si27  1  0.161810  0.465087  0.533480  1
  Si  Si28  1  0.843369  0.535562  0.461922  1
  Si  Si29  1  0.344983  0.967474  0.460664  1
  Si  Si30  1  0.843369  0.535562  0.038078  1
  Si  Si31  1  0.658680  0.033731  0.539302  1
  Si  Si32  1  0.161810  0.465087  0.966520  1
  Si  Si33  1  0.658680  0.033731  0.960698  1
  Si  Si34  1  0.344983  0.967474  0.039336  1
  Ir  Ir35  1  0.022462  0.098678  0.750000  1
