# generated using pymatgen
data_Ce2ErIn3Ru2
_symmetry_space_group_name_H-M   'P 1'
_cell_length_a   8.33393463
_cell_length_b   8.33393526
_cell_length_c   4.95745988
_cell_angle_alpha   82.96873916
_cell_angle_beta   82.96873488
_cell_angle_gamma   34.14916098
_symmetry_Int_Tables_number   1
_chemical_formula_structural   Ce2ErIn3Ru2
_chemical_formula_sum   'Ce2 Er1 In3 Ru2'
_cell_volume   191.69124007
_cell_formula_units_Z   1
loop_
 _symmetry_equiv_pos_site_id
 _symmetry_equiv_pos_as_xyz
  1  'x, y, z'
loop_
 _atom_site_type_symbol
 _atom_site_label
 _atom_site_symmetry_multiplicity
 _atom_site_fract_x
 _atom_site_fract_y
 _atom_site_fract_z
 _atom_site_occupancy
  Ce  Ce0  1  0.829496  0.829496  0.574475  1
  Ce  Ce1  1  0.170504  0.170504  0.425525  1
  Er  Er2  1  0.000000  0.000000  0.000000  1
  In  In3  1  0.370889  0.370889  0.047278  1
  In  In4  1  0.500000  0.500000  0.500000  1
  In  In5  1  0.629111  0.629111  0.952722  1
  Ru  Ru6  1  0.793808  0.793808  0.121583  1
  Ru  Ru7  1  0.206192  0.206192  0.878417  1
