# generated using pymatgen
data_Dy3Ho13(In3Pt)2
_symmetry_space_group_name_H-M   'P 1'
_cell_length_a   10.45017101
_cell_length_b   10.45041489
_cell_length_c   6.98660100
_cell_angle_alpha   89.99952080
_cell_angle_beta   90.00021078
_cell_angle_gamma   119.99561127
_symmetry_Int_Tables_number   1
_chemical_formula_structural   Dy3Ho13(In3Pt)2
_chemical_formula_sum   'Dy3 Ho13 In6 Pt2'
_cell_volume   660.80406762
_cell_formula_units_Z   1
loop_
 _symmetry_equiv_pos_site_id
 _symmetry_equiv_pos_as_xyz
  1  'x, y, z'
loop_
 _atom_site_type_symbol
 _atom_site_label
 _atom_site_symmetry_multiplicity
 _atom_site_fract_x
 _atom_site_fract_y
 _atom_site_fract_z
 _atom_site_occupancy
  Dy  Dy0  1  0.530631  0.061264  0.508340  1
  Dy  Dy1  1  0.938732  0.469373  0.508333  1
  Dy  Dy2  1  0.530643  0.469368  0.508345  1
  Ho  Ho3  1  0.468966  0.937938  0.008503  1
  Ho  Ho4  1  0.062072  0.531035  0.008500  1
  Ho  Ho5  1  0.468955  0.531038  0.008504  1
  Ho  Ho6  1  0.174840  0.349698  0.716214  1
  Ho  Ho7  1  0.650310  0.825176  0.716235  1
  Ho  Ho8  1  0.174874  0.825143  0.716257  1
  Ho  Ho9  1  0.825067  0.650120  0.215232  1
  Ho  Ho10  1  0.349896  0.174927  0.215250  1
  Ho  Ho11  1  0.825024  0.174956  0.215274  1
  Ho  Ho12  1  0.666650  0.333336  0.882735  1
  Ho  Ho13  1  0.333344  0.666658  0.382536  1
  Ho  Ho14  1  0.999973  0.000055  0.488089  1
  Ho  Ho15  1  0.000031  0.999951  0.988602  1
  In  In16  1  0.836835  0.673651  0.751973  1
  In  In17  1  0.326337  0.163156  0.751996  1
  In  In18  1  0.836875  0.163116  0.752090  1
  In  In19  1  0.163017  0.326055  0.252036  1
  In  In20  1  0.673894  0.836971  0.252075  1
  In  In21  1  0.163024  0.836994  0.252248  1
  Pt  Pt22  1  0.666667  0.333396  0.278861  1
  Pt  Pt23  1  0.333345  0.666623  0.779816  1
