# generated using pymatgen
data_Ho15Er(TmPt4)4
_symmetry_space_group_name_H-M   'P 1'
_cell_length_a   7.43677800
_cell_length_b   7.53863700
_cell_length_c   14.67797600
_cell_angle_alpha   90.00199493
_cell_angle_beta   90.00058942
_cell_angle_gamma   90.00149975
_symmetry_Int_Tables_number   1
_chemical_formula_structural   Ho15Er(TmPt4)4
_chemical_formula_sum   'Ho15 Er1 Tm4 Pt16'
_cell_volume   822.89386027
_cell_formula_units_Z   1
loop_
 _symmetry_equiv_pos_site_id
 _symmetry_equiv_pos_as_xyz
  1  'x, y, z'
loop_
 _atom_site_type_symbol
 _atom_site_label
 _atom_site_symmetry_multiplicity
 _atom_site_fract_x
 _atom_site_fract_y
 _atom_site_fract_z
 _atom_site_occupancy
  Ho  Ho0  1  0.156747  0.331959  0.877457  1
  Ho  Ho1  1  0.343255  0.831964  0.122538  1
  Ho  Ho2  1  0.843257  0.668034  0.377466  1
  Ho  Ho3  1  0.343261  0.831967  0.377469  1
  Ho  Ho4  1  0.843254  0.668035  0.122536  1
  Ho  Ho5  1  0.656749  0.168035  0.877451  1
  Ho  Ho6  1  0.156747  0.331952  0.622536  1
  Ho  Ho7  1  0.501948  0.679952  0.593090  1
  Ho  Ho8  1  0.001927  0.820055  0.906906  1
  Ho  Ho9  1  0.498075  0.320047  0.093092  1
  Ho  Ho10  1  0.998062  0.179941  0.406915  1
  Ho  Ho11  1  0.498087  0.320039  0.406927  1
  Ho  Ho12  1  0.998067  0.179940  0.093093  1
  Ho  Ho13  1  0.501929  0.679948  0.906902  1
  Ho  Ho14  1  0.001906  0.820080  0.593094  1
  Er  Er15  1  0.656745  0.168046  0.622548  1
  Tm  Tm16  1  0.818878  0.512240  0.749987  1
  Tm  Tm17  1  0.318934  0.987750  0.749987  1
  Tm  Tm18  1  0.181102  0.487729  0.250003  1
  Tm  Tm19  1  0.681104  0.012275  0.250001  1
  Pt  Pt20  1  0.683848  0.968213  0.457977  1
  Pt  Pt21  1  0.183860  0.531852  0.042067  1
  Pt  Pt22  1  0.316136  0.031847  0.957935  1
  Pt  Pt23  1  0.816088  0.468058  0.542092  1
  Pt  Pt24  1  0.316207  0.031876  0.542079  1
  Pt  Pt25  1  0.816141  0.468153  0.957935  1
  Pt  Pt26  1  0.683859  0.968150  0.042065  1
  Pt  Pt27  1  0.183857  0.531852  0.457936  1
  Pt  Pt28  1  0.454500  0.388024  0.749970  1
  Pt  Pt29  1  0.954395  0.111939  0.749973  1
  Pt  Pt30  1  0.545542  0.611934  0.250000  1
  Pt  Pt31  1  0.045542  0.888067  0.249998  1
  Pt  Pt32  1  0.681774  0.855588  0.749977  1
  Pt  Pt33  1  0.181787  0.644454  0.749999  1
  Pt  Pt34  1  0.318215  0.144464  0.250001  1
  Pt  Pt35  1  0.818215  0.355540  0.249999  1
