# generated using pymatgen
data_Y6TiAl12V3Os7
_symmetry_space_group_name_H-M   'P 1'
_cell_length_a   8.94329571
_cell_length_b   8.94329670
_cell_length_c   8.95003636
_cell_angle_alpha   60.02491590
_cell_angle_beta   60.02491042
_cell_angle_gamma   60.00000508
_symmetry_Int_Tables_number   1
_chemical_formula_structural   Y6TiAl12V3Os7
_chemical_formula_sum   'Y6 Ti1 Al12 V3 Os7'
_cell_volume   506.37060248
_cell_formula_units_Z   1
loop_
 _symmetry_equiv_pos_site_id
 _symmetry_equiv_pos_as_xyz
  1  'x, y, z'
loop_
 _atom_site_type_symbol
 _atom_site_label
 _atom_site_symmetry_multiplicity
 _atom_site_fract_x
 _atom_site_fract_y
 _atom_site_fract_z
 _atom_site_occupancy
  Y  Y0  1  0.708505  0.708505  0.290890  1
  Y  Y1  1  0.292101  0.708505  0.290890  1
  Y  Y2  1  0.708505  0.292101  0.290890  1
  Y  Y3  1  0.290066  0.290066  0.709983  1
  Y  Y4  1  0.709886  0.290066  0.709983  1
  Y  Y5  1  0.290066  0.709886  0.709983  1
  Ti  Ti6  1  0.880734  0.880734  0.357799  1
  Al  Al7  1  0.120182  0.120182  0.639454  1
  Al  Al8  1  0.118997  0.642668  0.119339  1
  Al  Al9  1  0.642668  0.118997  0.119339  1
  Al  Al10  1  0.118997  0.118997  0.119339  1
  Al  Al11  1  0.669228  0.669228  0.992316  1
  Al  Al12  1  0.668725  0.992879  0.669673  1
  Al  Al13  1  0.992879  0.668725  0.669673  1
  Al  Al14  1  0.668725  0.668725  0.669673  1
  Al  Al15  1  0.331233  0.331233  0.006301  1
  Al  Al16  1  0.331112  0.006692  0.331083  1
  Al  Al17  1  0.006692  0.331112  0.331083  1
  Al  Al18  1  0.331112  0.331112  0.331083  1
  V  V19  1  0.879114  0.361446  0.880326  1
  V  V20  1  0.361446  0.879114  0.880326  1
  V  V21  1  0.879114  0.879114  0.880326  1
  Os  Os22  1  0.003060  0.003060  0.990821  1
  Os  Os23  1  0.996965  0.996965  0.506401  1
  Os  Os24  1  0.499669  0.996965  0.506401  1
  Os  Os25  1  0.996965  0.499669  0.506401  1
  Os  Os26  1  0.503448  0.503448  0.996742  1
  Os  Os27  1  0.996361  0.503448  0.996742  1
  Os  Os28  1  0.503448  0.996361  0.996742  1
