# generated using pymatgen
data_NdTh3(Al8Pd3)3
_symmetry_space_group_name_H-M   'P 1'
_cell_length_a   7.62955057
_cell_length_b   7.65659596
_cell_length_c   13.31602601
_cell_angle_alpha   84.59695682
_cell_angle_beta   79.14827856
_cell_angle_gamma   59.94496508
_symmetry_Int_Tables_number   1
_chemical_formula_structural   NdTh3(Al8Pd3)3
_chemical_formula_sum   'Nd1 Th3 Al24 Pd9'
_cell_volume   661.24495586
_cell_formula_units_Z   1
loop_
 _symmetry_equiv_pos_site_id
 _symmetry_equiv_pos_as_xyz
  1  'x, y, z'
loop_
 _atom_site_type_symbol
 _atom_site_label
 _atom_site_symmetry_multiplicity
 _atom_site_fract_x
 _atom_site_fract_y
 _atom_site_fract_z
 _atom_site_occupancy
  Nd  Nd0  1  0.394855  0.167680  0.808154  1
  Th  Th1  1  0.604923  0.832410  0.192989  1
  Th  Th2  1  0.734365  0.498075  0.806310  1
  Th  Th3  1  0.265649  0.501957  0.193143  1
  Al  Al4  1  0.687009  0.834644  0.944889  1
  Al  Al5  1  0.312458  0.166438  0.053355  1
  Al  Al6  1  0.144293  0.834325  0.560928  1
  Al  Al7  1  0.854824  0.165387  0.440691  1
  Al  Al8  1  0.480181  0.166800  0.559025  1
  Al  Al9  1  0.519214  0.833476  0.442617  1
  Al  Al10  1  0.211717  0.165143  0.335881  1
  Al  Al11  1  0.785041  0.837199  0.664825  1
  Al  Al12  1  0.434908  0.507553  0.664640  1
  Al  Al13  1  0.565281  0.489564  0.336252  1
  Al  Al14  1  0.113313  0.155928  0.663543  1
  Al  Al15  1  0.888768  0.844693  0.337526  1
  Al  Al16  1  0.348689  0.502425  0.945425  1
  Al  Al17  1  0.652059  0.496082  0.053235  1
  Al  Al18  1  0.016189  0.164761  0.955017  1
  Al  Al19  1  0.985172  0.835562  0.042585  1
  Al  Al20  1  0.187077  0.500937  0.442186  1
  Al  Al21  1  0.812921  0.499011  0.558420  1
  Al  Al22  1  0.736839  0.163546  0.184598  1
  Al  Al23  1  0.264366  0.836769  0.815099  1
  Al  Al24  1  0.062873  0.633360  0.813706  1
  Al  Al25  1  0.937589  0.365243  0.185928  1
  Al  Al26  1  0.860254  0.038433  0.814889  1
  Al  Al27  1  0.138698  0.962680  0.184573  1
  Pd  Pd28  1  0.119155  0.493882  0.636858  1
  Pd  Pd29  1  0.880174  0.507498  0.362081  1
  Pd  Pd30  1  0.657393  0.170825  0.000462  1
  Pd  Pd31  1  0.342409  0.828776  0.001198  1
  Pd  Pd32  1  0.538553  0.166833  0.362324  1
  Pd  Pd33  1  0.461627  0.832113  0.636878  1
  Pd  Pd34  1  0.779926  0.174305  0.636758  1
  Pd  Pd35  1  0.221723  0.825395  0.362130  1
  Pd  Pd36  1  0.999515  0.500293  0.000881  1
