# generated using pymatgen
data_Rb4LiInSe4
_symmetry_space_group_name_H-M   'P 1'
_cell_length_a   8.77081412
_cell_length_b   8.77081370
_cell_length_c   8.77081400
_cell_angle_alpha   133.32343203
_cell_angle_beta   131.24761422
_cell_angle_gamma   69.79192842
_symmetry_Int_Tables_number   1
_chemical_formula_structural   Rb4LiInSe4
_chemical_formula_sum   'Rb4 Li1 In1 Se4'
_cell_volume   361.93182224
_cell_formula_units_Z   1
loop_
 _symmetry_equiv_pos_site_id
 _symmetry_equiv_pos_as_xyz
  1  'x, y, z'
loop_
 _atom_site_type_symbol
 _atom_site_label
 _atom_site_symmetry_multiplicity
 _atom_site_fract_x
 _atom_site_fract_y
 _atom_site_fract_z
 _atom_site_occupancy
  Rb  Rb0  1  0.817330  0.654493  0.181330  1
  Rb  Rb1  1  0.182670  0.364000  0.837163  1
  Rb  Rb2  1  0.526837  0.845507  0.662837  1
  Rb  Rb3  1  0.473163  0.136000  0.318670  1
  Li  Li4  1  0.000000  0.750000  0.750000  1
  In  In5  1  0.000000  0.250000  0.250000  1
  Se  Se6  1  0.292764  0.597752  0.680067  1
  Se  Se7  1  0.082315  0.902248  0.195011  1
  Se  Se8  1  0.917685  0.112696  0.819933  1
  Se  Se9  1  0.707236  0.387304  0.304989  1
