# generated using pymatgen
data_Tb2YHfIn2Ir3
_symmetry_space_group_name_H-M   'P 1'
_cell_length_a   7.43994070
_cell_length_b   7.26679362
_cell_length_c   4.18648600
_cell_angle_alpha   90.00000000
_cell_angle_beta   90.00000000
_cell_angle_gamma   119.28919409
_symmetry_Int_Tables_number   1
_chemical_formula_structural   Tb2YHfIn2Ir3
_chemical_formula_sum   'Tb2 Y1 Hf1 In2 Ir3'
_cell_volume   197.40533335
_cell_formula_units_Z   1
loop_
 _symmetry_equiv_pos_site_id
 _symmetry_equiv_pos_as_xyz
  1  'x, y, z'
loop_
 _atom_site_type_symbol
 _atom_site_label
 _atom_site_symmetry_multiplicity
 _atom_site_fract_x
 _atom_site_fract_y
 _atom_site_fract_z
 _atom_site_occupancy
  Tb  Tb0  1  0.582285  0.995523  0.000000  1
  Tb  Tb1  1  0.000030  0.604342  0.000000  1
  Y  Y2  1  0.417698  0.413183  0.000000  1
  Hf  Hf3  1  0.000410  0.245949  0.500000  1
  In  In4  1  0.745268  0.746958  0.500000  1
  In  In5  1  0.254197  0.001957  0.500000  1
  Ir  Ir6  1  0.999842  0.021687  0.000000  1
  Ir  Ir7  1  0.316054  0.643489  0.500000  1
  Ir  Ir8  1  0.684216  0.326911  0.500000  1
