# generated using pymatgen
data_Y3ZnSn3IrRu
_symmetry_space_group_name_H-M   'P 1'
_cell_length_a   7.61138500
_cell_length_b   7.61138545
_cell_length_c   3.91269100
_cell_angle_alpha   90.00000000
_cell_angle_beta   90.00000000
_cell_angle_gamma   120.00000239
_symmetry_Int_Tables_number   1
_chemical_formula_structural   Y3ZnSn3IrRu
_chemical_formula_sum   'Y3 Zn1 Sn3 Ir1 Ru1'
_cell_volume   196.30600209
_cell_formula_units_Z   1
loop_
 _symmetry_equiv_pos_site_id
 _symmetry_equiv_pos_as_xyz
  1  'x, y, z'
loop_
 _atom_site_type_symbol
 _atom_site_label
 _atom_site_symmetry_multiplicity
 _atom_site_fract_x
 _atom_site_fract_y
 _atom_site_fract_z
 _atom_site_occupancy
  Y  Y0  1  0.392650  0.982453  0.500000  1
  Y  Y1  1  0.017547  0.410198  0.500000  1
  Y  Y2  1  0.589802  0.607350  0.500000  1
  Zn  Zn3  1  0.666667  0.333333  0.000000  1
  Sn  Sn4  1  0.742825  0.001440  0.000000  1
  Sn  Sn5  1  0.998560  0.741383  0.000000  1
  Sn  Sn6  1  0.258617  0.257175  0.000000  1
  Ir  Ir7  1  0.333333  0.666667  0.000000  1
  Ru  Ru8  1  0.000000  0.000000  0.500000  1
