# generated using pymatgen
data_Gd2Y18Si15Os
_symmetry_space_group_name_H-M   'P 1'
_cell_length_a   7.43541325
_cell_length_b   7.78698536
_cell_length_c   14.68361400
_cell_angle_alpha   89.75356144
_cell_angle_beta   90.01478742
_cell_angle_gamma   89.94705000
_symmetry_Int_Tables_number   1
_chemical_formula_structural   Gd2Y18Si15Os
_chemical_formula_sum   'Gd2 Y18 Si15 Os1'
_cell_volume   850.16497886
_cell_formula_units_Z   1
loop_
 _symmetry_equiv_pos_site_id
 _symmetry_equiv_pos_as_xyz
  1  'x, y, z'
loop_
 _atom_site_type_symbol
 _atom_site_label
 _atom_site_symmetry_multiplicity
 _atom_site_fract_x
 _atom_site_fract_y
 _atom_site_fract_z
 _atom_site_occupancy
  Gd  Gd0  1  0.525714  0.566202  0.346666  1
  Gd  Gd1  1  0.026590  0.431932  0.653816  1
  Y  Y2  1  0.807047  0.575768  0.876911  1
  Y  Y3  1  0.325540  0.433457  0.124525  1
  Y  Y4  1  0.183551  0.927790  0.372855  1
  Y  Y5  1  0.683114  0.069889  0.626648  1
  Y  Y6  1  0.183066  0.928088  0.627608  1
  Y  Y7  1  0.682000  0.069961  0.373019  1
  Y  Y8  1  0.807914  0.574358  0.123763  1
  Y  Y9  1  0.326294  0.435358  0.874988  1
  Y  Y10  1  0.643479  0.236514  0.999777  1
  Y  Y11  1  0.158741  0.762573  0.000347  1
  Y  Y12  1  0.351464  0.263999  0.499819  1
  Y  Y13  1  0.851020  0.733322  0.499988  1
  Y  Y14  1  0.476799  0.924668  0.847201  1
  Y  Y15  1  0.972673  0.065638  0.152548  1
  Y  Y16  1  0.477646  0.924521  0.152901  1
  Y  Y17  1  0.973093  0.067501  0.847150  1
  Y  Y18  1  0.528146  0.563965  0.652778  1
  Y  Y19  1  0.027759  0.433648  0.346479  1
  Si  Si20  1  0.018887  0.350612  0.999978  1
  Si  Si21  1  0.477547  0.852146  0.500421  1
  Si  Si22  1  0.979990  0.146458  0.499735  1
  Si  Si23  1  0.650004  0.275166  0.789164  1
  Si  Si24  1  0.143690  0.721171  0.210940  1
  Si  Si25  1  0.353992  0.221676  0.289995  1
  Si  Si26  1  0.851480  0.778450  0.710484  1
  Si  Si27  1  0.356919  0.222253  0.710092  1
  Si  Si28  1  0.853881  0.777925  0.289712  1
  Si  Si29  1  0.648532  0.272021  0.209467  1
  Si  Si30  1  0.141441  0.723704  0.790272  1
  Si  Si31  1  0.767821  0.883423  0.000460  1
  Si  Si32  1  0.257052  0.126712  0.999761  1
  Si  Si33  1  0.234273  0.624627  0.500841  1
  Si  Si34  1  0.734721  0.374934  0.498893  1
  Os  Os35  1  0.518118  0.659570  0.999998  1
