# generated using pymatgen
data_Li3DyTm2Sn3
_symmetry_space_group_name_H-M   'P 1'
_cell_length_a   7.25424871
_cell_length_b   7.25424831
_cell_length_c   4.58496400
_cell_angle_alpha   90.00000000
_cell_angle_beta   90.00000000
_cell_angle_gamma   120.29909754
_symmetry_Int_Tables_number   1
_chemical_formula_structural   Li3DyTm2Sn3
_chemical_formula_sum   'Li3 Dy1 Tm2 Sn3'
_cell_volume   208.32173899
_cell_formula_units_Z   1
loop_
 _symmetry_equiv_pos_site_id
 _symmetry_equiv_pos_as_xyz
  1  'x, y, z'
loop_
 _atom_site_type_symbol
 _atom_site_label
 _atom_site_symmetry_multiplicity
 _atom_site_fract_x
 _atom_site_fract_y
 _atom_site_fract_z
 _atom_site_occupancy
  Li  Li0  1  0.769672  0.000094  0.500001  1
  Li  Li1  1  0.230197  0.230198  0.500001  1
  Li  Li2  1  0.000094  0.769673  0.500001  1
  Dy  Dy3  1  0.559421  0.559422  0.000000  1
  Tm  Tm4  1  0.440118  0.000074  0.000000  1
  Tm  Tm5  1  0.000074  0.440118  0.000000  1
  Sn  Sn6  1  0.001114  0.001114  0.000000  1
  Sn  Sn7  1  0.667116  0.332192  0.500001  1
  Sn  Sn8  1  0.332191  0.667114  0.500001  1
