# generated using pymatgen
data_Ca10Mn3ReN14
_symmetry_space_group_name_H-M   'P 1'
_cell_length_a   6.02854416
_cell_length_b   8.59034048
_cell_length_c   8.65404100
_cell_angle_alpha   115.23158969
_cell_angle_beta   96.82511077
_cell_angle_gamma   89.30652633
_symmetry_Int_Tables_number   1
_chemical_formula_structural   Ca10Mn3ReN14
_chemical_formula_sum   'Ca10 Mn3 Re1 N14'
_cell_volume   402.16615864
_cell_formula_units_Z   1
loop_
 _symmetry_equiv_pos_site_id
 _symmetry_equiv_pos_as_xyz
  1  'x, y, z'
loop_
 _atom_site_type_symbol
 _atom_site_label
 _atom_site_symmetry_multiplicity
 _atom_site_fract_x
 _atom_site_fract_y
 _atom_site_fract_z
 _atom_site_occupancy
  Ca  Ca0  1  0.844027  0.584318  0.335745  1
  Ca  Ca1  1  0.276594  0.989313  0.578923  1
  Ca  Ca2  1  0.706144  0.402116  0.845532  1
  Ca  Ca3  1  0.288935  0.574411  0.146020  1
  Ca  Ca4  1  0.393921  0.789435  0.910187  1
  Ca  Ca5  1  0.588205  0.211455  0.074855  1
  Ca  Ca6  1  0.160189  0.397090  0.670728  1
  Ca  Ca7  1  0.895998  0.861146  0.758775  1
  Ca  Ca8  1  0.113345  0.170282  0.238477  1
  Ca  Ca9  1  0.738230  0.024186  0.448470  1
  Mn  Mn10  1  0.574864  0.361459  0.475236  1
  Mn  Mn11  1  0.425202  0.637002  0.524522  1
  Mn  Mn12  1  0.119417  0.218709  0.916279  1
  Re  Re13  1  0.877566  0.783316  0.084532  1
  N  N14  1  0.536582  0.550545  0.676472  1
  N  N15  1  0.460298  0.444820  0.322887  1
  N  N16  1  0.159880  0.703835  0.564021  1
  N  N17  1  0.843022  0.301980  0.439724  1
  N  N18  1  0.414741  0.191273  0.470347  1
  N  N19  1  0.588391  0.805921  0.528372  1
  N  N20  1  0.947928  0.140325  0.716275  1
  N  N21  1  0.054340  0.866303  0.292454  1
  N  N22  1  0.232060  0.045857  0.956056  1
  N  N23  1  0.761063  0.956187  0.035132  1
  N  N24  1  0.359305  0.322546  0.894248  1
  N  N25  1  0.966865  0.355689  0.084956  1
  N  N26  1  0.038546  0.643642  0.912359  1
  N  N27  1  0.634343  0.666835  0.098418  1
