# generated using pymatgen
data_NdSm2(GaRh)2
_symmetry_space_group_name_H-M   'P 1'
_cell_length_a   5.66052700
_cell_length_b   8.13632400
_cell_length_c   13.63276800
_cell_angle_alpha   90.00000000
_cell_angle_beta   90.00000000
_cell_angle_gamma   90.00000000
_symmetry_Int_Tables_number   1
_chemical_formula_structural   NdSm2(GaRh)2
_chemical_formula_sum   'Nd4 Sm8 Ga8 Rh8'
_cell_volume   627.86915002
_cell_formula_units_Z   4
loop_
 _symmetry_equiv_pos_site_id
 _symmetry_equiv_pos_as_xyz
  1  'x, y, z'
loop_
 _atom_site_type_symbol
 _atom_site_label
 _atom_site_symmetry_multiplicity
 _atom_site_fract_x
 _atom_site_fract_y
 _atom_site_fract_z
 _atom_site_occupancy
  Nd  Nd0  1  0.634672  0.258736  0.250000  1
  Nd  Nd1  1  0.365328  0.741264  0.750000  1
  Nd  Nd2  1  0.365328  0.758736  0.250000  1
  Nd  Nd3  1  0.634672  0.241264  0.750000  1
  Sm  Sm4  1  0.148594  0.397542  0.097416  1
  Sm  Sm5  1  0.851406  0.602458  0.902584  1
  Sm  Sm6  1  0.851406  0.602458  0.597416  1
  Sm  Sm7  1  0.851406  0.897542  0.402584  1
  Sm  Sm8  1  0.148594  0.397542  0.402584  1
  Sm  Sm9  1  0.148594  0.102458  0.597416  1
  Sm  Sm10  1  0.148594  0.102458  0.902584  1
  Sm  Sm11  1  0.851406  0.897542  0.097416  1
  Ga  Ga12  1  0.132671  0.109460  0.250000  1
  Ga  Ga13  1  0.867329  0.890540  0.750000  1
  Ga  Ga14  1  0.867329  0.609460  0.250000  1
  Ga  Ga15  1  0.132671  0.390540  0.750000  1
  Ga  Ga16  1  0.638165  0.250000  0.000000  1
  Ga  Ga17  1  0.361835  0.750000  0.000000  1
  Ga  Ga18  1  0.361835  0.750000  0.500000  1
  Ga  Ga19  1  0.638165  0.250000  0.500000  1
  Rh  Rh20  1  0.357014  0.035184  0.091056  1
  Rh  Rh21  1  0.642986  0.964816  0.908944  1
  Rh  Rh22  1  0.642986  0.964816  0.591056  1
  Rh  Rh23  1  0.642986  0.535184  0.408944  1
  Rh  Rh24  1  0.357014  0.035184  0.408944  1
  Rh  Rh25  1  0.357014  0.464816  0.591056  1
  Rh  Rh26  1  0.357014  0.464816  0.908944  1
  Rh  Rh27  1  0.642986  0.535184  0.091056  1
