# generated using pymatgen
data_Sm12Ru3PtBr12
_symmetry_space_group_name_H-M   'P 1'
_cell_length_a   10.36175946
_cell_length_b   10.36175904
_cell_length_c   10.31052300
_cell_angle_alpha   109.37108566
_cell_angle_beta   109.37108484
_cell_angle_gamma   109.57116583
_symmetry_Int_Tables_number   1
_chemical_formula_structural   Sm12Ru3PtBr12
_chemical_formula_sum   'Sm12 Ru3 Pt1 Br12'
_cell_volume   853.22001449
_cell_formula_units_Z   1
loop_
 _symmetry_equiv_pos_site_id
 _symmetry_equiv_pos_as_xyz
  1  'x, y, z'
loop_
 _atom_site_type_symbol
 _atom_site_label
 _atom_site_symmetry_multiplicity
 _atom_site_fract_x
 _atom_site_fract_y
 _atom_site_fract_z
 _atom_site_occupancy
  Sm  Sm0  1  0.262687  0.740483  0.229300  1
  Sm  Sm1  1  0.477795  0.740483  0.011183  1
  Sm  Sm2  1  0.233168  0.466336  0.483168  1
  Sm  Sm3  1  0.016112  0.032226  0.266112  1
  Sm  Sm4  1  0.233168  0.266832  0.750000  1
  Sm  Sm5  1  0.016112  0.483888  0.750000  1
  Sm  Sm6  1  0.477795  0.237313  0.466611  1
  Sm  Sm7  1  0.262687  0.022205  0.033389  1
  Sm  Sm8  1  0.759517  0.237313  0.270700  1
  Sm  Sm9  1  0.759517  0.022205  0.488817  1
  Sm  Sm10  1  0.467774  0.483888  0.233888  1
  Sm  Sm11  1  0.033664  0.266832  0.016832  1
  Ru  Ru12  1  0.249950  0.499899  0.999950  1
  Ru  Ru13  1  0.000101  0.250050  0.500050  1
  Ru  Ru14  1  0.249950  0.250050  0.250000  1
  Pt  Pt15  1  0.500000  0.000000  0.250000  1
  Br  Br16  1  0.248968  0.994988  0.503766  1
  Br  Br17  1  0.511863  0.505932  0.755932  1
  Br  Br18  1  0.248968  0.753980  0.745202  1
  Br  Br19  1  0.991121  0.745561  0.995561  1
  Br  Br20  1  0.994068  0.505932  0.250000  1
  Br  Br21  1  0.746020  0.994988  0.991220  1
  Br  Br22  1  0.754439  0.745561  0.250000  1
  Br  Br23  1  0.505012  0.753980  0.508780  1
  Br  Br24  1  0.505012  0.251032  0.996234  1
  Br  Br25  1  0.754439  0.508879  0.504439  1
  Br  Br26  1  0.746020  0.251032  0.754798  1
  Br  Br27  1  0.994068  0.988137  0.744068  1
