# generated using pymatgen
data_Hf2Ta2SiGe
_symmetry_space_group_name_H-M   'P 1'
_cell_length_a   3.63299800
_cell_length_b   7.00763900
_cell_length_c   8.51170900
_cell_angle_alpha   90.00000000
_cell_angle_beta   90.00000000
_cell_angle_gamma   90.00000000
_symmetry_Int_Tables_number   1
_chemical_formula_structural   Hf2Ta2SiGe
_chemical_formula_sum   'Hf4 Ta4 Si2 Ge2'
_cell_volume   216.69737338
_cell_formula_units_Z   2
loop_
 _symmetry_equiv_pos_site_id
 _symmetry_equiv_pos_as_xyz
  1  'x, y, z'
loop_
 _atom_site_type_symbol
 _atom_site_label
 _atom_site_symmetry_multiplicity
 _atom_site_fract_x
 _atom_site_fract_y
 _atom_site_fract_z
 _atom_site_occupancy
  Hf  Hf0  1  0.250000  0.041520  0.668244  1
  Hf  Hf1  1  0.250000  0.541520  0.831756  1
  Hf  Hf2  1  0.750000  0.454193  0.161399  1
  Hf  Hf3  1  0.750000  0.954193  0.338601  1
  Ta  Ta4  1  0.750000  0.869239  0.937762  1
  Ta  Ta5  1  0.250000  0.635799  0.444986  1
  Ta  Ta6  1  0.750000  0.369239  0.562238  1
  Ta  Ta7  1  0.250000  0.135799  0.055014  1
  Si  Si8  1  0.750000  0.745635  0.643925  1
  Si  Si9  1  0.750000  0.245635  0.856075  1
  Ge  Ge10  1  0.250000  0.253614  0.356522  1
  Ge  Ge11  1  0.250000  0.753614  0.143478  1
