# generated using pymatgen
data_Hf6Re5Si6Mo
_symmetry_space_group_name_H-M   'P 1'
_cell_length_a   7.78135349
_cell_length_b   7.77075100
_cell_length_c   7.78097569
_cell_angle_alpha   126.74018370
_cell_angle_beta   127.89416544
_cell_angle_gamma   77.76744157
_symmetry_Int_Tables_number   1
_chemical_formula_structural   Hf6Re5Si6Mo
_chemical_formula_sum   'Hf6 Re5 Si6 Mo1'
_cell_volume   288.39457796
_cell_formula_units_Z   1
loop_
 _symmetry_equiv_pos_site_id
 _symmetry_equiv_pos_as_xyz
  1  'x, y, z'
loop_
 _atom_site_type_symbol
 _atom_site_label
 _atom_site_symmetry_multiplicity
 _atom_site_fract_x
 _atom_site_fract_y
 _atom_site_fract_z
 _atom_site_occupancy
  Hf  Hf0  1  0.451418  0.656580  0.704193  1
  Hf  Hf1  1  0.548650  0.253475  0.204578  1
  Hf  Hf2  1  0.750224  0.850173  0.600285  1
  Hf  Hf3  1  0.250013  0.850593  0.099892  1
  Hf  Hf4  1  0.048577  0.253254  0.703949  1
  Hf  Hf5  1  0.951719  0.656047  0.204550  1
  Re  Re6  1  0.499582  0.509551  0.010318  1
  Re  Re7  1  0.000267  0.510564  0.510599  1
  Re  Re8  1  0.127760  0.253116  0.125466  1
  Re  Re9  1  0.872062  0.996815  0.125230  1
  Re  Re10  1  0.371358  0.996779  0.625607  1
  Si  Si11  1  0.249499  0.253516  0.502886  1
  Si  Si12  1  0.750709  0.253252  0.004293  1
  Si  Si13  1  0.332638  0.585926  0.252602  1
  Si  Si14  1  0.666696  0.918802  0.252248  1
  Si  Si15  1  0.166283  0.920749  0.753970  1
  Si  Si16  1  0.833787  0.587093  0.753740  1
  Mo  Mo17  1  0.628759  0.253317  0.625197  1
