# generated using pymatgen
data_PrCoMo(PRh)3
_symmetry_space_group_name_H-M   'P 1'
_cell_length_a   3.91184900
_cell_length_b   10.85120200
_cell_length_c   12.52436500
_cell_angle_alpha   90.00000000
_cell_angle_beta   90.00000000
_cell_angle_gamma   90.00000000
_symmetry_Int_Tables_number   1
_chemical_formula_structural   PrCoMo(PRh)3
_chemical_formula_sum   'Pr4 Co4 Mo4 P12 Rh12'
_cell_volume   531.63754810
_cell_formula_units_Z   4
loop_
 _symmetry_equiv_pos_site_id
 _symmetry_equiv_pos_as_xyz
  1  'x, y, z'
loop_
 _atom_site_type_symbol
 _atom_site_label
 _atom_site_symmetry_multiplicity
 _atom_site_fract_x
 _atom_site_fract_y
 _atom_site_fract_z
 _atom_site_occupancy
  Pr  Pr0  1  0.250000  0.582665  0.706438  1
  Pr  Pr1  1  0.250000  0.917335  0.206438  1
  Pr  Pr2  1  0.750000  0.417335  0.293562  1
  Pr  Pr3  1  0.750000  0.082665  0.793562  1
  Co  Co4  1  0.250000  0.464779  0.936276  1
  Co  Co5  1  0.250000  0.035221  0.436276  1
  Co  Co6  1  0.750000  0.535221  0.063724  1
  Co  Co7  1  0.750000  0.964779  0.563724  1
  Mo  Mo8  1  0.250000  0.704938  0.985051  1
  Mo  Mo9  1  0.250000  0.795062  0.485051  1
  Mo  Mo10  1  0.750000  0.295062  0.014949  1
  Mo  Mo11  1  0.750000  0.204938  0.514949  1
  P  P12  1  0.250000  0.423465  0.106485  1
  P  P13  1  0.250000  0.076535  0.606485  1
  P  P14  1  0.750000  0.576535  0.893515  1
  P  P15  1  0.750000  0.923465  0.393515  1
  P  P16  1  0.250000  0.273684  0.872931  1
  P  P17  1  0.250000  0.226316  0.372931  1
  P  P18  1  0.750000  0.726316  0.127069  1
  P  P19  1  0.750000  0.773684  0.627069  1
  P  P20  1  0.250000  0.602956  0.392997  1
  P  P21  1  0.250000  0.897044  0.892997  1
  P  P22  1  0.750000  0.397044  0.607003  1
  P  P23  1  0.750000  0.102956  0.107003  1
  Rh  Rh24  1  0.250000  0.403662  0.488508  1
  Rh  Rh25  1  0.250000  0.096338  0.988508  1
  Rh  Rh26  1  0.750000  0.596338  0.511492  1
  Rh  Rh27  1  0.750000  0.903662  0.011492  1
  Rh  Rh28  1  0.250000  0.228151  0.179584  1
  Rh  Rh29  1  0.250000  0.271849  0.679584  1
  Rh  Rh30  1  0.750000  0.771849  0.820416  1
  Rh  Rh31  1  0.750000  0.728151  0.320416  1
  Rh  Rh32  1  0.250000  0.887262  0.697691  1
  Rh  Rh33  1  0.250000  0.612738  0.197691  1
  Rh  Rh34  1  0.750000  0.112738  0.302309  1
  Rh  Rh35  1  0.750000  0.387262  0.802309  1
