# generated using pymatgen
data_Al2GaNiRh4
_symmetry_space_group_name_H-M   'P 1'
_cell_length_a   5.19529750
_cell_length_b   5.19529812
_cell_length_c   4.23820800
_cell_angle_alpha   90.00000000
_cell_angle_beta   90.00000000
_cell_angle_gamma   109.22390056
_symmetry_Int_Tables_number   1
_chemical_formula_structural   Al2GaNiRh4
_chemical_formula_sum   'Al2 Ga1 Ni1 Rh4'
_cell_volume   108.01526705
_cell_formula_units_Z   1
loop_
 _symmetry_equiv_pos_site_id
 _symmetry_equiv_pos_as_xyz
  1  'x, y, z'
loop_
 _atom_site_type_symbol
 _atom_site_label
 _atom_site_symmetry_multiplicity
 _atom_site_fract_x
 _atom_site_fract_y
 _atom_site_fract_z
 _atom_site_occupancy
  Al  Al0  1  0.739824  0.260176  0.500000  1
  Al  Al1  1  0.260176  0.739824  0.500000  1
  Ga  Ga2  1  0.000000  0.000000  0.000000  1
  Ni  Ni3  1  0.500000  0.500000  0.000000  1
  Rh  Rh4  1  0.500000  0.000000  0.000000  1
  Rh  Rh5  1  0.000000  0.500000  0.000000  1
  Rh  Rh6  1  0.754625  0.754625  0.500000  1
  Rh  Rh7  1  0.245375  0.245375  0.500000  1
