# generated using pymatgen
data_Er12InCuNi4
_symmetry_space_group_name_H-M   'P 1'
_cell_length_a   8.25259045
_cell_length_b   8.25272508
_cell_length_c   8.25259102
_cell_angle_alpha   112.11502715
_cell_angle_beta   109.63490100
_cell_angle_gamma   106.70813187
_symmetry_Int_Tables_number   1
_chemical_formula_structural   Er12InCuNi4
_chemical_formula_sum   'Er12 In1 Cu1 Ni4'
_cell_volume   431.70978062
_cell_formula_units_Z   1
loop_
 _symmetry_equiv_pos_site_id
 _symmetry_equiv_pos_as_xyz
  1  'x, y, z'
loop_
 _atom_site_type_symbol
 _atom_site_label
 _atom_site_symmetry_multiplicity
 _atom_site_fract_x
 _atom_site_fract_y
 _atom_site_fract_z
 _atom_site_occupancy
  Er  Er0  1  0.324191  0.131518  0.807327  1
  Er  Er1  1  0.675816  0.483155  0.807338  1
  Er  Er2  1  0.417288  0.723969  0.693335  1
  Er  Er3  1  0.582712  0.276031  0.306665  1
  Er  Er4  1  0.969366  0.276031  0.693319  1
  Er  Er5  1  0.030634  0.723969  0.306681  1
  Er  Er6  1  0.324184  0.516845  0.192662  1
  Er  Er7  1  0.675809  0.868482  0.192673  1
  Er  Er8  1  0.180001  0.788777  0.968777  1
  Er  Er9  1  0.820002  0.788777  0.608776  1
  Er  Er10  1  0.179998  0.211223  0.391224  1
  Er  Er11  1  0.819999  0.211223  0.031223  1
  In  In12  1  0.500000  0.000000  0.500000  1
  Cu  Cu13  1  0.000000  0.500000  0.500000  1
  Ni  Ni14  1  0.876036  0.876038  0.000003  1
  Ni  Ni15  1  0.123964  0.123962  0.999997  1
  Ni  Ni16  1  0.645993  0.500000  0.145993  1
  Ni  Ni17  1  0.354007  0.500000  0.854007  1
