# generated using pymatgen
data_Na2Cu17Si8Au
_symmetry_space_group_name_H-M   'P 1'
_cell_length_a   8.20129207
_cell_length_b   8.20114209
_cell_length_c   8.21637499
_cell_angle_alpha   120.66611563
_cell_angle_beta   119.84969160
_cell_angle_gamma   89.43766983
_symmetry_Int_Tables_number   1
_chemical_formula_structural   Na2Cu17Si8Au
_chemical_formula_sum   'Na2 Cu17 Si8 Au1'
_cell_volume   389.60436327
_cell_formula_units_Z   1
loop_
 _symmetry_equiv_pos_site_id
 _symmetry_equiv_pos_as_xyz
  1  'x, y, z'
loop_
 _atom_site_type_symbol
 _atom_site_label
 _atom_site_symmetry_multiplicity
 _atom_site_fract_x
 _atom_site_fract_y
 _atom_site_fract_z
 _atom_site_occupancy
  Na  Na0  1  0.749720  0.750324  0.001032  1
  Na  Na1  1  0.250683  0.251306  0.000999  1
  Cu  Cu2  1  0.719648  0.559902  0.278983  1
  Cu  Cu3  1  0.287256  0.419347  0.706915  1
  Cu  Cu4  1  0.936508  0.798333  0.735222  1
  Cu  Cu5  1  0.563378  0.299884  0.863341  1
  Cu  Cu6  1  0.307472  0.559249  0.496490  1
  Cu  Cu7  1  0.061258  0.811691  0.504589  1
  Cu  Cu8  1  0.692891  0.443207  0.504533  1
  Cu  Cu9  1  0.937114  0.188893  0.496258  1
  Cu  Cu10  1  0.440910  0.942881  0.750707  1
  Cu  Cu11  1  0.181975  0.692436  0.248022  1
  Cu  Cu12  1  0.555503  0.066051  0.247880  1
  Cu  Cu13  1  0.204139  0.936089  0.140125  1
  Cu  Cu14  1  0.061626  0.201517  0.262584  1
  Cu  Cu15  1  0.004376  0.500328  0.504779  1
  Cu  Cu16  1  0.500606  0.004153  0.504661  1
  Cu  Cu17  1  0.807676  0.309470  0.750380  1
  Cu  Cu18  1  0.794056  0.066579  0.860666  1
  Si  Si19  1  0.287471  0.796898  0.848054  1
  Si  Si20  1  0.051124  0.560507  0.848257  1
  Si  Si21  1  0.567083  0.712030  0.514546  1
  Si  Si22  1  0.802275  0.947219  0.514106  1
  Si  Si23  1  0.438536  0.290619  0.494967  1
  Si  Si24  1  0.940367  0.437851  0.147480  1
  Si  Si25  1  0.709768  0.207302  0.147642  1
  Si  Si26  1  0.204518  0.056549  0.495222  1
  Au  Au27  1  0.442064  0.689388  0.131558  1
