# generated using pymatgen
data_NiSn4Rh
_symmetry_space_group_name_H-M   'P 1'
_cell_length_a   6.82657769
_cell_length_b   6.82657800
_cell_length_c   6.37787900
_cell_angle_alpha   90.00000000
_cell_angle_beta   90.00000000
_cell_angle_gamma   124.76273820
_symmetry_Int_Tables_number   1
_chemical_formula_structural   NiSn4Rh
_chemical_formula_sum   'Ni2 Sn8 Rh2'
_cell_volume   244.17467191
_cell_formula_units_Z   2
loop_
 _symmetry_equiv_pos_site_id
 _symmetry_equiv_pos_as_xyz
  1  'x, y, z'
loop_
 _atom_site_type_symbol
 _atom_site_label
 _atom_site_symmetry_multiplicity
 _atom_site_fract_x
 _atom_site_fract_y
 _atom_site_fract_z
 _atom_site_occupancy
  Ni  Ni0  1  0.617431  0.382569  0.500000  1
  Ni  Ni1  1  0.117431  0.882569  0.000000  1
  Sn  Sn2  1  0.662146  0.658325  0.837864  1
  Sn  Sn3  1  0.341675  0.337854  0.162136  1
  Sn  Sn4  1  0.162146  0.158325  0.662136  1
  Sn  Sn5  1  0.841675  0.837854  0.337864  1
  Sn  Sn6  1  0.002150  0.507189  0.751096  1
  Sn  Sn7  1  0.492811  0.997850  0.248904  1
  Sn  Sn8  1  0.502150  0.007189  0.748904  1
  Sn  Sn9  1  0.992811  0.497850  0.251096  1
  Rh  Rh10  1  0.383788  0.616212  0.500000  1
  Rh  Rh11  1  0.883788  0.116212  0.000000  1
