# generated using pymatgen
data_La12Th2CuIr5
_symmetry_space_group_name_H-M   'P 1'
_cell_length_a   6.53323082
_cell_length_b   10.24982959
_cell_length_c   10.24982880
_cell_angle_alpha   120.32582095
_cell_angle_beta   90.09309261
_cell_angle_gamma   89.90691358
_symmetry_Int_Tables_number   1
_chemical_formula_structural   La12Th2CuIr5
_chemical_formula_sum   'La12 Th2 Cu1 Ir5'
_cell_volume   592.45569035
_cell_formula_units_Z   1
loop_
 _symmetry_equiv_pos_site_id
 _symmetry_equiv_pos_as_xyz
  1  'x, y, z'
loop_
 _atom_site_type_symbol
 _atom_site_label
 _atom_site_symmetry_multiplicity
 _atom_site_fract_x
 _atom_site_fract_y
 _atom_site_fract_z
 _atom_site_occupancy
  La  La0  1  0.244967  0.125879  0.874121  1
  La  La1  1  0.242905  0.740377  0.863130  1
  La  La2  1  0.242905  0.136870  0.259623  1
  La  La3  1  0.732981  0.873674  0.126326  1
  La  La4  1  0.742378  0.253296  0.127607  1
  La  La5  1  0.742378  0.872393  0.746704  1
  La  La6  1  0.441989  0.540559  0.459441  1
  La  La7  1  0.445375  0.929200  0.468298  1
  La  La8  1  0.445375  0.531702  0.070800  1
  La  La9  1  0.938288  0.461274  0.538726  1
  La  La10  1  0.944158  0.074911  0.540364  1
  La  La11  1  0.944158  0.459636  0.925089  1
  Th  Th12  1  0.482282  0.333545  0.666455  1
  Th  Th13  1  0.976985  0.663391  0.336609  1
  Cu  Cu14  1  0.189277  0.811011  0.188989  1
  Ir  Ir15  1  0.188778  0.383657  0.189641  1
  Ir  Ir16  1  0.188778  0.810359  0.616343  1
  Ir  Ir17  1  0.687550  0.190952  0.809048  1
  Ir  Ir18  1  0.690246  0.619077  0.811765  1
  Ir  Ir19  1  0.690246  0.188235  0.380923  1
