# generated using pymatgen
data_La3Nd2TaBiSbO14
_symmetry_space_group_name_H-M   'P 1'
_cell_length_a   6.71985300
_cell_length_b   6.81085624
_cell_length_c   7.76945900
_cell_angle_alpha   90.00000000
_cell_angle_beta   90.00000000
_cell_angle_gamma   109.36615916
_symmetry_Int_Tables_number   1
_chemical_formula_structural   La3Nd2TaBiSbO14
_chemical_formula_sum   'La3 Nd2 Ta1 Bi1 Sb1 O14'
_cell_volume   335.47235423
_cell_formula_units_Z   1
loop_
 _symmetry_equiv_pos_site_id
 _symmetry_equiv_pos_as_xyz
  1  'x, y, z'
loop_
 _atom_site_type_symbol
 _atom_site_label
 _atom_site_symmetry_multiplicity
 _atom_site_fract_x
 _atom_site_fract_y
 _atom_site_fract_z
 _atom_site_occupancy
  La  La0  1  0.528950  0.516485  0.502150  1
  La  La1  1  0.531333  0.521520  0.997827  1
  La  La2  1  0.456623  0.998021  0.248197  1
  Nd  Nd3  1  0.008892  0.467371  0.751327  1
  Nd  Nd4  1  0.529480  0.002150  0.750900  1
  Ta  Ta5  1  0.995442  0.995161  0.000563  1
  Bi  Bi6  1  0.011123  0.503977  0.249228  1
  Sb  Sb7  1  0.994517  0.997957  0.503001  1
  O  O8  1  0.938302  0.069989  0.750905  1
  O  O9  1  0.046192  0.960499  0.248844  1
  O  O10  1  0.369966  0.629649  0.250428  1
  O  O11  1  0.643318  0.362769  0.750718  1
  O  O12  1  0.378587  0.631580  0.749810  1
  O  O13  1  0.633602  0.361785  0.249103  1
  O  O14  1  0.301165  0.060124  0.966727  1
  O  O15  1  0.680646  0.926990  0.475123  1
  O  O16  1  0.304415  0.063415  0.531569  1
  O  O17  1  0.678371  0.924048  0.023332  1
  O  O18  1  0.054925  0.309672  0.470265  1
  O  O19  1  0.931452  0.694940  0.961271  1
  O  O20  1  0.930065  0.692002  0.538723  1
  O  O21  1  0.052633  0.309892  0.029988  1
