# generated using pymatgen
data_Tb2VGeF14
_symmetry_space_group_name_H-M   'P 1'
_cell_length_a   5.51269882
_cell_length_b   8.81388102
_cell_length_c   11.78010033
_cell_angle_alpha   62.73253310
_cell_angle_beta   89.97179059
_cell_angle_gamma   90.03622652
_symmetry_Int_Tables_number   1
_chemical_formula_structural   Tb2VGeF14
_chemical_formula_sum   'Tb4 V2 Ge2 F28'
_cell_volume   508.77071435
_cell_formula_units_Z   2
loop_
 _symmetry_equiv_pos_site_id
 _symmetry_equiv_pos_as_xyz
  1  'x, y, z'
loop_
 _atom_site_type_symbol
 _atom_site_label
 _atom_site_symmetry_multiplicity
 _atom_site_fract_x
 _atom_site_fract_y
 _atom_site_fract_z
 _atom_site_occupancy
  Tb  Tb0  1  0.258562  0.813240  0.264548  1
  Tb  Tb1  1  0.741438  0.186760  0.735452  1
  Tb  Tb2  1  0.759242  0.196486  0.229169  1
  Tb  Tb3  1  0.240758  0.803514  0.770831  1
  V  V4  1  0.254911  0.274361  0.455899  1
  V  V5  1  0.745089  0.725639  0.544101  1
  Ge  Ge6  1  0.755197  0.726375  0.044607  1
  Ge  Ge7  1  0.244803  0.273625  0.955393  1
  F  F8  1  0.949300  0.706287  0.422335  1
  F  F9  1  0.050700  0.293713  0.577665  1
  F  F10  1  0.442919  0.295707  0.071140  1
  F  F11  1  0.557081  0.704293  0.928860  1
  F  F12  1  0.490315  0.730681  0.136995  1
  F  F13  1  0.509685  0.269319  0.863005  1
  F  F14  1  0.980337  0.268487  0.360904  1
  F  F15  1  0.019663  0.731513  0.639096  1
  F  F16  1  0.951551  0.743136  0.164914  1
  F  F17  1  0.048449  0.256864  0.835086  1
  F  F18  1  0.455799  0.253656  0.330850  1
  F  F19  1  0.544201  0.746344  0.669150  1
  F  F20  1  0.765456  0.494248  0.137544  1
  F  F21  1  0.234544  0.505752  0.862456  1
  F  F22  1  0.266405  0.508800  0.360255  1
  F  F23  1  0.733595  0.491200  0.639745  1
  F  F24  1  0.970638  0.287447  0.039868  1
  F  F25  1  0.029362  0.712553  0.960132  1
  F  F26  1  0.462617  0.715023  0.453687  1
  F  F27  1  0.537383  0.284977  0.546313  1
  F  F28  1  0.741331  0.958047  0.453344  1
  F  F29  1  0.258669  0.041953  0.546656  1
  F  F30  1  0.241869  0.042171  0.046221  1
  F  F31  1  0.758131  0.957829  0.953779  1
  F  F32  1  0.584621  0.973668  0.230383  1
  F  F33  1  0.415379  0.026332  0.769617  1
  F  F34  1  0.081372  0.030105  0.269754  1
  F  F35  1  0.918628  0.969895  0.730246  1
