# generated using pymatgen
data_Er12Ga2Fe2Os
_symmetry_space_group_name_H-M   'P 1'
_cell_length_a   8.19026163
_cell_length_b   8.19071914
_cell_length_c   8.19026015
_cell_angle_alpha   109.05068224
_cell_angle_beta   109.06440730
_cell_angle_gamma   110.29947726
_symmetry_Int_Tables_number   1
_chemical_formula_structural   Er12Ga2Fe2Os
_chemical_formula_sum   'Er12 Ga2 Fe2 Os1'
_cell_volume   422.90183714
_cell_formula_units_Z   1
loop_
 _symmetry_equiv_pos_site_id
 _symmetry_equiv_pos_as_xyz
  1  'x, y, z'
loop_
 _atom_site_type_symbol
 _atom_site_label
 _atom_site_symmetry_multiplicity
 _atom_site_fract_x
 _atom_site_fract_y
 _atom_site_fract_z
 _atom_site_occupancy
  Er  Er0  1  0.307940  0.307936  0.615868  1
  Er  Er1  1  0.692060  0.692064  0.384132  1
  Er  Er2  1  0.307933  0.692064  0.000003  1
  Er  Er3  1  0.692067  0.307936  0.999997  1
  Er  Er4  1  0.433106  0.189455  0.243646  1
  Er  Er5  1  0.566894  0.810545  0.756354  1
  Er  Er6  1  0.945809  0.189455  0.756349  1
  Er  Er7  1  0.189472  0.945823  0.756352  1
  Er  Er8  1  0.054191  0.810545  0.243651  1
  Er  Er9  1  0.810528  0.054177  0.243648  1
  Er  Er10  1  0.189441  0.433099  0.243658  1
  Er  Er11  1  0.810559  0.566901  0.756342  1
  Ga  Ga12  1  0.500000  0.000000  0.500000  1
  Ga  Ga13  1  0.000000  0.500000  0.500000  1
  Fe  Fe14  1  0.383942  0.384052  0.000111  1
  Fe  Fe15  1  0.616058  0.615948  0.999889  1
  Os  Os16  1  0.000000  0.000000  0.000000  1
