# generated using pymatgen
data_Li4Ca8Si11Sn
_symmetry_space_group_name_H-M   'P 1'
_cell_length_a   4.39627700
_cell_length_b   10.65152931
_cell_length_c   11.30775765
_cell_angle_alpha   89.72129633
_cell_angle_beta   90.00000000
_cell_angle_gamma   90.00000000
_symmetry_Int_Tables_number   1
_chemical_formula_structural   Li4Ca8Si11Sn
_chemical_formula_sum   'Li4 Ca8 Si11 Sn1'
_cell_volume   529.50293216
_cell_formula_units_Z   1
loop_
 _symmetry_equiv_pos_site_id
 _symmetry_equiv_pos_as_xyz
  1  'x, y, z'
loop_
 _atom_site_type_symbol
 _atom_site_label
 _atom_site_symmetry_multiplicity
 _atom_site_fract_x
 _atom_site_fract_y
 _atom_site_fract_z
 _atom_site_occupancy
  Li  Li0  1  0.500000  0.861542  0.294122  1
  Li  Li1  1  0.500000  0.141059  0.716855  1
  Li  Li2  1  0.000000  0.363160  0.217716  1
  Li  Li3  1  0.000000  0.636430  0.779541  1
  Ca  Ca4  1  0.500000  0.552669  0.349152  1
  Ca  Ca5  1  0.500000  0.447868  0.650559  1
  Ca  Ca6  1  0.000000  0.062836  0.154410  1
  Ca  Ca7  1  0.000000  0.950411  0.846713  1
  Ca  Ca8  1  0.500000  0.820674  0.574431  1
  Ca  Ca9  1  0.500000  0.178611  0.426770  1
  Ca  Ca10  1  0.000000  0.323575  0.925460  1
  Ca  Ca11  1  0.000000  0.665868  0.072267  1
  Si  Si12  1  0.500000  0.118411  0.956747  1
  Si  Si13  1  0.000000  0.392517  0.458765  1
  Si  Si14  1  0.000000  0.606281  0.540784  1
  Si  Si15  1  0.000000  0.964542  0.401974  1
  Si  Si16  1  0.000000  0.035800  0.598005  1
  Si  Si17  1  0.500000  0.467205  0.098787  1
  Si  Si18  1  0.500000  0.530836  0.899356  1
  Si  Si19  1  0.000000  0.254998  0.629807  1
  Si  Si20  1  0.000000  0.744136  0.370189  1
  Si  Si21  1  0.500000  0.747356  0.855832  1
  Si  Si22  1  0.500000  0.249014  0.131012  1
  Sn  Sn23  1  0.500000  0.884199  0.050742  1
