# generated using pymatgen
data_Er2Ta4C5
_symmetry_space_group_name_H-M   'P 1'
_cell_length_a   5.68121541
_cell_length_b   5.68121576
_cell_length_c   5.58822626
_cell_angle_alpha   81.73646535
_cell_angle_beta   81.73645958
_cell_angle_gamma   121.17878784
_symmetry_Int_Tables_number   1
_chemical_formula_structural   Er2Ta4C5
_chemical_formula_sum   'Er2 Ta4 C5'
_cell_volume   147.55638438
_cell_formula_units_Z   1
loop_
 _symmetry_equiv_pos_site_id
 _symmetry_equiv_pos_as_xyz
  1  'x, y, z'
loop_
 _atom_site_type_symbol
 _atom_site_label
 _atom_site_symmetry_multiplicity
 _atom_site_fract_x
 _atom_site_fract_y
 _atom_site_fract_z
 _atom_site_occupancy
  Er  Er0  1  0.760708  0.760708  0.757513  1
  Er  Er1  1  0.239292  0.239292  0.242487  1
  Ta  Ta2  1  0.101268  0.450514  0.740325  1
  Ta  Ta3  1  0.549486  0.898732  0.259675  1
  Ta  Ta4  1  0.898732  0.549486  0.259675  1
  Ta  Ta5  1  0.450514  0.101268  0.740325  1
  C  C6  1  0.500000  0.500000  0.500000  1
  C  C7  1  0.680337  0.319663  0.000000  1
  C  C8  1  0.319663  0.680337  0.000000  1
  C  C9  1  0.820785  0.179215  0.500000  1
  C  C10  1  0.179215  0.820785  0.500000  1
