# generated using pymatgen
data_Ho6Al10Re6Os7
_symmetry_space_group_name_H-M   'P 1'
_cell_length_a   8.97910193
_cell_length_b   8.97910162
_cell_length_c   8.96189800
_cell_angle_alpha   60.06335932
_cell_angle_beta   60.06336044
_cell_angle_gamma   59.71527858
_symmetry_Int_Tables_number   1
_chemical_formula_structural   Ho6Al10Re6Os7
_chemical_formula_sum   'Ho6 Al10 Re6 Os7'
_cell_volume   510.29467653
_cell_formula_units_Z   1
loop_
 _symmetry_equiv_pos_site_id
 _symmetry_equiv_pos_as_xyz
  1  'x, y, z'
loop_
 _atom_site_type_symbol
 _atom_site_label
 _atom_site_symmetry_multiplicity
 _atom_site_fract_x
 _atom_site_fract_y
 _atom_site_fract_z
 _atom_site_occupancy
  Ho  Ho0  1  0.196846  0.802522  0.795787  1
  Ho  Ho1  1  0.802522  0.196846  0.204846  1
  Ho  Ho2  1  0.802522  0.196846  0.795787  1
  Ho  Ho3  1  0.795376  0.795376  0.204624  1
  Ho  Ho4  1  0.196846  0.802522  0.204846  1
  Ho  Ho5  1  0.202511  0.202511  0.797489  1
  Al  Al6  1  0.176216  0.486376  0.168704  1
  Al  Al7  1  0.486376  0.176216  0.168704  1
  Al  Al8  1  0.616611  0.616611  0.616291  1
  Al  Al9  1  0.616611  0.616611  0.150487  1
  Al  Al10  1  0.148884  0.617196  0.616960  1
  Al  Al11  1  0.617196  0.148884  0.616960  1
  Al  Al12  1  0.382711  0.382711  0.378825  1
  Al  Al13  1  0.382711  0.382711  0.855753  1
  Al  Al14  1  0.380255  0.855264  0.382241  1
  Al  Al15  1  0.855264  0.380255  0.382241  1
  Re  Re16  1  0.824888  0.824888  0.826505  1
  Re  Re17  1  0.824888  0.824888  0.523719  1
  Re  Re18  1  0.525681  0.823993  0.825163  1
  Re  Re19  1  0.823993  0.525681  0.825163  1
  Re  Re20  1  0.178953  0.178953  0.173939  1
  Re  Re21  1  0.178953  0.178953  0.468154  1
  Os  Os22  1  0.499871  0.499871  0.500129  1
  Os  Os23  1  0.999923  0.490735  0.508695  1
  Os  Os24  1  0.490735  0.999923  0.000647  1
  Os  Os25  1  0.490735  0.999923  0.508695  1
  Os  Os26  1  0.503570  0.503570  0.996430  1
  Os  Os27  1  0.999923  0.490735  0.000647  1
  Os  Os28  1  0.998430  0.998430  0.501570  1
