# generated using pymatgen
data_Dy2Y6Cd2NiIr
_symmetry_space_group_name_H-M   'P 1'
_cell_length_a   9.61872237
_cell_length_b   9.61872368
_cell_length_c   9.66554800
_cell_angle_alpha   59.83884237
_cell_angle_beta   59.83883785
_cell_angle_gamma   59.65127431
_symmetry_Int_Tables_number   1
_chemical_formula_structural   Dy2Y6Cd2NiIr
_chemical_formula_sum   'Dy4 Y12 Cd4 Ni2 Ir2'
_cell_volume   629.11785637
_cell_formula_units_Z   2
loop_
 _symmetry_equiv_pos_site_id
 _symmetry_equiv_pos_as_xyz
  1  'x, y, z'
loop_
 _atom_site_type_symbol
 _atom_site_label
 _atom_site_symmetry_multiplicity
 _atom_site_fract_x
 _atom_site_fract_y
 _atom_site_fract_z
 _atom_site_occupancy
  Dy  Dy0  1  0.600135  0.600135  0.594851  1
  Dy  Dy1  1  0.600135  0.600135  0.204879  1
  Dy  Dy2  1  0.602840  0.202845  0.597157  1
  Dy  Dy3  1  0.202845  0.602840  0.597157  1
  Y  Y4  1  0.058967  0.437908  0.440904  1
  Y  Y5  1  0.437908  0.058967  0.062222  1
  Y  Y6  1  0.437908  0.058967  0.440904  1
  Y  Y7  1  0.058967  0.437908  0.062222  1
  Y  Y8  1  0.439473  0.439473  0.060527  1
  Y  Y9  1  0.060644  0.060644  0.439356  1
  Y  Y10  1  0.187562  0.810844  0.815642  1
  Y  Y11  1  0.810844  0.187562  0.185952  1
  Y  Y12  1  0.810844  0.187562  0.815642  1
  Y  Y13  1  0.187562  0.810844  0.185952  1
  Y  Y14  1  0.815340  0.815340  0.184660  1
  Y  Y15  1  0.189029  0.189029  0.810971  1
  Cd  Cd16  1  0.829890  0.829890  0.832602  1
  Cd  Cd17  1  0.829890  0.829890  0.507615  1
  Cd  Cd18  1  0.830062  0.506231  0.831853  1
  Cd  Cd19  1  0.506231  0.830062  0.831853  1
  Ni  Ni20  1  0.392515  0.823391  0.392047  1
  Ni  Ni21  1  0.823391  0.392515  0.392047  1
  Ir  Ir22  1  0.393509  0.393509  0.391901  1
  Ir  Ir23  1  0.393509  0.393509  0.821082  1
