# generated using pymatgen
data_Dy4Er3LuC14
_symmetry_space_group_name_H-M   'P 1'
_cell_length_a   13.72435841
_cell_length_b   3.68250216
_cell_length_c   6.43950611
_cell_angle_alpha   74.48106592
_cell_angle_beta   89.96755825
_cell_angle_gamma   89.85927899
_symmetry_Int_Tables_number   1
_chemical_formula_structural   Dy4Er3LuC14
_chemical_formula_sum   'Dy4 Er3 Lu1 C14'
_cell_volume   313.58624010
_cell_formula_units_Z   1
loop_
 _symmetry_equiv_pos_site_id
 _symmetry_equiv_pos_as_xyz
  1  'x, y, z'
loop_
 _atom_site_type_symbol
 _atom_site_label
 _atom_site_symmetry_multiplicity
 _atom_site_fract_x
 _atom_site_fract_y
 _atom_site_fract_z
 _atom_site_occupancy
  Dy  Dy0  1  0.943327  0.367433  0.260868  1
  Dy  Dy1  1  0.444164  0.633825  0.238666  1
  Dy  Dy2  1  0.055585  0.634558  0.738352  1
  Dy  Dy3  1  0.556402  0.365419  0.761581  1
  Er  Er4  1  0.661208  0.059216  0.337366  1
  Er  Er5  1  0.160226  0.940479  0.162428  1
  Er  Er6  1  0.339354  0.940128  0.662943  1
  Lu  Lu7  1  0.840869  0.061450  0.838419  1
  C  C8  1  0.500082  0.000000  0.499878  1
  C  C9  1  0.998854  0.000155  0.999437  1
  C  C10  1  0.784162  0.468100  0.063024  1
  C  C11  1  0.283323  0.535697  0.431537  1
  C  C12  1  0.216297  0.535406  0.931573  1
  C  C13  1  0.716759  0.458584  0.569746  1
  C  C14  1  0.196289  0.375364  0.456992  1
  C  C15  1  0.696770  0.626610  0.040845  1
  C  C16  1  0.395863  0.267213  0.945281  1
  C  C17  1  0.895147  0.734254  0.557607  1
  C  C18  1  0.604310  0.731945  0.055460  1
  C  C19  1  0.104018  0.267768  0.444955  1
  C  C20  1  0.303441  0.375265  0.957137  1
  C  C21  1  0.803549  0.621132  0.545907  1
