# generated using pymatgen
data_Tm4Zr5ScSn8
_symmetry_space_group_name_H-M   'P 1'
_cell_length_a   7.70724614
_cell_length_b   7.81670823
_cell_length_c   14.68947915
_cell_angle_alpha   89.98913183
_cell_angle_beta   90.06076463
_cell_angle_gamma   89.91506256
_symmetry_Int_Tables_number   1
_chemical_formula_structural   Tm4Zr5ScSn8
_chemical_formula_sum   'Tm8 Zr10 Sc2 Sn16'
_cell_volume   884.97050935
_cell_formula_units_Z   2
loop_
 _symmetry_equiv_pos_site_id
 _symmetry_equiv_pos_as_xyz
  1  'x, y, z'
loop_
 _atom_site_type_symbol
 _atom_site_label
 _atom_site_symmetry_multiplicity
 _atom_site_fract_x
 _atom_site_fract_y
 _atom_site_fract_z
 _atom_site_occupancy
  Tm  Tm0  1  0.991264  0.177916  0.093445  1
  Tm  Tm1  1  0.008736  0.822084  0.906555  1
  Tm  Tm2  1  0.507305  0.680706  0.907518  1
  Tm  Tm3  1  0.008687  0.822246  0.592110  1
  Tm  Tm4  1  0.492695  0.319294  0.092482  1
  Tm  Tm5  1  0.991313  0.177754  0.407890  1
  Tm  Tm6  1  0.491244  0.320847  0.408081  1
  Tm  Tm7  1  0.508756  0.679153  0.591919  1
  Zr  Zr8  1  0.163696  0.491730  0.749191  1
  Zr  Zr9  1  0.836304  0.508270  0.250809  1
  Zr  Zr10  1  0.338917  0.991120  0.250055  1
  Zr  Zr11  1  0.661083  0.008880  0.749945  1
  Zr  Zr12  1  0.340825  0.161983  0.628508  1
  Zr  Zr13  1  0.659175  0.838017  0.371492  1
  Zr  Zr14  1  0.157328  0.663301  0.370883  1
  Zr  Zr15  1  0.658413  0.839861  0.127841  1
  Zr  Zr16  1  0.842672  0.336699  0.629117  1
  Zr  Zr17  1  0.341587  0.160139  0.872159  1
  Sc  Sc18  1  0.842120  0.340862  0.872364  1
  Sc  Sc19  1  0.157880  0.659138  0.127636  1
  Sn  Sn20  1  0.033130  0.115534  0.751381  1
  Sn  Sn21  1  0.966870  0.884466  0.248619  1
  Sn  Sn22  1  0.465774  0.614969  0.249850  1
  Sn  Sn23  1  0.534226  0.385031  0.750150  1
  Sn  Sn24  1  0.308330  0.843912  0.749194  1
  Sn  Sn25  1  0.691670  0.156088  0.250806  1
  Sn  Sn26  1  0.191144  0.343728  0.250570  1
  Sn  Sn27  1  0.808856  0.656272  0.749430  1
  Sn  Sn28  1  0.185749  0.461356  0.542033  1
  Sn  Sn29  1  0.814251  0.538644  0.457967  1
  Sn  Sn30  1  0.314755  0.960256  0.457736  1
  Sn  Sn31  1  0.813494  0.540079  0.043194  1
  Sn  Sn32  1  0.685245  0.039744  0.542264  1
  Sn  Sn33  1  0.186506  0.459921  0.956806  1
  Sn  Sn34  1  0.686048  0.040522  0.956740  1
  Sn  Sn35  1  0.313952  0.959478  0.043260  1
