# generated using pymatgen
data_TbHo3(CuP2)4
_symmetry_space_group_name_H-M   'P 1'
_cell_length_a   3.70136900
_cell_length_b   3.75356788
_cell_length_c   19.44742671
_cell_angle_alpha   89.55313868
_cell_angle_beta   90.00000000
_cell_angle_gamma   90.00000000
_symmetry_Int_Tables_number   1
_chemical_formula_structural   TbHo3(CuP2)4
_chemical_formula_sum   'Tb1 Ho3 Cu4 P8'
_cell_volume   270.18149009
_cell_formula_units_Z   1
loop_
 _symmetry_equiv_pos_site_id
 _symmetry_equiv_pos_as_xyz
  1  'x, y, z'
loop_
 _atom_site_type_symbol
 _atom_site_label
 _atom_site_symmetry_multiplicity
 _atom_site_fract_x
 _atom_site_fract_y
 _atom_site_fract_z
 _atom_site_occupancy
  Tb  Tb0  1  0.250000  0.719076  0.382841  1
  Ho  Ho1  1  0.250000  0.781663  0.883001  1
  Ho  Ho2  1  0.750000  0.281311  0.618057  1
  Ho  Ho3  1  0.750000  0.218501  0.116630  1
  Cu  Cu4  1  0.250000  0.219185  0.248510  1
  Cu  Cu5  1  0.750000  0.781737  0.750320  1
  Cu  Cu6  1  0.250000  0.279180  0.750682  1
  Cu  Cu7  1  0.750000  0.719523  0.249343  1
  P  P8  1  0.750000  0.801860  0.502706  1
  P  P9  1  0.750000  0.698078  0.001267  1
  P  P10  1  0.250000  0.198175  0.499688  1
  P  P11  1  0.250000  0.301885  0.998314  1
  P  P12  1  0.250000  0.719892  0.170512  1
  P  P13  1  0.750000  0.219139  0.327048  1
  P  P14  1  0.750000  0.280439  0.828919  1
  P  P15  1  0.250000  0.780356  0.672159  1
