# generated using pymatgen
data_Ho4Er(SiBi)2
_symmetry_space_group_name_H-M   'P 1'
_cell_length_a   8.61600319
_cell_length_b   8.61600259
_cell_length_c   7.88876700
_cell_angle_alpha   90.00000000
_cell_angle_beta   90.00000000
_cell_angle_gamma   125.62013489
_symmetry_Int_Tables_number   1
_chemical_formula_structural   Ho4Er(SiBi)2
_chemical_formula_sum   'Ho8 Er2 Si4 Bi4'
_cell_volume   476.05361055
_cell_formula_units_Z   2
loop_
 _symmetry_equiv_pos_site_id
 _symmetry_equiv_pos_as_xyz
  1  'x, y, z'
loop_
 _atom_site_type_symbol
 _atom_site_label
 _atom_site_symmetry_multiplicity
 _atom_site_fract_x
 _atom_site_fract_y
 _atom_site_fract_z
 _atom_site_occupancy
  Ho  Ho0  1  0.042386  0.286164  0.336157  1
  Ho  Ho1  1  0.957614  0.713836  0.663843  1
  Ho  Ho2  1  0.457614  0.213836  0.836157  1
  Ho  Ho3  1  0.786164  0.542386  0.163843  1
  Ho  Ho4  1  0.542386  0.786164  0.163843  1
  Ho  Ho5  1  0.213836  0.457614  0.836157  1
  Ho  Ho6  1  0.713836  0.957614  0.663843  1
  Ho  Ho7  1  0.286164  0.042386  0.336157  1
  Er  Er8  1  0.000000  0.000000  0.000000  1
  Er  Er9  1  0.500000  0.500000  0.500000  1
  Si  Si10  1  0.364929  0.364929  0.133925  1
  Si  Si11  1  0.635071  0.635071  0.866075  1
  Si  Si12  1  0.135071  0.135071  0.633925  1
  Si  Si13  1  0.864929  0.864929  0.366075  1
  Bi  Bi14  1  0.792737  0.207263  0.000000  1
  Bi  Bi15  1  0.207264  0.792737  0.000000  1
  Bi  Bi16  1  0.707263  0.292737  0.500000  1
  Bi  Bi17  1  0.292737  0.707263  0.500000  1
