# generated using pymatgen
data_Pr4Al15Si3OsRh5
_symmetry_space_group_name_H-M   'P 1'
_cell_length_a   7.61312933
_cell_length_b   7.59577235
_cell_length_c   9.53233583
_cell_angle_alpha   90.06450804
_cell_angle_beta   89.90725962
_cell_angle_gamma   119.55921942
_symmetry_Int_Tables_number   1
_chemical_formula_structural   Pr4Al15Si3OsRh5
_chemical_formula_sum   'Pr4 Al15 Si3 Os1 Rh5'
_cell_volume   479.48650669
_cell_formula_units_Z   1
loop_
 _symmetry_equiv_pos_site_id
 _symmetry_equiv_pos_as_xyz
  1  'x, y, z'
loop_
 _atom_site_type_symbol
 _atom_site_label
 _atom_site_symmetry_multiplicity
 _atom_site_fract_x
 _atom_site_fract_y
 _atom_site_fract_z
 _atom_site_occupancy
  Pr  Pr0  1  0.993742  0.669984  0.747090  1
  Pr  Pr1  1  0.005773  0.324198  0.252754  1
  Pr  Pr2  1  0.681399  0.000880  0.747135  1
  Pr  Pr3  1  0.323385  0.006266  0.250312  1
  Al  Al4  1  0.995708  0.668051  0.422707  1
  Al  Al5  1  0.995824  0.663439  0.075926  1
  Al  Al6  1  0.337097  0.002491  0.925392  1
  Al  Al7  1  0.005427  0.336989  0.929990  1
  Al  Al8  1  0.662969  0.996426  0.076088  1
  Al  Al9  1  0.659195  0.992137  0.422787  1
  Al  Al10  1  0.334936  0.002667  0.573196  1
  Al  Al11  1  0.338668  0.337756  0.051869  1
  Al  Al12  1  0.663369  0.663852  0.948992  1
  Al  Al13  1  0.664533  0.665382  0.550169  1
  Al  Al14  1  0.338352  0.335841  0.450469  1
  Al  Al15  1  0.334344  0.545921  0.749857  1
  Al  Al16  1  0.663790  0.451661  0.250406  1
  Al  Al17  1  0.544286  0.336608  0.750318  1
  Al  Al18  1  0.450883  0.661391  0.249343  1
  Si  Si19  1  0.135028  0.130763  0.749968  1
  Si  Si20  1  0.867747  0.870040  0.253110  1
  Si  Si21  1  0.004749  0.336149  0.569223  1
  Os  Os22  1  0.998866  0.008276  0.502589  1
  Rh  Rh23  1  0.677822  0.329972  0.501740  1
  Rh  Rh24  1  0.321601  0.662820  0.500255  1
  Rh  Rh25  1  0.329200  0.670652  0.999320  1
  Rh  Rh26  1  0.671851  0.329759  0.999174  1
  Rh  Rh27  1  0.999458  0.999628  0.999820  1
