# generated using pymatgen
data_Ho2Th2Pd3PtPb2
_symmetry_space_group_name_H-M   'P 1'
_cell_length_a   8.04168590
_cell_length_b   8.05961889
_cell_length_c   3.66121200
_cell_angle_alpha   90.00000000
_cell_angle_beta   90.00000000
_cell_angle_gamma   89.92131523
_symmetry_Int_Tables_number   1
_chemical_formula_structural   Ho2Th2Pd3PtPb2
_chemical_formula_sum   'Ho2 Th2 Pd3 Pt1 Pb2'
_cell_volume   237.29363000
_cell_formula_units_Z   1
loop_
 _symmetry_equiv_pos_site_id
 _symmetry_equiv_pos_as_xyz
  1  'x, y, z'
loop_
 _atom_site_type_symbol
 _atom_site_label
 _atom_site_symmetry_multiplicity
 _atom_site_fract_x
 _atom_site_fract_y
 _atom_site_fract_z
 _atom_site_occupancy
  Ho  Ho0  1  0.829624  0.672162  0.500000  1
  Ho  Ho1  1  0.328396  0.831176  0.500000  1
  Th  Th2  1  0.666853  0.167763  0.500000  1
  Th  Th3  1  0.172883  0.330294  0.500000  1
  Pd  Pd4  1  0.125657  0.623578  0.000000  1
  Pd  Pd5  1  0.627464  0.873241  0.000000  1
  Pd  Pd6  1  0.871345  0.374228  0.000000  1
  Pt  Pt7  1  0.373578  0.124736  0.000000  1
  Pb  Pb8  1  0.000443  0.987367  0.000000  1
  Pb  Pb9  1  0.503758  0.515454  0.000000  1
