# generated using pymatgen
data_Ho4Er8Co6Hg
_symmetry_space_group_name_H-M   'P 1'
_cell_length_a   8.29415958
_cell_length_b   8.29415760
_cell_length_c   8.29415900
_cell_angle_alpha   109.52736110
_cell_angle_beta   109.46841543
_cell_angle_gamma   109.41790287
_symmetry_Int_Tables_number   1
_chemical_formula_structural   Ho4Er8Co6Hg
_chemical_formula_sum   'Ho4 Er8 Co6 Hg1'
_cell_volume   439.23278059
_cell_formula_units_Z   1
loop_
 _symmetry_equiv_pos_site_id
 _symmetry_equiv_pos_as_xyz
  1  'x, y, z'
loop_
 _atom_site_type_symbol
 _atom_site_label
 _atom_site_symmetry_multiplicity
 _atom_site_fract_x
 _atom_site_fract_y
 _atom_site_fract_z
 _atom_site_occupancy
  Ho  Ho0  1  0.504631  0.806435  0.698197  1
  Ho  Ho1  1  0.495369  0.193565  0.301803  1
  Ho  Ho2  1  0.108239  0.806435  0.301803  1
  Ho  Ho3  1  0.891761  0.193565  0.698197  1
  Er  Er4  1  0.806590  0.697545  0.504134  1
  Er  Er5  1  0.193410  0.302455  0.495866  1
  Er  Er6  1  0.193410  0.697545  0.890955  1
  Er  Er7  1  0.806590  0.302455  0.109045  1
  Er  Er8  1  0.697390  0.504148  0.806760  1
  Er  Er9  1  0.302610  0.495852  0.193240  1
  Er  Er10  1  0.697390  0.890631  0.193240  1
  Er  Er11  1  0.302610  0.109369  0.806760  1
  Co  Co12  1  0.886160  0.386160  0.500000  1
  Co  Co13  1  0.113840  0.613840  0.500000  1
  Co  Co14  1  0.386016  0.500000  0.886016  1
  Co  Co15  1  0.613984  0.500000  0.113984  1
  Co  Co16  1  0.500000  0.885787  0.385787  1
  Co  Co17  1  0.500000  0.114213  0.614213  1
  Hg  Hg18  1  0.000000  0.000000  0.000000  1
