# generated using pymatgen
data_Hf3ScFe12(Co2P3)4
_symmetry_space_group_name_H-M   'P 1'
_cell_length_a   3.59999200
_cell_length_b   10.07779253
_cell_length_c   11.62293372
_cell_angle_alpha   90.05174436
_cell_angle_beta   90.00000000
_cell_angle_gamma   90.00000000
_symmetry_Int_Tables_number   1
_chemical_formula_structural   Hf3ScFe12(Co2P3)4
_chemical_formula_sum   'Hf3 Sc1 Fe12 Co8 P12'
_cell_volume   421.67954358
_cell_formula_units_Z   1
loop_
 _symmetry_equiv_pos_site_id
 _symmetry_equiv_pos_as_xyz
  1  'x, y, z'
loop_
 _atom_site_type_symbol
 _atom_site_label
 _atom_site_symmetry_multiplicity
 _atom_site_fract_x
 _atom_site_fract_y
 _atom_site_fract_z
 _atom_site_occupancy
  Hf  Hf0  1  0.250000  0.579646  0.703307  1
  Hf  Hf1  1  0.250000  0.920490  0.204093  1
  Hf  Hf2  1  0.750000  0.421096  0.294785  1
  Sc  Sc3  1  0.750000  0.078964  0.795240  1
  Fe  Fe4  1  0.250000  0.711973  0.992644  1
  Fe  Fe5  1  0.250000  0.787911  0.491746  1
  Fe  Fe6  1  0.750000  0.285522  0.010672  1
  Fe  Fe7  1  0.750000  0.213896  0.511677  1
  Fe  Fe8  1  0.750000  0.593001  0.513631  1
  Fe  Fe9  1  0.750000  0.906356  0.014318  1
  Fe  Fe10  1  0.750000  0.776186  0.825275  1
  Fe  Fe11  1  0.750000  0.723619  0.324310  1
  Fe  Fe12  1  0.750000  0.121040  0.299984  1
  Fe  Fe13  1  0.750000  0.380580  0.799909  1
  Fe  Fe14  1  0.750000  0.535261  0.068899  1
  Fe  Fe15  1  0.750000  0.964330  0.567629  1
  Co  Co16  1  0.250000  0.408252  0.482584  1
  Co  Co17  1  0.250000  0.091809  0.985107  1
  Co  Co18  1  0.250000  0.224681  0.175024  1
  Co  Co19  1  0.250000  0.277284  0.674076  1
  Co  Co20  1  0.250000  0.879942  0.701531  1
  Co  Co21  1  0.250000  0.617965  0.202299  1
  Co  Co22  1  0.250000  0.465405  0.930717  1
  Co  Co23  1  0.250000  0.034772  0.430621  1
  P  P24  1  0.250000  0.422532  0.114237  1
  P  P25  1  0.250000  0.077022  0.615151  1
  P  P26  1  0.750000  0.578272  0.884995  1
  P  P27  1  0.750000  0.921753  0.384913  1
  P  P28  1  0.250000  0.264337  0.865204  1
  P  P29  1  0.250000  0.235022  0.365805  1
  P  P30  1  0.750000  0.736088  0.133046  1
  P  P31  1  0.750000  0.764430  0.633429  1
  P  P32  1  0.250000  0.602899  0.391296  1
  P  P33  1  0.250000  0.897843  0.891069  1
  P  P34  1  0.750000  0.402223  0.610507  1
  P  P35  1  0.750000  0.097600  0.110272  1
