# generated using pymatgen
data_LuHf(TaS2)8
_symmetry_space_group_name_H-M   'P 1'
_cell_length_a   6.66312400
_cell_length_b   6.66312393
_cell_length_c   13.22297800
_cell_angle_alpha   90.00000000
_cell_angle_beta   90.00000000
_cell_angle_gamma   120.00001025
_symmetry_Int_Tables_number   1
_chemical_formula_structural   LuHf(TaS2)8
_chemical_formula_sum   'Lu1 Hf1 Ta8 S16'
_cell_volume   508.41183186
_cell_formula_units_Z   1
loop_
 _symmetry_equiv_pos_site_id
 _symmetry_equiv_pos_as_xyz
  1  'x, y, z'
loop_
 _atom_site_type_symbol
 _atom_site_label
 _atom_site_symmetry_multiplicity
 _atom_site_fract_x
 _atom_site_fract_y
 _atom_site_fract_z
 _atom_site_occupancy
  Lu  Lu0  1  0.000000  0.000000  0.000000  1
  Hf  Hf1  1  0.000000  0.000000  0.500000  1
  Ta  Ta2  1  0.505522  0.494478  0.743750  1
  Ta  Ta3  1  0.011043  0.505522  0.256250  1
  Ta  Ta4  1  0.494478  0.988957  0.256250  1
  Ta  Ta5  1  0.505522  0.011043  0.743750  1
  Ta  Ta6  1  0.988957  0.494478  0.743750  1
  Ta  Ta7  1  0.494478  0.505522  0.256250  1
  Ta  Ta8  1  0.000000  0.000000  0.743889  1
  Ta  Ta9  1  0.000000  0.000000  0.256111  1
  S  S10  1  0.831436  0.168564  0.376013  1
  S  S11  1  0.831436  0.662871  0.376013  1
  S  S12  1  0.337129  0.168564  0.376013  1
  S  S13  1  0.661976  0.830988  0.862780  1
  S  S14  1  0.168564  0.337129  0.623987  1
  S  S15  1  0.169012  0.830988  0.862780  1
  S  S16  1  0.169012  0.338024  0.862780  1
  S  S17  1  0.830988  0.169012  0.137220  1
  S  S18  1  0.338024  0.169012  0.137220  1
  S  S19  1  0.662871  0.831436  0.623987  1
  S  S20  1  0.333333  0.666667  0.133880  1
  S  S21  1  0.666667  0.333333  0.622361  1
  S  S22  1  0.666667  0.333333  0.866120  1
  S  S23  1  0.333333  0.666667  0.377639  1
  S  S24  1  0.830988  0.661976  0.137220  1
  S  S25  1  0.168564  0.831436  0.623987  1
