# generated using pymatgen
data_Y6Ni16Mo2P13Pt2
_symmetry_space_group_name_H-M   'P 1'
_cell_length_a   12.90719346
_cell_length_b   12.88968936
_cell_length_c   3.78559900
_cell_angle_alpha   90.00000000
_cell_angle_beta   90.00000000
_cell_angle_gamma   120.15977716
_symmetry_Int_Tables_number   1
_chemical_formula_structural   Y6Ni16Mo2P13Pt2
_chemical_formula_sum   'Y6 Ni16 Mo2 P13 Pt2'
_cell_volume   544.55033985
_cell_formula_units_Z   1
loop_
 _symmetry_equiv_pos_site_id
 _symmetry_equiv_pos_as_xyz
  1  'x, y, z'
loop_
 _atom_site_type_symbol
 _atom_site_label
 _atom_site_symmetry_multiplicity
 _atom_site_fract_x
 _atom_site_fract_y
 _atom_site_fract_z
 _atom_site_occupancy
  Y  Y0  1  0.464817  0.184385  0.000000  1
  Y  Y1  1  0.717074  0.531262  0.000000  1
  Y  Y2  1  0.813745  0.282723  0.000000  1
  Y  Y3  1  0.534532  0.815197  0.500000  1
  Y  Y4  1  0.282142  0.465998  0.500000  1
  Y  Y5  1  0.183427  0.718369  0.500000  1
  Ni  Ni6  1  0.197389  0.090061  0.000000  1
  Ni  Ni7  1  0.895682  0.800992  0.000000  1
  Ni  Ni8  1  0.906891  0.107539  0.000000  1
  Ni  Ni9  1  0.072327  0.919446  0.500000  1
  Ni  Ni10  1  0.435784  0.416103  0.000000  1
  Ni  Ni11  1  0.978129  0.563907  0.000000  1
  Ni  Ni12  1  0.582440  0.020219  0.000000  1
  Ni  Ni13  1  0.567826  0.590162  0.500000  1
  Ni  Ni14  1  0.022253  0.432316  0.500000  1
  Ni  Ni15  1  0.410713  0.977672  0.500000  1
  Ni  Ni16  1  0.078070  0.316935  0.000000  1
  Ni  Ni17  1  0.240329  0.920679  0.000000  1
  Ni  Ni18  1  0.683721  0.760300  0.000000  1
  Ni  Ni19  1  0.931159  0.686054  0.500000  1
  Ni  Ni20  1  0.754472  0.074552  0.500000  1
  Ni  Ni21  1  0.320142  0.244243  0.500000  1
  Mo  Mo22  1  0.848260  0.931261  0.500000  1
  Mo  Mo23  1  0.082946  0.152480  0.500000  1
  P  P24  1  0.235009  0.281239  0.000000  1
  P  P25  1  0.048388  0.766145  0.000000  1
  P  P26  1  0.717249  0.952636  0.000000  1
  P  P27  1  0.768996  0.717934  0.500000  1
  P  P28  1  0.950584  0.232021  0.500000  1
  P  P29  1  0.275842  0.045211  0.500000  1
  P  P30  1  0.484816  0.613962  0.000000  1
  P  P31  1  0.128496  0.516226  0.000000  1
  P  P32  1  0.385707  0.871300  0.000000  1
  P  P33  1  0.516929  0.388830  0.500000  1
  P  P34  1  0.872829  0.483980  0.500000  1
  P  P35  1  0.610481  0.128364  0.500000  1
  P  P36  1  0.000172  0.998346  0.000000  1
  Pt  Pt37  1  0.333227  0.667150  0.000000  1
  Pt  Pt38  1  0.667009  0.333797  0.500000  1
