# generated using pymatgen
data_TmTh7(ZnRh)8
_symmetry_space_group_name_H-M   'P 1'
_cell_length_a   3.92093800
_cell_length_b   7.50663669
_cell_length_c   16.56118871
_cell_angle_alpha   89.80621119
_cell_angle_beta   90.00000000
_cell_angle_gamma   90.00000000
_symmetry_Int_Tables_number   1
_chemical_formula_structural   TmTh7(ZnRh)8
_chemical_formula_sum   'Tm1 Th7 Zn8 Rh8'
_cell_volume   487.44362392
_cell_formula_units_Z   1
loop_
 _symmetry_equiv_pos_site_id
 _symmetry_equiv_pos_as_xyz
  1  'x, y, z'
loop_
 _atom_site_type_symbol
 _atom_site_label
 _atom_site_symmetry_multiplicity
 _atom_site_fract_x
 _atom_site_fract_y
 _atom_site_fract_z
 _atom_site_occupancy
  Tm  Tm0  1  0.750000  0.938792  0.286712  1
  Th  Th1  1  0.750000  0.326391  0.437850  1
  Th  Th2  1  0.250000  0.064219  0.714956  1
  Th  Th3  1  0.250000  0.561118  0.784912  1
  Th  Th4  1  0.250000  0.677260  0.559599  1
  Th  Th5  1  0.750000  0.823178  0.063168  1
  Th  Th6  1  0.250000  0.170546  0.940932  1
  Th  Th7  1  0.750000  0.439398  0.216132  1
  Zn  Zn8  1  0.250000  0.105097  0.158792  1
  Zn  Zn9  1  0.250000  0.994708  0.434582  1
  Zn  Zn10  1  0.750000  0.887438  0.847024  1
  Zn  Zn11  1  0.750000  0.005917  0.558375  1
  Zn  Zn12  1  0.250000  0.491255  0.059324  1
  Zn  Zn13  1  0.750000  0.389588  0.652777  1
  Zn  Zn14  1  0.750000  0.503590  0.940954  1
  Zn  Zn15  1  0.250000  0.623641  0.345281  1
  Rh  Rh16  1  0.750000  0.260140  0.815070  1
  Rh  Rh17  1  0.250000  0.249022  0.314056  1
  Rh  Rh18  1  0.250000  0.755310  0.938430  1
  Rh  Rh19  1  0.250000  0.255738  0.560986  1
  Rh  Rh20  1  0.250000  0.733195  0.183069  1
  Rh  Rh21  1  0.750000  0.743616  0.437883  1
  Rh  Rh22  1  0.750000  0.239747  0.063563  1
  Rh  Rh23  1  0.750000  0.761095  0.685569  1
