# generated using pymatgen
data_Li8Nd8Sn3Sb5
_symmetry_space_group_name_H-M   'P 1'
_cell_length_a   9.53886340
_cell_length_b   9.54009644
_cell_length_c   7.52942364
_cell_angle_alpha   90.00000462
_cell_angle_beta   89.90299597
_cell_angle_gamma   120.00427545
_symmetry_Int_Tables_number   1
_chemical_formula_structural   Li8Nd8Sn3Sb5
_chemical_formula_sum   'Li8 Nd8 Sn3 Sb5'
_cell_volume   593.36539921
_cell_formula_units_Z   1
loop_
 _symmetry_equiv_pos_site_id
 _symmetry_equiv_pos_as_xyz
  1  'x, y, z'
loop_
 _atom_site_type_symbol
 _atom_site_label
 _atom_site_symmetry_multiplicity
 _atom_site_fract_x
 _atom_site_fract_y
 _atom_site_fract_z
 _atom_site_occupancy
  Li  Li0  1  0.167618  0.334421  0.282157  1
  Li  Li1  1  0.167618  0.833198  0.282157  1
  Li  Li2  1  0.665286  0.832643  0.282873  1
  Li  Li3  1  0.832637  0.665697  0.782746  1
  Li  Li4  1  0.832637  0.166940  0.782746  1
  Li  Li5  1  0.334712  0.167356  0.783752  1
  Li  Li6  1  0.333493  0.666747  0.673474  1
  Li  Li7  1  0.665881  0.332940  0.173872  1
  Nd  Nd8  1  0.510500  0.024185  0.491627  1
  Nd  Nd9  1  0.510500  0.486316  0.491627  1
  Nd  Nd10  1  0.977335  0.488668  0.491945  1
  Nd  Nd11  1  0.487038  0.977448  0.993273  1
  Nd  Nd12  1  0.487038  0.509589  0.993273  1
  Nd  Nd13  1  0.022429  0.511214  0.992933  1
  Nd  Nd14  1  0.002651  0.001326  0.501791  1
  Nd  Nd15  1  0.002293  0.001147  0.003674  1
  Sn  Sn16  1  0.332865  0.166432  0.234242  1
  Sn  Sn17  1  0.332839  0.666420  0.262080  1
  Sn  Sn18  1  0.667306  0.333652  0.761933  1
  Sb  Sb19  1  0.166062  0.332836  0.735931  1
  Sb  Sb20  1  0.166062  0.833228  0.735931  1
  Sb  Sb21  1  0.667295  0.833648  0.735909  1
  Sb  Sb22  1  0.833952  0.667147  0.236016  1
  Sb  Sb23  1  0.833952  0.166804  0.236016  1
