# generated using pymatgen
data_Hf3Zr3Ga6FeCoPd4
_symmetry_space_group_name_H-M   'P 1'
_cell_length_a   7.23029400
_cell_length_b   7.23029289
_cell_length_c   6.73029300
_cell_angle_alpha   90.00000000
_cell_angle_beta   90.00000000
_cell_angle_gamma   120.00000507
_symmetry_Int_Tables_number   1
_chemical_formula_structural   Hf3Zr3Ga6FeCoPd4
_chemical_formula_sum   'Hf3 Zr3 Ga6 Fe1 Co1 Pd4'
_cell_volume   304.70278827
_cell_formula_units_Z   1
loop_
 _symmetry_equiv_pos_site_id
 _symmetry_equiv_pos_as_xyz
  1  'x, y, z'
loop_
 _atom_site_type_symbol
 _atom_site_label
 _atom_site_symmetry_multiplicity
 _atom_site_fract_x
 _atom_site_fract_y
 _atom_site_fract_z
 _atom_site_occupancy
  Hf  Hf0  1  0.307734  0.253388  0.501151  1
  Hf  Hf1  1  0.746612  0.054347  0.501151  1
  Hf  Hf2  1  0.945653  0.692266  0.501151  1
  Zr  Zr3  1  0.746239  0.058780  0.998393  1
  Zr  Zr4  1  0.312541  0.253761  0.998393  1
  Zr  Zr5  1  0.941220  0.687459  0.998393  1
  Ga  Ga6  1  0.607923  0.666424  0.748569  1
  Ga  Ga7  1  0.058500  0.392077  0.748569  1
  Ga  Ga8  1  0.333576  0.941500  0.748569  1
  Ga  Ga9  1  0.606788  0.665439  0.251315  1
  Ga  Ga10  1  0.058651  0.393212  0.251315  1
  Ga  Ga11  1  0.334561  0.941349  0.251315  1
  Fe  Fe12  1  0.000000  0.000000  0.747387  1
  Co  Co13  1  0.000000  0.000000  0.253813  1
  Pd  Pd14  1  0.333333  0.666667  0.000105  1
  Pd  Pd15  1  0.333333  0.666667  0.499941  1
  Pd  Pd16  1  0.666667  0.333333  0.738344  1
  Pd  Pd17  1  0.666667  0.333333  0.262127  1
