# generated using pymatgen
data_Nd4Ga10IrPt5
_symmetry_space_group_name_H-M   'P 1'
_cell_length_a   8.71207493
_cell_length_b   8.70030336
_cell_length_c   8.70030326
_cell_angle_alpha   140.54341039
_cell_angle_beta   107.36408118
_cell_angle_gamma   85.93679982
_symmetry_Int_Tables_number   1
_chemical_formula_structural   Nd4Ga10IrPt5
_chemical_formula_sum   'Nd4 Ga10 Ir1 Pt5'
_cell_volume   385.89470955
_cell_formula_units_Z   1
loop_
 _symmetry_equiv_pos_site_id
 _symmetry_equiv_pos_as_xyz
  1  'x, y, z'
loop_
 _atom_site_type_symbol
 _atom_site_label
 _atom_site_symmetry_multiplicity
 _atom_site_fract_x
 _atom_site_fract_y
 _atom_site_fract_z
 _atom_site_occupancy
  Nd  Nd0  1  0.859621  0.636427  0.223193  1
  Nd  Nd1  1  0.138175  0.363765  0.774412  1
  Nd  Nd2  1  0.412060  0.136324  0.275737  1
  Nd  Nd3  1  0.587749  0.862018  0.725730  1
  Ga  Ga4  1  0.497703  0.747666  0.244893  1
  Ga  Ga5  1  0.497703  0.252810  0.750037  1
  Ga  Ga6  1  0.211783  0.962700  0.750193  1
  Ga  Ga7  1  0.784923  0.537595  0.748406  1
  Ga  Ga8  1  0.784923  0.036517  0.247328  1
  Ga  Ga9  1  0.211783  0.461590  0.249083  1
  Ga  Ga10  1  0.065008  0.901737  0.163272  1
  Ga  Ga11  1  0.934847  0.097977  0.836870  1
  Ga  Ga12  1  0.741008  0.403984  0.337024  1
  Ga  Ga13  1  0.266895  0.598845  0.668049  1
  Ir  Ir14  1  0.545276  0.644477  0.900798  1
  Pt  Pt15  1  0.002243  0.750351  0.751266  1
  Pt  Pt16  1  0.002243  0.250977  0.251892  1
  Pt  Pt17  1  0.253667  0.855017  0.398651  1
  Pt  Pt18  1  0.744870  0.143847  0.601022  1
  Pt  Pt19  1  0.457518  0.355376  0.102143  1
