# generated using pymatgen
data_BaLi6Pr5(TeO6)4
_symmetry_space_group_name_H-M   'P 1'
_cell_length_a   11.16495168
_cell_length_b   11.13932079
_cell_length_c   11.14992576
_cell_angle_alpha   109.58874565
_cell_angle_beta   109.68218138
_cell_angle_gamma   109.15322276
_symmetry_Int_Tables_number   1
_chemical_formula_structural   BaLi6Pr5(TeO6)4
_chemical_formula_sum   'Ba2 Li12 Pr10 Te8 O48'
_cell_volume   1067.33688890
_cell_formula_units_Z   2
loop_
 _symmetry_equiv_pos_site_id
 _symmetry_equiv_pos_as_xyz
  1  'x, y, z'
loop_
 _atom_site_type_symbol
 _atom_site_label
 _atom_site_symmetry_multiplicity
 _atom_site_fract_x
 _atom_site_fract_y
 _atom_site_fract_z
 _atom_site_occupancy
  Ba  Ba0  1  0.749603  0.374651  0.123864  1
  Ba  Ba1  1  0.374095  0.248972  0.123728  1
  Li  Li2  1  0.875220  0.751064  0.124206  1
  Li  Li3  1  0.249044  0.873221  0.124241  1
  Li  Li4  1  0.874784  0.124449  0.251203  1
  Li  Li5  1  0.376404  0.626800  0.251251  1
  Li  Li6  1  0.752280  0.628338  0.377899  1
  Li  Li7  1  0.625630  0.249285  0.377324  1
  Li  Li8  1  0.375849  0.750471  0.625460  1
  Li  Li9  1  0.249544  0.374996  0.625380  1
  Li  Li10  1  0.123355  0.872580  0.748294  1
  Li  Li11  1  0.624982  0.375743  0.748268  1
  Li  Li12  1  0.123098  0.249952  0.873765  1
  Li  Li13  1  0.750345  0.123614  0.873705  1
  Pr  Pr14  1  0.624768  0.874792  0.249546  1
  Pr  Pr15  1  0.126748  0.376731  0.253452  1
  Pr  Pr16  1  0.248487  0.124969  0.375290  1
  Pr  Pr17  1  0.126733  0.750272  0.375269  1
  Pr  Pr18  1  0.750159  0.875068  0.625330  1
  Pr  Pr19  1  0.875163  0.250329  0.625321  1
  Pr  Pr20  1  0.374373  0.124235  0.748622  1
  Pr  Pr21  1  0.874698  0.624716  0.749414  1
  Pr  Pr22  1  0.249417  0.624475  0.874625  1
  Pr  Pr23  1  0.625251  0.750256  0.874683  1
  Te  Te24  1  0.994712  0.996718  0.999501  1
  Te  Te25  1  0.497130  0.990936  0.994746  1
  Te  Te26  1  0.497598  0.503846  0.994679  1
  Te  Te27  1  0.004775  0.502808  0.999503  1
  Te  Te28  1  0.999288  0.999911  0.499967  1
  Te  Te29  1  0.500725  0.502978  0.505190  1
  Te  Te30  1  0.500676  0.000073  0.499928  1
  Te  Te31  1  0.004488  0.502226  0.505188  1
  O  O32  1  0.916086  0.329564  0.016095  1
  O  O33  1  0.099980  0.186532  0.016093  1
  O  O34  1  0.404417  0.878954  0.072789  1
  O  O35  1  0.668334  0.693825  0.072770  1
  O  O36  1  0.668242  0.971741  0.090756  1
  O  O37  1  0.422571  0.619027  0.090817  1
  O  O38  1  0.936717  0.604293  0.115867  1
  O  O39  1  0.179087  0.011537  0.115867  1
  O  O40  1  0.576445  0.173555  0.169989  1
  O  O41  1  0.593525  0.496394  0.169996  1
  O  O42  1  0.172325  0.575695  0.192004  1
  O  O43  1  0.019664  0.116330  0.192010  1
  O  O44  1  0.383784  0.488142  0.320971  1
  O  O45  1  0.937225  0.332809  0.320960  1
  O  O46  1  0.309866  0.926461  0.331038  1
  O  O47  1  0.021205  0.904608  0.331057  1
  O  O48  1  0.915879  0.587150  0.399997  1
  O  O49  1  0.484113  0.312793  0.399948  1
  O  O50  1  0.523077  0.831245  0.405572  1
  O  O51  1  0.882521  0.074371  0.405593  1
  O  O52  1  0.809519  0.831584  0.426139  1
  O  O53  1  0.616652  0.094579  0.426104  1
  O  O54  1  0.309279  0.384273  0.481302  1
  O  O55  1  0.172061  0.597074  0.481342  1
  O  O56  1  0.690357  0.616730  0.523316  1
  O  O57  1  0.832943  0.406576  0.523246  1
  O  O58  1  0.189580  0.168351  0.573245  1
  O  O59  1  0.383633  0.904871  0.573181  1
  O  O60  1  0.117501  0.927006  0.595528  1
  O  O61  1  0.478057  0.168541  0.595533  1
  O  O62  1  0.524121  0.694817  0.620086  1
  O  O63  1  0.095973  0.425303  0.620066  1
  O  O64  1  0.977897  0.094710  0.669337  1
  O  O65  1  0.691400  0.074668  0.669337  1
  O  O66  1  0.618647  0.526396  0.696222  1
  O  O67  1  0.077621  0.669892  0.696280  1
  O  O68  1  0.975858  0.882473  0.808565  1
  O  O69  1  0.832729  0.426123  0.808566  1
  O  O70  1  0.405667  0.527407  0.827643  1
  O  O71  1  0.421865  0.800098  0.827516  1
  O  O72  1  0.804304  0.974590  0.882204  1
  O  O73  1  0.077869  0.407620  0.882223  1
  O  O74  1  0.564700  0.384719  0.894096  1
  O  O75  1  0.329377  0.009276  0.894039  1
  O  O76  1  0.325956  0.313320  0.911952  1
  O  O77  1  0.585985  0.098504  0.911910  1
  O  O78  1  0.096085  0.670022  0.976008  1
  O  O79  1  0.879892  0.805989  0.975979  1
