# generated using pymatgen
data_Tm5LuTiMn5O18
_symmetry_space_group_name_H-M   'P 1'
_cell_length_a   6.12961876
_cell_length_b   6.12080129
_cell_length_c   11.59206327
_cell_angle_alpha   90.24182792
_cell_angle_beta   89.51704497
_cell_angle_gamma   120.04767610
_symmetry_Int_Tables_number   1
_chemical_formula_structural   Tm5LuTiMn5O18
_chemical_formula_sum   'Tm5 Lu1 Ti1 Mn5 O18'
_cell_volume   376.45134000
_cell_formula_units_Z   1
loop_
 _symmetry_equiv_pos_site_id
 _symmetry_equiv_pos_as_xyz
  1  'x, y, z'
loop_
 _atom_site_type_symbol
 _atom_site_label
 _atom_site_symmetry_multiplicity
 _atom_site_fract_x
 _atom_site_fract_y
 _atom_site_fract_z
 _atom_site_occupancy
  Tm  Tm0  1  0.665284  0.335268  0.229117  1
  Tm  Tm1  1  0.335159  0.666862  0.735284  1
  Tm  Tm2  1  0.668299  0.333138  0.735284  1
  Tm  Tm3  1  0.330014  0.664732  0.229117  1
  Tm  Tm4  1  0.002919  0.000000  0.777006  1
  Lu  Lu5  1  0.998805  0.000000  0.273069  1
  Ti  Ti6  1  0.665776  0.000000  0.500436  1
  Mn  Mn7  1  0.667489  0.667926  0.001374  1
  Mn  Mn8  1  0.999563  0.332074  0.001374  1
  Mn  Mn9  1  0.999923  0.666789  0.499647  1
  Mn  Mn10  1  0.333134  0.333211  0.499647  1
  Mn  Mn11  1  0.332658  0.000000  0.001329  1
  O  O12  1  0.667132  0.333673  0.024049  1
  O  O13  1  0.357961  0.691427  0.521399  1
  O  O14  1  0.666535  0.308573  0.521399  1
  O  O15  1  0.333458  0.666327  0.024049  1
  O  O16  1  0.000662  0.000000  0.973759  1
  O  O17  1  0.974668  0.000000  0.474414  1
  O  O18  1  0.361860  0.000000  0.836922  1
  O  O19  1  0.354641  0.355168  0.331456  1
  O  O20  1  0.999473  0.644832  0.331456  1
  O  O21  1  0.001017  0.361947  0.837370  1
  O  O22  1  0.639069  0.638053  0.837370  1
  O  O23  1  0.636440  0.000000  0.334021  1
  O  O24  1  0.302514  0.000000  0.165417  1
  O  O25  1  0.310815  0.310209  0.668695  1
  O  O26  1  0.000605  0.689791  0.668695  1
  O  O27  1  0.998505  0.301944  0.165571  1
  O  O28  1  0.696561  0.698056  0.165571  1
  O  O29  1  0.699057  0.000000  0.669700  1
