# generated using pymatgen
data_Zr3BeP2Rh3
_symmetry_space_group_name_H-M   'P 1'
_cell_length_a   6.60254700
_cell_length_b   6.60254738
_cell_length_c   3.64820200
_cell_angle_alpha   90.00000000
_cell_angle_beta   90.00000000
_cell_angle_gamma   120.00001315
_symmetry_Int_Tables_number   1
_chemical_formula_structural   Zr3BeP2Rh3
_chemical_formula_sum   'Zr3 Be1 P2 Rh3'
_cell_volume   137.73124676
_cell_formula_units_Z   1
loop_
 _symmetry_equiv_pos_site_id
 _symmetry_equiv_pos_as_xyz
  1  'x, y, z'
loop_
 _atom_site_type_symbol
 _atom_site_label
 _atom_site_symmetry_multiplicity
 _atom_site_fract_x
 _atom_site_fract_y
 _atom_site_fract_z
 _atom_site_occupancy
  Zr  Zr0  1  0.406691  0.406691  0.500000  1
  Zr  Zr1  1  0.593309  0.000000  0.500000  1
  Zr  Zr2  1  0.000000  0.593309  0.500000  1
  Be  Be3  1  0.000000  0.000000  0.500000  1
  P  P4  1  0.666667  0.333333  0.000000  1
  P  P5  1  0.333333  0.666667  0.000000  1
  Rh  Rh6  1  0.752336  0.752336  0.000000  1
  Rh  Rh7  1  0.247664  0.000000  0.000000  1
  Rh  Rh8  1  0.000000  0.247664  0.000000  1
