# generated using pymatgen
data_Er8Ga12Co2CuNi
_symmetry_space_group_name_H-M   'P 1'
_cell_length_a   6.95961600
_cell_length_b   8.71658248
_cell_length_c   8.71658300
_cell_angle_alpha   119.99999818
_cell_angle_beta   90.00000000
_cell_angle_gamma   90.00000000
_symmetry_Int_Tables_number   1
_chemical_formula_structural   Er8Ga12Co2CuNi
_chemical_formula_sum   'Er8 Ga12 Co2 Cu1 Ni1'
_cell_volume   457.93984353
_cell_formula_units_Z   1
loop_
 _symmetry_equiv_pos_site_id
 _symmetry_equiv_pos_as_xyz
  1  'x, y, z'
loop_
 _atom_site_type_symbol
 _atom_site_label
 _atom_site_symmetry_multiplicity
 _atom_site_fract_x
 _atom_site_fract_y
 _atom_site_fract_z
 _atom_site_occupancy
  Er  Er0  1  0.748618  0.000000  0.000000  1
  Er  Er1  1  0.255403  0.000000  0.000000  1
  Er  Er2  1  0.743944  0.477676  0.522324  1
  Er  Er3  1  0.253064  0.525979  0.474021  1
  Er  Er4  1  0.743944  0.044648  0.522324  1
  Er  Er5  1  0.253064  0.948043  0.474021  1
  Er  Er6  1  0.743944  0.477676  0.955352  1
  Er  Er7  1  0.253064  0.525979  0.051957  1
  Ga  Ga8  1  0.951958  0.828096  0.171904  1
  Ga  Ga9  1  0.045357  0.168772  0.831228  1
  Ga  Ga10  1  0.951958  0.343808  0.171904  1
  Ga  Ga11  1  0.453605  0.173501  0.826499  1
  Ga  Ga12  1  0.045357  0.662456  0.831228  1
  Ga  Ga13  1  0.544303  0.827701  0.172299  1
  Ga  Ga14  1  0.951958  0.828096  0.656192  1
  Ga  Ga15  1  0.453605  0.652998  0.826499  1
  Ga  Ga16  1  0.045357  0.168772  0.337544  1
  Ga  Ga17  1  0.544303  0.344598  0.172299  1
  Ga  Ga18  1  0.453605  0.173501  0.347002  1
  Ga  Ga19  1  0.544303  0.827701  0.655402  1
  Co  Co20  1  0.486201  0.333333  0.666667  1
  Co  Co21  1  0.517428  0.666667  0.333333  1
  Cu  Cu22  1  0.050852  0.333333  0.666667  1
  Ni  Ni23  1  0.964804  0.666667  0.333333  1
