# generated using pymatgen
data_Na(CrSe)3
_symmetry_space_group_name_H-M   'P 1'
_cell_length_a   8.64822900
_cell_length_b   8.64822937
_cell_length_c   4.16164600
_cell_angle_alpha   90.00000000
_cell_angle_beta   90.00000000
_cell_angle_gamma   119.99999782
_symmetry_Int_Tables_number   1
_chemical_formula_structural   Na(CrSe)3
_chemical_formula_sum   'Na2 Cr6 Se6'
_cell_volume   269.55671629
_cell_formula_units_Z   2
loop_
 _symmetry_equiv_pos_site_id
 _symmetry_equiv_pos_as_xyz
  1  'x, y, z'
loop_
 _atom_site_type_symbol
 _atom_site_label
 _atom_site_symmetry_multiplicity
 _atom_site_fract_x
 _atom_site_fract_y
 _atom_site_fract_z
 _atom_site_occupancy
  Na  Na0  1  0.333333  0.666667  0.000000  1
  Na  Na1  1  0.000000  0.000000  0.500000  1
  Cr  Cr2  1  0.843162  0.367688  0.000000  1
  Cr  Cr3  1  0.524526  0.156838  0.000000  1
  Cr  Cr4  1  0.632312  0.475474  0.000000  1
  Cr  Cr5  1  0.490163  0.298968  0.500000  1
  Cr  Cr6  1  0.808804  0.509837  0.500000  1
  Cr  Cr7  1  0.701032  0.191196  0.500000  1
  Se  Se8  1  0.960026  0.695786  0.000000  1
  Se  Se9  1  0.735760  0.039974  0.000000  1
  Se  Se10  1  0.304214  0.264240  0.000000  1
  Se  Se11  1  0.373201  0.970844  0.500000  1
  Se  Se12  1  0.597644  0.626799  0.500000  1
  Se  Se13  1  0.029156  0.402356  0.500000  1
