# generated using pymatgen
data_EuEr4HfH18
_symmetry_space_group_name_H-M   'P 1'
_cell_length_a   6.25506353
_cell_length_b   6.26650593
_cell_length_c   6.53202118
_cell_angle_alpha   89.68921403
_cell_angle_beta   90.22911239
_cell_angle_gamma   119.93223403
_symmetry_Int_Tables_number   1
_chemical_formula_structural   EuEr4HfH18
_chemical_formula_sum   'Eu1 Er4 Hf1 H18'
_cell_volume   221.88333204
_cell_formula_units_Z   1
loop_
 _symmetry_equiv_pos_site_id
 _symmetry_equiv_pos_as_xyz
  1  'x, y, z'
loop_
 _atom_site_type_symbol
 _atom_site_label
 _atom_site_symmetry_multiplicity
 _atom_site_fract_x
 _atom_site_fract_y
 _atom_site_fract_z
 _atom_site_occupancy
  Eu  Eu0  1  0.333796  0.335405  0.750070  1
  Er  Er1  1  0.997747  0.661794  0.749854  1
  Er  Er2  1  0.664240  0.664825  0.252537  1
  Er  Er3  1  0.000112  0.334871  0.246522  1
  Er  Er4  1  0.337239  0.000837  0.250952  1
  Hf  Hf5  1  0.659092  0.999685  0.750165  1
  H  H6  1  0.341641  0.965352  0.903628  1
  H  H7  1  0.653114  0.707788  0.904227  1
  H  H8  1  0.009262  0.345073  0.909239  1
  H  H9  1  0.319389  0.347240  0.400458  1
  H  H10  1  0.028977  0.676368  0.409988  1
  H  H11  1  0.654359  0.973849  0.422284  1
  H  H12  1  0.678783  0.026154  0.077981  1
  H  H13  1  0.352352  0.323258  0.099684  1
  H  H14  1  0.972476  0.655167  0.089620  1
  H  H15  1  0.685884  0.663653  0.591180  1
  H  H16  1  0.941871  0.300185  0.597255  1
  H  H17  1  0.373350  0.020384  0.594160  1
  H  H18  1  0.673009  0.312965  0.810687  1
  H  H19  1  0.667374  0.334017  0.305913  1
  H  H20  1  0.333027  0.666418  0.193926  1
  H  H21  1  0.350318  0.694215  0.689302  1
  H  H22  1  0.971328  0.990307  0.750233  1
  H  H23  1  0.001259  0.000191  0.250134  1
