# generated using pymatgen
data_Sc2H12Ir2Pb
_symmetry_space_group_name_H-M   'P 1'
_cell_length_a   4.69969800
_cell_length_b   4.69969949
_cell_length_c   8.40065000
_cell_angle_alpha   90.00000000
_cell_angle_beta   90.00000000
_cell_angle_gamma   120.00000360
_symmetry_Int_Tables_number   1
_chemical_formula_structural   Sc2H12Ir2Pb
_chemical_formula_sum   'Sc2 H12 Ir2 Pb1'
_cell_volume   160.68803763
_cell_formula_units_Z   1
loop_
 _symmetry_equiv_pos_site_id
 _symmetry_equiv_pos_as_xyz
  1  'x, y, z'
loop_
 _atom_site_type_symbol
 _atom_site_label
 _atom_site_symmetry_multiplicity
 _atom_site_fract_x
 _atom_site_fract_y
 _atom_site_fract_z
 _atom_site_occupancy
  Sc  Sc0  1  0.666667  0.333333  0.375026  1
  Sc  Sc1  1  0.333333  0.666667  0.624974  1
  H  H2  1  0.165340  0.834660  0.394384  1
  H  H3  1  0.669320  0.834660  0.394384  1
  H  H4  1  0.165340  0.330680  0.394384  1
  H  H5  1  0.834660  0.165340  0.605616  1
  H  H6  1  0.330680  0.165340  0.605616  1
  H  H7  1  0.834660  0.669320  0.605616  1
  H  H8  1  0.494969  0.989936  0.841336  1
  H  H9  1  0.494969  0.505031  0.841336  1
  H  H10  1  0.010064  0.505031  0.841336  1
  H  H11  1  0.505031  0.010064  0.158664  1
  H  H12  1  0.505031  0.494969  0.158664  1
  H  H13  1  0.989936  0.494969  0.158664  1
  Ir  Ir14  1  0.666667  0.333333  0.729102  1
  Ir  Ir15  1  0.333333  0.666667  0.270898  1
  Pb  Pb16  1  0.000000  0.000000  0.000000  1
