# generated using pymatgen
data_Ge(Pt2Se5)2
_symmetry_space_group_name_H-M   'P 1'
_cell_length_a   16.15307134
_cell_length_b   16.15307193
_cell_length_c   6.72354667
_cell_angle_alpha   87.19570336
_cell_angle_beta   87.19570323
_cell_angle_gamma   13.53401201
_symmetry_Int_Tables_number   1
_chemical_formula_structural   Ge(Pt2Se5)2
_chemical_formula_sum   'Ge1 Pt4 Se10'
_cell_volume   410.05170990
_cell_formula_units_Z   1
loop_
 _symmetry_equiv_pos_site_id
 _symmetry_equiv_pos_as_xyz
  1  'x, y, z'
loop_
 _atom_site_type_symbol
 _atom_site_label
 _atom_site_symmetry_multiplicity
 _atom_site_fract_x
 _atom_site_fract_y
 _atom_site_fract_z
 _atom_site_occupancy
  Ge  Ge0  1  0.405760  0.405760  0.001240  1
  Pt  Pt1  1  0.004383  0.004383  0.002745  1
  Pt  Pt2  1  0.605444  0.605444  0.000810  1
  Pt  Pt3  1  0.205916  0.205916  0.997062  1
  Pt  Pt4  1  0.807073  0.807073  0.998191  1
  Se  Se5  1  0.675262  0.675262  0.806454  1
  Se  Se6  1  0.275924  0.275924  0.806830  1
  Se  Se7  1  0.873621  0.873621  0.786503  1
  Se  Se8  1  0.535700  0.535700  0.193332  1
  Se  Se9  1  0.136101  0.136101  0.191053  1
  Se  Se10  1  0.736096  0.736096  0.188511  1
  Se  Se11  1  0.335640  0.335640  0.192058  1
  Se  Se12  1  0.937999  0.937999  0.215745  1
  Se  Se13  1  0.075076  0.075076  0.810086  1
  Se  Se14  1  0.475729  0.475729  0.809378  1
