# generated using pymatgen
data_YbCoGeO4
_symmetry_space_group_name_H-M   'P 1'
_cell_length_a   5.05442500
_cell_length_b   6.41762700
_cell_length_c   11.20903300
_cell_angle_alpha   90.00000000
_cell_angle_beta   90.00000000
_cell_angle_gamma   90.00000000
_symmetry_Int_Tables_number   1
_chemical_formula_structural   YbCoGeO4
_chemical_formula_sum   'Yb4 Co4 Ge4 O16'
_cell_volume   363.59204788
_cell_formula_units_Z   4
loop_
 _symmetry_equiv_pos_site_id
 _symmetry_equiv_pos_as_xyz
  1  'x, y, z'
loop_
 _atom_site_type_symbol
 _atom_site_label
 _atom_site_symmetry_multiplicity
 _atom_site_fract_x
 _atom_site_fract_y
 _atom_site_fract_z
 _atom_site_occupancy
  Yb  Yb0  1  0.009531  0.750000  0.726751  1
  Yb  Yb1  1  0.990469  0.250000  0.273249  1
  Yb  Yb2  1  0.509531  0.250000  0.773249  1
  Yb  Yb3  1  0.490469  0.750000  0.226751  1
  Co  Co4  1  0.500000  0.500000  0.500000  1
  Co  Co5  1  0.000000  0.500000  0.000000  1
  Co  Co6  1  0.500000  0.000000  0.500000  1
  Co  Co7  1  0.000000  0.000000  0.000000  1
  Ge  Ge8  1  0.576355  0.750000  0.917733  1
  Ge  Ge9  1  0.423645  0.250000  0.082267  1
  Ge  Ge10  1  0.076355  0.250000  0.582267  1
  Ge  Ge11  1  0.923645  0.750000  0.417733  1
  O  O12  1  0.226132  0.750000  0.917985  1
  O  O13  1  0.773868  0.250000  0.082015  1
  O  O14  1  0.726132  0.250000  0.582015  1
  O  O15  1  0.273868  0.750000  0.417985  1
  O  O16  1  0.731336  0.531274  0.848089  1
  O  O17  1  0.268664  0.468726  0.151911  1
  O  O18  1  0.231336  0.468726  0.651911  1
  O  O19  1  0.268664  0.031274  0.151911  1
  O  O20  1  0.768664  0.531274  0.348089  1
  O  O21  1  0.731336  0.968726  0.848089  1
  O  O22  1  0.768664  0.968726  0.348089  1
  O  O23  1  0.231336  0.031274  0.651911  1
  O  O24  1  0.750495  0.750000  0.558593  1
  O  O25  1  0.249505  0.250000  0.441407  1
  O  O26  1  0.250495  0.250000  0.941407  1
  O  O27  1  0.749505  0.750000  0.058593  1
