# generated using pymatgen
data_Ho5Er5Co4
_symmetry_space_group_name_H-M   'P 1'
_cell_length_a   6.26314142
_cell_length_b   6.91891921
_cell_length_c   8.50720268
_cell_angle_alpha   96.34028635
_cell_angle_beta   111.65627622
_cell_angle_gamma   90.00715679
_symmetry_Int_Tables_number   1
_chemical_formula_structural   Ho5Er5Co4
_chemical_formula_sum   'Ho5 Er5 Co4'
_cell_volume   340.20171817
_cell_formula_units_Z   1
loop_
 _symmetry_equiv_pos_site_id
 _symmetry_equiv_pos_as_xyz
  1  'x, y, z'
loop_
 _atom_site_type_symbol
 _atom_site_label
 _atom_site_symmetry_multiplicity
 _atom_site_fract_x
 _atom_site_fract_y
 _atom_site_fract_z
 _atom_site_occupancy
  Ho  Ho0  1  0.795730  0.585791  0.810595  1
  Ho  Ho1  1  0.984065  0.914303  0.188650  1
  Ho  Ho2  1  0.203822  0.413548  0.188854  1
  Ho  Ho3  1  0.014897  0.086121  0.809813  1
  Ho  Ho4  1  0.215145  0.682164  0.567393  1
  Er  Er5  1  0.646697  0.816608  0.431969  1
  Er  Er6  1  0.784561  0.317610  0.431798  1
  Er  Er7  1  0.353605  0.182292  0.567785  1
  Er  Er8  1  0.428999  0.750113  0.000335  1
  Er  Er9  1  0.571039  0.250771  0.000066  1
  Co  Co10  1  0.601467  0.925110  0.780061  1
  Co  Co11  1  0.822095  0.575123  0.221953  1
  Co  Co12  1  0.400671  0.075393  0.222849  1
  Co  Co13  1  0.177207  0.425054  0.777879  1
