# generated using pymatgen
data_Nd3YAu5
_symmetry_space_group_name_H-M   'P 1'
_cell_length_a   8.23813674
_cell_length_b   8.23813672
_cell_length_c   8.23813692
_cell_angle_alpha   65.73613686
_cell_angle_beta   65.73613808
_cell_angle_gamma   65.73611397
_symmetry_Int_Tables_number   1
_chemical_formula_structural   Nd3YAu5
_chemical_formula_sum   'Nd6 Y2 Au10'
_cell_volume   444.53568813
_cell_formula_units_Z   2
loop_
 _symmetry_equiv_pos_site_id
 _symmetry_equiv_pos_as_xyz
  1  'x, y, z'
loop_
 _atom_site_type_symbol
 _atom_site_label
 _atom_site_symmetry_multiplicity
 _atom_site_fract_x
 _atom_site_fract_y
 _atom_site_fract_z
 _atom_site_occupancy
  Nd  Nd0  1  0.892008  0.186056  0.621364  1
  Nd  Nd1  1  0.621364  0.892008  0.186056  1
  Nd  Nd2  1  0.186056  0.621364  0.892008  1
  Nd  Nd3  1  0.107992  0.813944  0.378636  1
  Nd  Nd4  1  0.378636  0.107992  0.813944  1
  Nd  Nd5  1  0.813944  0.378636  0.107992  1
  Y  Y6  1  0.658533  0.658533  0.658533  1
  Y  Y7  1  0.341467  0.341467  0.341467  1
  Au  Au8  1  0.000000  0.000000  0.000000  1
  Au  Au9  1  0.500000  0.500000  0.500000  1
  Au  Au10  1  0.807003  0.807003  0.807003  1
  Au  Au11  1  0.192997  0.192997  0.192997  1
  Au  Au12  1  0.939112  0.545796  0.317772  1
  Au  Au13  1  0.317772  0.939112  0.545796  1
  Au  Au14  1  0.545796  0.317772  0.939112  1
  Au  Au15  1  0.060888  0.454204  0.682228  1
  Au  Au16  1  0.682228  0.060888  0.454204  1
  Au  Au17  1  0.454204  0.682228  0.060888  1
