# generated using pymatgen
data_La7Er13Si15Hg
_symmetry_space_group_name_H-M   'P 1'
_cell_length_a   7.79520955
_cell_length_b   7.74092850
_cell_length_c   14.39993000
_cell_angle_alpha   90.05024993
_cell_angle_beta   89.78962419
_cell_angle_gamma   90.21324056
_symmetry_Int_Tables_number   1
_chemical_formula_structural   La7Er13Si15Hg
_chemical_formula_sum   'La7 Er13 Si15 Hg1'
_cell_volume   868.91067693
_cell_formula_units_Z   1
loop_
 _symmetry_equiv_pos_site_id
 _symmetry_equiv_pos_as_xyz
  1  'x, y, z'
loop_
 _atom_site_type_symbol
 _atom_site_label
 _atom_site_symmetry_multiplicity
 _atom_site_fract_x
 _atom_site_fract_y
 _atom_site_fract_z
 _atom_site_occupancy
  La  La0  1  0.008279  0.348821  0.542463  1
  La  La1  1  0.646156  0.992437  0.960397  1
  La  La2  1  0.141877  0.510904  0.793426  1
  La  La3  1  0.849898  0.483038  0.284362  1
  La  La4  1  0.508798  0.142945  0.205045  1
  La  La5  1  0.490234  0.859523  0.711353  1
  La  La6  1  0.361634  0.012586  0.458852  1
  Er  Er7  1  0.365677  0.489886  0.373761  1
  Er  Er8  1  0.850687  0.014027  0.368357  1
  Er  Er9  1  0.995171  0.137386  0.122807  1
  Er  Er10  1  0.009196  0.861413  0.628963  1
  Er  Er11  1  0.643281  0.511978  0.877912  1
  Er  Er12  1  0.494371  0.356133  0.626946  1
  Er  Er13  1  0.510409  0.640026  0.122415  1
  Er  Er14  1  0.136423  0.992711  0.877276  1
  Er  Er15  1  0.998492  0.634722  0.043105  1
  Er  Er16  1  0.673564  0.684738  0.501816  1
  Er  Er17  1  0.816386  0.183305  0.751564  1
  Er  Er18  1  0.180094  0.814672  0.245499  1
  Er  Er19  1  0.316660  0.320675  0.999375  1
  Si  Si20  1  0.940444  0.294763  0.939164  1
  Si  Si21  1  0.710015  0.061241  0.563314  1
  Si  Si22  1  0.210645  0.438958  0.185761  1
  Si  Si23  1  0.786638  0.563785  0.688333  1
  Si  Si24  1  0.436589  0.213761  0.814639  1
  Si  Si25  1  0.563967  0.787570  0.309933  1
  Si  Si26  1  0.286841  0.932016  0.061570  1
  Si  Si27  1  0.846451  0.800160  0.809691  1
  Si  Si28  1  0.151063  0.203806  0.307006  1
  Si  Si29  1  0.800988  0.843601  0.184247  1
  Si  Si30  1  0.300969  0.646073  0.564883  1
  Si  Si31  1  0.711134  0.355339  0.060564  1
  Si  Si32  1  0.652235  0.297975  0.442352  1
  Si  Si33  1  0.342986  0.701345  0.943541  1
  Si  Si34  1  0.203354  0.152506  0.694354  1
  Hg  Hg35  1  0.058390  0.715176  0.434958  1
