# generated using pymatgen
data_Tb8Si(Pd11Pt)2
_symmetry_space_group_name_H-M   'P 1'
_cell_length_a   8.30661600
_cell_length_b   8.31518100
_cell_length_c   8.31518100
_cell_angle_alpha   90.00000000
_cell_angle_beta   90.00000000
_cell_angle_gamma   90.00000000
_symmetry_Int_Tables_number   1
_chemical_formula_structural   Tb8Si(Pd11Pt)2
_chemical_formula_sum   'Tb8 Si1 Pd22 Pt2'
_cell_volume   574.33799605
_cell_formula_units_Z   1
loop_
 _symmetry_equiv_pos_site_id
 _symmetry_equiv_pos_as_xyz
  1  'x, y, z'
loop_
 _atom_site_type_symbol
 _atom_site_label
 _atom_site_symmetry_multiplicity
 _atom_site_fract_x
 _atom_site_fract_y
 _atom_site_fract_z
 _atom_site_occupancy
  Tb  Tb0  1  0.253263  0.253371  0.253371  1
  Tb  Tb1  1  0.746737  0.746629  0.746629  1
  Tb  Tb2  1  0.746737  0.746629  0.253371  1
  Tb  Tb3  1  0.746737  0.253371  0.746629  1
  Tb  Tb4  1  0.253263  0.253371  0.746629  1
  Tb  Tb5  1  0.253263  0.746629  0.253371  1
  Tb  Tb6  1  0.253263  0.746629  0.746629  1
  Tb  Tb7  1  0.746737  0.253371  0.253371  1
  Si  Si8  1  0.000000  0.000000  0.000000  1
  Pd  Pd9  1  0.257396  0.500000  0.000000  1
  Pd  Pd10  1  0.742604  0.500000  0.000000  1
  Pd  Pd11  1  0.000000  0.257746  0.500000  1
  Pd  Pd12  1  0.500000  0.257502  0.000000  1
  Pd  Pd13  1  0.000000  0.742254  0.500000  1
  Pd  Pd14  1  0.500000  0.742498  0.000000  1
  Pd  Pd15  1  0.500000  0.000000  0.257502  1
  Pd  Pd16  1  0.257396  0.000000  0.500000  1
  Pd  Pd17  1  0.500000  0.000000  0.742498  1
  Pd  Pd18  1  0.742604  0.000000  0.500000  1
  Pd  Pd19  1  0.000000  0.500000  0.257746  1
  Pd  Pd20  1  0.000000  0.500000  0.742254  1
  Pd  Pd21  1  0.252174  0.500000  0.500000  1
  Pd  Pd22  1  0.747826  0.500000  0.500000  1
  Pd  Pd23  1  0.500000  0.252445  0.500000  1
  Pd  Pd24  1  0.500000  0.747555  0.500000  1
  Pd  Pd25  1  0.500000  0.500000  0.252445  1
  Pd  Pd26  1  0.500000  0.500000  0.747555  1
  Pd  Pd27  1  0.000000  0.281785  0.000000  1
  Pd  Pd28  1  0.000000  0.718215  0.000000  1
  Pd  Pd29  1  0.000000  0.000000  0.281785  1
  Pd  Pd30  1  0.000000  0.000000  0.718215  1
  Pt  Pt31  1  0.279520  0.000000  0.000000  1
  Pt  Pt32  1  0.720480  0.000000  0.000000  1
