# generated using pymatgen
data_SmEr2Tm(WO6)2
_symmetry_space_group_name_H-M   'P 1'
_cell_length_a   5.39799000
_cell_length_b   7.70708985
_cell_length_c   11.45439716
_cell_angle_alpha   75.39600222
_cell_angle_beta   90.00000000
_cell_angle_gamma   90.00000000
_symmetry_Int_Tables_number   1
_chemical_formula_structural   SmEr2Tm(WO6)2
_chemical_formula_sum   'Sm2 Er4 Tm2 W4 O24'
_cell_volume   461.13883409
_cell_formula_units_Z   2
loop_
 _symmetry_equiv_pos_site_id
 _symmetry_equiv_pos_as_xyz
  1  'x, y, z'
loop_
 _atom_site_type_symbol
 _atom_site_label
 _atom_site_symmetry_multiplicity
 _atom_site_fract_x
 _atom_site_fract_y
 _atom_site_fract_z
 _atom_site_occupancy
  Sm  Sm0  1  0.684478  0.500375  0.749810  1
  Sm  Sm1  1  0.315522  0.500375  0.249810  1
  Er  Er2  1  0.741712  0.999701  0.749889  1
  Er  Er3  1  0.258288  0.999701  0.249889  1
  Er  Er4  1  0.184134  0.203457  0.922585  1
  Er  Er5  1  0.815866  0.203457  0.422585  1
  Tm  Tm6  1  0.184735  0.795920  0.577805  1
  Tm  Tm7  1  0.815265  0.795920  0.077805  1
  W  W8  1  0.254350  0.726771  0.884769  1
  W  W9  1  0.745650  0.726771  0.384769  1
  W  W10  1  0.254719  0.273368  0.615425  1
  W  W11  1  0.745281  0.273368  0.115425  1
  O  O12  1  0.041367  0.941326  0.896223  1
  O  O13  1  0.537204  0.845473  0.931045  1
  O  O14  1  0.958633  0.941326  0.396223  1
  O  O15  1  0.455907  0.795209  0.725706  1
  O  O16  1  0.462796  0.845473  0.431045  1
  O  O17  1  0.983347  0.717569  0.769125  1
  O  O18  1  0.544093  0.795209  0.225706  1
  O  O19  1  0.854362  0.639290  0.547443  1
  O  O20  1  0.351526  0.491371  0.886883  1
  O  O21  1  0.016653  0.717569  0.269125  1
  O  O22  1  0.350853  0.509512  0.613464  1
  O  O23  1  0.852710  0.361403  0.952446  1
  O  O24  1  0.145638  0.639290  0.047443  1
  O  O25  1  0.648474  0.491371  0.386883  1
  O  O26  1  0.982326  0.282348  0.730025  1
  O  O27  1  0.649147  0.509512  0.113464  1
  O  O28  1  0.147290  0.361403  0.452446  1
  O  O29  1  0.456528  0.205397  0.773768  1
  O  O30  1  0.017674  0.282348  0.230025  1
  O  O31  1  0.536982  0.154176  0.569464  1
  O  O32  1  0.543472  0.205397  0.273768  1
  O  O33  1  0.043660  0.057336  0.604126  1
  O  O34  1  0.463018  0.154176  0.069464  1
  O  O35  1  0.956340  0.057336  0.104126  1
