# generated using pymatgen
data_ErLu2Co8P6Rh
_symmetry_space_group_name_H-M   'P 1'
_cell_length_a   3.68440100
_cell_length_b   10.50124700
_cell_length_c   12.18185900
_cell_angle_alpha   90.00000000
_cell_angle_beta   90.00000000
_cell_angle_gamma   90.00000000
_symmetry_Int_Tables_number   1
_chemical_formula_structural   ErLu2Co8P6Rh
_chemical_formula_sum   'Er2 Lu4 Co16 P12 Rh2'
_cell_volume   471.32593047
_cell_formula_units_Z   2
loop_
 _symmetry_equiv_pos_site_id
 _symmetry_equiv_pos_as_xyz
  1  'x, y, z'
loop_
 _atom_site_type_symbol
 _atom_site_label
 _atom_site_symmetry_multiplicity
 _atom_site_fract_x
 _atom_site_fract_y
 _atom_site_fract_z
 _atom_site_occupancy
  Er  Er0  1  0.000000  0.500000  0.525510  1
  Er  Er1  1  0.500000  0.000000  0.474490  1
  Lu  Lu2  1  0.500000  0.819013  0.207536  1
  Lu  Lu3  1  0.500000  0.180987  0.207536  1
  Lu  Lu4  1  0.000000  0.680987  0.792464  1
  Lu  Lu5  1  0.000000  0.319013  0.792464  1
  Co  Co6  1  0.500000  0.500000  0.704892  1
  Co  Co7  1  0.000000  0.000000  0.295108  1
  Co  Co8  1  0.000000  0.500000  0.986160  1
  Co  Co9  1  0.500000  0.000000  0.013840  1
  Co  Co10  1  0.500000  0.332582  0.992048  1
  Co  Co11  1  0.500000  0.667418  0.992048  1
  Co  Co12  1  0.000000  0.167418  0.007952  1
  Co  Co13  1  0.000000  0.832582  0.007952  1
  Co  Co14  1  0.500000  0.297358  0.431087  1
  Co  Co15  1  0.500000  0.702642  0.431087  1
  Co  Co16  1  0.000000  0.202642  0.568913  1
  Co  Co17  1  0.000000  0.797358  0.568913  1
  Co  Co18  1  0.500000  0.877081  0.707876  1
  Co  Co19  1  0.500000  0.122919  0.707876  1
  Co  Co20  1  0.000000  0.622919  0.292124  1
  Co  Co21  1  0.000000  0.377081  0.292124  1
  P  P22  1  0.500000  0.500000  0.881745  1
  P  P23  1  0.000000  0.000000  0.118255  1
  P  P24  1  0.500000  0.500000  0.353040  1
  P  P25  1  0.000000  0.000000  0.646960  1
  P  P26  1  0.500000  0.312117  0.617060  1
  P  P27  1  0.500000  0.687883  0.617060  1
  P  P28  1  0.000000  0.187883  0.382940  1
  P  P29  1  0.000000  0.812117  0.382940  1
  P  P30  1  0.500000  0.843641  0.892817  1
  P  P31  1  0.500000  0.156359  0.892817  1
  P  P32  1  0.000000  0.656359  0.107183  1
  P  P33  1  0.000000  0.343641  0.107183  1
  Rh  Rh34  1  0.500000  0.500000  0.161416  1
  Rh  Rh35  1  0.000000  0.000000  0.838584  1
