# generated using pymatgen
data_SmY2Ga6(Ni2Pd)3
_symmetry_space_group_name_H-M   'P 1'
_cell_length_a   8.96421100
_cell_length_b   8.96421173
_cell_length_c   4.17865900
_cell_angle_alpha   90.00000000
_cell_angle_beta   90.00000000
_cell_angle_gamma   120.00000101
_symmetry_Int_Tables_number   1
_chemical_formula_structural   SmY2Ga6(Ni2Pd)3
_chemical_formula_sum   'Sm1 Y2 Ga6 Ni6 Pd3'
_cell_volume   290.79821421
_cell_formula_units_Z   1
loop_
 _symmetry_equiv_pos_site_id
 _symmetry_equiv_pos_as_xyz
  1  'x, y, z'
loop_
 _atom_site_type_symbol
 _atom_site_label
 _atom_site_symmetry_multiplicity
 _atom_site_fract_x
 _atom_site_fract_y
 _atom_site_fract_z
 _atom_site_occupancy
  Sm  Sm0  1  0.333333  0.666667  0.500000  1
  Y  Y1  1  0.666667  0.333333  0.500000  1
  Y  Y2  1  0.000000  0.000000  0.000000  1
  Ga  Ga3  1  0.282982  0.282604  0.500000  1
  Ga  Ga4  1  0.717396  0.000377  0.500000  1
  Ga  Ga5  1  0.999623  0.717018  0.500000  1
  Ga  Ga6  1  0.533733  0.533149  0.000000  1
  Ga  Ga7  1  0.466851  0.000583  0.000000  1
  Ga  Ga8  1  0.999417  0.466267  0.000000  1
  Ni  Ni9  1  0.780004  0.165508  0.000000  1
  Ni  Ni10  1  0.834492  0.614495  0.000000  1
  Ni  Ni11  1  0.385505  0.219996  0.000000  1
  Ni  Ni12  1  0.164461  0.781151  0.000000  1
  Ni  Ni13  1  0.616690  0.835539  0.000000  1
  Ni  Ni14  1  0.218849  0.383310  0.000000  1
  Pd  Pd15  1  0.715083  0.714539  0.500000  1
  Pd  Pd16  1  0.285461  0.000544  0.500000  1
  Pd  Pd17  1  0.999456  0.284917  0.500000  1
