# generated using pymatgen
data_Tb2Dy10TcNi4Sn
_symmetry_space_group_name_H-M   'P 1'
_cell_length_a   8.30626960
_cell_length_b   8.30626991
_cell_length_c   8.30626924
_cell_angle_alpha   107.08226141
_cell_angle_beta   109.62297667
_cell_angle_gamma   111.74190929
_symmetry_Int_Tables_number   1
_chemical_formula_structural   Tb2Dy10TcNi4Sn
_chemical_formula_sum   'Tb2 Dy10 Tc1 Ni4 Sn1'
_cell_volume   440.43027099
_cell_formula_units_Z   1
loop_
 _symmetry_equiv_pos_site_id
 _symmetry_equiv_pos_as_xyz
  1  'x, y, z'
loop_
 _atom_site_type_symbol
 _atom_site_label
 _atom_site_symmetry_multiplicity
 _atom_site_fract_x
 _atom_site_fract_y
 _atom_site_fract_z
 _atom_site_occupancy
  Tb  Tb0  1  0.034438  0.214812  0.819627  1
  Tb  Tb1  1  0.395185  0.214812  0.180373  1
  Dy  Dy2  1  0.690681  0.280315  0.971002  1
  Dy  Dy3  1  0.309313  0.719680  0.028998  1
  Dy  Dy4  1  0.690681  0.719680  0.410367  1
  Dy  Dy5  1  0.309313  0.280315  0.589633  1
  Dy  Dy6  1  0.806128  0.126363  0.320236  1
  Dy  Dy7  1  0.806128  0.485891  0.679764  1
  Dy  Dy8  1  0.193787  0.873319  0.679531  1
  Dy  Dy9  1  0.193787  0.514257  0.320469  1
  Dy  Dy10  1  0.604652  0.784625  0.820027  1
  Dy  Dy11  1  0.964600  0.784625  0.179973  1
  Tc  Tc12  1  0.500902  0.500902  0.000000  1
  Ni  Ni13  1  0.860974  0.500742  0.360233  1
  Ni  Ni14  1  0.140509  0.500742  0.639767  1
  Ni  Ni15  1  0.999651  0.120983  0.121332  1
  Ni  Ni16  1  0.999651  0.878318  0.878668  1
  Sn  Sn17  1  0.499621  0.999621  0.500000  1
