# generated using pymatgen
data_DyTlCu2(TeO6)2
_symmetry_space_group_name_H-M   'P 1'
_cell_length_a   5.17257569
_cell_length_b   5.17224139
_cell_length_c   9.74173512
_cell_angle_alpha   89.97171474
_cell_angle_beta   90.02486717
_cell_angle_gamma   120.00396196
_symmetry_Int_Tables_number   1
_chemical_formula_structural   DyTlCu2(TeO6)2
_chemical_formula_sum   'Dy1 Tl1 Cu2 Te2 O12'
_cell_volume   225.70188417
_cell_formula_units_Z   1
loop_
 _symmetry_equiv_pos_site_id
 _symmetry_equiv_pos_as_xyz
  1  'x, y, z'
loop_
 _atom_site_type_symbol
 _atom_site_label
 _atom_site_symmetry_multiplicity
 _atom_site_fract_x
 _atom_site_fract_y
 _atom_site_fract_z
 _atom_site_occupancy
  Dy  Dy0  1  0.999936  0.999931  0.500029  1
  Tl  Tl1  1  0.999840  0.999897  0.000037  1
  Cu  Cu2  1  0.334078  0.666970  0.248518  1
  Cu  Cu3  1  0.666806  0.333621  0.751127  1
  Te  Te4  1  0.666724  0.333193  0.248212  1
  Te  Te5  1  0.333196  0.666781  0.751911  1
  O  O6  1  0.635788  0.629648  0.136019  1
  O  O7  1  0.994017  0.363821  0.136102  1
  O  O8  1  0.369729  0.005329  0.136019  1
  O  O9  1  0.989719  0.634118  0.360209  1
  O  O10  1  0.366135  0.355117  0.360158  1
  O  O11  1  0.644982  0.010773  0.360203  1
  O  O12  1  0.354860  0.989147  0.639883  1
  O  O13  1  0.633712  0.644852  0.639836  1
  O  O14  1  0.010267  0.365823  0.639809  1
  O  O15  1  0.005876  0.636063  0.863971  1
  O  O16  1  0.630171  0.994732  0.864012  1
  O  O17  1  0.364167  0.370185  0.863946  1
