# generated using pymatgen
data_Rb2Mn(BrCl)2
_symmetry_space_group_name_H-M   'P 1'
_cell_length_a   9.37428135
_cell_length_b   9.37428104
_cell_length_c   7.26740900
_cell_angle_alpha   90.00000000
_cell_angle_beta   90.00000000
_cell_angle_gamma   134.41931948
_symmetry_Int_Tables_number   1
_chemical_formula_structural   Rb2Mn(BrCl)2
_chemical_formula_sum   'Rb4 Mn2 Br4 Cl4'
_cell_volume   456.13955083
_cell_formula_units_Z   2
loop_
 _symmetry_equiv_pos_site_id
 _symmetry_equiv_pos_as_xyz
  1  'x, y, z'
loop_
 _atom_site_type_symbol
 _atom_site_label
 _atom_site_symmetry_multiplicity
 _atom_site_fract_x
 _atom_site_fract_y
 _atom_site_fract_z
 _atom_site_occupancy
  Rb  Rb0  1  0.136507  0.863493  0.500000  1
  Rb  Rb1  1  0.636507  0.363493  0.000000  1
  Rb  Rb2  1  0.863493  0.136507  0.500000  1
  Rb  Rb3  1  0.363493  0.636507  0.000000  1
  Mn  Mn4  1  0.500000  0.500000  0.500000  1
  Mn  Mn5  1  0.000000  0.000000  0.000000  1
  Br  Br6  1  0.343901  0.656099  0.500000  1
  Br  Br7  1  0.843901  0.156099  0.000000  1
  Br  Br8  1  0.656099  0.343901  0.500000  1
  Br  Br9  1  0.156099  0.843901  0.000000  1
  Cl  Cl10  1  0.251343  0.251343  0.250557  1
  Cl  Cl11  1  0.748657  0.748657  0.749443  1
  Cl  Cl12  1  0.248657  0.248657  0.750557  1
  Cl  Cl13  1  0.751343  0.751343  0.249443  1
