# generated using pymatgen
data_HoTm5Fe8(Co5P6)2
_symmetry_space_group_name_H-M   'P 1'
_cell_length_a   3.68305500
_cell_length_b   10.47284400
_cell_length_c   12.04892900
_cell_angle_alpha   90.00000000
_cell_angle_beta   90.00000000
_cell_angle_gamma   90.00000000
_symmetry_Int_Tables_number   1
_chemical_formula_structural   HoTm5Fe8(Co5P6)2
_chemical_formula_sum   'Ho1 Tm5 Fe8 Co10 P12'
_cell_volume   464.75201785
_cell_formula_units_Z   1
loop_
 _symmetry_equiv_pos_site_id
 _symmetry_equiv_pos_as_xyz
  1  'x, y, z'
loop_
 _atom_site_type_symbol
 _atom_site_label
 _atom_site_symmetry_multiplicity
 _atom_site_fract_x
 _atom_site_fract_y
 _atom_site_fract_z
 _atom_site_occupancy
  Ho  Ho0  1  0.500000  0.000000  0.476842  1
  Tm  Tm1  1  0.000000  0.500000  0.523350  1
  Tm  Tm2  1  0.500000  0.818847  0.204966  1
  Tm  Tm3  1  0.500000  0.181153  0.204966  1
  Tm  Tm4  1  0.000000  0.680714  0.794804  1
  Tm  Tm5  1  0.000000  0.319286  0.794804  1
  Fe  Fe6  1  0.000000  0.500000  0.986963  1
  Fe  Fe7  1  0.500000  0.000000  0.012769  1
  Fe  Fe8  1  0.500000  0.298772  0.429120  1
  Fe  Fe9  1  0.500000  0.701228  0.429120  1
  Fe  Fe10  1  0.000000  0.202452  0.571110  1
  Fe  Fe11  1  0.000000  0.797548  0.571110  1
  Fe  Fe12  1  0.500000  0.500000  0.155688  1
  Fe  Fe13  1  0.000000  0.000000  0.844557  1
  Co  Co14  1  0.500000  0.879814  0.711924  1
  Co  Co15  1  0.500000  0.120186  0.711924  1
  Co  Co16  1  0.000000  0.619826  0.288279  1
  Co  Co17  1  0.000000  0.380174  0.288279  1
  Co  Co18  1  0.500000  0.332047  0.993576  1
  Co  Co19  1  0.500000  0.667953  0.993576  1
  Co  Co20  1  0.000000  0.168279  0.006364  1
  Co  Co21  1  0.000000  0.831721  0.006364  1
  Co  Co22  1  0.500000  0.500000  0.699532  1
  Co  Co23  1  0.000000  0.000000  0.299827  1
  P  P24  1  0.500000  0.308899  0.615155  1
  P  P25  1  0.500000  0.691101  0.615155  1
  P  P26  1  0.000000  0.191992  0.384676  1
  P  P27  1  0.000000  0.808008  0.384676  1
  P  P28  1  0.500000  0.500000  0.882169  1
  P  P29  1  0.000000  0.000000  0.117545  1
  P  P30  1  0.500000  0.847547  0.893475  1
  P  P31  1  0.500000  0.152453  0.893475  1
  P  P32  1  0.000000  0.652107  0.106518  1
  P  P33  1  0.000000  0.347893  0.106518  1
  P  P34  1  0.500000  0.500000  0.343701  1
  P  P35  1  0.000000  0.000000  0.657122  1
