# generated using pymatgen
data_CrCo2Rh3O8
_symmetry_space_group_name_H-M   'P 1'
_cell_length_a   6.01782588
_cell_length_b   6.01875144
_cell_length_c   6.13303500
_cell_angle_alpha   90.00262208
_cell_angle_beta   59.36319024
_cell_angle_gamma   118.74482351
_symmetry_Int_Tables_number   1
_chemical_formula_structural   CrCo2Rh3O8
_chemical_formula_sum   'Cr1 Co2 Rh3 O8'
_cell_volume   158.49181658
_cell_formula_units_Z   1
loop_
 _symmetry_equiv_pos_site_id
 _symmetry_equiv_pos_as_xyz
  1  'x, y, z'
loop_
 _atom_site_type_symbol
 _atom_site_label
 _atom_site_symmetry_multiplicity
 _atom_site_fract_x
 _atom_site_fract_y
 _atom_site_fract_z
 _atom_site_occupancy
  Cr  Cr0  1  0.500112  0.500439  0.499584  1
  Co  Co1  1  0.745567  0.877194  0.877187  1
  Co  Co2  1  0.254495  0.122727  0.122726  1
  Rh  Rh3  1  0.999919  0.499787  0.000080  1
  Rh  Rh4  1  0.999967  0.499779  0.500173  1
  Rh  Rh5  1  0.500155  0.000144  0.500043  1
  O  O6  1  0.483704  0.737208  0.737354  1
  O  O7  1  0.483779  0.737322  0.278834  1
  O  O8  1  0.020650  0.739671  0.739769  1
  O  O9  1  0.979281  0.260210  0.260470  1
  O  O10  1  0.516185  0.262755  0.262730  1
  O  O11  1  0.025490  0.278896  0.737287  1
  O  O12  1  0.516275  0.262838  0.720959  1
  O  O13  1  0.974422  0.721033  0.262803  1
