# generated using pymatgen
data_Sr3AcAs3
_symmetry_space_group_name_H-M   'P 1'
_cell_length_a   8.27518696
_cell_length_b   8.27518697
_cell_length_c   8.31443092
_cell_angle_alpha   109.55146305
_cell_angle_beta   109.55146232
_cell_angle_gamma   109.25706406
_symmetry_Int_Tables_number   1
_chemical_formula_structural   Sr3AcAs3
_chemical_formula_sum   'Sr6 Ac2 As6'
_cell_volume   438.58193852
_cell_formula_units_Z   2
loop_
 _symmetry_equiv_pos_site_id
 _symmetry_equiv_pos_as_xyz
  1  'x, y, z'
loop_
 _atom_site_type_symbol
 _atom_site_label
 _atom_site_symmetry_multiplicity
 _atom_site_fract_x
 _atom_site_fract_y
 _atom_site_fract_z
 _atom_site_occupancy
  Sr  Sr0  1  0.997781  0.123952  0.494245  1
  Sr  Sr1  1  0.371534  0.367729  0.373227  1
  Sr  Sr2  1  0.623952  0.497781  0.994245  1
  Sr  Sr3  1  0.503593  0.005518  0.132007  1
  Sr  Sr4  1  0.867729  0.871534  0.873227  1
  Sr  Sr5  1  0.505518  0.003593  0.632007  1
  Ac  Ac6  1  0.999817  0.635823  0.500503  1
  Ac  Ac7  1  0.135823  0.499817  0.000503  1
  As  As8  1  0.880053  0.257246  0.127649  1
  As  As9  1  0.366367  0.623897  0.750439  1
  As  As10  1  0.123897  0.866367  0.250439  1
  As  As11  1  0.622004  0.744685  0.371930  1
  As  As12  1  0.244685  0.122004  0.871930  1
  As  As13  1  0.757246  0.380053  0.627649  1
