# generated using pymatgen
data_Er3Lu5Re2(B12Os)2
_symmetry_space_group_name_H-M   'P 1'
_cell_length_a   3.61955600
_cell_length_b   9.06826935
_cell_length_c   11.44349801
_cell_angle_alpha   90.12529085
_cell_angle_beta   90.00000000
_cell_angle_gamma   90.00000000
_symmetry_Int_Tables_number   1
_chemical_formula_structural   Er3Lu5Re2(B12Os)2
_chemical_formula_sum   'Er3 Lu5 Re2 B24 Os2'
_cell_volume   375.61028148
_cell_formula_units_Z   1
loop_
 _symmetry_equiv_pos_site_id
 _symmetry_equiv_pos_as_xyz
  1  'x, y, z'
loop_
 _atom_site_type_symbol
 _atom_site_label
 _atom_site_symmetry_multiplicity
 _atom_site_fract_x
 _atom_site_fract_y
 _atom_site_fract_z
 _atom_site_occupancy
  Er  Er0  1  0.000000  0.320075  0.412348  1
  Er  Er1  1  0.000000  0.679898  0.587693  1
  Er  Er2  1  0.000000  0.823929  0.084727  1
  Lu  Lu3  1  0.000000  0.175848  0.915471  1
  Lu  Lu4  1  0.000000  0.943720  0.370858  1
  Lu  Lu5  1  0.000000  0.056473  0.629190  1
  Lu  Lu6  1  0.000000  0.442609  0.128172  1
  Lu  Lu7  1  0.000000  0.557130  0.871626  1
  Re  Re8  1  0.000000  0.138852  0.179704  1
  Re  Re9  1  0.000000  0.861748  0.820078  1
  B  B10  1  0.500000  0.553705  0.433286  1
  B  B11  1  0.500000  0.446162  0.566830  1
  B  B12  1  0.500000  0.053319  0.066296  1
  B  B13  1  0.500000  0.947450  0.933281  1
  B  B14  1  0.500000  0.750173  0.419025  1
  B  B15  1  0.500000  0.249843  0.581146  1
  B  B16  1  0.500000  0.250049  0.080034  1
  B  B17  1  0.500000  0.749980  0.919244  1
  B  B18  1  0.500000  0.791800  0.265590  1
  B  B19  1  0.500000  0.208005  0.734854  1
  B  B20  1  0.500000  0.292743  0.234619  1
  B  B21  1  0.500000  0.707309  0.765205  1
  B  B22  1  0.500000  0.630165  0.185088  1
  B  B23  1  0.500000  0.369306  0.815241  1
  B  B24  1  0.500000  0.130648  0.315579  1
  B  B25  1  0.500000  0.869580  0.684430  1
  B  B26  1  0.500000  0.981672  0.212856  1
  B  B27  1  0.500000  0.019107  0.787327  1
  B  B28  1  0.500000  0.482040  0.287427  1
  B  B29  1  0.500000  0.517746  0.712614  1
  B  B30  1  0.500000  0.601332  0.028270  1
  B  B31  1  0.500000  0.397837  0.971429  1
  B  B32  1  0.500000  0.101423  0.472199  1
  B  B33  1  0.500000  0.898652  0.527864  1
  Os  Os34  1  0.000000  0.638056  0.321010  1
  Os  Os35  1  0.000000  0.361616  0.679388  1
