# generated using pymatgen
data_Cs2Rb2Zr6FeBr18
_symmetry_space_group_name_H-M   'P 1'
_cell_length_a   10.85971818
_cell_length_b   11.12520689
_cell_length_c   11.21537149
_cell_angle_alpha   118.36624112
_cell_angle_beta   100.47611582
_cell_angle_gamma   104.13428104
_symmetry_Int_Tables_number   1
_chemical_formula_structural   Cs2Rb2Zr6FeBr18
_chemical_formula_sum   'Cs2 Rb2 Zr6 Fe1 Br18'
_cell_volume   1083.48773473
_cell_formula_units_Z   1
loop_
 _symmetry_equiv_pos_site_id
 _symmetry_equiv_pos_as_xyz
  1  'x, y, z'
loop_
 _atom_site_type_symbol
 _atom_site_label
 _atom_site_symmetry_multiplicity
 _atom_site_fract_x
 _atom_site_fract_y
 _atom_site_fract_z
 _atom_site_occupancy
  Cs  Cs0  1  0.662236  0.538999  0.231760  1
  Cs  Cs1  1  0.337764  0.461001  0.768240  1
  Rb  Rb2  1  0.689964  0.226251  0.564864  1
  Rb  Rb3  1  0.310036  0.773749  0.435136  1
  Zr  Zr4  1  0.152382  0.054577  0.228261  1
  Zr  Zr5  1  0.847618  0.945423  0.771739  1
  Zr  Zr6  1  0.861739  0.123414  0.132043  1
  Zr  Zr7  1  0.138261  0.876586  0.867957  1
  Zr  Zr8  1  0.145599  0.238585  0.046635  1
  Zr  Zr9  1  0.854401  0.761415  0.953365  1
  Fe  Fe10  1  0.000000  0.000000  0.000000  1
  Br  Br11  1  0.007882  0.398135  0.193398  1
  Br  Br12  1  0.992118  0.601865  0.806602  1
  Br  Br13  1  0.325114  0.325166  0.305238  1
  Br  Br14  1  0.674886  0.674834  0.694762  1
  Br  Br15  1  0.314460  0.513658  0.104786  1
  Br  Br16  1  0.685540  0.486342  0.895214  1
  Br  Br17  1  0.004440  0.799898  0.203257  1
  Br  Br18  1  0.995560  0.200102  0.796743  1
  Br  Br19  1  0.708976  0.261240  0.283668  1
  Br  Br20  1  0.291024  0.738760  0.716332  1
  Br  Br21  1  0.311082  0.128148  0.907874  1
  Br  Br22  1  0.688918  0.871852  0.092126  1
  Br  Br23  1  0.017687  0.196960  0.397669  1
  Br  Br24  1  0.982313  0.803040  0.602331  1
  Br  Br25  1  0.315634  0.924154  0.105829  1
  Br  Br26  1  0.684366  0.075846  0.894171  1
  Br  Br27  1  0.332277  0.113158  0.486719  1
  Br  Br28  1  0.667723  0.886842  0.513281  1
