# generated using pymatgen
data_La6ScCd22P
_symmetry_space_group_name_H-M   'P 1'
_cell_length_a   10.16556875
_cell_length_b   10.16556848
_cell_length_c   10.16556900
_cell_angle_alpha   60.00000156
_cell_angle_beta   60.00000245
_cell_angle_gamma   60.00000074
_symmetry_Int_Tables_number   1
_chemical_formula_structural   La6ScCd22P
_chemical_formula_sum   'La6 Sc1 Cd22 P1'
_cell_volume   742.81396940
_cell_formula_units_Z   1
loop_
 _symmetry_equiv_pos_site_id
 _symmetry_equiv_pos_as_xyz
  1  'x, y, z'
loop_
 _atom_site_type_symbol
 _atom_site_label
 _atom_site_symmetry_multiplicity
 _atom_site_fract_x
 _atom_site_fract_y
 _atom_site_fract_z
 _atom_site_occupancy
  La  La0  1  0.794201  0.794201  0.205799  1
  La  La1  1  0.205799  0.794201  0.205799  1
  La  La2  1  0.794201  0.205799  0.205799  1
  La  La3  1  0.205799  0.205799  0.794201  1
  La  La4  1  0.794201  0.205799  0.794201  1
  La  La5  1  0.205799  0.794201  0.794201  1
  Sc  Sc6  1  0.500000  0.500000  0.500000  1
  Cd  Cd7  1  0.830243  0.830243  0.509272  1
  Cd  Cd8  1  0.830243  0.509272  0.830243  1
  Cd  Cd9  1  0.509272  0.830243  0.830243  1
  Cd  Cd10  1  0.830243  0.830243  0.830243  1
  Cd  Cd11  1  0.169757  0.169757  0.490728  1
  Cd  Cd12  1  0.169757  0.490728  0.169757  1
  Cd  Cd13  1  0.490728  0.169757  0.169757  1
  Cd  Cd14  1  0.169757  0.169757  0.169757  1
  Cd  Cd15  1  0.620011  0.620011  0.139966  1
  Cd  Cd16  1  0.620011  0.139966  0.620011  1
  Cd  Cd17  1  0.139966  0.620011  0.620011  1
  Cd  Cd18  1  0.620011  0.620011  0.620011  1
  Cd  Cd19  1  0.379989  0.379989  0.860034  1
  Cd  Cd20  1  0.379989  0.860034  0.379989  1
  Cd  Cd21  1  0.860034  0.379989  0.379989  1
  Cd  Cd22  1  0.379989  0.379989  0.379989  1
  Cd  Cd23  1  0.000000  0.000000  0.500000  1
  Cd  Cd24  1  0.500000  0.000000  0.500000  1
  Cd  Cd25  1  0.000000  0.500000  0.500000  1
  Cd  Cd26  1  0.500000  0.500000  0.000000  1
  Cd  Cd27  1  0.000000  0.500000  0.000000  1
  Cd  Cd28  1  0.500000  0.000000  0.000000  1
  P  P29  1  0.000000  0.000000  0.000000  1
