# generated using pymatgen
data_Ho9Ga(Co2Ag)2
_symmetry_space_group_name_H-M   'P 1'
_cell_length_a   8.48385296
_cell_length_b   8.48385394
_cell_length_c   8.48385356
_cell_angle_alpha   128.71234118
_cell_angle_beta   128.71235248
_cell_angle_gamma   75.47386034
_symmetry_Int_Tables_number   1
_chemical_formula_structural   Ho9Ga(Co2Ag)2
_chemical_formula_sum   'Ho9 Ga1 Co4 Ag2'
_cell_volume   361.78237497
_cell_formula_units_Z   1
loop_
 _symmetry_equiv_pos_site_id
 _symmetry_equiv_pos_as_xyz
  1  'x, y, z'
loop_
 _atom_site_type_symbol
 _atom_site_label
 _atom_site_symmetry_multiplicity
 _atom_site_fract_x
 _atom_site_fract_y
 _atom_site_fract_z
 _atom_site_occupancy
  Ho  Ho0  1  0.719947  0.554847  0.531394  1
  Ho  Ho1  1  0.445153  0.976546  0.165100  1
  Ho  Ho2  1  0.811446  0.280053  0.834900  1
  Ho  Ho3  1  0.554847  0.023454  0.834900  1
  Ho  Ho4  1  0.023454  0.188554  0.468606  1
  Ho  Ho5  1  0.280053  0.445153  0.468606  1
  Ho  Ho6  1  0.188554  0.719947  0.165100  1
  Ho  Ho7  1  0.976546  0.811446  0.531394  1
  Ho  Ho8  1  0.500000  0.500000  0.000000  1
  Ga  Ga9  1  0.000000  0.000000  0.000000  1
  Co  Co10  1  0.132664  0.629880  0.762543  1
  Co  Co11  1  0.867336  0.370120  0.237457  1
  Co  Co12  1  0.629880  0.867336  0.497216  1
  Co  Co13  1  0.370120  0.132664  0.502784  1
  Ag  Ag14  1  0.259649  0.259649  0.000000  1
  Ag  Ag15  1  0.740351  0.740351  0.000000  1
