# generated using pymatgen
data_Ho12Co2Ni2RhPb
_symmetry_space_group_name_H-M   'P 1'
_cell_length_a   8.31251355
_cell_length_b   8.31251648
_cell_length_c   8.31251490
_cell_angle_alpha   111.01395885
_cell_angle_beta   109.82795174
_cell_angle_gamma   107.59025033
_symmetry_Int_Tables_number   1
_chemical_formula_structural   Ho12Co2Ni2RhPb
_chemical_formula_sum   'Ho12 Co2 Ni2 Rh1 Pb1'
_cell_volume   441.75094800
_cell_formula_units_Z   1
loop_
 _symmetry_equiv_pos_site_id
 _symmetry_equiv_pos_as_xyz
  1  'x, y, z'
loop_
 _atom_site_type_symbol
 _atom_site_label
 _atom_site_symmetry_multiplicity
 _atom_site_fract_x
 _atom_site_fract_y
 _atom_site_fract_z
 _atom_site_occupancy
  Ho  Ho0  1  0.407548  0.213928  0.193621  1
  Ho  Ho1  1  0.592452  0.786072  0.806379  1
  Ho  Ho2  1  0.020307  0.213928  0.806379  1
  Ho  Ho3  1  0.979693  0.786072  0.193621  1
  Ho  Ho4  1  0.183037  0.290904  0.473940  1
  Ho  Ho5  1  0.816963  0.709096  0.526060  1
  Ho  Ho6  1  0.183037  0.709096  0.892131  1
  Ho  Ho7  1  0.816963  0.290904  0.107869  1
  Ho  Ho8  1  0.314751  0.622915  0.308164  1
  Ho  Ho9  1  0.685249  0.377085  0.691836  1
  Ho  Ho10  1  0.314751  0.006586  0.691836  1
  Ho  Ho11  1  0.685249  0.993414  0.308164  1
  Co  Co12  1  0.113748  0.613748  0.500000  1
  Co  Co13  1  0.886252  0.386252  0.500000  1
  Ni  Ni14  1  0.366899  0.000000  0.366899  1
  Ni  Ni15  1  0.633101  0.000000  0.633101  1
  Rh  Rh16  1  0.000000  0.000000  0.000000  1
  Pb  Pb17  1  0.500000  0.500000  0.000000  1
