# generated using pymatgen
data_CsMn(CuSe2)2
_symmetry_space_group_name_H-M   'P 1'
_cell_length_a   10.23846449
_cell_length_b   10.23846384
_cell_length_c   7.78758200
_cell_angle_alpha   90.00000000
_cell_angle_beta   90.00000000
_cell_angle_gamma   147.46412703
_symmetry_Int_Tables_number   1
_chemical_formula_structural   CsMn(CuSe2)2
_chemical_formula_sum   'Cs2 Mn2 Cu4 Se8'
_cell_volume   439.05134103
_cell_formula_units_Z   2
loop_
 _symmetry_equiv_pos_site_id
 _symmetry_equiv_pos_as_xyz
  1  'x, y, z'
loop_
 _atom_site_type_symbol
 _atom_site_label
 _atom_site_symmetry_multiplicity
 _atom_site_fract_x
 _atom_site_fract_y
 _atom_site_fract_z
 _atom_site_occupancy
  Cs  Cs0  1  0.485068  0.115124  0.750000  1
  Cs  Cs1  1  0.115124  0.485068  0.250000  1
  Mn  Mn2  1  0.439508  0.648780  0.750000  1
  Mn  Mn3  1  0.648780  0.439508  0.250000  1
  Cu  Cu4  1  0.561529  0.561529  0.500000  1
  Cu  Cu5  1  0.561529  0.561529  0.000000  1
  Cu  Cu6  1  0.149677  0.939652  0.250000  1
  Cu  Cu7  1  0.939652  0.149677  0.750000  1
  Se  Se8  1  0.112531  0.510077  0.750000  1
  Se  Se9  1  0.317020  0.300678  0.250000  1
  Se  Se10  1  0.883105  0.673069  0.009307  1
  Se  Se11  1  0.673069  0.883105  0.990693  1
  Se  Se12  1  0.883105  0.673069  0.490693  1
  Se  Se13  1  0.673069  0.883105  0.509307  1
  Se  Se14  1  0.300678  0.317020  0.750000  1
  Se  Se15  1  0.510077  0.112531  0.250000  1
