# generated using pymatgen
data_Tb2BPtRh5
_symmetry_space_group_name_H-M   'P 1'
_cell_length_a   5.87741501
_cell_length_b   5.84767383
_cell_length_c   5.84767502
_cell_angle_alpha   60.33676967
_cell_angle_beta   59.83161928
_cell_angle_gamma   59.83162276
_symmetry_Int_Tables_number   1
_chemical_formula_structural   Tb2BPtRh5
_chemical_formula_sum   'Tb2 B1 Pt1 Rh5'
_cell_volume   142.10690644
_cell_formula_units_Z   1
loop_
 _symmetry_equiv_pos_site_id
 _symmetry_equiv_pos_as_xyz
  1  'x, y, z'
loop_
 _atom_site_type_symbol
 _atom_site_label
 _atom_site_symmetry_multiplicity
 _atom_site_fract_x
 _atom_site_fract_y
 _atom_site_fract_z
 _atom_site_occupancy
  Tb  Tb0  1  0.249621  0.250379  0.250379  1
  Tb  Tb1  1  0.749621  0.750379  0.750379  1
  B  B2  1  0.502672  0.497328  0.497328  1
  Pt  Pt3  1  0.240780  0.759220  0.759220  1
  Rh  Rh4  1  0.758217  0.241783  0.241783  1
  Rh  Rh5  1  0.243713  0.756287  0.244169  1
  Rh  Rh6  1  0.755831  0.756287  0.244169  1
  Rh  Rh7  1  0.243713  0.244169  0.756287  1
  Rh  Rh8  1  0.755831  0.244169  0.756287  1
