# generated using pymatgen
data_DyEr7In3Co
_symmetry_space_group_name_H-M   'P 1'
_cell_length_a   10.29205202
_cell_length_b   10.29205090
_cell_length_c   6.93400502
_cell_angle_alpha   89.99270705
_cell_angle_beta   90.00729320
_cell_angle_gamma   119.99763433
_symmetry_Int_Tables_number   1
_chemical_formula_structural   DyEr7In3Co
_chemical_formula_sum   'Dy2 Er14 In6 Co2'
_cell_volume   636.10532177
_cell_formula_units_Z   2
loop_
 _symmetry_equiv_pos_site_id
 _symmetry_equiv_pos_as_xyz
  1  'x, y, z'
loop_
 _atom_site_type_symbol
 _atom_site_label
 _atom_site_symmetry_multiplicity
 _atom_site_fract_x
 _atom_site_fract_y
 _atom_site_fract_z
 _atom_site_occupancy
  Dy  Dy0  1  0.534134  0.068353  0.791308  1
  Dy  Dy1  1  0.931647  0.465866  0.791308  1
  Er  Er2  1  0.534259  0.465741  0.791663  1
  Er  Er3  1  0.465562  0.931077  0.291530  1
  Er  Er4  1  0.068923  0.534438  0.291530  1
  Er  Er5  1  0.465643  0.534357  0.291617  1
  Er  Er6  1  0.821567  0.643453  0.499803  1
  Er  Er7  1  0.356547  0.178433  0.499803  1
  Er  Er8  1  0.821859  0.178141  0.499632  1
  Er  Er9  1  0.178470  0.356510  0.000238  1
  Er  Er10  1  0.643490  0.821530  0.000238  1
  Er  Er11  1  0.178191  0.821809  0.000448  1
  Er  Er12  1  0.666539  0.333461  0.182442  1
  Er  Er13  1  0.333450  0.666550  0.681939  1
  Er  Er14  1  0.000002  0.999998  0.779222  1
  Er  Er15  1  0.999962  0.000038  0.279380  1
  In  In16  1  0.836844  0.674034  0.037737  1
  In  In17  1  0.325966  0.163156  0.037737  1
  In  In18  1  0.837127  0.162873  0.037970  1
  In  In19  1  0.163063  0.326097  0.537511  1
  In  In20  1  0.673903  0.836937  0.537511  1
  In  In21  1  0.163059  0.836941  0.537397  1
  Co  Co22  1  0.666453  0.333547  0.568782  1
  Co  Co23  1  0.333337  0.666663  0.069159  1
