# generated using pymatgen
data_CaLa2Pr4CoI12
_symmetry_space_group_name_H-M   'P 1'
_cell_length_a   10.14944877
_cell_length_b   10.14824378
_cell_length_c   9.99353822
_cell_angle_alpha   107.30080337
_cell_angle_beta   106.68579026
_cell_angle_gamma   106.87089037
_symmetry_Int_Tables_number   1
_chemical_formula_structural   CaLa2Pr4CoI12
_chemical_formula_sum   'Ca1 La2 Pr4 Co1 I12'
_cell_volume   858.32020071
_cell_formula_units_Z   1
loop_
 _symmetry_equiv_pos_site_id
 _symmetry_equiv_pos_as_xyz
  1  'x, y, z'
loop_
 _atom_site_type_symbol
 _atom_site_label
 _atom_site_symmetry_multiplicity
 _atom_site_fract_x
 _atom_site_fract_y
 _atom_site_fract_z
 _atom_site_occupancy
  Ca  Ca0  1  0.500000  0.500000  0.500000  1
  La  La1  1  0.975080  0.904752  0.711171  1
  La  La2  1  0.024920  0.095248  0.288829  1
  Pr  Pr3  1  0.100054  0.304887  0.026265  1
  Pr  Pr4  1  0.304297  0.026110  0.100436  1
  Pr  Pr5  1  0.899946  0.695113  0.973735  1
  Pr  Pr6  1  0.695703  0.973890  0.899564  1
  Co  Co7  1  0.000000  0.000000  0.000000  1
  I  I8  1  0.540465  0.618723  0.842566  1
  I  I9  1  0.459535  0.381277  0.157434  1
  I  I10  1  0.319658  0.926790  0.773294  1
  I  I11  1  0.384593  0.161410  0.463231  1
  I  I12  1  0.926571  0.773709  0.319754  1
  I  I13  1  0.680342  0.073210  0.226706  1
  I  I14  1  0.073429  0.226291  0.680246  1
  I  I15  1  0.775393  0.317684  0.927087  1
  I  I16  1  0.224607  0.682316  0.072913  1
  I  I17  1  0.838687  0.537038  0.615197  1
  I  I18  1  0.161313  0.462962  0.384803  1
  I  I19  1  0.615407  0.838590  0.536769  1
