# generated using pymatgen
data_Sr2Al9Ir2Pd
_symmetry_space_group_name_H-M   'P 1'
_cell_length_a   7.64716031
_cell_length_b   7.64716206
_cell_length_c   9.84836600
_cell_angle_alpha   90.00000000
_cell_angle_beta   90.00000000
_cell_angle_gamma   118.87806140
_symmetry_Int_Tables_number   1
_chemical_formula_structural   Sr2Al9Ir2Pd
_chemical_formula_sum   'Sr4 Al18 Ir4 Pd2'
_cell_volume   504.30697943
_cell_formula_units_Z   2
loop_
 _symmetry_equiv_pos_site_id
 _symmetry_equiv_pos_as_xyz
  1  'x, y, z'
loop_
 _atom_site_type_symbol
 _atom_site_label
 _atom_site_symmetry_multiplicity
 _atom_site_fract_x
 _atom_site_fract_y
 _atom_site_fract_z
 _atom_site_occupancy
  Sr  Sr0  1  0.995234  0.674201  0.250000  1
  Sr  Sr1  1  0.004766  0.325799  0.750000  1
  Sr  Sr2  1  0.674201  0.995234  0.250000  1
  Sr  Sr3  1  0.325799  0.004766  0.750000  1
  Al  Al4  1  0.139873  0.139873  0.250000  1
  Al  Al5  1  0.860127  0.860127  0.750000  1
  Al  Al6  1  0.005119  0.340718  0.069597  1
  Al  Al7  1  0.994881  0.659282  0.930403  1
  Al  Al8  1  0.994881  0.659282  0.569597  1
  Al  Al9  1  0.340718  0.005119  0.430403  1
  Al  Al10  1  0.005119  0.340718  0.430403  1
  Al  Al11  1  0.659282  0.994881  0.569597  1
  Al  Al12  1  0.659282  0.994881  0.930403  1
  Al  Al13  1  0.340718  0.005119  0.069597  1
  Al  Al14  1  0.339617  0.339617  0.544050  1
  Al  Al15  1  0.660383  0.660383  0.455950  1
  Al  Al16  1  0.660383  0.660383  0.044050  1
  Al  Al17  1  0.339617  0.339617  0.955950  1
  Al  Al18  1  0.336853  0.545040  0.250000  1
  Al  Al19  1  0.663147  0.454960  0.750000  1
  Al  Al20  1  0.545040  0.336853  0.250000  1
  Al  Al21  1  0.454960  0.663147  0.750000  1
  Ir  Ir22  1  0.670659  0.329341  0.000000  1
  Ir  Ir23  1  0.329341  0.670659  0.000000  1
  Ir  Ir24  1  0.329341  0.670659  0.500000  1
  Ir  Ir25  1  0.670659  0.329341  0.500000  1
  Pd  Pd26  1  0.000000  0.000000  0.000000  1
  Pd  Pd27  1  0.000000  0.000000  0.500000  1
