# generated using pymatgen
data_Ta6V4ReSi6Os
_symmetry_space_group_name_H-M   'P 1'
_cell_length_a   7.57053597
_cell_length_b   7.55307323
_cell_length_c   7.55966236
_cell_angle_alpha   126.84972965
_cell_angle_beta   127.42167049
_cell_angle_gamma   78.02386321
_symmetry_Int_Tables_number   1
_chemical_formula_structural   Ta6V4ReSi6Os
_chemical_formula_sum   'Ta6 V4 Re1 Si6 Os1'
_cell_volume   266.20559514
_cell_formula_units_Z   1
loop_
 _symmetry_equiv_pos_site_id
 _symmetry_equiv_pos_as_xyz
  1  'x, y, z'
loop_
 _atom_site_type_symbol
 _atom_site_label
 _atom_site_symmetry_multiplicity
 _atom_site_fract_x
 _atom_site_fract_y
 _atom_site_fract_z
 _atom_site_occupancy
  Ta  Ta0  1  0.547002  0.090416  0.048908  1
  Ta  Ta1  1  0.454028  0.504572  0.549684  1
  Ta  Ta2  1  0.954626  0.504321  0.050198  1
  Ta  Ta3  1  0.041524  0.091008  0.543756  1
  Ta  Ta4  1  0.755265  0.896187  0.648012  1
  Ta  Ta5  1  0.247683  0.896532  0.141064  1
  V  V6  1  0.001386  0.236902  0.238664  1
  V  V7  1  0.127683  0.752750  0.623926  1
  V  V8  1  0.870770  0.494891  0.624017  1
  V  V9  1  0.627530  0.751267  0.125277  1
  Re  Re10  1  0.373285  0.496653  0.123858  1
  Si  Si11  1  0.755806  0.493675  0.247719  1
  Si  Si12  1  0.246753  0.496101  0.740407  1
  Si  Si13  1  0.334825  0.835658  0.500451  1
  Si  Si14  1  0.664155  0.163792  0.499301  1
  Si  Si15  1  0.833472  0.831904  0.998283  1
  Si  Si16  1  0.166094  0.165168  0.998774  1
  Os  Os17  1  0.498113  0.240402  0.739898  1
