# generated using pymatgen
data_U3AlSn2Ir3
_symmetry_space_group_name_H-M   'P 1'
_cell_length_a   7.28223968
_cell_length_b   7.15682029
_cell_length_c   4.07730900
_cell_angle_alpha   90.00000000
_cell_angle_beta   90.00000000
_cell_angle_gamma   119.41967824
_symmetry_Int_Tables_number   1
_chemical_formula_structural   U3AlSn2Ir3
_chemical_formula_sum   'U3 Al1 Sn2 Ir3'
_cell_volume   185.09699913
_cell_formula_units_Z   1
loop_
 _symmetry_equiv_pos_site_id
 _symmetry_equiv_pos_as_xyz
  1  'x, y, z'
loop_
 _atom_site_type_symbol
 _atom_site_label
 _atom_site_symmetry_multiplicity
 _atom_site_fract_x
 _atom_site_fract_y
 _atom_site_fract_z
 _atom_site_occupancy
  U  U0  1  0.406193  0.419245  0.500000  1
  U  U1  1  0.593788  0.013077  0.500000  1
  U  U2  1  0.000014  0.568234  0.500000  1
  Al  Al3  1  0.999998  0.245267  0.000000  1
  Sn  Sn4  1  0.749336  0.752044  0.000000  1
  Sn  Sn5  1  0.250710  0.002718  0.000000  1
  Ir  Ir6  1  0.681269  0.327842  0.000000  1
  Ir  Ir7  1  0.318712  0.646593  0.000000  1
  Ir  Ir8  1  0.999980  0.024981  0.500000  1
