# generated using pymatgen
data_Hf8Fe3CuTc4
_symmetry_space_group_name_H-M   'P 1'
_cell_length_a   6.44505900
_cell_length_b   4.54820600
_cell_length_c   9.11448100
_cell_angle_alpha   90.00000000
_cell_angle_beta   89.99998743
_cell_angle_gamma   90.00000000
_symmetry_Int_Tables_number   1
_chemical_formula_structural   Hf8Fe3CuTc4
_chemical_formula_sum   'Hf8 Fe3 Cu1 Tc4'
_cell_volume   267.17693789
_cell_formula_units_Z   1
loop_
 _symmetry_equiv_pos_site_id
 _symmetry_equiv_pos_as_xyz
  1  'x, y, z'
loop_
 _atom_site_type_symbol
 _atom_site_label
 _atom_site_symmetry_multiplicity
 _atom_site_fract_x
 _atom_site_fract_y
 _atom_site_fract_z
 _atom_site_occupancy
  Hf  Hf0  1  0.503220  0.750000  0.129610  1
  Hf  Hf1  1  0.996782  0.750000  0.129612  1
  Hf  Hf2  1  0.498911  0.250001  0.375064  1
  Hf  Hf3  1  0.001102  0.250001  0.375065  1
  Hf  Hf4  1  0.996542  0.750000  0.620391  1
  Hf  Hf5  1  0.503446  0.750000  0.620390  1
  Hf  Hf6  1  0.991761  0.250001  0.874972  1
  Hf  Hf7  1  0.508238  0.250001  0.874972  1
  Fe  Fe8  1  0.750005  0.250001  0.125025  1
  Fe  Fe9  1  0.250009  0.750000  0.374975  1
  Fe  Fe10  1  0.749993  0.250001  0.625047  1
  Cu  Cu11  1  0.249991  0.750000  0.874854  1
  Tc  Tc12  1  0.250002  0.250001  0.123075  1
  Tc  Tc13  1  0.750003  0.750000  0.375071  1
  Tc  Tc14  1  0.249996  0.250001  0.626920  1
  Tc  Tc15  1  0.749999  0.750000  0.874954  1
