# generated using pymatgen
data_Dy12Y4MgHg3Ir4
_symmetry_space_group_name_H-M   'P 1'
_cell_length_a   9.64403628
_cell_length_b   9.63566594
_cell_length_c   9.63566626
_cell_angle_alpha   60.02227291
_cell_angle_beta   60.02268339
_cell_angle_gamma   60.02267838
_symmetry_Int_Tables_number   1
_chemical_formula_structural   Dy12Y4MgHg3Ir4
_chemical_formula_sum   'Dy12 Y4 Mg1 Hg3 Ir4'
_cell_volume   633.47462514
_cell_formula_units_Z   1
loop_
 _symmetry_equiv_pos_site_id
 _symmetry_equiv_pos_as_xyz
  1  'x, y, z'
loop_
 _atom_site_type_symbol
 _atom_site_label
 _atom_site_symmetry_multiplicity
 _atom_site_fract_x
 _atom_site_fract_y
 _atom_site_fract_z
 _atom_site_occupancy
  Dy  Dy0  1  0.599385  0.597762  0.597762  1
  Dy  Dy1  1  0.599687  0.597462  0.205014  1
  Dy  Dy2  1  0.599687  0.205014  0.597462  1
  Dy  Dy3  1  0.194592  0.601920  0.601920  1
  Dy  Dy4  1  0.057929  0.441570  0.441570  1
  Dy  Dy5  1  0.437893  0.061486  0.061486  1
  Dy  Dy6  1  0.437847  0.061503  0.439239  1
  Dy  Dy7  1  0.057930  0.441566  0.058946  1
  Dy  Dy8  1  0.437847  0.439239  0.061503  1
  Dy  Dy9  1  0.057930  0.058946  0.441566  1
  Dy  Dy10  1  0.187673  0.810793  0.810793  1
  Dy  Dy11  1  0.810119  0.189117  0.189117  1
  Y  Y12  1  0.810750  0.188504  0.812299  1
  Y  Y13  1  0.187234  0.811566  0.189625  1
  Y  Y14  1  0.810750  0.812299  0.188504  1
  Y  Y15  1  0.187234  0.189625  0.811566  1
  Mg  Mg16  1  0.534747  0.821773  0.821773  1
  Hg  Hg17  1  0.832497  0.836963  0.836963  1
  Hg  Hg18  1  0.832319  0.837262  0.493447  1
  Hg  Hg19  1  0.832319  0.493447  0.837262  1
  Ir  Ir20  1  0.389537  0.392710  0.392710  1
  Ir  Ir21  1  0.389243  0.393071  0.825019  1
  Ir  Ir22  1  0.389243  0.825019  0.393071  1
  Ir  Ir23  1  0.825610  0.391380  0.391380  1
