# generated using pymatgen
data_Ce5Si2Ru3
_symmetry_space_group_name_H-M   'P 1'
_cell_length_a   8.29254567
_cell_length_b   8.29254578
_cell_length_c   8.29254600
_cell_angle_alpha   109.47122117
_cell_angle_beta   109.47122143
_cell_angle_gamma   109.47122303
_symmetry_Int_Tables_number   1
_chemical_formula_structural   Ce5Si2Ru3
_chemical_formula_sum   'Ce10 Si4 Ru6'
_cell_volume   438.97696204
_cell_formula_units_Z   2
loop_
 _symmetry_equiv_pos_site_id
 _symmetry_equiv_pos_as_xyz
  1  'x, y, z'
loop_
 _atom_site_type_symbol
 _atom_site_label
 _atom_site_symmetry_multiplicity
 _atom_site_fract_x
 _atom_site_fract_y
 _atom_site_fract_z
 _atom_site_occupancy
  Ce  Ce0  1  0.776887  0.776887  0.776887  1
  Ce  Ce1  1  0.299059  0.549059  0.750000  1
  Ce  Ce2  1  0.750000  0.299059  0.549059  1
  Ce  Ce3  1  0.549059  0.750000  0.299059  1
  Ce  Ce4  1  0.723113  0.500000  0.000000  1
  Ce  Ce5  1  0.000000  0.723113  0.500000  1
  Ce  Ce6  1  0.500000  0.000000  0.723113  1
  Ce  Ce7  1  0.250000  0.200941  0.950941  1
  Ce  Ce8  1  0.950941  0.250000  0.200941  1
  Ce  Ce9  1  0.200941  0.950941  0.250000  1
  Si  Si10  1  0.396165  0.396165  0.396165  1
  Si  Si11  1  0.103835  0.500000  0.000000  1
  Si  Si12  1  0.000000  0.103835  0.500000  1
  Si  Si13  1  0.500000  0.000000  0.103835  1
  Ru  Ru14  1  0.884518  0.134518  0.750000  1
  Ru  Ru15  1  0.750000  0.884518  0.134518  1
  Ru  Ru16  1  0.134518  0.750000  0.884518  1
  Ru  Ru17  1  0.250000  0.615482  0.365482  1
  Ru  Ru18  1  0.365482  0.250000  0.615482  1
  Ru  Ru19  1  0.615482  0.365482  0.250000  1
