# generated using pymatgen
data_Tm20Cd6GaTc
_symmetry_space_group_name_H-M   'P 1'
_cell_length_a   9.43881500
_cell_length_b   9.43881512
_cell_length_c   9.72375400
_cell_angle_alpha   90.00000000
_cell_angle_beta   90.00000000
_cell_angle_gamma   119.99999607
_symmetry_Int_Tables_number   1
_chemical_formula_structural   Tm20Cd6GaTc
_chemical_formula_sum   'Tm20 Cd6 Ga1 Tc1'
_cell_volume   750.23887762
_cell_formula_units_Z   1
loop_
 _symmetry_equiv_pos_site_id
 _symmetry_equiv_pos_as_xyz
  1  'x, y, z'
loop_
 _atom_site_type_symbol
 _atom_site_label
 _atom_site_symmetry_multiplicity
 _atom_site_fract_x
 _atom_site_fract_y
 _atom_site_fract_z
 _atom_site_occupancy
  Tm  Tm0  1  0.000000  0.000000  0.500263  1
  Tm  Tm1  1  0.000000  0.000000  0.999737  1
  Tm  Tm2  1  0.537798  0.462202  0.250000  1
  Tm  Tm3  1  0.537798  0.075596  0.250000  1
  Tm  Tm4  1  0.924404  0.462202  0.250000  1
  Tm  Tm5  1  0.456637  0.543363  0.750000  1
  Tm  Tm6  1  0.456637  0.913276  0.750000  1
  Tm  Tm7  1  0.086724  0.543363  0.750000  1
  Tm  Tm8  1  0.210950  0.789050  0.443147  1
  Tm  Tm9  1  0.210950  0.421899  0.443147  1
  Tm  Tm10  1  0.578101  0.789050  0.443147  1
  Tm  Tm11  1  0.791968  0.208032  0.548730  1
  Tm  Tm12  1  0.791968  0.583936  0.548730  1
  Tm  Tm13  1  0.416064  0.208032  0.548730  1
  Tm  Tm14  1  0.791968  0.208032  0.951270  1
  Tm  Tm15  1  0.791968  0.583936  0.951270  1
  Tm  Tm16  1  0.416064  0.208032  0.951270  1
  Tm  Tm17  1  0.210950  0.789050  0.056853  1
  Tm  Tm18  1  0.210950  0.421899  0.056853  1
  Tm  Tm19  1  0.578101  0.789050  0.056853  1
  Cd  Cd20  1  0.885427  0.114573  0.250000  1
  Cd  Cd21  1  0.885427  0.770854  0.250000  1
  Cd  Cd22  1  0.229146  0.114573  0.250000  1
  Cd  Cd23  1  0.114413  0.885587  0.750000  1
  Cd  Cd24  1  0.114413  0.228825  0.750000  1
  Cd  Cd25  1  0.771175  0.885587  0.750000  1
  Ga  Ga26  1  0.666667  0.333333  0.750000  1
  Tc  Tc27  1  0.333333  0.666667  0.250000  1
