# generated using pymatgen
data_Tb11Sm8YSn16
_symmetry_space_group_name_H-M   'P 1'
_cell_length_a   8.12050502
_cell_length_b   8.27617502
_cell_length_c   15.62330500
_cell_angle_alpha   90.00000000
_cell_angle_beta   90.00000000
_cell_angle_gamma   89.99180930
_symmetry_Int_Tables_number   1
_chemical_formula_structural   Tb11Sm8YSn16
_chemical_formula_sum   'Tb11 Sm8 Y1 Sn16'
_cell_volume   1049.99108656
_cell_formula_units_Z   1
loop_
 _symmetry_equiv_pos_site_id
 _symmetry_equiv_pos_as_xyz
  1  'x, y, z'
loop_
 _atom_site_type_symbol
 _atom_site_label
 _atom_site_symmetry_multiplicity
 _atom_site_fract_x
 _atom_site_fract_y
 _atom_site_fract_z
 _atom_site_occupancy
  Tb  Tb0  1  0.366226  0.835594  0.878231  1
  Tb  Tb1  1  0.866197  0.664453  0.621743  1
  Tb  Tb2  1  0.633800  0.164435  0.378201  1
  Tb  Tb3  1  0.133771  0.335520  0.121785  1
  Tb  Tb4  1  0.633800  0.164435  0.121799  1
  Tb  Tb5  1  0.133771  0.335520  0.378215  1
  Tb  Tb6  1  0.366226  0.835594  0.621769  1
  Tb  Tb7  1  0.866197  0.664453  0.878257  1
  Tb  Tb8  1  0.698187  0.997572  0.750000  1
  Tb  Tb9  1  0.801753  0.497557  0.250000  1
  Tb  Tb10  1  0.301728  0.002475  0.250000  1
  Sm  Sm11  1  0.518557  0.320450  0.901941  1
  Sm  Sm12  1  0.018542  0.179547  0.598048  1
  Sm  Sm13  1  0.481482  0.679575  0.401934  1
  Sm  Sm14  1  0.981445  0.820446  0.098078  1
  Sm  Sm15  1  0.481482  0.679575  0.098066  1
  Sm  Sm16  1  0.981445  0.820446  0.401922  1
  Sm  Sm17  1  0.518557  0.320450  0.598059  1
  Sm  Sm18  1  0.018542  0.179547  0.901952  1
  Y  Y19  1  0.198347  0.502392  0.750000  1
  Sn  Sn20  1  0.295600  0.036758  0.041791  1
  Sn  Sn21  1  0.795614  0.463219  0.458209  1
  Sn  Sn22  1  0.704399  0.963250  0.541820  1
  Sn  Sn23  1  0.204405  0.536760  0.958137  1
  Sn  Sn24  1  0.704399  0.963250  0.958180  1
  Sn  Sn25  1  0.204405  0.536760  0.541863  1
  Sn  Sn26  1  0.295600  0.036758  0.458209  1
  Sn  Sn27  1  0.795614  0.463219  0.041791  1
  Sn  Sn28  1  0.564905  0.620261  0.750000  1
  Sn  Sn29  1  0.065105  0.879643  0.750000  1
  Sn  Sn30  1  0.434860  0.379719  0.250000  1
  Sn  Sn31  1  0.934921  0.120302  0.250000  1
  Sn  Sn32  1  0.326448  0.144075  0.750000  1
  Sn  Sn33  1  0.826340  0.356069  0.750000  1
  Sn  Sn34  1  0.673631  0.855999  0.250000  1
  Sn  Sn35  1  0.173695  0.643921  0.250000  1
