# generated using pymatgen
data_Zr6Al6Ga3PtRh2
_symmetry_space_group_name_H-M   'P 1'
_cell_length_a   6.73081600
_cell_length_b   6.73081631
_cell_length_c   8.19267300
_cell_angle_alpha   90.00000000
_cell_angle_beta   90.00000000
_cell_angle_gamma   119.99999849
_symmetry_Int_Tables_number   1
_chemical_formula_structural   Zr6Al6Ga3PtRh2
_chemical_formula_sum   'Zr6 Al6 Ga3 Pt1 Rh2'
_cell_volume   321.43392834
_cell_formula_units_Z   1
loop_
 _symmetry_equiv_pos_site_id
 _symmetry_equiv_pos_as_xyz
  1  'x, y, z'
loop_
 _atom_site_type_symbol
 _atom_site_label
 _atom_site_symmetry_multiplicity
 _atom_site_fract_x
 _atom_site_fract_y
 _atom_site_fract_z
 _atom_site_occupancy
  Zr  Zr0  1  0.001431  0.588446  0.750746  1
  Zr  Zr1  1  0.001623  0.588535  0.249206  1
  Zr  Zr2  1  0.586912  0.998377  0.249206  1
  Zr  Zr3  1  0.587016  0.998569  0.750746  1
  Zr  Zr4  1  0.411465  0.413088  0.249206  1
  Zr  Zr5  1  0.411554  0.412984  0.750746  1
  Al  Al6  1  0.000744  0.240007  0.499940  1
  Al  Al7  1  0.752585  0.761440  0.999980  1
  Al  Al8  1  0.008855  0.247415  0.999980  1
  Al  Al9  1  0.239263  0.999256  0.499940  1
  Al  Al10  1  0.238560  0.991145  0.999980  1
  Al  Al11  1  0.759993  0.760737  0.499940  1
  Ga  Ga12  1  0.333333  0.666667  0.500227  1
  Ga  Ga13  1  0.666667  0.333333  0.499907  1
  Ga  Ga14  1  0.666667  0.333333  0.000254  1
  Pt  Pt15  1  0.333333  0.666667  0.000065  1
  Rh  Rh16  1  0.000000  0.000000  0.249680  1
  Rh  Rh17  1  0.000000  0.000000  0.750251  1
