# generated using pymatgen
data_CaPa4O11
_symmetry_space_group_name_H-M   'P 1'
_cell_length_a   6.83532300
_cell_length_b   6.83532294
_cell_length_c   13.30781800
_cell_angle_alpha   90.00000000
_cell_angle_beta   90.00000000
_cell_angle_gamma   120.00000514
_symmetry_Int_Tables_number   1
_chemical_formula_structural   CaPa4O11
_chemical_formula_sum   'Ca2 Pa8 O22'
_cell_volume   538.46259704
_cell_formula_units_Z   2
loop_
 _symmetry_equiv_pos_site_id
 _symmetry_equiv_pos_as_xyz
  1  'x, y, z'
loop_
 _atom_site_type_symbol
 _atom_site_label
 _atom_site_symmetry_multiplicity
 _atom_site_fract_x
 _atom_site_fract_y
 _atom_site_fract_z
 _atom_site_occupancy
  Ca  Ca0  1  0.333333  0.666667  0.750000  1
  Ca  Ca1  1  0.666667  0.333333  0.250000  1
  Pa  Pa2  1  0.666667  0.333333  0.750000  1
  Pa  Pa3  1  0.333333  0.666667  0.250000  1
  Pa  Pa4  1  0.642546  0.000000  0.500000  1
  Pa  Pa5  1  0.642546  0.642546  0.000000  1
  Pa  Pa6  1  0.000000  0.357454  0.000000  1
  Pa  Pa7  1  0.000000  0.642546  0.500000  1
  Pa  Pa8  1  0.357454  0.357454  0.500000  1
  Pa  Pa9  1  0.357454  0.000000  0.000000  1
  O  O10  1  0.333333  0.666667  0.534407  1
  O  O11  1  0.666667  0.333333  0.034407  1
  O  O12  1  0.666667  0.333333  0.465593  1
  O  O13  1  0.333333  0.666667  0.965593  1
  O  O14  1  0.258483  0.000000  0.500000  1
  O  O15  1  0.258483  0.258483  0.000000  1
  O  O16  1  0.000000  0.741517  0.000000  1
  O  O17  1  0.000000  0.258483  0.500000  1
  O  O18  1  0.741517  0.741517  0.500000  1
  O  O19  1  0.741517  0.000000  0.000000  1
  O  O20  1  0.379996  0.956760  0.159740  1
  O  O21  1  0.423236  0.379996  0.659740  1
  O  O22  1  0.956760  0.576764  0.659740  1
  O  O23  1  0.043240  0.423236  0.159740  1
  O  O24  1  0.576764  0.620004  0.159740  1
  O  O25  1  0.423236  0.043240  0.840260  1
  O  O26  1  0.620004  0.576764  0.840260  1
  O  O27  1  0.620004  0.043240  0.659740  1
  O  O28  1  0.956760  0.379996  0.840260  1
  O  O29  1  0.043240  0.620004  0.340260  1
  O  O30  1  0.576764  0.956760  0.340260  1
  O  O31  1  0.379996  0.423236  0.340260  1
