# generated using pymatgen
data_Eu4Si3Ni4Ge
_symmetry_space_group_name_H-M   'P 1'
_cell_length_a   6.21805962
_cell_length_b   6.21805923
_cell_length_c   6.21806002
_cell_angle_alpha   89.94168747
_cell_angle_beta   89.94169138
_cell_angle_gamma   90.05831599
_symmetry_Int_Tables_number   1
_chemical_formula_structural   Eu4Si3Ni4Ge
_chemical_formula_sum   'Eu4 Si3 Ni4 Ge1'
_cell_volume   240.41633429
_cell_formula_units_Z   1
loop_
 _symmetry_equiv_pos_site_id
 _symmetry_equiv_pos_as_xyz
  1  'x, y, z'
loop_
 _atom_site_type_symbol
 _atom_site_label
 _atom_site_symmetry_multiplicity
 _atom_site_fract_x
 _atom_site_fract_y
 _atom_site_fract_z
 _atom_site_occupancy
  Eu  Eu0  1  0.365951  0.865951  0.634049  1
  Eu  Eu1  1  0.867559  0.635679  0.365575  1
  Eu  Eu2  1  0.634425  0.367559  0.864321  1
  Eu  Eu3  1  0.135679  0.134425  0.132441  1
  Si  Si4  1  0.160118  0.340600  0.663022  1
  Si  Si5  1  0.336978  0.660118  0.159400  1
  Si  Si6  1  0.840600  0.836978  0.839882  1
  Ni  Ni7  1  0.085300  0.585300  0.914700  1
  Ni  Ni8  1  0.583190  0.906691  0.078824  1
  Ni  Ni9  1  0.921176  0.083190  0.593309  1
  Ni  Ni10  1  0.406691  0.421176  0.416810  1
  Ge  Ge11  1  0.662332  0.162332  0.337668  1
