# generated using pymatgen
data_Ho3IrAu3
_symmetry_space_group_name_H-M   'P 1'
_cell_length_a   8.00992654
_cell_length_b   8.00992784
_cell_length_c   8.00992809
_cell_angle_alpha   114.13812218
_cell_angle_beta   114.13812936
_cell_angle_gamma   114.13810737
_symmetry_Int_Tables_number   1
_chemical_formula_structural   Ho3IrAu3
_chemical_formula_sum   'Ho6 Ir2 Au6'
_cell_volume   309.00241180
_cell_formula_units_Z   2
loop_
 _symmetry_equiv_pos_site_id
 _symmetry_equiv_pos_as_xyz
  1  'x, y, z'
loop_
 _atom_site_type_symbol
 _atom_site_label
 _atom_site_symmetry_multiplicity
 _atom_site_fract_x
 _atom_site_fract_y
 _atom_site_fract_z
 _atom_site_occupancy
  Ho  Ho0  1  0.041811  0.392571  0.281381  1
  Ho  Ho1  1  0.392571  0.281381  0.041811  1
  Ho  Ho2  1  0.718619  0.958189  0.607429  1
  Ho  Ho3  1  0.281381  0.041811  0.392571  1
  Ho  Ho4  1  0.607429  0.718619  0.958189  1
  Ho  Ho5  1  0.958189  0.607429  0.718619  1
  Ir  Ir6  1  0.000000  0.000000  0.000000  1
  Ir  Ir7  1  0.500000  0.500000  0.500000  1
  Au  Au8  1  0.434445  0.937018  0.771548  1
  Au  Au9  1  0.937018  0.771548  0.434445  1
  Au  Au10  1  0.228452  0.565555  0.062982  1
  Au  Au11  1  0.771548  0.434445  0.937018  1
  Au  Au12  1  0.062982  0.228452  0.565555  1
  Au  Au13  1  0.565555  0.062982  0.228452  1
