# generated using pymatgen
data_Tb8AlSi12Ni2Pd
_symmetry_space_group_name_H-M   'P 1'
_cell_length_a   8.06229500
_cell_length_b   8.06229414
_cell_length_c   8.16957400
_cell_angle_alpha   90.00000000
_cell_angle_beta   90.00000000
_cell_angle_gamma   120.00000764
_symmetry_Int_Tables_number   1
_chemical_formula_structural   Tb8AlSi12Ni2Pd
_chemical_formula_sum   'Tb8 Al1 Si12 Ni2 Pd1'
_cell_volume   459.88297570
_cell_formula_units_Z   1
loop_
 _symmetry_equiv_pos_site_id
 _symmetry_equiv_pos_as_xyz
  1  'x, y, z'
loop_
 _atom_site_type_symbol
 _atom_site_label
 _atom_site_symmetry_multiplicity
 _atom_site_fract_x
 _atom_site_fract_y
 _atom_site_fract_z
 _atom_site_occupancy
  Tb  Tb0  1  0.503874  0.007747  0.250810  1
  Tb  Tb1  1  0.503564  0.007129  0.749218  1
  Tb  Tb2  1  0.992253  0.496126  0.250810  1
  Tb  Tb3  1  0.992871  0.496436  0.749218  1
  Tb  Tb4  1  0.503874  0.496126  0.250810  1
  Tb  Tb5  1  0.503564  0.496436  0.749218  1
  Tb  Tb6  1  0.000000  0.000000  0.251406  1
  Tb  Tb7  1  0.000000  0.000000  0.748654  1
  Al  Al8  1  0.333333  0.666667  0.000378  1
  Si  Si9  1  0.161512  0.323025  0.000197  1
  Si  Si10  1  0.825656  0.651310  0.999895  1
  Si  Si11  1  0.676975  0.838488  0.000197  1
  Si  Si12  1  0.828105  0.656210  0.500127  1
  Si  Si13  1  0.348690  0.174344  0.999895  1
  Si  Si14  1  0.165028  0.330056  0.499861  1
  Si  Si15  1  0.161512  0.838488  0.000197  1
  Si  Si16  1  0.343790  0.171895  0.500127  1
  Si  Si17  1  0.825656  0.174344  0.999895  1
  Si  Si18  1  0.669944  0.834972  0.499861  1
  Si  Si19  1  0.828105  0.171895  0.500127  1
  Si  Si20  1  0.165028  0.834972  0.499861  1
  Ni  Ni21  1  0.666667  0.333333  0.998894  1
  Ni  Ni22  1  0.666667  0.333333  0.500724  1
  Pd  Pd23  1  0.333333  0.666667  0.499622  1
