# generated using pymatgen
data_Nd6Si3Hg
_symmetry_space_group_name_H-M   'P 1'
_cell_length_a   7.91418979
_cell_length_b   7.91418979
_cell_length_c   4.38684900
_cell_angle_alpha   90.00000000
_cell_angle_beta   90.00000000
_cell_angle_gamma   92.09832034
_symmetry_Int_Tables_number   1
_chemical_formula_structural   Nd6Si3Hg
_chemical_formula_sum   'Nd6 Si3 Hg1'
_cell_volume   274.58341462
_cell_formula_units_Z   1
loop_
 _symmetry_equiv_pos_site_id
 _symmetry_equiv_pos_as_xyz
  1  'x, y, z'
loop_
 _atom_site_type_symbol
 _atom_site_label
 _atom_site_symmetry_multiplicity
 _atom_site_fract_x
 _atom_site_fract_y
 _atom_site_fract_z
 _atom_site_occupancy
  Nd  Nd0  1  0.998997  0.013616  0.000000  1
  Nd  Nd1  1  0.486384  0.501003  0.000000  1
  Nd  Nd2  1  0.692571  0.172322  0.500000  1
  Nd  Nd3  1  0.156592  0.343409  0.500000  1
  Nd  Nd4  1  0.825426  0.674575  0.500000  1
  Nd  Nd5  1  0.327679  0.807430  0.500000  1
  Si  Si6  1  0.882209  0.390399  0.000000  1
  Si  Si7  1  0.109601  0.617791  0.000000  1
  Si  Si8  1  0.632714  0.867286  0.000000  1
  Hg  Hg9  1  0.387830  0.112170  0.000000  1
