# generated using pymatgen
data_Tb16Dy4(Ir3Ru)3
_symmetry_space_group_name_H-M   'P 1'
_cell_length_a   10.88548500
_cell_length_b   10.88548500
_cell_length_c   6.44537500
_cell_angle_alpha   90.00000000
_cell_angle_beta   90.00000000
_cell_angle_gamma   90.00000000
_symmetry_Int_Tables_number   1
_chemical_formula_structural   Tb16Dy4(Ir3Ru)3
_chemical_formula_sum   'Tb16 Dy4 Ir9 Ru3'
_cell_volume   763.73687102
_cell_formula_units_Z   1
loop_
 _symmetry_equiv_pos_site_id
 _symmetry_equiv_pos_as_xyz
  1  'x, y, z'
loop_
 _atom_site_type_symbol
 _atom_site_label
 _atom_site_symmetry_multiplicity
 _atom_site_fract_x
 _atom_site_fract_y
 _atom_site_fract_z
 _atom_site_occupancy
  Tb  Tb0  1  0.293605  0.086809  0.378664  1
  Tb  Tb1  1  0.293629  0.913462  0.879001  1
  Tb  Tb2  1  0.706371  0.086538  0.879001  1
  Tb  Tb3  1  0.706395  0.913191  0.378664  1
  Tb  Tb4  1  0.586538  0.793629  0.879001  1
  Tb  Tb5  1  0.586809  0.206395  0.378664  1
  Tb  Tb6  1  0.413191  0.793605  0.378664  1
  Tb  Tb7  1  0.413462  0.206371  0.879001  1
  Tb  Tb8  1  0.208073  0.412502  0.622824  1
  Tb  Tb9  1  0.207852  0.587522  0.119949  1
  Tb  Tb10  1  0.792148  0.412478  0.119949  1
  Tb  Tb11  1  0.791927  0.587498  0.622824  1
  Tb  Tb12  1  0.912478  0.707852  0.119949  1
  Tb  Tb13  1  0.912502  0.291927  0.622824  1
  Tb  Tb14  1  0.087498  0.708073  0.622824  1
  Tb  Tb15  1  0.087522  0.292148  0.119949  1
  Dy  Dy16  1  0.000000  0.000000  0.499357  1
  Dy  Dy17  1  0.000000  0.000000  0.999471  1
  Dy  Dy18  1  0.500000  0.500000  0.999471  1
  Dy  Dy19  1  0.500000  0.500000  0.499357  1
  Ir  Ir20  1  0.848044  0.152636  0.250010  1
  Ir  Ir21  1  0.847764  0.847402  0.749669  1
  Ir  Ir22  1  0.152236  0.152598  0.749669  1
  Ir  Ir23  1  0.151956  0.847364  0.250010  1
  Ir  Ir24  1  0.652598  0.347764  0.749669  1
  Ir  Ir25  1  0.652636  0.651956  0.250010  1
  Ir  Ir26  1  0.347364  0.348044  0.250010  1
  Ir  Ir27  1  0.347402  0.652236  0.749669  1
  Ir  Ir28  1  0.000000  0.500000  0.377375  1
  Ru  Ru29  1  0.500000  0.000000  0.123633  1
  Ru  Ru30  1  0.500000  0.000000  0.623588  1
  Ru  Ru31  1  0.000000  0.500000  0.877285  1
