# generated using pymatgen
data_SrEr2(FeH6)2
_symmetry_space_group_name_H-M   'P 1'
_cell_length_a   4.73265100
_cell_length_b   4.73265126
_cell_length_c   7.98816700
_cell_angle_alpha   90.00000000
_cell_angle_beta   90.00000000
_cell_angle_gamma   120.00000520
_symmetry_Int_Tables_number   1
_chemical_formula_structural   SrEr2(FeH6)2
_chemical_formula_sum   'Sr1 Er2 Fe2 H12'
_cell_volume   154.94826831
_cell_formula_units_Z   1
loop_
 _symmetry_equiv_pos_site_id
 _symmetry_equiv_pos_as_xyz
  1  'x, y, z'
loop_
 _atom_site_type_symbol
 _atom_site_label
 _atom_site_symmetry_multiplicity
 _atom_site_fract_x
 _atom_site_fract_y
 _atom_site_fract_z
 _atom_site_occupancy
  Sr  Sr0  1  0.000000  0.000000  0.000000  1
  Er  Er1  1  0.666667  0.333333  0.362956  1
  Er  Er2  1  0.333333  0.666667  0.637044  1
  Fe  Fe3  1  0.666667  0.333333  0.726157  1
  Fe  Fe4  1  0.333333  0.666667  0.273843  1
  H  H5  1  0.171653  0.828347  0.383013  1
  H  H6  1  0.656695  0.828347  0.383013  1
  H  H7  1  0.171653  0.343305  0.383013  1
  H  H8  1  0.828347  0.171653  0.616987  1
  H  H9  1  0.343305  0.171653  0.616987  1
  H  H10  1  0.828347  0.656695  0.616987  1
  H  H11  1  0.513369  0.026737  0.848304  1
  H  H12  1  0.513369  0.486631  0.848304  1
  H  H13  1  0.973263  0.486631  0.848304  1
  H  H14  1  0.486631  0.973263  0.151696  1
  H  H15  1  0.486631  0.513369  0.151696  1
  H  H16  1  0.026737  0.513369  0.151696  1
