# generated using pymatgen
data_Ho10PdPt17
_symmetry_space_group_name_H-M   'P 1'
_cell_length_a   9.75739535
_cell_length_b   9.75739535
_cell_length_c   5.76846340
_cell_angle_alpha   90.03020545
_cell_angle_beta   89.96979455
_cell_angle_gamma   89.99369742
_symmetry_Int_Tables_number   1
_chemical_formula_structural   Ho10PdPt17
_chemical_formula_sum   'Ho10 Pd1 Pt17'
_cell_volume   549.19657819
_cell_formula_units_Z   1
loop_
 _symmetry_equiv_pos_site_id
 _symmetry_equiv_pos_as_xyz
  1  'x, y, z'
loop_
 _atom_site_type_symbol
 _atom_site_label
 _atom_site_symmetry_multiplicity
 _atom_site_fract_x
 _atom_site_fract_y
 _atom_site_fract_z
 _atom_site_occupancy
  Ho  Ho0  1  0.452499  0.809596  0.999739  1
  Ho  Ho1  1  0.547710  0.190493  0.000029  1
  Ho  Ho2  1  0.190404  0.547501  0.999739  1
  Ho  Ho3  1  0.809507  0.452290  0.000029  1
  Ho  Ho4  1  0.499927  0.500073  0.499909  1
  Ho  Ho5  1  0.309460  0.047618  0.500164  1
  Ho  Ho6  1  0.690546  0.952311  0.499953  1
  Ho  Ho7  1  0.952382  0.690540  0.500164  1
  Ho  Ho8  1  0.047689  0.309454  0.499953  1
  Ho  Ho9  1  0.000065  0.999935  0.999991  1
  Pd  Pd10  1  0.191054  0.808946  0.250728  1
  Pt  Pt11  1  0.808491  0.191509  0.749422  1
  Pt  Pt12  1  0.808540  0.191460  0.250795  1
  Pt  Pt13  1  0.191868  0.808132  0.749312  1
  Pt  Pt14  1  0.439921  0.781584  0.500258  1
  Pt  Pt15  1  0.559719  0.218463  0.500021  1
  Pt  Pt16  1  0.218416  0.560079  0.500258  1
  Pt  Pt17  1  0.781537  0.440281  0.500021  1
  Pt  Pt18  1  0.308557  0.308532  0.249223  1
  Pt  Pt19  1  0.691406  0.691217  0.750623  1
  Pt  Pt20  1  0.691468  0.691443  0.249223  1
  Pt  Pt21  1  0.308783  0.308594  0.750623  1
  Pt  Pt22  1  0.281558  0.059618  0.999942  1
  Pt  Pt23  1  0.718399  0.940223  0.999958  1
  Pt  Pt24  1  0.940382  0.718442  0.999942  1
  Pt  Pt25  1  0.059777  0.281601  0.999958  1
  Pt  Pt26  1  0.000072  0.999928  0.500008  1
  Pt  Pt27  1  0.499864  0.500136  0.000012  1
