# generated using pymatgen
data_Sc2Fe3Co4(P2Ru)3
_symmetry_space_group_name_H-M   'P 1'
_cell_length_a   3.67019400
_cell_length_b   10.25215800
_cell_length_c   11.82150300
_cell_angle_alpha   90.00000000
_cell_angle_beta   90.00000000
_cell_angle_gamma   90.00000000
_symmetry_Int_Tables_number   1
_chemical_formula_structural   Sc2Fe3Co4(P2Ru)3
_chemical_formula_sum   'Sc4 Fe6 Co8 P12 Ru6'
_cell_volume   444.81252576
_cell_formula_units_Z   2
loop_
 _symmetry_equiv_pos_site_id
 _symmetry_equiv_pos_as_xyz
  1  'x, y, z'
loop_
 _atom_site_type_symbol
 _atom_site_label
 _atom_site_symmetry_multiplicity
 _atom_site_fract_x
 _atom_site_fract_y
 _atom_site_fract_z
 _atom_site_occupancy
  Sc  Sc0  1  0.250000  0.582977  0.705419  1
  Sc  Sc1  1  0.250000  0.917023  0.205419  1
  Sc  Sc2  1  0.750000  0.416211  0.290797  1
  Sc  Sc3  1  0.750000  0.083789  0.790797  1
  Fe  Fe4  1  0.250000  0.223615  0.177681  1
  Fe  Fe5  1  0.250000  0.276386  0.677681  1
  Fe  Fe6  1  0.250000  0.880251  0.699207  1
  Fe  Fe7  1  0.250000  0.619749  0.199207  1
  Fe  Fe8  1  0.250000  0.465615  0.933109  1
  Fe  Fe9  1  0.250000  0.034385  0.433109  1
  Co  Co10  1  0.750000  0.597804  0.518907  1
  Co  Co11  1  0.750000  0.902196  0.018907  1
  Co  Co12  1  0.750000  0.775953  0.825245  1
  Co  Co13  1  0.750000  0.724047  0.325245  1
  Co  Co14  1  0.750000  0.114142  0.298691  1
  Co  Co15  1  0.750000  0.385858  0.798691  1
  Co  Co16  1  0.750000  0.540181  0.066259  1
  Co  Co17  1  0.750000  0.959819  0.566259  1
  P  P18  1  0.250000  0.423565  0.116742  1
  P  P19  1  0.250000  0.076435  0.616742  1
  P  P20  1  0.750000  0.576432  0.883184  1
  P  P21  1  0.750000  0.923568  0.383184  1
  P  P22  1  0.250000  0.268797  0.862327  1
  P  P23  1  0.250000  0.231203  0.362327  1
  P  P24  1  0.750000  0.734086  0.138683  1
  P  P25  1  0.750000  0.765914  0.638683  1
  P  P26  1  0.250000  0.597830  0.383107  1
  P  P27  1  0.250000  0.902170  0.883107  1
  P  P28  1  0.750000  0.401564  0.614413  1
  P  P29  1  0.750000  0.098436  0.114413  1
  Ru  Ru30  1  0.250000  0.712173  0.986445  1
  Ru  Ru31  1  0.250000  0.787827  0.486445  1
  Ru  Ru32  1  0.750000  0.294286  0.013960  1
  Ru  Ru33  1  0.750000  0.205714  0.513960  1
  Ru  Ru34  1  0.250000  0.409173  0.485825  1
  Ru  Ru35  1  0.250000  0.090827  0.985825  1
