# generated using pymatgen
data_ScCo4As3Rh
_symmetry_space_group_name_H-M   'P 1'
_cell_length_a   3.75157700
_cell_length_b   10.71654500
_cell_length_c   12.21674300
_cell_angle_alpha   90.00000000
_cell_angle_beta   90.00000000
_cell_angle_gamma   90.00000000
_symmetry_Int_Tables_number   1
_chemical_formula_structural   ScCo4As3Rh
_chemical_formula_sum   'Sc4 Co16 As12 Rh4'
_cell_volume   491.16124828
_cell_formula_units_Z   4
loop_
 _symmetry_equiv_pos_site_id
 _symmetry_equiv_pos_as_xyz
  1  'x, y, z'
loop_
 _atom_site_type_symbol
 _atom_site_label
 _atom_site_symmetry_multiplicity
 _atom_site_fract_x
 _atom_site_fract_y
 _atom_site_fract_z
 _atom_site_occupancy
  Sc  Sc0  1  0.250000  0.580418  0.703329  1
  Sc  Sc1  1  0.250000  0.919582  0.203329  1
  Sc  Sc2  1  0.750000  0.419582  0.296671  1
  Sc  Sc3  1  0.750000  0.080418  0.796671  1
  Co  Co4  1  0.250000  0.408331  0.485302  1
  Co  Co5  1  0.250000  0.091669  0.985302  1
  Co  Co6  1  0.750000  0.591669  0.514698  1
  Co  Co7  1  0.750000  0.908331  0.014698  1
  Co  Co8  1  0.250000  0.216444  0.175435  1
  Co  Co9  1  0.250000  0.283556  0.675435  1
  Co  Co10  1  0.750000  0.783556  0.824565  1
  Co  Co11  1  0.750000  0.716444  0.324565  1
  Co  Co12  1  0.250000  0.885484  0.700587  1
  Co  Co13  1  0.250000  0.614516  0.200587  1
  Co  Co14  1  0.750000  0.114516  0.299413  1
  Co  Co15  1  0.750000  0.385484  0.799413  1
  Co  Co16  1  0.250000  0.464749  0.929276  1
  Co  Co17  1  0.250000  0.035251  0.429276  1
  Co  Co18  1  0.750000  0.535251  0.070724  1
  Co  Co19  1  0.750000  0.964749  0.570724  1
  As  As20  1  0.250000  0.418172  0.116214  1
  As  As21  1  0.250000  0.081828  0.616214  1
  As  As22  1  0.750000  0.581828  0.883786  1
  As  As23  1  0.750000  0.918172  0.383786  1
  As  As24  1  0.250000  0.264097  0.863921  1
  As  As25  1  0.250000  0.235903  0.363921  1
  As  As26  1  0.750000  0.735903  0.136079  1
  As  As27  1  0.750000  0.764097  0.636079  1
  As  As28  1  0.250000  0.592015  0.387162  1
  As  As29  1  0.250000  0.907985  0.887162  1
  As  As30  1  0.750000  0.407985  0.612838  1
  As  As31  1  0.750000  0.092015  0.112838  1
  Rh  Rh32  1  0.250000  0.715583  0.992364  1
  Rh  Rh33  1  0.250000  0.784417  0.492364  1
  Rh  Rh34  1  0.750000  0.284417  0.007636  1
  Rh  Rh35  1  0.750000  0.215583  0.507636  1
