# generated using pymatgen
data_Dy18Tm2CoBi8Os3
_symmetry_space_group_name_H-M   'P 1'
_cell_length_a   7.96432659
_cell_length_b   8.99733392
_cell_length_c   12.45706218
_cell_angle_alpha   89.95723074
_cell_angle_beta   90.28735808
_cell_angle_gamma   89.93876283
_symmetry_Int_Tables_number   1
_chemical_formula_structural   Dy18Tm2CoBi8Os3
_chemical_formula_sum   'Dy18 Tm2 Co1 Bi8 Os3'
_cell_volume   892.63250728
_cell_formula_units_Z   1
loop_
 _symmetry_equiv_pos_site_id
 _symmetry_equiv_pos_as_xyz
  1  'x, y, z'
loop_
 _atom_site_type_symbol
 _atom_site_label
 _atom_site_symmetry_multiplicity
 _atom_site_fract_x
 _atom_site_fract_y
 _atom_site_fract_z
 _atom_site_occupancy
  Dy  Dy0  1  0.843743  0.750169  0.798653  1
  Dy  Dy1  1  0.158720  0.249822  0.207365  1
  Dy  Dy2  1  0.341994  0.249733  0.708317  1
  Dy  Dy3  1  0.656581  0.750277  0.293790  1
  Dy  Dy4  1  0.376280  0.750578  0.693996  1
  Dy  Dy5  1  0.622500  0.249396  0.306584  1
  Dy  Dy6  1  0.875331  0.249842  0.806922  1
  Dy  Dy7  1  0.120858  0.750120  0.187959  1
  Dy  Dy8  1  0.942112  0.750631  0.504971  1
  Dy  Dy9  1  0.057860  0.249375  0.495685  1
  Dy  Dy10  1  0.445704  0.249930  0.996648  1
  Dy  Dy11  1  0.553606  0.750089  0.003640  1
  Dy  Dy12  1  0.175938  0.958220  0.935671  1
  Dy  Dy13  1  0.324225  0.543087  0.435502  1
  Dy  Dy14  1  0.825375  0.038472  0.063210  1
  Dy  Dy15  1  0.674671  0.457849  0.564174  1
  Dy  Dy16  1  0.825328  0.461507  0.063161  1
  Dy  Dy17  1  0.175972  0.541855  0.935708  1
  Tm  Tm18  1  0.672028  0.042035  0.563647  1
  Tm  Tm19  1  0.326815  0.957039  0.436022  1
  Co  Co20  1  0.930827  0.749918  0.009278  1
  Bi  Bi21  1  0.570212  0.492798  0.827929  1
  Bi  Bi22  1  0.430865  0.507907  0.171901  1
  Bi  Bi23  1  0.068449  0.507695  0.673049  1
  Bi  Bi24  1  0.430722  0.992085  0.172026  1
  Bi  Bi25  1  0.931160  0.493213  0.326592  1
  Bi  Bi26  1  0.570326  0.007206  0.827795  1
  Bi  Bi27  1  0.931822  0.006711  0.326765  1
  Bi  Bi28  1  0.067819  0.992378  0.672852  1
  Os  Os29  1  0.574256  0.751472  0.511220  1
  Os  Os30  1  0.424571  0.248515  0.489499  1
  Os  Os31  1  0.073327  0.250077  0.989465  1
