# generated using pymatgen
data_Hf3Co8TcAs5P
_symmetry_space_group_name_H-M   'P 1'
_cell_length_a   12.26938123
_cell_length_b   12.28344520
_cell_length_c   3.73157300
_cell_angle_alpha   90.00000000
_cell_angle_beta   90.00000000
_cell_angle_gamma   120.00356822
_symmetry_Int_Tables_number   1
_chemical_formula_structural   Hf3Co8TcAs5P
_chemical_formula_sum   'Hf6 Co16 Tc2 As10 P2'
_cell_volume   487.02338072
_cell_formula_units_Z   2
loop_
 _symmetry_equiv_pos_site_id
 _symmetry_equiv_pos_as_xyz
  1  'x, y, z'
loop_
 _atom_site_type_symbol
 _atom_site_label
 _atom_site_symmetry_multiplicity
 _atom_site_fract_x
 _atom_site_fract_y
 _atom_site_fract_z
 _atom_site_occupancy
  Hf  Hf0  1  0.832687  0.822016  0.500000  1
  Hf  Hf1  1  0.000513  0.174213  0.500000  1
  Hf  Hf2  1  0.332761  0.655593  0.000000  1
  Hf  Hf3  1  0.666411  0.332840  0.000000  1
  Hf  Hf4  1  0.000566  0.558548  0.000000  1
  Hf  Hf5  1  0.167434  0.989683  0.500000  1
  Co  Co6  1  0.622132  0.820238  0.000000  1
  Co  Co7  1  0.375728  0.199653  0.000000  1
  Co  Co8  1  0.001171  0.726132  0.500000  1
  Co  Co9  1  0.280093  0.287054  0.500000  1
  Co  Co10  1  0.875106  0.352739  0.500000  1
  Co  Co11  1  0.719067  0.999458  0.500000  1
  Co  Co12  1  0.823780  0.633597  0.000000  1
  Co  Co13  1  0.176354  0.809809  0.000000  1
  Co  Co14  1  0.356057  0.877577  0.500000  1
  Co  Co15  1  0.135344  0.480533  0.500000  1
  Co  Co16  1  0.642228  0.522131  0.500000  1
  Co  Co17  1  0.000616  0.992243  0.000000  1
  Co  Co18  1  0.504452  0.639769  0.500000  1
  Co  Co19  1  0.483793  0.131140  0.500000  1
  Co  Co20  1  0.202815  0.378280  0.000000  1
  Co  Co21  1  0.804986  0.175046  0.000000  1
  Tc  Tc22  1  0.442145  0.450089  0.000000  1
  Tc  Tc23  1  0.554461  0.001728  0.000000  1
  As  As24  1  0.002059  0.347513  0.000000  1
  As  As25  1  0.824278  0.513804  0.500000  1
  As  As26  1  0.684575  0.167245  0.500000  1
  As  As27  1  0.175895  0.173507  0.000000  1
  As  As28  1  0.641816  0.646205  0.000000  1
  As  As29  1  0.823986  0.995699  0.000000  1
  As  As30  1  0.513943  0.832586  0.500000  1
  As  As31  1  0.177072  0.688787  0.500000  1
  As  As32  1  0.357452  0.004664  0.000000  1
  As  As33  1  0.483501  0.319406  0.500000  1
  P  P34  1  0.000080  0.821121  0.000000  1
  P  P35  1  0.314645  0.479352  0.500000  1
