# generated using pymatgen
data_Dy19Tm(SiSb2)4
_symmetry_space_group_name_H-M   'P 1'
_cell_length_a   7.96452506
_cell_length_b   9.03437702
_cell_length_c   11.94407713
_cell_angle_alpha   90.00828120
_cell_angle_beta   90.01445417
_cell_angle_gamma   89.99874576
_symmetry_Int_Tables_number   1
_chemical_formula_structural   Dy19Tm(SiSb2)4
_chemical_formula_sum   'Dy19 Tm1 Si4 Sb8'
_cell_volume   859.43032674
_cell_formula_units_Z   1
loop_
 _symmetry_equiv_pos_site_id
 _symmetry_equiv_pos_as_xyz
  1  'x, y, z'
loop_
 _atom_site_type_symbol
 _atom_site_label
 _atom_site_symmetry_multiplicity
 _atom_site_fract_x
 _atom_site_fract_y
 _atom_site_fract_z
 _atom_site_occupancy
  Dy  Dy0  1  0.335614  0.749845  0.713940  1
  Dy  Dy1  1  0.664563  0.249999  0.285982  1
  Dy  Dy2  1  0.835361  0.250065  0.785937  1
  Dy  Dy3  1  0.164587  0.749984  0.214021  1
  Dy  Dy4  1  0.038759  0.749978  0.501357  1
  Dy  Dy5  1  0.960850  0.250143  0.498728  1
  Dy  Dy6  1  0.538984  0.250029  0.998664  1
  Dy  Dy7  1  0.460975  0.749962  0.001267  1
  Dy  Dy8  1  0.861708  0.749834  0.793887  1
  Dy  Dy9  1  0.138148  0.249964  0.205897  1
  Dy  Dy10  1  0.361852  0.249998  0.705863  1
  Dy  Dy11  1  0.638309  0.749854  0.294270  1
  Dy  Dy12  1  0.315891  0.450307  0.434635  1
  Dy  Dy13  1  0.184126  0.450225  0.934508  1
  Dy  Dy14  1  0.315868  0.049777  0.434553  1
  Dy  Dy15  1  0.815823  0.549791  0.065452  1
  Dy  Dy16  1  0.684251  0.949942  0.565431  1
  Dy  Dy17  1  0.815892  0.950232  0.065426  1
  Dy  Dy18  1  0.184163  0.049743  0.934548  1
  Tm  Tm19  1  0.683589  0.550048  0.565417  1
  Si  Si20  1  0.082548  0.750018  0.980391  1
  Si  Si21  1  0.917443  0.249981  0.019630  1
  Si  Si22  1  0.582847  0.250932  0.519841  1
  Si  Si23  1  0.417828  0.749483  0.480480  1
  Sb  Sb24  1  0.568761  0.510396  0.826390  1
  Sb  Sb25  1  0.431436  0.489610  0.173461  1
  Sb  Sb26  1  0.068357  0.489609  0.673289  1
  Sb  Sb27  1  0.431409  0.010385  0.173442  1
  Sb  Sb28  1  0.931476  0.510428  0.326708  1
  Sb  Sb29  1  0.568602  0.989563  0.826570  1
  Sb  Sb30  1  0.931405  0.989539  0.326622  1
  Sb  Sb31  1  0.068573  0.010335  0.673392  1
