# generated using pymatgen
data_Th3CuNi2Au3
_symmetry_space_group_name_H-M   'P 1'
_cell_length_a   7.48486600
_cell_length_b   7.48486591
_cell_length_c   3.78369900
_cell_angle_alpha   90.00000000
_cell_angle_beta   90.00000000
_cell_angle_gamma   120.00000038
_symmetry_Int_Tables_number   1
_chemical_formula_structural   Th3CuNi2Au3
_chemical_formula_sum   'Th3 Cu1 Ni2 Au3'
_cell_volume   183.57573028
_cell_formula_units_Z   1
loop_
 _symmetry_equiv_pos_site_id
 _symmetry_equiv_pos_as_xyz
  1  'x, y, z'
loop_
 _atom_site_type_symbol
 _atom_site_label
 _atom_site_symmetry_multiplicity
 _atom_site_fract_x
 _atom_site_fract_y
 _atom_site_fract_z
 _atom_site_occupancy
  Th  Th0  1  0.000000  0.406655  0.500000  1
  Th  Th1  1  0.593345  0.593345  0.500000  1
  Th  Th2  1  0.406655  0.000000  0.500000  1
  Cu  Cu3  1  0.000000  0.000000  0.500000  1
  Ni  Ni4  1  0.333333  0.666667  0.000000  1
  Ni  Ni5  1  0.666667  0.333333  0.000000  1
  Au  Au6  1  0.000000  0.741043  0.000000  1
  Au  Au7  1  0.258957  0.258957  0.000000  1
  Au  Au8  1  0.741043  0.000000  0.000000  1
