# generated using pymatgen
data_NdLu2U(ReB6)2
_symmetry_space_group_name_H-M   'P 1'
_cell_length_a   3.67793500
_cell_length_b   9.12557962
_cell_length_c   11.52328603
_cell_angle_alpha   90.30627333
_cell_angle_beta   90.00000000
_cell_angle_gamma   90.00000000
_symmetry_Int_Tables_number   1
_chemical_formula_structural   NdLu2U(ReB6)2
_chemical_formula_sum   'Nd2 Lu4 U2 Re4 B24'
_cell_volume   386.75384971
_cell_formula_units_Z   2
loop_
 _symmetry_equiv_pos_site_id
 _symmetry_equiv_pos_as_xyz
  1  'x, y, z'
loop_
 _atom_site_type_symbol
 _atom_site_label
 _atom_site_symmetry_multiplicity
 _atom_site_fract_x
 _atom_site_fract_y
 _atom_site_fract_z
 _atom_site_occupancy
  Nd  Nd0  1  0.000000  0.822484  0.086229  1
  Nd  Nd1  1  0.000000  0.177516  0.913771  1
  Lu  Lu2  1  0.000000  0.945059  0.373955  1
  Lu  Lu3  1  0.000000  0.054941  0.626045  1
  Lu  Lu4  1  0.000000  0.444339  0.128178  1
  Lu  Lu5  1  0.000000  0.555661  0.871822  1
  U  U6  1  0.000000  0.322466  0.414344  1
  U  U7  1  0.000000  0.677534  0.585656  1
  Re  Re8  1  0.000000  0.634838  0.326429  1
  Re  Re9  1  0.000000  0.365162  0.673571  1
  Re  Re10  1  0.000000  0.143871  0.186274  1
  Re  Re11  1  0.000000  0.856129  0.813726  1
  B  B12  1  0.500000  0.552918  0.434540  1
  B  B13  1  0.500000  0.447082  0.565460  1
  B  B14  1  0.500000  0.055875  0.070738  1
  B  B15  1  0.500000  0.944125  0.929262  1
  B  B16  1  0.500000  0.749181  0.421160  1
  B  B17  1  0.500000  0.250819  0.578840  1
  B  B18  1  0.500000  0.251409  0.084036  1
  B  B19  1  0.500000  0.748591  0.915964  1
  B  B20  1  0.500000  0.791347  0.268608  1
  B  B21  1  0.500000  0.208653  0.731392  1
  B  B22  1  0.500000  0.294619  0.237128  1
  B  B23  1  0.500000  0.705381  0.762872  1
  B  B24  1  0.500000  0.628771  0.187233  1
  B  B25  1  0.500000  0.371229  0.812767  1
  B  B26  1  0.500000  0.133572  0.317669  1
  B  B27  1  0.500000  0.866428  0.682331  1
  B  B28  1  0.500000  0.984062  0.216036  1
  B  B29  1  0.500000  0.015938  0.783964  1
  B  B30  1  0.500000  0.481319  0.288459  1
  B  B31  1  0.500000  0.518681  0.711541  1
  B  B32  1  0.500000  0.597901  0.027365  1
  B  B33  1  0.500000  0.402099  0.972635  1
  B  B34  1  0.500000  0.108490  0.470718  1
  B  B35  1  0.500000  0.891510  0.529282  1
