# generated using pymatgen
data_Ba3Tb2TcO9
_symmetry_space_group_name_H-M   'P 1'
_cell_length_a   6.11101800
_cell_length_b   6.11101728
_cell_length_c   14.84822600
_cell_angle_alpha   90.00000000
_cell_angle_beta   90.00000000
_cell_angle_gamma   120.00000390
_symmetry_Int_Tables_number   1
_chemical_formula_structural   Ba3Tb2TcO9
_chemical_formula_sum   'Ba6 Tb4 Tc2 O18'
_cell_volume   480.21117085
_cell_formula_units_Z   2
loop_
 _symmetry_equiv_pos_site_id
 _symmetry_equiv_pos_as_xyz
  1  'x, y, z'
loop_
 _atom_site_type_symbol
 _atom_site_label
 _atom_site_symmetry_multiplicity
 _atom_site_fract_x
 _atom_site_fract_y
 _atom_site_fract_z
 _atom_site_occupancy
  Ba  Ba0  1  0.333333  0.666667  0.089943  1
  Ba  Ba1  1  0.666667  0.333333  0.910057  1
  Ba  Ba2  1  0.333333  0.666667  0.589943  1
  Ba  Ba3  1  0.666667  0.333333  0.410057  1
  Ba  Ba4  1  0.000000  0.000000  0.250000  1
  Ba  Ba5  1  0.000000  0.000000  0.750000  1
  Tb  Tb6  1  0.333333  0.666667  0.834701  1
  Tb  Tb7  1  0.666667  0.333333  0.165299  1
  Tb  Tb8  1  0.333333  0.666667  0.334701  1
  Tb  Tb9  1  0.666667  0.333333  0.665299  1
  Tc  Tc10  1  0.000000  0.000000  0.000000  1
  Tc  Tc11  1  0.000000  0.000000  0.500000  1
  O  O12  1  0.888827  0.699038  0.574640  1
  O  O13  1  0.000000  0.551819  0.250000  1
  O  O14  1  0.189789  0.300962  0.925360  1
  O  O15  1  0.888827  0.189789  0.074640  1
  O  O16  1  0.810211  0.111173  0.574640  1
  O  O17  1  0.810211  0.699038  0.074640  1
  O  O18  1  0.699038  0.810211  0.425360  1
  O  O19  1  0.448181  0.000000  0.750000  1
  O  O20  1  0.551819  0.551819  0.750000  1
  O  O21  1  0.300962  0.189789  0.574640  1
  O  O22  1  0.111173  0.300962  0.425360  1
  O  O23  1  0.189789  0.888827  0.425360  1
  O  O24  1  0.300962  0.111173  0.074640  1
  O  O25  1  0.551819  0.000000  0.250000  1
  O  O26  1  0.448181  0.448181  0.250000  1
  O  O27  1  0.000000  0.448181  0.750000  1
  O  O28  1  0.111173  0.810211  0.925360  1
  O  O29  1  0.699038  0.888827  0.925360  1
