# generated using pymatgen
data_Nd(S8F)3
_symmetry_space_group_name_H-M   'P 1'
_cell_length_a   4.54587647
_cell_length_b   14.74178776
_cell_length_c   15.17938217
_cell_angle_alpha   120.16110569
_cell_angle_beta   93.07652906
_cell_angle_gamma   97.24688597
_symmetry_Int_Tables_number   1
_chemical_formula_structural   Nd(S8F)3
_chemical_formula_sum   'Nd1 S24 F3'
_cell_volume   864.33061239
_cell_formula_units_Z   1
loop_
 _symmetry_equiv_pos_site_id
 _symmetry_equiv_pos_as_xyz
  1  'x, y, z'
loop_
 _atom_site_type_symbol
 _atom_site_label
 _atom_site_symmetry_multiplicity
 _atom_site_fract_x
 _atom_site_fract_y
 _atom_site_fract_z
 _atom_site_occupancy
  Nd  Nd0  1  0.782246  0.998511  0.033399  1
  S  S1  1  0.369629  0.402909  0.992648  1
  S  S2  1  0.580790  0.736405  0.006986  1
  S  S3  1  0.260321  0.522069  0.127622  1
  S  S4  1  0.403024  0.756984  0.137368  1
  S  S5  1  0.569688  0.659523  0.181138  1
  S  S6  1  0.646907  0.370773  0.247276  1
  S  S7  1  0.841898  0.263908  0.271064  1
  S  S8  1  0.903844  0.520021  0.337845  1
  S  S9  1  0.140433  0.866947  0.394861  1
  S  S10  1  0.645908  0.243547  0.381431  1
  S  S11  1  0.391760  0.000712  0.407770  1
  S  S12  1  0.381507  0.813131  0.472728  1
  S  S13  1  0.726574  0.602626  0.473540  1
  S  S14  1  0.270332  0.133374  0.528084  1
  S  S15  1  0.912628  0.340313  0.521423  1
  S  S16  1  0.968120  0.597323  0.589026  1
  S  S17  1  0.244287  0.866051  0.615735  1
  S  S18  1  0.741444  0.477801  0.605525  1
  S  S19  1  0.564762  0.187242  0.659413  1
  S  S20  1  0.541365  0.999462  0.724463  1
  S  S21  1  0.376512  0.133134  0.749252  1
  S  S22  1  0.385837  0.480911  0.818767  1
  S  S23  1  0.279141  0.630417  0.876876  1
  S  S24  1  0.124607  0.397999  0.871855  1
  F  F25  1  0.862940  0.129590  0.013519  1
  F  F26  1  0.287895  0.998946  0.077363  1
  F  F27  1  0.748516  0.869375  0.883027  1
