# generated using pymatgen
data_Tb2Zr2Al23ZnPt9
_symmetry_space_group_name_H-M   'P 1'
_cell_length_a   7.51672377
_cell_length_b   7.51876746
_cell_length_c   13.06704351
_cell_angle_alpha   84.52031858
_cell_angle_beta   78.93050676
_cell_angle_gamma   59.93966605
_symmetry_Int_Tables_number   1
_chemical_formula_structural   Tb2Zr2Al23ZnPt9
_chemical_formula_sum   'Tb2 Zr2 Al23 Zn1 Pt9'
_cell_volume   627.28163262
_cell_formula_units_Z   1
loop_
 _symmetry_equiv_pos_site_id
 _symmetry_equiv_pos_as_xyz
  1  'x, y, z'
loop_
 _atom_site_type_symbol
 _atom_site_label
 _atom_site_symmetry_multiplicity
 _atom_site_fract_x
 _atom_site_fract_y
 _atom_site_fract_z
 _atom_site_occupancy
  Tb  Tb0  1  0.733015  0.499069  0.809341  1
  Tb  Tb1  1  0.266709  0.501895  0.190783  1
  Zr  Zr2  1  0.391775  0.168268  0.809224  1
  Zr  Zr3  1  0.608074  0.831618  0.189788  1
  Al  Al4  1  0.325476  0.158148  0.054291  1
  Al  Al5  1  0.146810  0.832889  0.562909  1
  Al  Al6  1  0.853277  0.167108  0.437866  1
  Al  Al7  1  0.480261  0.166724  0.560994  1
  Al  Al8  1  0.519637  0.833422  0.439620  1
  Al  Al9  1  0.220433  0.163171  0.327154  1
  Al  Al10  1  0.779825  0.836859  0.672328  1
  Al  Al11  1  0.435825  0.504229  0.674139  1
  Al  Al12  1  0.563916  0.495652  0.326872  1
  Al  Al13  1  0.110643  0.159829  0.672803  1
  Al  Al14  1  0.888800  0.840325  0.328102  1
  Al  Al15  1  0.353564  0.496945  0.942011  1
  Al  Al16  1  0.648269  0.507782  0.056306  1
  Al  Al17  1  0.019166  0.166910  0.952169  1
  Al  Al18  1  0.977811  0.832526  0.045064  1
  Al  Al19  1  0.186633  0.499409  0.441016  1
  Al  Al20  1  0.813100  0.500751  0.559631  1
  Al  Al21  1  0.734528  0.158785  0.183556  1
  Al  Al22  1  0.264912  0.841751  0.816940  1
  Al  Al23  1  0.062683  0.627735  0.816900  1
  Al  Al24  1  0.935465  0.372268  0.184808  1
  Al  Al25  1  0.847721  0.040197  0.817896  1
  Al  Al26  1  0.148626  0.959222  0.184258  1
  Zn  Zn27  1  0.681827  0.836729  0.937832  1
  Pt  Pt28  1  0.120645  0.491258  0.639198  1
  Pt  Pt29  1  0.879275  0.509215  0.361486  1
  Pt  Pt30  1  0.657028  0.180131  0.000806  1
  Pt  Pt31  1  0.336117  0.826899  0.001993  1
  Pt  Pt32  1  0.536772  0.166955  0.361732  1
  Pt  Pt33  1  0.462692  0.833059  0.638568  1
  Pt  Pt34  1  0.779072  0.175686  0.637871  1
  Pt  Pt35  1  0.221569  0.824116  0.362877  1
  Pt  Pt36  1  0.008049  0.492463  0.000868  1
