# generated using pymatgen
data_Ho12Ga2Ni3Os
_symmetry_space_group_name_H-M   'P 1'
_cell_length_a   8.28874226
_cell_length_b   8.28872142
_cell_length_c   8.28884611
_cell_angle_alpha   112.72526268
_cell_angle_beta   109.63188303
_cell_angle_gamma   106.12342637
_symmetry_Int_Tables_number   1
_chemical_formula_structural   Ho12Ga2Ni3Os
_chemical_formula_sum   'Ho12 Ga2 Ni3 Os1'
_cell_volume   436.92544342
_cell_formula_units_Z   1
loop_
 _symmetry_equiv_pos_site_id
 _symmetry_equiv_pos_as_xyz
  1  'x, y, z'
loop_
 _atom_site_type_symbol
 _atom_site_label
 _atom_site_symmetry_multiplicity
 _atom_site_fract_x
 _atom_site_fract_y
 _atom_site_fract_z
 _atom_site_occupancy
  Ho  Ho0  1  0.438458  0.245971  0.192487  1
  Ho  Ho1  1  0.570842  0.765419  0.805435  1
  Ho  Ho2  1  0.040011  0.234597  0.805426  1
  Ho  Ho3  1  0.946512  0.754034  0.192475  1
  Ho  Ho4  1  0.184713  0.276648  0.461370  1
  Ho  Ho5  1  0.825218  0.721202  0.546422  1
  Ho  Ho6  1  0.184719  0.723333  0.908057  1
  Ho  Ho7  1  0.825213  0.278795  0.104007  1
  Ho  Ho8  1  0.325403  0.637367  0.308011  1
  Ho  Ho9  1  0.670652  0.362637  0.688046  1
  Ho  Ho10  1  0.325409  0.017399  0.688042  1
  Ho  Ho11  1  0.670647  0.982611  0.308015  1
  Ga  Ga12  1  0.496855  0.500006  0.996856  1
  Ga  Ga13  1  0.009019  0.000004  0.009022  1
  Ni  Ni14  1  0.653867  0.000007  0.653862  1
  Ni  Ni15  1  0.117415  0.617355  0.500052  1
  Ni  Ni16  1  0.882684  0.382607  0.500055  1
  Os  Os17  1  0.332362  0.000010  0.332360  1
