# generated using pymatgen
data_AgAu(SO4)2
_symmetry_space_group_name_H-M   'P 1'
_cell_length_a   8.64625100
_cell_length_b   4.81914774
_cell_length_c   9.53574687
_cell_angle_alpha   64.93571031
_cell_angle_beta   90.00000000
_cell_angle_gamma   90.00000000
_symmetry_Int_Tables_number   1
_chemical_formula_structural   AgAu(SO4)2
_chemical_formula_sum   'Ag2 Au2 S4 O16'
_cell_volume   359.91582058
_cell_formula_units_Z   2
loop_
 _symmetry_equiv_pos_site_id
 _symmetry_equiv_pos_as_xyz
  1  'x, y, z'
loop_
 _atom_site_type_symbol
 _atom_site_label
 _atom_site_symmetry_multiplicity
 _atom_site_fract_x
 _atom_site_fract_y
 _atom_site_fract_z
 _atom_site_occupancy
  Ag  Ag0  1  0.000000  0.000000  0.500000  1
  Ag  Ag1  1  0.500000  0.000000  0.000000  1
  Au  Au2  1  0.000000  0.000000  0.000000  1
  Au  Au3  1  0.500000  0.000000  0.500000  1
  S  S4  1  0.206620  0.606656  0.888141  1
  S  S5  1  0.293380  0.606656  0.388141  1
  S  S6  1  0.793380  0.393344  0.111859  1
  S  S7  1  0.706620  0.393344  0.611859  1
  O  O8  1  0.359491  0.638933  0.532016  1
  O  O9  1  0.640509  0.361067  0.467984  1
  O  O10  1  0.140509  0.638933  0.032016  1
  O  O11  1  0.200815  0.253982  0.939933  1
  O  O12  1  0.700815  0.746018  0.560067  1
  O  O13  1  0.610668  0.226827  0.745794  1
  O  O14  1  0.799185  0.746018  0.060067  1
  O  O15  1  0.859491  0.361067  0.967984  1
  O  O16  1  0.371226  0.677484  0.873646  1
  O  O17  1  0.389332  0.773173  0.254206  1
  O  O18  1  0.889332  0.226827  0.245794  1
  O  O19  1  0.128774  0.677484  0.373646  1
  O  O20  1  0.299185  0.253982  0.439933  1
  O  O21  1  0.628774  0.322516  0.126354  1
  O  O22  1  0.110668  0.773173  0.754206  1
  O  O23  1  0.871226  0.322516  0.626354  1
