# generated using pymatgen
data_Tm16Mg2CdHgPt4
_symmetry_space_group_name_H-M   'P 1'
_cell_length_a   9.58222895
_cell_length_b   9.57100024
_cell_length_c   9.60866700
_cell_angle_alpha   59.86972533
_cell_angle_beta   59.90868515
_cell_angle_gamma   59.70980694
_symmetry_Int_Tables_number   1
_chemical_formula_structural   Tm16Mg2CdHgPt4
_chemical_formula_sum   'Tm16 Mg2 Cd1 Hg1 Pt4'
_cell_volume   620.70357070
_cell_formula_units_Z   1
loop_
 _symmetry_equiv_pos_site_id
 _symmetry_equiv_pos_as_xyz
  1  'x, y, z'
loop_
 _atom_site_type_symbol
 _atom_site_label
 _atom_site_symmetry_multiplicity
 _atom_site_fract_x
 _atom_site_fract_y
 _atom_site_fract_z
 _atom_site_occupancy
  Tm  Tm0  1  0.352247  0.352109  0.350487  1
  Tm  Tm1  1  0.352247  0.352109  0.945158  1
  Tm  Tm2  1  0.352487  0.944846  0.351334  1
  Tm  Tm3  1  0.943682  0.352740  0.351789  1
  Tm  Tm4  1  0.810868  0.190004  0.188728  1
  Tm  Tm5  1  0.189643  0.811035  0.810582  1
  Tm  Tm6  1  0.189643  0.811035  0.188740  1
  Tm  Tm7  1  0.810868  0.190004  0.810400  1
  Tm  Tm8  1  0.191852  0.191949  0.808100  1
  Tm  Tm9  1  0.812253  0.812142  0.187803  1
  Tm  Tm10  1  0.936236  0.565381  0.564943  1
  Tm  Tm11  1  0.564885  0.938136  0.932270  1
  Tm  Tm12  1  0.564885  0.938136  0.564708  1
  Tm  Tm13  1  0.936236  0.565381  0.933438  1
  Tm  Tm14  1  0.567290  0.567593  0.932558  1
  Tm  Tm15  1  0.934771  0.938011  0.563609  1
  Mg  Mg16  1  0.576263  0.575214  0.581992  1
  Mg  Mg17  1  0.576263  0.575214  0.266531  1
  Cd  Cd18  1  0.251753  0.582780  0.582734  1
  Hg  Hg19  1  0.585682  0.245972  0.584173  1
  Pt  Pt20  1  0.143246  0.143432  0.143201  1
  Pt  Pt21  1  0.143246  0.143432  0.570123  1
  Pt  Pt22  1  0.142390  0.570862  0.143374  1
  Pt  Pt23  1  0.571064  0.142485  0.143225  1
