# generated using pymatgen
data_SmU2Ga3Ru2Pt
_symmetry_space_group_name_H-M   'P 1'
_cell_length_a   6.95955000
_cell_length_b   7.24488189
_cell_length_c   3.90828500
_cell_angle_alpha   90.00000000
_cell_angle_beta   90.00000000
_cell_angle_gamma   118.70552232
_symmetry_Int_Tables_number   1
_chemical_formula_structural   SmU2Ga3Ru2Pt
_chemical_formula_sum   'Sm1 U2 Ga3 Ru2 Pt1'
_cell_volume   172.84138751
_cell_formula_units_Z   1
loop_
 _symmetry_equiv_pos_site_id
 _symmetry_equiv_pos_as_xyz
  1  'x, y, z'
loop_
 _atom_site_type_symbol
 _atom_site_label
 _atom_site_symmetry_multiplicity
 _atom_site_fract_x
 _atom_site_fract_y
 _atom_site_fract_z
 _atom_site_occupancy
  Sm  Sm0  1  0.413903  0.000000  0.500000  1
  U  U1  1  0.001601  0.424121  0.500000  1
  U  U2  1  0.577479  0.575879  0.500000  1
  Ga  Ga3  1  0.736738  0.000000  0.000000  1
  Ga  Ga4  1  0.013354  0.765949  0.000000  1
  Ga  Ga5  1  0.247405  0.234051  0.000000  1
  Ru  Ru6  1  0.328228  0.623038  0.000000  1
  Ru  Ru7  1  0.705191  0.376962  0.000000  1
  Pt  Pt8  1  0.976102  0.000000  0.500000  1
