# generated using pymatgen
data_PrNd4P12Pd2Ru17
_symmetry_space_group_name_H-M   'P 1'
_cell_length_a   12.75366704
_cell_length_b   12.65417461
_cell_length_c   4.02286100
_cell_angle_alpha   90.00000000
_cell_angle_beta   90.00000000
_cell_angle_gamma   120.25181468
_symmetry_Int_Tables_number   1
_chemical_formula_structural   PrNd4P12Pd2Ru17
_chemical_formula_sum   'Pr1 Nd4 P12 Pd2 Ru17'
_cell_volume   560.82446746
_cell_formula_units_Z   1
loop_
 _symmetry_equiv_pos_site_id
 _symmetry_equiv_pos_as_xyz
  1  'x, y, z'
loop_
 _atom_site_type_symbol
 _atom_site_label
 _atom_site_symmetry_multiplicity
 _atom_site_fract_x
 _atom_site_fract_y
 _atom_site_fract_z
 _atom_site_occupancy
  Pr  Pr0  1  0.001079  0.182749  0.500000  1
  Nd  Nd1  1  0.818267  0.817162  0.500000  1
  Nd  Nd2  1  0.184035  0.999908  0.500000  1
  Nd  Nd3  1  0.664208  0.328380  0.000000  1
  Nd  Nd4  1  0.335886  0.671725  0.000000  1
  P  P5  1  0.998602  0.809503  0.000000  1
  P  P6  1  0.189473  0.190395  0.000000  1
  P  P7  1  0.814441  0.999532  0.000000  1
  P  P8  1  0.693782  0.169515  0.500000  1
  P  P9  1  0.818616  0.519142  0.500000  1
  P  P10  1  0.475603  0.298184  0.500000  1
  P  P11  1  0.177320  0.701911  0.500000  1
  P  P12  1  0.524135  0.830361  0.500000  1
  P  P13  1  0.299591  0.480978  0.500000  1
  P  P14  1  0.000112  0.368652  0.000000  1
  P  P15  1  0.631897  0.631753  0.000000  1
  P  P16  1  0.376289  0.999999  0.000000  1
  Pd  Pd17  1  0.999166  0.552607  0.000000  1
  Pd  Pd18  1  0.446867  0.447670  0.000000  1
  Ru  Ru19  1  0.555559  0.999941  0.000000  1
  Ru  Ru20  1  0.997856  0.709642  0.500000  1
  Ru  Ru21  1  0.288549  0.290451  0.500000  1
  Ru  Ru22  1  0.716053  0.999780  0.500000  1
  Ru  Ru23  1  0.806553  0.184485  0.000000  1
  Ru  Ru24  1  0.812869  0.617663  0.000000  1
  Ru  Ru25  1  0.377471  0.192896  0.000000  1
  Ru  Ru26  1  0.184426  0.807072  0.000000  1
  Ru  Ru27  1  0.622374  0.815299  0.000000  1
  Ru  Ru28  1  0.195678  0.382772  0.000000  1
  Ru  Ru29  1  0.873422  0.366248  0.500000  1
  Ru  Ru30  1  0.629094  0.508024  0.500000  1
  Ru  Ru31  1  0.491246  0.122749  0.500000  1
  Ru  Ru32  1  0.368458  0.877257  0.500000  1
  Ru  Ru33  1  0.507306  0.633879  0.500000  1
  Ru  Ru34  1  0.121113  0.492208  0.500000  1
  Ru  Ru35  1  0.002601  0.999509  0.000000  1
