# generated using pymatgen
data_Ac(InPd)3
_symmetry_space_group_name_H-M   'P 1'
_cell_length_a   4.55921200
_cell_length_b   7.65409500
_cell_length_c   9.07577500
_cell_angle_alpha   90.00000000
_cell_angle_beta   90.00000000
_cell_angle_gamma   90.00000000
_symmetry_Int_Tables_number   1
_chemical_formula_structural   Ac(InPd)3
_chemical_formula_sum   'Ac2 In6 Pd6'
_cell_volume   316.71406899
_cell_formula_units_Z   2
loop_
 _symmetry_equiv_pos_site_id
 _symmetry_equiv_pos_as_xyz
  1  'x, y, z'
loop_
 _atom_site_type_symbol
 _atom_site_label
 _atom_site_symmetry_multiplicity
 _atom_site_fract_x
 _atom_site_fract_y
 _atom_site_fract_z
 _atom_site_occupancy
  Ac  Ac0  1  0.000000  0.500000  0.285704  1
  Ac  Ac1  1  0.500000  0.000000  0.714296  1
  In  In2  1  0.500000  0.500000  0.629207  1
  In  In3  1  0.000000  0.300602  0.887089  1
  In  In4  1  0.000000  0.699398  0.887089  1
  In  In5  1  0.500000  0.800602  0.112911  1
  In  In6  1  0.000000  0.000000  0.370793  1
  In  In7  1  0.500000  0.199398  0.112911  1
  Pd  Pd8  1  0.000000  0.720939  0.587241  1
  Pd  Pd9  1  0.500000  0.500000  0.946615  1
  Pd  Pd10  1  0.000000  0.279061  0.587241  1
  Pd  Pd11  1  0.500000  0.779061  0.412759  1
  Pd  Pd12  1  0.000000  0.000000  0.053385  1
  Pd  Pd13  1  0.500000  0.220939  0.412759  1
