# generated using pymatgen
data_SrPrUSe5
_symmetry_space_group_name_H-M   'P 1'
_cell_length_a   7.95631400
_cell_length_b   8.55816900
_cell_length_c   12.55262600
_cell_angle_alpha   90.00000000
_cell_angle_beta   90.00000000
_cell_angle_gamma   90.00000000
_symmetry_Int_Tables_number   1
_chemical_formula_structural   SrPrUSe5
_chemical_formula_sum   'Sr4 Pr4 U4 Se20'
_cell_volume   854.72688008
_cell_formula_units_Z   4
loop_
 _symmetry_equiv_pos_site_id
 _symmetry_equiv_pos_as_xyz
  1  'x, y, z'
loop_
 _atom_site_type_symbol
 _atom_site_label
 _atom_site_symmetry_multiplicity
 _atom_site_fract_x
 _atom_site_fract_y
 _atom_site_fract_z
 _atom_site_occupancy
  Sr  Sr0  1  0.536814  0.502405  0.322976  1
  Sr  Sr1  1  0.963186  0.997595  0.822976  1
  Sr  Sr2  1  0.463186  0.002405  0.677024  1
  Sr  Sr3  1  0.036814  0.497595  0.177024  1
  Pr  Pr4  1  0.461633  0.500439  0.674233  1
  Pr  Pr5  1  0.038367  0.999561  0.174233  1
  Pr  Pr6  1  0.538367  0.000439  0.325767  1
  Pr  Pr7  1  0.961633  0.499561  0.825767  1
  U  U8  1  0.066117  0.752239  0.493349  1
  U  U9  1  0.433883  0.747761  0.993349  1
  U  U10  1  0.933883  0.252239  0.506651  1
  U  U11  1  0.566117  0.247761  0.006651  1
  Se  Se12  1  0.837154  0.959835  0.582991  1
  Se  Se13  1  0.662846  0.540165  0.082991  1
  Se  Se14  1  0.162846  0.459835  0.417009  1
  Se  Se15  1  0.337154  0.040165  0.917009  1
  Se  Se16  1  0.170579  0.043268  0.412155  1
  Se  Se17  1  0.329421  0.456732  0.912155  1
  Se  Se18  1  0.829421  0.543268  0.587845  1
  Se  Se19  1  0.670579  0.956732  0.087845  1
  Se  Se20  1  0.845104  0.762602  0.314608  1
  Se  Se21  1  0.654896  0.737398  0.814608  1
  Se  Se22  1  0.154896  0.262602  0.685392  1
  Se  Se23  1  0.345104  0.237398  0.185392  1
  Se  Se24  1  0.443997  0.752260  0.496050  1
  Se  Se25  1  0.056003  0.747740  0.996050  1
  Se  Se26  1  0.556003  0.252260  0.503950  1
  Se  Se27  1  0.943997  0.247740  0.003950  1
  Se  Se28  1  0.179113  0.736472  0.708797  1
  Se  Se29  1  0.320887  0.763528  0.208797  1
  Se  Se30  1  0.820887  0.236472  0.291203  1
  Se  Se31  1  0.679113  0.263528  0.791203  1
