# generated using pymatgen
data_Rb2Tc2OF10
_symmetry_space_group_name_H-M   'P 1'
_cell_length_a   8.02402500
_cell_length_b   8.38809943
_cell_length_c   15.22694300
_cell_angle_alpha   90.00000000
_cell_angle_beta   90.00000000
_cell_angle_gamma   96.54890409
_symmetry_Int_Tables_number   1
_chemical_formula_structural   Rb2Tc2OF10
_chemical_formula_sum   'Rb8 Tc8 O4 F40'
_cell_volume   1018.18208547
_cell_formula_units_Z   4
loop_
 _symmetry_equiv_pos_site_id
 _symmetry_equiv_pos_as_xyz
  1  'x, y, z'
loop_
 _atom_site_type_symbol
 _atom_site_label
 _atom_site_symmetry_multiplicity
 _atom_site_fract_x
 _atom_site_fract_y
 _atom_site_fract_z
 _atom_site_occupancy
  Rb  Rb0  1  0.237666  0.035162  0.688371  1
  Rb  Rb1  1  0.701043  0.170583  0.042891  1
  Rb  Rb2  1  0.201043  0.670583  0.457109  1
  Rb  Rb3  1  0.798957  0.329417  0.542891  1
  Rb  Rb4  1  0.298957  0.829417  0.957109  1
  Rb  Rb5  1  0.262334  0.464838  0.188371  1
  Rb  Rb6  1  0.762334  0.964838  0.311629  1
  Rb  Rb7  1  0.737666  0.535162  0.811629  1
  Tc  Tc8  1  0.762060  0.696809  0.068282  1
  Tc  Tc9  1  0.285667  0.948615  0.241641  1
  Tc  Tc10  1  0.237940  0.303191  0.931718  1
  Tc  Tc11  1  0.214333  0.551385  0.741641  1
  Tc  Tc12  1  0.714333  0.051385  0.758359  1
  Tc  Tc13  1  0.262060  0.196809  0.431718  1
  Tc  Tc14  1  0.785667  0.448615  0.258359  1
  Tc  Tc15  1  0.737940  0.803191  0.568282  1
  O  O16  1  0.330256  0.077307  0.339908  1
  O  O17  1  0.669744  0.922693  0.660092  1
  O  O18  1  0.830256  0.577307  0.160092  1
  O  O19  1  0.169744  0.422693  0.839908  1
  F  F20  1  0.669661  0.602730  0.627002  1
  F  F21  1  0.996546  0.516027  0.314739  1
  F  F22  1  0.838739  0.680015  0.480942  1
  F  F23  1  0.884289  0.272582  0.204438  1
  F  F24  1  0.003454  0.483973  0.685261  1
  F  F25  1  0.169661  0.102730  0.872998  1
  F  F26  1  0.804424  0.993619  0.499628  1
  F  F27  1  0.695576  0.506381  0.999628  1
  F  F28  1  0.314531  0.384582  0.683768  1
  F  F29  1  0.033741  0.281839  0.998078  1
  F  F30  1  0.955527  0.816503  0.622407  1
  F  F31  1  0.195576  0.006381  0.500372  1
  F  F32  1  0.814531  0.884582  0.816232  1
  F  F33  1  0.044473  0.183497  0.377593  1
  F  F34  1  0.115711  0.727418  0.795562  1
  F  F35  1  0.923932  0.137374  0.704971  1
  F  F36  1  0.685469  0.615418  0.316232  1
  F  F37  1  0.544473  0.683497  0.122407  1
  F  F38  1  0.185469  0.115418  0.183768  1
  F  F39  1  0.615711  0.227418  0.704438  1
  F  F40  1  0.533741  0.781839  0.501922  1
  F  F41  1  0.221587  0.810987  0.144466  1
  F  F42  1  0.330339  0.397270  0.372998  1
  F  F43  1  0.384289  0.772582  0.295562  1
  F  F44  1  0.338739  0.180015  0.019058  1
  F  F45  1  0.455527  0.316503  0.877593  1
  F  F46  1  0.721587  0.310987  0.355534  1
  F  F47  1  0.576068  0.362626  0.204971  1
  F  F48  1  0.503454  0.983973  0.814739  1
  F  F49  1  0.830339  0.897270  0.127002  1
  F  F50  1  0.466259  0.218161  0.498078  1
  F  F51  1  0.423932  0.637374  0.795029  1
  F  F52  1  0.076068  0.862626  0.295029  1
  F  F53  1  0.278413  0.689013  0.644466  1
  F  F54  1  0.161261  0.319985  0.519058  1
  F  F55  1  0.661261  0.819985  0.980942  1
  F  F56  1  0.496546  0.016027  0.185261  1
  F  F57  1  0.966259  0.718161  0.001922  1
  F  F58  1  0.778413  0.189013  0.855534  1
  F  F59  1  0.304424  0.493619  0.000372  1
