# generated using pymatgen
data_Sc4CrFeOs6
_symmetry_space_group_name_H-M   'P 1'
_cell_length_a   5.19712626
_cell_length_b   5.08550969
_cell_length_c   8.62129900
_cell_angle_alpha   90.00000000
_cell_angle_beta   90.00000000
_cell_angle_gamma   121.33884360
_symmetry_Int_Tables_number   1
_chemical_formula_structural   Sc4CrFeOs6
_chemical_formula_sum   'Sc4 Cr1 Fe1 Os6'
_cell_volume   194.61775177
_cell_formula_units_Z   1
loop_
 _symmetry_equiv_pos_site_id
 _symmetry_equiv_pos_as_xyz
  1  'x, y, z'
loop_
 _atom_site_type_symbol
 _atom_site_label
 _atom_site_symmetry_multiplicity
 _atom_site_fract_x
 _atom_site_fract_y
 _atom_site_fract_z
 _atom_site_occupancy
  Sc  Sc0  1  0.332592  0.663262  0.435027  1
  Sc  Sc1  1  0.664125  0.335994  0.564072  1
  Sc  Sc2  1  0.664125  0.335994  0.935928  1
  Sc  Sc3  1  0.332592  0.663262  0.064973  1
  Cr  Cr4  1  0.167147  0.336820  0.750000  1
  Fe  Fe5  1  0.339529  0.168389  0.250000  1
  Os  Os6  1  0.171961  0.820590  0.750000  1
  Os  Os7  1  0.829605  0.657177  0.250000  1
  Os  Os8  1  0.655089  0.825691  0.750000  1
  Os  Os9  1  0.006898  0.009562  0.999725  1
  Os  Os10  1  0.829438  0.173696  0.250000  1
  Os  Os11  1  0.006898  0.009562  0.500275  1
