# generated using pymatgen
data_Zr4Al18OsRh5
_symmetry_space_group_name_H-M   'P 1'
_cell_length_a   7.45909550
_cell_length_b   7.45909640
_cell_length_c   9.29084465
_cell_angle_alpha   89.92645984
_cell_angle_beta   89.92645983
_cell_angle_gamma   119.54256868
_symmetry_Int_Tables_number   1
_chemical_formula_structural   Zr4Al18OsRh5
_chemical_formula_sum   'Zr4 Al18 Os1 Rh5'
_cell_volume   449.71796564
_cell_formula_units_Z   1
loop_
 _symmetry_equiv_pos_site_id
 _symmetry_equiv_pos_as_xyz
  1  'x, y, z'
loop_
 _atom_site_type_symbol
 _atom_site_label
 _atom_site_symmetry_multiplicity
 _atom_site_fract_x
 _atom_site_fract_y
 _atom_site_fract_z
 _atom_site_occupancy
  Zr  Zr0  1  0.993204  0.674078  0.749380  1
  Zr  Zr1  1  0.006796  0.325922  0.250620  1
  Zr  Zr2  1  0.674078  0.993204  0.749380  1
  Zr  Zr3  1  0.325922  0.006796  0.250620  1
  Al  Al4  1  0.126155  0.126155  0.750267  1
  Al  Al5  1  0.873845  0.873845  0.249733  1
  Al  Al6  1  0.997350  0.334043  0.575909  1
  Al  Al7  1  0.002650  0.665957  0.424091  1
  Al  Al8  1  0.002739  0.664149  0.077387  1
  Al  Al9  1  0.335851  0.997261  0.922613  1
  Al  Al10  1  0.997261  0.335851  0.922613  1
  Al  Al11  1  0.664149  0.002739  0.077387  1
  Al  Al12  1  0.665957  0.002650  0.424091  1
  Al  Al13  1  0.334043  0.997350  0.575909  1
  Al  Al14  1  0.331395  0.331395  0.057089  1
  Al  Al15  1  0.668605  0.668605  0.942911  1
  Al  Al16  1  0.668757  0.668757  0.555730  1
  Al  Al17  1  0.331243  0.331243  0.444270  1
  Al  Al18  1  0.340205  0.556758  0.750042  1
  Al  Al19  1  0.659795  0.443242  0.249958  1
  Al  Al20  1  0.556758  0.340205  0.750042  1
  Al  Al21  1  0.443242  0.659795  0.249958  1
  Os  Os22  1  0.000000  0.000000  0.500000  1
  Rh  Rh23  1  0.672669  0.327331  0.500000  1
  Rh  Rh24  1  0.327331  0.672669  0.500000  1
  Rh  Rh25  1  0.327089  0.672911  0.000000  1
  Rh  Rh26  1  0.672911  0.327089  0.000000  1
  Rh  Rh27  1  0.000000  0.000000  0.000000  1
