# generated using pymatgen
data_Y12Th4MgCd3Co4
_symmetry_space_group_name_H-M   'P 1'
_cell_length_a   9.67432402
_cell_length_b   9.64209182
_cell_length_c   9.64209300
_cell_angle_alpha   59.99999937
_cell_angle_beta   60.11015094
_cell_angle_gamma   60.11014749
_symmetry_Int_Tables_number   1
_chemical_formula_structural   Y12Th4MgCd3Co4
_chemical_formula_sum   'Y12 Th4 Mg1 Cd3 Co4'
_cell_volume   637.04375703
_cell_formula_units_Z   1
loop_
 _symmetry_equiv_pos_site_id
 _symmetry_equiv_pos_as_xyz
  1  'x, y, z'
loop_
 _atom_site_type_symbol
 _atom_site_label
 _atom_site_symmetry_multiplicity
 _atom_site_fract_x
 _atom_site_fract_y
 _atom_site_fract_z
 _atom_site_occupancy
  Y  Y0  1  0.811076  0.188529  0.188529  1
  Y  Y1  1  0.186792  0.812658  0.812658  1
  Y  Y2  1  0.186792  0.812658  0.187892  1
  Y  Y3  1  0.811076  0.188529  0.811866  1
  Y  Y4  1  0.186792  0.187892  0.812658  1
  Y  Y5  1  0.811076  0.811866  0.188529  1
  Y  Y6  1  0.933716  0.564803  0.564803  1
  Y  Y7  1  0.563278  0.936390  0.936390  1
  Y  Y8  1  0.563278  0.936390  0.563942  1
  Y  Y9  1  0.933716  0.564803  0.936678  1
  Y  Y10  1  0.563278  0.563942  0.936390  1
  Y  Y11  1  0.933716  0.936678  0.564803  1
  Th  Th12  1  0.344599  0.344722  0.344722  1
  Th  Th13  1  0.344599  0.344722  0.965957  1
  Th  Th14  1  0.344599  0.965957  0.344722  1
  Th  Th15  1  0.965098  0.344968  0.344968  1
  Mg  Mg16  1  0.266520  0.577826  0.577826  1
  Cd  Cd17  1  0.582800  0.581879  0.581879  1
  Cd  Cd18  1  0.582800  0.581879  0.253440  1
  Cd  Cd19  1  0.582800  0.253440  0.581879  1
  Co  Co20  1  0.145846  0.144689  0.144689  1
  Co  Co21  1  0.145846  0.144689  0.564775  1
  Co  Co22  1  0.145846  0.564775  0.144689  1
  Co  Co23  1  0.564060  0.145313  0.145313  1
