# generated using pymatgen
data_Cs4KRb3Mo12(P3O17)4
_symmetry_space_group_name_H-M   'P 1'
_cell_length_a   9.71158500
_cell_length_b   10.99892783
_cell_length_c   16.02131600
_cell_angle_alpha   68.56285830
_cell_angle_beta   90.00000000
_cell_angle_gamma   90.00000000
_symmetry_Int_Tables_number   1
_chemical_formula_structural   Cs4KRb3Mo12(P3O17)4
_chemical_formula_sum   'Cs4 K1 Rb3 Mo12 P12 O68'
_cell_volume   1592.95657314
_cell_formula_units_Z   1
loop_
 _symmetry_equiv_pos_site_id
 _symmetry_equiv_pos_as_xyz
  1  'x, y, z'
loop_
 _atom_site_type_symbol
 _atom_site_label
 _atom_site_symmetry_multiplicity
 _atom_site_fract_x
 _atom_site_fract_y
 _atom_site_fract_z
 _atom_site_occupancy
  Cs  Cs0  1  0.385014  0.815062  0.511199  1
  Cs  Cs1  1  0.615039  0.185040  0.488754  1
  Cs  Cs2  1  0.884942  0.185219  0.988985  1
  Cs  Cs3  1  0.114693  0.814818  0.011234  1
  K  K4  1  0.866687  0.378844  0.214610  1
  Rb  Rb5  1  0.129359  0.611474  0.788811  1
  Rb  Rb6  1  0.370515  0.611293  0.288967  1
  Rb  Rb7  1  0.629511  0.388701  0.711087  1
  Mo  Mo8  1  0.120929  0.953311  0.244547  1
  Mo  Mo9  1  0.879227  0.046979  0.755454  1
  Mo  Mo10  1  0.621004  0.047222  0.255282  1
  Mo  Mo11  1  0.379057  0.953042  0.744676  1
  Mo  Mo12  1  0.623095  0.752793  0.061189  1
  Mo  Mo13  1  0.377210  0.247004  0.939338  1
  Mo  Mo14  1  0.122985  0.247337  0.438514  1
  Mo  Mo15  1  0.876747  0.753265  0.560828  1
  Mo  Mo16  1  0.760199  0.575431  0.399367  1
  Mo  Mo17  1  0.240888  0.423288  0.599425  1
  Mo  Mo18  1  0.257626  0.423529  0.099913  1
  Mo  Mo19  1  0.740904  0.576659  0.900765  1
  P  P20  1  0.402796  0.956216  0.122277  1
  P  P21  1  0.597514  0.043844  0.877837  1
  P  P22  1  0.902447  0.044588  0.377382  1
  P  P23  1  0.097353  0.956429  0.622027  1
  P  P24  1  0.826334  0.838482  0.200533  1
  P  P25  1  0.173942  0.161918  0.799377  1
  P  P26  1  0.326301  0.161821  0.299310  1
  P  P27  1  0.673741  0.838194  0.700699  1
  P  P28  1  0.595830  0.332304  0.069122  1
  P  P29  1  0.403678  0.667943  0.931664  1
  P  P30  1  0.096100  0.668479  0.431396  1
  P  P31  1  0.904216  0.331305  0.568422  1
  O  O32  1  0.444531  0.731316  0.001179  1
  O  O33  1  0.555113  0.268032  0.999967  1
  O  O34  1  0.944989  0.267351  0.499245  1
  O  O35  1  0.055253  0.732104  0.500720  1
  O  O36  1  0.577284  0.905261  0.341218  1
  O  O37  1  0.423376  0.095083  0.659025  1
  O  O38  1  0.076733  0.095281  0.158772  1
  O  O39  1  0.923388  0.904829  0.841033  1
  O  O40  1  0.974887  0.958275  0.333440  1
  O  O41  1  0.024945  0.042413  0.666259  1
  O  O42  1  0.475481  0.042631  0.166132  1
  O  O43  1  0.524891  0.957785  0.833736  1
  O  O44  1  0.708012  0.439111  0.024534  1
  O  O45  1  0.291033  0.561311  0.976092  1
  O  O46  1  0.208233  0.561682  0.475792  1
  O  O47  1  0.791993  0.437813  0.523235  1
  O  O48  1  0.586050  0.591441  0.418319  1
  O  O49  1  0.414898  0.406407  0.580703  1
  O  O50  1  0.082440  0.406373  0.084135  1
  O  O51  1  0.915046  0.593688  0.919107  1
  O  O52  1  0.271267  0.892545  0.177852  1
  O  O53  1  0.729075  0.107625  0.822233  1
  O  O54  1  0.771193  0.108989  0.321553  1
  O  O55  1  0.229067  0.892670  0.677438  1
  O  O56  1  0.494234  0.837069  0.129150  1
  O  O57  1  0.506142  0.162929  0.871194  1
  O  O58  1  0.993768  0.164123  0.369925  1
  O  O59  1  0.005768  0.837447  0.628815  1
  O  O60  1  0.616326  0.605023  0.150344  1
  O  O61  1  0.385249  0.394395  0.849891  1
  O  O62  1  0.114736  0.394805  0.349143  1
  O  O63  1  0.884477  0.605655  0.650131  1
  O  O64  1  0.972605  0.606766  0.402572  1
  O  O65  1  0.027574  0.393262  0.597116  1
  O  O66  1  0.471825  0.393439  0.097644  1
  O  O67  1  0.527348  0.606326  0.902991  1
  O  O68  1  0.985592  0.841018  0.201776  1
  O  O69  1  0.014678  0.159184  0.798287  1
  O  O70  1  0.485505  0.159177  0.298219  1
  O  O71  1  0.514456  0.840818  0.701854  1
  O  O72  1  0.765451  0.972077  0.191906  1
  O  O73  1  0.234740  0.028392  0.807922  1
  O  O74  1  0.265502  0.028272  0.307932  1
  O  O75  1  0.734747  0.971659  0.692163  1
  O  O76  1  0.765962  0.731565  0.284574  1
  O  O77  1  0.234062  0.269029  0.715332  1
  O  O78  1  0.265970  0.268743  0.215388  1
  O  O79  1  0.733956  0.730921  0.784589  1
  O  O80  1  0.791172  0.809542  0.114750  1
  O  O81  1  0.209217  0.190905  0.885132  1
  O  O82  1  0.291056  0.190926  0.385049  1
  O  O83  1  0.708805  0.809410  0.614793  1
  O  O84  1  0.671811  0.232985  0.149385  1
  O  O85  1  0.328890  0.768328  0.851459  1
  O  O86  1  0.170934  0.768701  0.351193  1
  O  O87  1  0.829002  0.231587  0.648639  1
  O  O88  1  0.861211  0.962029  0.473413  1
  O  O89  1  0.138102  0.039135  0.525871  1
  O  O90  1  0.361650  0.038959  0.026241  1
  O  O91  1  0.638570  0.961162  0.973869  1
  O  O92  1  0.784017  0.710537  0.480246  1
  O  O93  1  0.215895  0.290092  0.519138  1
  O  O94  1  0.283151  0.290131  0.019481  1
  O  O95  1  0.715892  0.710894  0.980193  1
  O  O96  1  0.762245  0.460735  0.347844  1
  O  O97  1  0.241266  0.539762  0.649252  1
  O  O98  1  0.260246  0.540123  0.149512  1
  O  O99  1  0.741134  0.460112  0.850973  1
