# generated using pymatgen
data_Ag13TeO6
_symmetry_space_group_name_H-M   'P 1'
_cell_length_a   9.50039799
_cell_length_b   9.50039852
_cell_length_c   9.50039700
_cell_angle_alpha   60.00000180
_cell_angle_beta   59.99999996
_cell_angle_gamma   59.99999980
_symmetry_Int_Tables_number   1
_chemical_formula_structural   Ag13TeO6
_chemical_formula_sum   'Ag26 Te2 O12'
_cell_volume   606.33185192
_cell_formula_units_Z   2
loop_
 _symmetry_equiv_pos_site_id
 _symmetry_equiv_pos_as_xyz
  1  'x, y, z'
loop_
 _atom_site_type_symbol
 _atom_site_label
 _atom_site_symmetry_multiplicity
 _atom_site_fract_x
 _atom_site_fract_y
 _atom_site_fract_z
 _atom_site_occupancy
  Ag  Ag0  1  0.000000  0.000000  0.000000  1
  Ag  Ag1  1  0.500000  0.500000  0.500000  1
  Ag  Ag2  1  0.064328  0.292190  0.935672  1
  Ag  Ag3  1  0.792190  0.564328  0.435672  1
  Ag  Ag4  1  0.564328  0.792190  0.207810  1
  Ag  Ag5  1  0.207810  0.564328  0.792190  1
  Ag  Ag6  1  0.792190  0.435672  0.207810  1
  Ag  Ag7  1  0.564328  0.435672  0.792190  1
  Ag  Ag8  1  0.207810  0.792190  0.435672  1
  Ag  Ag9  1  0.935672  0.064328  0.292190  1
  Ag  Ag10  1  0.292190  0.935672  0.064328  1
  Ag  Ag11  1  0.064328  0.707810  0.292190  1
  Ag  Ag12  1  0.064328  0.935672  0.707810  1
  Ag  Ag13  1  0.292190  0.707810  0.935672  1
  Ag  Ag14  1  0.707810  0.064328  0.935672  1
  Ag  Ag15  1  0.707810  0.292190  0.064328  1
  Ag  Ag16  1  0.935672  0.292190  0.707810  1
  Ag  Ag17  1  0.435672  0.792190  0.564328  1
  Ag  Ag18  1  0.435672  0.207810  0.792190  1
  Ag  Ag19  1  0.792190  0.207810  0.564328  1
  Ag  Ag20  1  0.435672  0.564328  0.207810  1
  Ag  Ag21  1  0.207810  0.435672  0.564328  1
  Ag  Ag22  1  0.564328  0.207810  0.435672  1
  Ag  Ag23  1  0.292190  0.064328  0.707810  1
  Ag  Ag24  1  0.935672  0.707810  0.064328  1
  Ag  Ag25  1  0.707810  0.935672  0.292190  1
  Te  Te26  1  0.250000  0.250000  0.250000  1
  Te  Te27  1  0.750000  0.750000  0.750000  1
  O  O28  1  0.101992  0.398008  0.101992  1
  O  O29  1  0.101992  0.398008  0.398008  1
  O  O30  1  0.398008  0.101992  0.101992  1
  O  O31  1  0.398008  0.398008  0.101992  1
  O  O32  1  0.101992  0.101992  0.398008  1
  O  O33  1  0.398008  0.101992  0.398008  1
  O  O34  1  0.898008  0.601992  0.898008  1
  O  O35  1  0.898008  0.601992  0.601992  1
  O  O36  1  0.601992  0.898008  0.898008  1
  O  O37  1  0.601992  0.601992  0.898008  1
  O  O38  1  0.898008  0.898008  0.601992  1
  O  O39  1  0.601992  0.898008  0.601992  1
