# generated using pymatgen
data_LiHf2BRh5
_symmetry_space_group_name_H-M   'P 1'
_cell_length_a   5.76147860
_cell_length_b   5.63680285
_cell_length_c   5.63680335
_cell_angle_alpha   61.46880424
_cell_angle_beta   59.26560133
_cell_angle_gamma   59.26560633
_symmetry_Int_Tables_number   1
_chemical_formula_structural   LiHf2BRh5
_chemical_formula_sum   'Li1 Hf2 B1 Rh5'
_cell_volume   129.31530039
_cell_formula_units_Z   1
loop_
 _symmetry_equiv_pos_site_id
 _symmetry_equiv_pos_as_xyz
  1  'x, y, z'
loop_
 _atom_site_type_symbol
 _atom_site_label
 _atom_site_symmetry_multiplicity
 _atom_site_fract_x
 _atom_site_fract_y
 _atom_site_fract_z
 _atom_site_occupancy
  Li  Li0  1  0.772950  0.227050  0.227050  1
  Hf  Hf1  1  0.250247  0.249755  0.249755  1
  Hf  Hf2  1  0.750246  0.749754  0.749754  1
  B  B3  1  0.495389  0.504611  0.504611  1
  Rh  Rh4  1  0.245584  0.754416  0.247976  1
  Rh  Rh5  1  0.752024  0.754416  0.247976  1
  Rh  Rh6  1  0.245584  0.247976  0.754416  1
  Rh  Rh7  1  0.752024  0.247976  0.754416  1
  Rh  Rh8  1  0.235951  0.764049  0.764049  1
