# generated using pymatgen
data_Ho19Tm(Bi2P)4
_symmetry_space_group_name_H-M   'P 1'
_cell_length_a   7.95904604
_cell_length_b   8.97044002
_cell_length_c   12.07959205
_cell_angle_alpha   89.99728635
_cell_angle_beta   90.00958954
_cell_angle_gamma   89.99359666
_symmetry_Int_Tables_number   1
_chemical_formula_structural   Ho19Tm(Bi2P)4
_chemical_formula_sum   'Ho19 Tm1 Bi8 P4'
_cell_volume   862.43628793
_cell_formula_units_Z   1
loop_
 _symmetry_equiv_pos_site_id
 _symmetry_equiv_pos_as_xyz
  1  'x, y, z'
loop_
 _atom_site_type_symbol
 _atom_site_label
 _atom_site_symmetry_multiplicity
 _atom_site_fract_x
 _atom_site_fract_y
 _atom_site_fract_z
 _atom_site_occupancy
  Ho  Ho0  1  0.850904  0.750108  0.793852  1
  Ho  Ho1  1  0.148849  0.249808  0.205852  1
  Ho  Ho2  1  0.350770  0.249796  0.705831  1
  Ho  Ho3  1  0.648966  0.749803  0.294333  1
  Ho  Ho4  1  0.376478  0.749821  0.700191  1
  Ho  Ho5  1  0.623478  0.250079  0.299942  1
  Ho  Ho6  1  0.876408  0.249559  0.799270  1
  Ho  Ho7  1  0.123225  0.750046  0.200302  1
  Ho  Ho8  1  0.957394  0.750057  0.502090  1
  Ho  Ho9  1  0.041750  0.249927  0.498424  1
  Ho  Ho10  1  0.457950  0.249753  0.998006  1
  Ho  Ho11  1  0.542079  0.750141  0.001756  1
  Ho  Ho12  1  0.317216  0.948749  0.436538  1
  Ho  Ho13  1  0.182599  0.948607  0.936525  1
  Ho  Ho14  1  0.317963  0.551346  0.436541  1
  Ho  Ho15  1  0.817338  0.051343  0.063530  1
  Ho  Ho16  1  0.682362  0.448423  0.563282  1
  Ho  Ho17  1  0.817417  0.448461  0.063349  1
  Ho  Ho18  1  0.182669  0.551321  0.936565  1
  Tm  Tm19  1  0.681662  0.052817  0.563404  1
  Bi  Bi20  1  0.577502  0.490405  0.826669  1
  Bi  Bi21  1  0.422469  0.509430  0.173313  1
  Bi  Bi22  1  0.077409  0.509426  0.673329  1
  Bi  Bi23  1  0.422554  0.990421  0.173425  1
  Bi  Bi24  1  0.922509  0.490378  0.326784  1
  Bi  Bi25  1  0.577691  0.009447  0.826380  1
  Bi  Bi26  1  0.922504  0.009385  0.326865  1
  Bi  Bi27  1  0.077400  0.990304  0.673208  1
  P  P28  1  0.577281  0.751828  0.513881  1
  P  P29  1  0.425046  0.249037  0.486841  1
  P  P30  1  0.075897  0.249993  0.986401  1
  P  P31  1  0.924263  0.749982  0.013320  1
