# generated using pymatgen
data_TbEr6LuHf6O24
_symmetry_space_group_name_H-M   'P 1'
_cell_length_a   6.33053202
_cell_length_b   6.40458927
_cell_length_c   12.76310545
_cell_angle_alpha   99.10502919
_cell_angle_beta   99.35642178
_cell_angle_gamma   99.39487039
_symmetry_Int_Tables_number   1
_chemical_formula_structural   TbEr6LuHf6O24
_chemical_formula_sum   'Tb1 Er6 Lu1 Hf6 O24'
_cell_volume   494.58151268
_cell_formula_units_Z   1
loop_
 _symmetry_equiv_pos_site_id
 _symmetry_equiv_pos_as_xyz
  1  'x, y, z'
loop_
 _atom_site_type_symbol
 _atom_site_label
 _atom_site_symmetry_multiplicity
 _atom_site_fract_x
 _atom_site_fract_y
 _atom_site_fract_z
 _atom_site_occupancy
  Tb  Tb0  1  0.297312  0.610472  0.818163  1
  Er  Er1  1  0.388853  0.863876  0.594924  1
  Er  Er2  1  0.859498  0.693522  0.948013  1
  Er  Er3  1  0.311514  0.612148  0.318013  1
  Er  Er4  1  0.140376  0.306527  0.053705  1
  Er  Er5  1  0.703417  0.389449  0.182881  1
  Er  Er6  1  0.691156  0.387554  0.680950  1
  Lu  Lu7  1  0.610843  0.135788  0.403299  1
  Hf  Hf8  1  0.007647  0.006961  0.254114  1
  Hf  Hf9  1  0.392783  0.857906  0.094911  1
  Hf  Hf10  1  0.991702  0.993435  0.746268  1
  Hf  Hf11  1  0.853556  0.673170  0.446786  1
  Hf  Hf12  1  0.145353  0.324871  0.551028  1
  Hf  Hf13  1  0.607893  0.144646  0.908218  1
  O  O14  1  0.317569  0.969406  0.797908  1
  O  O15  1  0.075898  0.922518  0.096064  1
  O  O16  1  0.322005  0.949742  0.287908  1
  O  O17  1  0.030648  0.886041  0.589286  1
  O  O18  1  0.569485  0.834263  0.964999  1
  O  O19  1  0.590907  0.821184  0.460206  1
  O  O20  1  0.186239  0.596264  0.972898  1
  O  O21  1  0.925382  0.682876  0.778492  1
  O  O22  1  0.429161  0.585919  0.158964  1
  O  O23  1  0.171686  0.574616  0.464081  1
  O  O24  1  0.924432  0.696813  0.292897  1
  O  O25  1  0.576000  0.414147  0.842053  1
  O  O26  1  0.406751  0.563821  0.654921  1
  O  O27  1  0.073466  0.317898  0.222422  1
  O  O28  1  0.812951  0.405216  0.030570  1
  O  O29  1  0.593763  0.431138  0.343562  1
  O  O30  1  0.072570  0.300859  0.704529  1
  O  O31  1  0.826755  0.422191  0.533439  1
  O  O32  1  0.432395  0.168266  0.038109  1
  O  O33  1  0.409469  0.180013  0.534502  1
  O  O34  1  0.923736  0.080838  0.904493  1
  O  O35  1  0.682938  0.035251  0.204046  1
  O  O36  1  0.964754  0.108777  0.410829  1
  O  O37  1  0.679138  0.051617  0.711545  1
