# generated using pymatgen
data_Cs4BiSb3Pt2
_symmetry_space_group_name_H-M   'P 1'
_cell_length_a   8.52541592
_cell_length_b   8.47232000
_cell_length_c   7.14049500
_cell_angle_alpha   90.00000000
_cell_angle_beta   90.00000000
_cell_angle_gamma   125.93729288
_symmetry_Int_Tables_number   1
_chemical_formula_structural   Cs4BiSb3Pt2
_chemical_formula_sum   'Cs4 Bi1 Sb3 Pt2'
_cell_volume   417.58878610
_cell_formula_units_Z   1
loop_
 _symmetry_equiv_pos_site_id
 _symmetry_equiv_pos_as_xyz
  1  'x, y, z'
loop_
 _atom_site_type_symbol
 _atom_site_label
 _atom_site_symmetry_multiplicity
 _atom_site_fract_x
 _atom_site_fract_y
 _atom_site_fract_z
 _atom_site_occupancy
  Cs  Cs0  1  0.598011  0.390502  0.750000  1
  Cs  Cs1  1  0.393133  0.593340  0.250000  1
  Cs  Cs2  1  0.187734  0.797538  0.750000  1
  Cs  Cs3  1  0.805166  0.200281  0.250000  1
  Bi  Bi4  1  0.711261  0.907101  0.750000  1
  Sb  Sb5  1  0.907357  0.722765  0.250000  1
  Sb  Sb6  1  0.281098  0.083011  0.250000  1
  Sb  Sb7  1  0.091882  0.282539  0.750000  1
  Pt  Pt8  1  0.012179  0.011462  0.001672  1
  Pt  Pt9  1  0.012179  0.011462  0.498328  1
