# generated using pymatgen
data_Tm3Al9Fe3Si3Ru
_symmetry_space_group_name_H-M   'P 1'
_cell_length_a   8.52686240
_cell_length_b   8.52686223
_cell_length_c   9.33554600
_cell_angle_alpha   90.00000000
_cell_angle_beta   90.00000000
_cell_angle_gamma   120.28174083
_symmetry_Int_Tables_number   1
_chemical_formula_structural   Tm3Al9Fe3Si3Ru
_chemical_formula_sum   'Tm6 Al18 Fe6 Si6 Ru2'
_cell_volume   586.15014436
_cell_formula_units_Z   2
loop_
 _symmetry_equiv_pos_site_id
 _symmetry_equiv_pos_as_xyz
  1  'x, y, z'
loop_
 _atom_site_type_symbol
 _atom_site_label
 _atom_site_symmetry_multiplicity
 _atom_site_fract_x
 _atom_site_fract_y
 _atom_site_fract_z
 _atom_site_occupancy
  Tm  Tm0  1  0.806389  0.193611  0.750000  1
  Tm  Tm1  1  0.193611  0.806389  0.250000  1
  Tm  Tm2  1  0.392933  0.198049  0.750000  1
  Tm  Tm3  1  0.607067  0.801951  0.250000  1
  Tm  Tm4  1  0.801951  0.607067  0.750000  1
  Tm  Tm5  1  0.198049  0.392933  0.250000  1
  Al  Al6  1  0.836541  0.163459  0.423941  1
  Al  Al7  1  0.163459  0.836541  0.576059  1
  Al  Al8  1  0.325660  0.157659  0.424602  1
  Al  Al9  1  0.163459  0.836541  0.923941  1
  Al  Al10  1  0.674340  0.842341  0.575398  1
  Al  Al11  1  0.836541  0.163459  0.076059  1
  Al  Al12  1  0.842341  0.674340  0.424602  1
  Al  Al13  1  0.674340  0.842341  0.924602  1
  Al  Al14  1  0.157659  0.325660  0.575398  1
  Al  Al15  1  0.325660  0.157659  0.075398  1
  Al  Al16  1  0.157659  0.325660  0.924602  1
  Al  Al17  1  0.842341  0.674340  0.075398  1
  Al  Al18  1  0.122430  0.558927  0.750000  1
  Al  Al19  1  0.877570  0.441073  0.250000  1
  Al  Al20  1  0.441073  0.877570  0.750000  1
  Al  Al21  1  0.558927  0.122430  0.250000  1
  Al  Al22  1  0.000385  0.999615  0.750000  1
  Al  Al23  1  0.999615  0.000385  0.250000  1
  Fe  Fe24  1  0.000000  0.500000  0.000000  1
  Fe  Fe25  1  0.500000  0.000000  0.000000  1
  Fe  Fe26  1  0.000000  0.500000  0.500000  1
  Fe  Fe27  1  0.500000  0.000000  0.500000  1
  Fe  Fe28  1  0.000000  0.000000  0.000000  1
  Fe  Fe29  1  0.000000  0.000000  0.500000  1
  Si  Si30  1  0.672026  0.327974  0.965684  1
  Si  Si31  1  0.327974  0.672026  0.034316  1
  Si  Si32  1  0.327974  0.672026  0.465684  1
  Si  Si33  1  0.672026  0.327974  0.534316  1
  Si  Si34  1  0.436532  0.563468  0.750000  1
  Si  Si35  1  0.563468  0.436532  0.250000  1
  Ru  Ru36  1  0.500000  0.500000  0.000000  1
  Ru  Ru37  1  0.500000  0.500000  0.500000  1
