# generated using pymatgen
data_Pr2Al2NiRh
_symmetry_space_group_name_H-M   'P 1'
_cell_length_a   4.37633300
_cell_length_b   7.01138338
_cell_length_c   7.96090779
_cell_angle_alpha   88.83207778
_cell_angle_beta   90.00000000
_cell_angle_gamma   90.00000000
_symmetry_Int_Tables_number   1
_chemical_formula_structural   Pr2Al2NiRh
_chemical_formula_sum   'Pr4 Al4 Ni2 Rh2'
_cell_volume   244.22292912
_cell_formula_units_Z   2
loop_
 _symmetry_equiv_pos_site_id
 _symmetry_equiv_pos_as_xyz
  1  'x, y, z'
loop_
 _atom_site_type_symbol
 _atom_site_label
 _atom_site_symmetry_multiplicity
 _atom_site_fract_x
 _atom_site_fract_y
 _atom_site_fract_z
 _atom_site_occupancy
  Pr  Pr0  1  0.250000  0.538683  0.174538  1
  Pr  Pr1  1  0.750000  0.461317  0.825462  1
  Pr  Pr2  1  0.750000  0.961008  0.680985  1
  Pr  Pr3  1  0.250000  0.038992  0.319015  1
  Al  Al4  1  0.250000  0.634519  0.562862  1
  Al  Al5  1  0.750000  0.365481  0.437138  1
  Al  Al6  1  0.750000  0.865031  0.059969  1
  Al  Al7  1  0.250000  0.134969  0.940031  1
  Ni  Ni8  1  0.250000  0.782000  0.882932  1
  Ni  Ni9  1  0.750000  0.218000  0.117068  1
  Rh  Rh10  1  0.750000  0.727793  0.383480  1
  Rh  Rh11  1  0.250000  0.272207  0.616520  1
