# generated using pymatgen
data_Na3Sn4PbAu4
_symmetry_space_group_name_H-M   'P 1'
_cell_length_a   4.74253700
_cell_length_b   7.61431755
_cell_length_c   8.26335008
_cell_angle_alpha   91.58085869
_cell_angle_beta   90.00000000
_cell_angle_gamma   90.00000000
_symmetry_Int_Tables_number   1
_chemical_formula_structural   Na3Sn4PbAu4
_chemical_formula_sum   'Na3 Sn4 Pb1 Au4'
_cell_volume   298.28576992
_cell_formula_units_Z   1
loop_
 _symmetry_equiv_pos_site_id
 _symmetry_equiv_pos_as_xyz
  1  'x, y, z'
loop_
 _atom_site_type_symbol
 _atom_site_label
 _atom_site_symmetry_multiplicity
 _atom_site_fract_x
 _atom_site_fract_y
 _atom_site_fract_z
 _atom_site_occupancy
  Na  Na0  1  0.250000  0.515217  0.682725  1
  Na  Na1  1  0.750000  0.480683  0.318299  1
  Na  Na2  1  0.750000  0.990063  0.185646  1
  Sn  Sn3  1  0.250000  0.666113  0.075597  1
  Sn  Sn4  1  0.250000  0.175603  0.425140  1
  Sn  Sn5  1  0.750000  0.824937  0.572939  1
  Sn  Sn6  1  0.750000  0.336634  0.927063  1
  Pb  Pb7  1  0.250000  0.006085  0.814237  1
  Au  Au8  1  0.750000  0.708552  0.893480  1
  Au  Au9  1  0.250000  0.292236  0.108131  1
  Au  Au10  1  0.250000  0.794288  0.392954  1
  Au  Au11  1  0.750000  0.209590  0.603790  1
