# generated using pymatgen
data_Yb5TlCu2
_symmetry_space_group_name_H-M   'P 1'
_cell_length_a   9.03918727
_cell_length_b   9.03918691
_cell_length_c   9.03918671
_cell_angle_alpha   128.77024660
_cell_angle_beta   128.77024555
_cell_angle_gamma   75.38053849
_symmetry_Int_Tables_number   1
_chemical_formula_structural   Yb5TlCu2
_chemical_formula_sum   'Yb10 Tl2 Cu4'
_cell_volume   436.93289154
_cell_formula_units_Z   2
loop_
 _symmetry_equiv_pos_site_id
 _symmetry_equiv_pos_as_xyz
  1  'x, y, z'
loop_
 _atom_site_type_symbol
 _atom_site_label
 _atom_site_symmetry_multiplicity
 _atom_site_fract_x
 _atom_site_fract_y
 _atom_site_fract_z
 _atom_site_occupancy
  Yb  Yb0  1  0.500000  0.500000  0.000000  1
  Yb  Yb1  1  0.000000  0.000000  0.000000  1
  Yb  Yb2  1  0.531115  0.031115  0.835969  1
  Yb  Yb3  1  0.195146  0.695146  0.164031  1
  Yb  Yb4  1  0.031115  0.195146  0.500000  1
  Yb  Yb5  1  0.695146  0.531115  0.500000  1
  Yb  Yb6  1  0.468885  0.968885  0.164031  1
  Yb  Yb7  1  0.804854  0.304854  0.835969  1
  Yb  Yb8  1  0.968885  0.804854  0.500000  1
  Yb  Yb9  1  0.304854  0.468885  0.500000  1
  Tl  Tl10  1  0.250000  0.250000  0.000000  1
  Tl  Tl11  1  0.750000  0.750000  0.000000  1
  Cu  Cu12  1  0.117138  0.617138  0.734276  1
  Cu  Cu13  1  0.882862  0.382862  0.265724  1
  Cu  Cu14  1  0.617138  0.882862  0.500000  1
  Cu  Cu15  1  0.382862  0.117138  0.500000  1
