# generated using pymatgen
data_Nd3Th(AgAs2)4
_symmetry_space_group_name_H-M   'P 1'
_cell_length_a   4.08861200
_cell_length_b   4.10024184
_cell_length_c   21.06856627
_cell_angle_alpha   89.67277095
_cell_angle_beta   90.00000000
_cell_angle_gamma   90.00000000
_symmetry_Int_Tables_number   1
_chemical_formula_structural   Nd3Th(AgAs2)4
_chemical_formula_sum   'Nd3 Th1 Ag4 As8'
_cell_volume   353.19396294
_cell_formula_units_Z   1
loop_
 _symmetry_equiv_pos_site_id
 _symmetry_equiv_pos_as_xyz
  1  'x, y, z'
loop_
 _atom_site_type_symbol
 _atom_site_label
 _atom_site_symmetry_multiplicity
 _atom_site_fract_x
 _atom_site_fract_y
 _atom_site_fract_z
 _atom_site_occupancy
  Nd  Nd0  1  0.750000  0.231752  0.385995  1
  Nd  Nd1  1  0.250000  0.767783  0.616077  1
  Nd  Nd2  1  0.750000  0.260145  0.886701  1
  Th  Th3  1  0.250000  0.741104  0.110774  1
  Ag  Ag4  1  0.750000  0.729940  0.249400  1
  Ag  Ag5  1  0.250000  0.229410  0.249399  1
  Ag  Ag6  1  0.750000  0.770439  0.751235  1
  Ag  Ag7  1  0.250000  0.270546  0.751323  1
  As  As8  1  0.750000  0.240294  0.156163  1
  As  As9  1  0.250000  0.731228  0.338137  1
  As  As10  1  0.750000  0.268160  0.661042  1
  As  As11  1  0.250000  0.763029  0.841245  1
  As  As12  1  0.250000  0.246725  0.001213  1
  As  As13  1  0.750000  0.721436  0.499500  1
  As  As14  1  0.250000  0.278195  0.500709  1
  As  As15  1  0.750000  0.749814  0.001087  1
