# generated using pymatgen
data_Tm4GeRh3F28
_symmetry_space_group_name_H-M   'P 1'
_cell_length_a   5.45353293
_cell_length_b   8.75863828
_cell_length_c   11.79387300
_cell_angle_alpha   62.38591780
_cell_angle_beta   90.09130922
_cell_angle_gamma   90.04587517
_symmetry_Int_Tables_number   1
_chemical_formula_structural   Tm4GeRh3F28
_chemical_formula_sum   'Tm4 Ge1 Rh3 F28'
_cell_volume   499.16957282
_cell_formula_units_Z   1
loop_
 _symmetry_equiv_pos_site_id
 _symmetry_equiv_pos_as_xyz
  1  'x, y, z'
loop_
 _atom_site_type_symbol
 _atom_site_label
 _atom_site_symmetry_multiplicity
 _atom_site_fract_x
 _atom_site_fract_y
 _atom_site_fract_z
 _atom_site_occupancy
  Tm  Tm0  1  0.259889  0.813669  0.262626  1
  Tm  Tm1  1  0.738028  0.181684  0.738222  1
  Tm  Tm2  1  0.761631  0.190343  0.232700  1
  Tm  Tm3  1  0.238044  0.812301  0.767781  1
  Ge  Ge4  1  0.758752  0.725952  0.043872  1
  Rh  Rh5  1  0.242551  0.273288  0.956408  1
  Rh  Rh6  1  0.258874  0.272923  0.456899  1
  Rh  Rh7  1  0.740415  0.726213  0.544190  1
  F  F8  1  0.935446  0.705103  0.413472  1
  F  F9  1  0.059687  0.295781  0.584473  1
  F  F10  1  0.438087  0.296579  0.084880  1
  F  F11  1  0.555327  0.707823  0.927491  1
  F  F12  1  0.495304  0.731244  0.138533  1
  F  F13  1  0.539449  0.269720  0.864691  1
  F  F14  1  0.965111  0.272345  0.361721  1
  F  F15  1  0.035365  0.726588  0.638291  1
  F  F16  1  0.959478  0.743902  0.163569  1
  F  F17  1  0.049463  0.254226  0.824332  1
  F  F18  1  0.453326  0.253711  0.324961  1
  F  F19  1  0.549304  0.746288  0.677756  1
  F  F20  1  0.772683  0.491908  0.136188  1
  F  F21  1  0.231319  0.521675  0.858479  1
  F  F22  1  0.272333  0.522406  0.357250  1
  F  F23  1  0.725247  0.478124  0.641775  1
  F  F24  1  0.938044  0.281024  0.043044  1
  F  F25  1  0.035632  0.718530  0.955992  1
  F  F26  1  0.437717  0.722812  0.454941  1
  F  F27  1  0.560905  0.277794  0.545731  1
  F  F28  1  0.743976  0.973376  0.449805  1
  F  F29  1  0.257984  0.024588  0.551392  1
  F  F30  1  0.243814  0.025326  0.050251  1
  F  F31  1  0.760956  0.960655  0.951292  1
  F  F32  1  0.580474  0.974209  0.231473  1
  F  F33  1  0.410833  0.029268  0.769883  1
  F  F34  1  0.079941  0.027863  0.266768  1
  F  F35  1  0.914613  0.970758  0.728871  1
