# generated using pymatgen
data_GdTaB6W
_symmetry_space_group_name_H-M   'P 1'
_cell_length_a   3.58228800
_cell_length_b   8.98688900
_cell_length_c   11.38775400
_cell_angle_alpha   90.00000000
_cell_angle_beta   90.00000000
_cell_angle_gamma   90.00000000
_symmetry_Int_Tables_number   1
_chemical_formula_structural   GdTaB6W
_chemical_formula_sum   'Gd4 Ta4 B24 W4'
_cell_volume   366.61307756
_cell_formula_units_Z   4
loop_
 _symmetry_equiv_pos_site_id
 _symmetry_equiv_pos_as_xyz
  1  'x, y, z'
loop_
 _atom_site_type_symbol
 _atom_site_label
 _atom_site_symmetry_multiplicity
 _atom_site_fract_x
 _atom_site_fract_y
 _atom_site_fract_z
 _atom_site_occupancy
  Gd  Gd0  1  0.000000  0.322253  0.414191  1
  Gd  Gd1  1  0.000000  0.677747  0.585809  1
  Gd  Gd2  1  0.000000  0.822253  0.085809  1
  Gd  Gd3  1  0.000000  0.177747  0.914191  1
  Ta  Ta4  1  0.000000  0.946965  0.374101  1
  Ta  Ta5  1  0.000000  0.053035  0.625899  1
  Ta  Ta6  1  0.000000  0.446965  0.125899  1
  Ta  Ta7  1  0.000000  0.553035  0.874101  1
  B  B8  1  0.500000  0.554578  0.432813  1
  B  B9  1  0.500000  0.445422  0.567187  1
  B  B10  1  0.500000  0.054578  0.067187  1
  B  B11  1  0.500000  0.945422  0.932813  1
  B  B12  1  0.500000  0.757314  0.418079  1
  B  B13  1  0.500000  0.242686  0.581921  1
  B  B14  1  0.500000  0.257314  0.081921  1
  B  B15  1  0.500000  0.742686  0.918079  1
  B  B16  1  0.500000  0.798828  0.263644  1
  B  B17  1  0.500000  0.201172  0.736356  1
  B  B18  1  0.500000  0.298828  0.236356  1
  B  B19  1  0.500000  0.701172  0.763644  1
  B  B20  1  0.500000  0.630072  0.180231  1
  B  B21  1  0.500000  0.369928  0.819769  1
  B  B22  1  0.500000  0.130072  0.319769  1
  B  B23  1  0.500000  0.869928  0.680231  1
  B  B24  1  0.500000  0.981623  0.215127  1
  B  B25  1  0.500000  0.018377  0.784873  1
  B  B26  1  0.500000  0.481623  0.284873  1
  B  B27  1  0.500000  0.518377  0.715127  1
  B  B28  1  0.500000  0.597723  0.025481  1
  B  B29  1  0.500000  0.402277  0.974519  1
  B  B30  1  0.500000  0.097723  0.474519  1
  B  B31  1  0.500000  0.902277  0.525481  1
  W  W32  1  0.000000  0.644007  0.315719  1
  W  W33  1  0.000000  0.355993  0.684281  1
  W  W34  1  0.000000  0.144007  0.184281  1
  W  W35  1  0.000000  0.855993  0.815719  1
