# generated using pymatgen
data_NdPu3(NbN2)4
_symmetry_space_group_name_H-M   'P 1'
_cell_length_a   3.32531400
_cell_length_b   5.71885181
_cell_length_c   11.01752207
_cell_angle_alpha   89.90806593
_cell_angle_beta   90.00000000
_cell_angle_gamma   90.00000000
_symmetry_Int_Tables_number   1
_chemical_formula_structural   NdPu3(NbN2)4
_chemical_formula_sum   'Nd1 Pu3 Nb4 N8'
_cell_volume   209.51970505
_cell_formula_units_Z   1
loop_
 _symmetry_equiv_pos_site_id
 _symmetry_equiv_pos_as_xyz
  1  'x, y, z'
loop_
 _atom_site_type_symbol
 _atom_site_label
 _atom_site_symmetry_multiplicity
 _atom_site_fract_x
 _atom_site_fract_y
 _atom_site_fract_z
 _atom_site_occupancy
  Nd  Nd0  1  0.250000  0.582767  0.857446  1
  Pu  Pu1  1  0.750000  0.421417  0.142244  1
  Pu  Pu2  1  0.750000  0.920908  0.360366  1
  Pu  Pu3  1  0.250000  0.079117  0.638956  1
  Nb  Nb4  1  0.250000  0.919303  0.106308  1
  Nb  Nb5  1  0.750000  0.082103  0.896102  1
  Nb  Nb6  1  0.750000  0.580187  0.601293  1
  Nb  Nb7  1  0.250000  0.418418  0.397571  1
  N  N8  1  0.250000  0.655528  0.245610  1
  N  N9  1  0.750000  0.332435  0.749185  1
  N  N10  1  0.750000  0.847501  0.741395  1
  N  N11  1  0.250000  0.156283  0.257217  1
  N  N12  1  0.250000  0.753737  0.505851  1
  N  N13  1  0.750000  0.245612  0.491875  1
  N  N14  1  0.750000  0.760463  0.012812  1
  N  N15  1  0.250000  0.244223  0.995771  1
