# generated using pymatgen
data_Tm4Sc6InSb5
_symmetry_space_group_name_H-M   'P 1'
_cell_length_a   8.70135300
_cell_length_b   8.60990847
_cell_length_c   6.08057300
_cell_angle_alpha   90.00000000
_cell_angle_beta   90.00000000
_cell_angle_gamma   120.35194960
_symmetry_Int_Tables_number   1
_chemical_formula_structural   Tm4Sc6InSb5
_chemical_formula_sum   'Tm4 Sc6 In1 Sb5'
_cell_volume   393.10565781
_cell_formula_units_Z   1
loop_
 _symmetry_equiv_pos_site_id
 _symmetry_equiv_pos_as_xyz
  1  'x, y, z'
loop_
 _atom_site_type_symbol
 _atom_site_label
 _atom_site_symmetry_multiplicity
 _atom_site_fract_x
 _atom_site_fract_y
 _atom_site_fract_z
 _atom_site_occupancy
  Tm  Tm0  1  0.995940  0.237990  0.250000  1
  Tm  Tm1  1  0.757950  0.762010  0.250000  1
  Tm  Tm2  1  0.242618  0.239779  0.750000  1
  Tm  Tm3  1  0.002839  0.760221  0.750000  1
  Sc  Sc4  1  0.333011  0.665979  0.999324  1
  Sc  Sc5  1  0.667033  0.334021  0.500676  1
  Sc  Sc6  1  0.667033  0.334021  0.999324  1
  Sc  Sc7  1  0.333011  0.665979  0.500676  1
  Sc  Sc8  1  0.245827  0.000000  0.250000  1
  Sc  Sc9  1  0.755027  0.000000  0.750000  1
  In  In10  1  0.597765  0.000000  0.250000  1
  Sb  Sb11  1  0.401005  0.000000  0.750000  1
  Sb  Sb12  1  0.003665  0.610798  0.250000  1
  Sb  Sb13  1  0.392866  0.389202  0.250000  1
  Sb  Sb14  1  0.607495  0.610582  0.750000  1
  Sb  Sb15  1  0.996914  0.389418  0.750000  1
