# generated using pymatgen
data_CeCd2Ag3
_symmetry_space_group_name_H-M   'P 1'
_cell_length_a   5.76297410
_cell_length_b   5.76297427
_cell_length_c   5.70599099
_cell_angle_alpha   59.66909164
_cell_angle_beta   59.66909259
_cell_angle_gamma   60.00000466
_symmetry_Int_Tables_number   1
_chemical_formula_structural   CeCd2Ag3
_chemical_formula_sum   'Ce1 Cd2 Ag3'
_cell_volume   133.32728747
_cell_formula_units_Z   1
loop_
 _symmetry_equiv_pos_site_id
 _symmetry_equiv_pos_as_xyz
  1  'x, y, z'
loop_
 _atom_site_type_symbol
 _atom_site_label
 _atom_site_symmetry_multiplicity
 _atom_site_fract_x
 _atom_site_fract_y
 _atom_site_fract_z
 _atom_site_occupancy
  Ce  Ce0  1  0.001855  0.001855  0.994435  1
  Cd  Cd1  1  0.251014  0.251014  0.246958  1
  Cd  Cd2  1  0.623164  0.623164  0.130508  1
  Ag  Ag3  1  0.623870  0.126227  0.626034  1
  Ag  Ag4  1  0.126227  0.623870  0.626034  1
  Ag  Ag5  1  0.623870  0.623870  0.626034  1
