# generated using pymatgen
data_CsRbHf4Br18
_symmetry_space_group_name_H-M   'P 1'
_cell_length_a   7.26785600
_cell_length_b   10.54736258
_cell_length_c   13.65857422
_cell_angle_alpha   65.47978136
_cell_angle_beta   90.00000000
_cell_angle_gamma   90.00000000
_symmetry_Int_Tables_number   1
_chemical_formula_structural   CsRbHf4Br18
_chemical_formula_sum   'Cs1 Rb1 Hf4 Br18'
_cell_volume   952.59564186
_cell_formula_units_Z   1
loop_
 _symmetry_equiv_pos_site_id
 _symmetry_equiv_pos_as_xyz
  1  'x, y, z'
loop_
 _atom_site_type_symbol
 _atom_site_label
 _atom_site_symmetry_multiplicity
 _atom_site_fract_x
 _atom_site_fract_y
 _atom_site_fract_z
 _atom_site_occupancy
  Cs  Cs0  1  0.587928  0.500000  0.750000  1
  Rb  Rb1  1  0.412455  0.500000  0.250000  1
  Hf  Hf2  1  0.260344  0.825839  0.865004  1
  Hf  Hf3  1  0.739400  0.174098  0.136207  1
  Hf  Hf4  1  0.260344  0.174161  0.634996  1
  Hf  Hf5  1  0.739400  0.825902  0.363793  1
  Br  Br6  1  0.114329  0.788377  0.041632  1
  Br  Br7  1  0.889222  0.208015  0.961313  1
  Br  Br8  1  0.114329  0.211623  0.458368  1
  Br  Br9  1  0.889222  0.791985  0.538687  1
  Br  Br10  1  0.116094  0.621113  0.842621  1
  Br  Br11  1  0.881319  0.379893  0.158172  1
  Br  Br12  1  0.116094  0.378887  0.657379  1
  Br  Br13  1  0.881319  0.620107  0.341828  1
  Br  Br14  1  0.982277  0.000000  0.750000  1
  Br  Br15  1  0.017793  0.000000  0.250000  1
  Br  Br16  1  0.402909  0.078433  0.841365  1
  Br  Br17  1  0.596831  0.921620  0.158328  1
  Br  Br18  1  0.402909  0.921567  0.658635  1
  Br  Br19  1  0.596831  0.078380  0.341672  1
  Br  Br20  1  0.565759  0.709453  0.940919  1
  Br  Br21  1  0.433568  0.291348  0.061903  1
  Br  Br22  1  0.565759  0.290547  0.559081  1
  Br  Br23  1  0.433568  0.708652  0.438097  1
