# generated using pymatgen
data_Tb3Sm2HoTa2O14
_symmetry_space_group_name_H-M   'P 1'
_cell_length_a   6.53405620
_cell_length_b   6.54064491
_cell_length_c   7.53913402
_cell_angle_alpha   89.97293063
_cell_angle_beta   89.98876873
_cell_angle_gamma   108.63154854
_symmetry_Int_Tables_number   1
_chemical_formula_structural   Tb3Sm2HoTa2O14
_chemical_formula_sum   'Tb3 Sm2 Ho1 Ta2 O14'
_cell_volume   305.31384756
_cell_formula_units_Z   1
loop_
 _symmetry_equiv_pos_site_id
 _symmetry_equiv_pos_as_xyz
  1  'x, y, z'
loop_
 _atom_site_type_symbol
 _atom_site_label
 _atom_site_symmetry_multiplicity
 _atom_site_fract_x
 _atom_site_fract_y
 _atom_site_fract_z
 _atom_site_occupancy
  Tb  Tb0  1  0.999920  0.535274  0.241508  1
  Tb  Tb1  1  0.999911  0.465089  0.741489  1
  Tb  Tb2  1  0.534754  0.999816  0.758315  1
  Sm  Sm3  1  0.530382  0.531244  0.499349  1
  Sm  Sm4  1  0.468567  0.467099  0.000207  1
  Ho  Ho5  1  0.465796  0.999489  0.258484  1
  Ta  Ta6  1  0.002149  0.002252  0.499383  1
  Ta  Ta7  1  0.997624  0.998036  0.000300  1
  O  O8  1  0.933658  0.064748  0.749895  1
  O  O9  1  0.067077  0.933990  0.249953  1
  O  O10  1  0.358986  0.644160  0.249394  1
  O  O11  1  0.640749  0.358280  0.749922  1
  O  O12  1  0.368068  0.632371  0.750136  1
  O  O13  1  0.630382  0.364490  0.250800  1
  O  O14  1  0.326311  0.078061  0.977106  1
  O  O15  1  0.674493  0.922697  0.473415  1
  O  O16  1  0.307707  0.049890  0.541990  1
  O  O17  1  0.693860  0.952174  0.046052  1
  O  O18  1  0.053056  0.308182  0.457157  1
  O  O19  1  0.946885  0.692345  0.957083  1
  O  O20  1  0.920004  0.674191  0.524134  1
  O  O21  1  0.079661  0.326125  0.023928  1
