# generated using pymatgen
data_Rb2AcSmTe4
_symmetry_space_group_name_H-M   'P 1'
_cell_length_a   4.73537200
_cell_length_b   4.73537148
_cell_length_c   17.48738300
_cell_angle_alpha   90.00000000
_cell_angle_beta   90.00000000
_cell_angle_gamma   119.99997571
_symmetry_Int_Tables_number   1
_chemical_formula_structural   Rb2AcSmTe4
_chemical_formula_sum   'Rb2 Ac1 Sm1 Te4'
_cell_volume   339.59689886
_cell_formula_units_Z   1
loop_
 _symmetry_equiv_pos_site_id
 _symmetry_equiv_pos_as_xyz
  1  'x, y, z'
loop_
 _atom_site_type_symbol
 _atom_site_label
 _atom_site_symmetry_multiplicity
 _atom_site_fract_x
 _atom_site_fract_y
 _atom_site_fract_z
 _atom_site_occupancy
  Rb  Rb0  1  0.333333  0.666667  0.256318  1
  Rb  Rb1  1  0.666667  0.333333  0.743682  1
  Ac  Ac2  1  0.000000  0.000000  0.000000  1
  Sm  Sm3  1  0.000000  0.000000  0.500000  1
  Te  Te4  1  0.333333  0.666667  0.596122  1
  Te  Te5  1  0.666667  0.333333  0.109944  1
  Te  Te6  1  0.666667  0.333333  0.403878  1
  Te  Te7  1  0.333333  0.666667  0.890056  1
