# generated using pymatgen
data_Ho2Ga2FeNi5B2
_symmetry_space_group_name_H-M   'P 1'
_cell_length_a   5.18175929
_cell_length_b   5.11189481
_cell_length_c   6.74335200
_cell_angle_alpha   90.00000000
_cell_angle_beta   90.00000000
_cell_angle_gamma   119.55499304
_symmetry_Int_Tables_number   1
_chemical_formula_structural   Ho2Ga2FeNi5B2
_chemical_formula_sum   'Ho2 Ga2 Fe1 Ni5 B2'
_cell_volume   155.38018999
_cell_formula_units_Z   1
loop_
 _symmetry_equiv_pos_site_id
 _symmetry_equiv_pos_as_xyz
  1  'x, y, z'
loop_
 _atom_site_type_symbol
 _atom_site_label
 _atom_site_symmetry_multiplicity
 _atom_site_fract_x
 _atom_site_fract_y
 _atom_site_fract_z
 _atom_site_occupancy
  Ho  Ho0  1  0.000000  0.000000  0.479176  1
  Ho  Ho1  1  0.000000  0.000000  0.993166  1
  Ga  Ga2  1  0.330784  0.665392  0.503080  1
  Ga  Ga3  1  0.669216  0.334608  0.503080  1
  Fe  Fe4  1  0.000000  0.500000  0.205026  1
  Ni  Ni5  1  0.500000  0.000000  0.797394  1
  Ni  Ni6  1  0.500000  0.500000  0.797394  1
  Ni  Ni7  1  0.000000  0.500000  0.800654  1
  Ni  Ni8  1  0.500000  0.000000  0.205555  1
  Ni  Ni9  1  0.500000  0.500000  0.205555  1
  B  B10  1  0.324325  0.662163  0.004959  1
  B  B11  1  0.675675  0.337837  0.004959  1
