# generated using pymatgen
data_Lu5(Al2Ni)2
_symmetry_space_group_name_H-M   'P 1'
_cell_length_a   3.44436800
_cell_length_b   7.60814100
_cell_length_c   16.98875600
_cell_angle_alpha   90.00000000
_cell_angle_beta   90.00000000
_cell_angle_gamma   90.00000000
_symmetry_Int_Tables_number   1
_chemical_formula_structural   Lu5(Al2Ni)2
_chemical_formula_sum   'Lu10 Al8 Ni4'
_cell_volume   445.19438411
_cell_formula_units_Z   2
loop_
 _symmetry_equiv_pos_site_id
 _symmetry_equiv_pos_as_xyz
  1  'x, y, z'
loop_
 _atom_site_type_symbol
 _atom_site_label
 _atom_site_symmetry_multiplicity
 _atom_site_fract_x
 _atom_site_fract_y
 _atom_site_fract_z
 _atom_site_occupancy
  Lu  Lu0  1  0.000000  0.500000  0.500000  1
  Lu  Lu1  1  0.000000  0.000000  0.000000  1
  Lu  Lu2  1  0.000000  0.743093  0.278892  1
  Lu  Lu3  1  0.000000  0.256907  0.721108  1
  Lu  Lu4  1  0.000000  0.756907  0.778892  1
  Lu  Lu5  1  0.000000  0.243093  0.221108  1
  Lu  Lu6  1  0.000000  0.617711  0.084326  1
  Lu  Lu7  1  0.000000  0.382289  0.915674  1
  Lu  Lu8  1  0.000000  0.882289  0.584326  1
  Lu  Lu9  1  0.000000  0.117711  0.415674  1
  Al  Al10  1  0.500000  0.707846  0.928226  1
  Al  Al11  1  0.500000  0.292154  0.071774  1
  Al  Al12  1  0.500000  0.792154  0.428226  1
  Al  Al13  1  0.500000  0.207846  0.571774  1
  Al  Al14  1  0.500000  0.569291  0.651899  1
  Al  Al15  1  0.500000  0.430709  0.348101  1
  Al  Al16  1  0.500000  0.930709  0.151899  1
  Al  Al17  1  0.500000  0.069291  0.848101  1
  Ni  Ni18  1  0.500000  0.519331  0.196240  1
  Ni  Ni19  1  0.500000  0.480669  0.803760  1
  Ni  Ni20  1  0.500000  0.980669  0.696240  1
  Ni  Ni21  1  0.500000  0.019331  0.303760  1
