# generated using pymatgen
data_NdNiHgPt3
_symmetry_space_group_name_H-M   'P 1'
_cell_length_a   5.44998480
_cell_length_b   5.44998444
_cell_length_c   5.26392835
_cell_angle_alpha   58.82372438
_cell_angle_beta   58.82372532
_cell_angle_gamma   60.00001190
_symmetry_Int_Tables_number   1
_chemical_formula_structural   NdNiHgPt3
_chemical_formula_sum   'Nd1 Ni1 Hg1 Pt3'
_cell_volume   108.55024026
_cell_formula_units_Z   1
loop_
 _symmetry_equiv_pos_site_id
 _symmetry_equiv_pos_as_xyz
  1  'x, y, z'
loop_
 _atom_site_type_symbol
 _atom_site_label
 _atom_site_symmetry_multiplicity
 _atom_site_fract_x
 _atom_site_fract_y
 _atom_site_fract_z
 _atom_site_occupancy
  Nd  Nd0  1  0.249746  0.249746  0.250762  1
  Ni  Ni1  1  0.626441  0.626441  0.120676  1
  Hg  Hg2  1  0.997435  0.997435  0.007697  1
  Pt  Pt3  1  0.626331  0.123716  0.623622  1
  Pt  Pt4  1  0.626331  0.626331  0.623622  1
  Pt  Pt5  1  0.123716  0.626331  0.623622  1
