# generated using pymatgen
data_Rb3Co2Cl9
_symmetry_space_group_name_H-M   'P 1'
_cell_length_a   7.08598500
_cell_length_b   7.08598560
_cell_length_c   17.83861800
_cell_angle_alpha   90.00000000
_cell_angle_beta   90.00000000
_cell_angle_gamma   119.99999254
_symmetry_Int_Tables_number   1
_chemical_formula_structural   Rb3Co2Cl9
_chemical_formula_sum   'Rb6 Co4 Cl18'
_cell_volume   775.69745013
_cell_formula_units_Z   2
loop_
 _symmetry_equiv_pos_site_id
 _symmetry_equiv_pos_as_xyz
  1  'x, y, z'
loop_
 _atom_site_type_symbol
 _atom_site_label
 _atom_site_symmetry_multiplicity
 _atom_site_fract_x
 _atom_site_fract_y
 _atom_site_fract_z
 _atom_site_occupancy
  Rb  Rb0  1  0.000000  0.000000  0.250000  1
  Rb  Rb1  1  0.000000  0.000000  0.750000  1
  Rb  Rb2  1  0.333333  0.666667  0.432440  1
  Rb  Rb3  1  0.666667  0.333333  0.567560  1
  Rb  Rb4  1  0.666667  0.333333  0.932440  1
  Rb  Rb5  1  0.333333  0.666667  0.067560  1
  Co  Co6  1  0.333333  0.666667  0.666742  1
  Co  Co7  1  0.666667  0.333333  0.333258  1
  Co  Co8  1  0.666667  0.333333  0.166742  1
  Co  Co9  1  0.333333  0.666667  0.833258  1
  Cl  Cl10  1  0.522125  0.477875  0.250000  1
  Cl  Cl11  1  0.522125  0.044249  0.250000  1
  Cl  Cl12  1  0.955751  0.477875  0.250000  1
  Cl  Cl13  1  0.477875  0.522125  0.750000  1
  Cl  Cl14  1  0.477875  0.955751  0.750000  1
  Cl  Cl15  1  0.044249  0.522125  0.750000  1
  Cl  Cl16  1  0.816307  0.183693  0.403676  1
  Cl  Cl17  1  0.816307  0.632613  0.403676  1
  Cl  Cl18  1  0.367387  0.183693  0.403676  1
  Cl  Cl19  1  0.183693  0.816307  0.596324  1
  Cl  Cl20  1  0.183693  0.367387  0.596324  1
  Cl  Cl21  1  0.632613  0.816307  0.596324  1
  Cl  Cl22  1  0.183693  0.816307  0.903676  1
  Cl  Cl23  1  0.183693  0.367387  0.903676  1
  Cl  Cl24  1  0.632613  0.816307  0.903676  1
  Cl  Cl25  1  0.816307  0.183693  0.096324  1
  Cl  Cl26  1  0.816307  0.632613  0.096324  1
  Cl  Cl27  1  0.367387  0.183693  0.096324  1
