# generated using pymatgen
data_Sr3(SmSn2)2
_symmetry_space_group_name_H-M   'P 1'
_cell_length_a   8.22852600
_cell_length_b   8.77665800
_cell_length_c   16.76044500
_cell_angle_alpha   90.00000000
_cell_angle_beta   90.00000000
_cell_angle_gamma   90.00000000
_symmetry_Int_Tables_number   1
_chemical_formula_structural   Sr3(SmSn2)2
_chemical_formula_sum   'Sr12 Sm8 Sn16'
_cell_volume   1210.42188267
_cell_formula_units_Z   4
loop_
 _symmetry_equiv_pos_site_id
 _symmetry_equiv_pos_as_xyz
  1  'x, y, z'
loop_
 _atom_site_type_symbol
 _atom_site_label
 _atom_site_symmetry_multiplicity
 _atom_site_fract_x
 _atom_site_fract_y
 _atom_site_fract_z
 _atom_site_occupancy
  Sr  Sr0  1  0.498699  0.318192  0.907458  1
  Sr  Sr1  1  0.998699  0.181808  0.592542  1
  Sr  Sr2  1  0.501301  0.681808  0.407458  1
  Sr  Sr3  1  0.001301  0.818192  0.092542  1
  Sr  Sr4  1  0.501301  0.681808  0.092542  1
  Sr  Sr5  1  0.001301  0.818192  0.407458  1
  Sr  Sr6  1  0.498699  0.318192  0.592542  1
  Sr  Sr7  1  0.998699  0.181808  0.907458  1
  Sr  Sr8  1  0.174942  0.484207  0.750000  1
  Sr  Sr9  1  0.674942  0.015793  0.750000  1
  Sr  Sr10  1  0.825058  0.515793  0.250000  1
  Sr  Sr11  1  0.325058  0.984207  0.250000  1
  Sm  Sm12  1  0.331820  0.828756  0.878297  1
  Sm  Sm13  1  0.831820  0.671244  0.621703  1
  Sm  Sm14  1  0.668180  0.171244  0.378298  1
  Sm  Sm15  1  0.168180  0.328756  0.121702  1
  Sm  Sm16  1  0.668180  0.171244  0.121702  1
  Sm  Sm17  1  0.168180  0.328756  0.378298  1
  Sm  Sm18  1  0.331820  0.828756  0.621703  1
  Sm  Sm19  1  0.831820  0.671244  0.878297  1
  Sn  Sn20  1  0.336018  0.040415  0.037686  1
  Sn  Sn21  1  0.836018  0.459585  0.462314  1
  Sn  Sn22  1  0.663982  0.959585  0.537686  1
  Sn  Sn23  1  0.163982  0.540415  0.962314  1
  Sn  Sn24  1  0.663982  0.959585  0.962314  1
  Sn  Sn25  1  0.163982  0.540415  0.537686  1
  Sn  Sn26  1  0.336018  0.040415  0.462314  1
  Sn  Sn27  1  0.836018  0.459585  0.037686  1
  Sn  Sn28  1  0.541647  0.633334  0.750000  1
  Sn  Sn29  1  0.041647  0.866666  0.750000  1
  Sn  Sn30  1  0.458353  0.366666  0.250000  1
  Sn  Sn31  1  0.958353  0.133334  0.250000  1
  Sn  Sn32  1  0.285395  0.110789  0.750000  1
  Sn  Sn33  1  0.785395  0.389211  0.750000  1
  Sn  Sn34  1  0.714605  0.889211  0.250000  1
  Sn  Sn35  1  0.214605  0.610789  0.250000  1
