# generated using pymatgen
data_Cd3(Ni10P3)2
_symmetry_space_group_name_H-M   'P 1'
_cell_length_a   7.90406914
_cell_length_b   7.90406926
_cell_length_c   7.90406900
_cell_angle_alpha   60.00000526
_cell_angle_beta   60.00000478
_cell_angle_gamma   60.00000609
_symmetry_Int_Tables_number   1
_chemical_formula_structural   Cd3(Ni10P3)2
_chemical_formula_sum   'Cd3 Ni20 P6'
_cell_volume   349.17025945
_cell_formula_units_Z   1
loop_
 _symmetry_equiv_pos_site_id
 _symmetry_equiv_pos_as_xyz
  1  'x, y, z'
loop_
 _atom_site_type_symbol
 _atom_site_label
 _atom_site_symmetry_multiplicity
 _atom_site_fract_x
 _atom_site_fract_y
 _atom_site_fract_z
 _atom_site_occupancy
  Cd  Cd0  1  0.000000  0.000000  0.000000  1
  Cd  Cd1  1  0.250000  0.250000  0.250000  1
  Cd  Cd2  1  0.750000  0.750000  0.750000  1
  Ni  Ni3  1  0.385153  0.385153  0.844543  1
  Ni  Ni4  1  0.614848  0.614848  0.614847  1
  Ni  Ni5  1  0.000000  0.348860  0.000000  1
  Ni  Ni6  1  0.348860  0.000000  0.000000  1
  Ni  Ni7  1  0.000000  0.348860  0.651140  1
  Ni  Ni8  1  0.844543  0.385153  0.385152  1
  Ni  Ni9  1  0.348860  0.000000  0.651140  1
  Ni  Ni10  1  0.000000  0.000000  0.348860  1
  Ni  Ni11  1  0.651140  0.348860  0.000000  1
  Ni  Ni12  1  0.000000  0.651140  0.348860  1
  Ni  Ni13  1  0.000000  0.000000  0.651140  1
  Ni  Ni14  1  0.348860  0.651140  0.000000  1
  Ni  Ni15  1  0.651140  0.000000  0.000000  1
  Ni  Ni16  1  0.000000  0.651140  0.000000  1
  Ni  Ni17  1  0.385153  0.844544  0.385153  1
  Ni  Ni18  1  0.614847  0.614848  0.155456  1
  Ni  Ni19  1  0.614847  0.155457  0.614847  1
  Ni  Ni20  1  0.155457  0.614848  0.614848  1
  Ni  Ni21  1  0.385152  0.385153  0.385152  1
  Ni  Ni22  1  0.651140  0.000000  0.348860  1
  P  P23  1  0.266783  0.266783  0.733217  1
  P  P24  1  0.733217  0.733217  0.266783  1
  P  P25  1  0.733217  0.266783  0.266783  1
  P  P26  1  0.266783  0.733217  0.733217  1
  P  P27  1  0.266783  0.733217  0.266783  1
  P  P28  1  0.733217  0.266783  0.733217  1
