# generated using pymatgen
data_Lu(TiZn2)2
_symmetry_space_group_name_H-M   'P 1'
_cell_length_a   5.48096693
_cell_length_b   5.48096702
_cell_length_c   5.48096709
_cell_angle_alpha   101.23851823
_cell_angle_beta   101.23852391
_cell_angle_gamma   127.60485724
_symmetry_Int_Tables_number   1
_chemical_formula_structural   Lu(TiZn2)2
_chemical_formula_sum   'Lu1 Ti2 Zn4'
_cell_volume   117.04524415
_cell_formula_units_Z   1
loop_
 _symmetry_equiv_pos_site_id
 _symmetry_equiv_pos_as_xyz
  1  'x, y, z'
loop_
 _atom_site_type_symbol
 _atom_site_label
 _atom_site_symmetry_multiplicity
 _atom_site_fract_x
 _atom_site_fract_y
 _atom_site_fract_z
 _atom_site_occupancy
  Lu  Lu0  1  0.000000  0.000000  0.000000  1
  Ti  Ti1  1  0.250000  0.750000  0.500000  1
  Ti  Ti2  1  0.750000  0.250000  0.500000  1
  Zn  Zn3  1  0.307318  0.307318  0.614635  1
  Zn  Zn4  1  0.692682  0.692682  0.385365  1
  Zn  Zn5  1  0.692682  0.307318  0.000000  1
  Zn  Zn6  1  0.307318  0.692682  0.000000  1
