# generated using pymatgen
data_Th2P7(RuRh)6
_symmetry_space_group_name_H-M   'P 1'
_cell_length_a   3.90177308
_cell_length_b   9.64412476
_cell_length_c   9.64518116
_cell_angle_alpha   119.99502132
_cell_angle_beta   89.99800209
_cell_angle_gamma   90.00481241
_symmetry_Int_Tables_number   1
_chemical_formula_structural   Th2P7(RuRh)6
_chemical_formula_sum   'Th2 P7 Ru6 Rh6'
_cell_volume   314.33130324
_cell_formula_units_Z   1
loop_
 _symmetry_equiv_pos_site_id
 _symmetry_equiv_pos_as_xyz
  1  'x, y, z'
loop_
 _atom_site_type_symbol
 _atom_site_label
 _atom_site_symmetry_multiplicity
 _atom_site_fract_x
 _atom_site_fract_y
 _atom_site_fract_z
 _atom_site_occupancy
  Th  Th0  1  0.255295  0.666683  0.333347  1
  Th  Th1  1  0.744705  0.333317  0.666653  1
  P  P2  1  0.500000  0.000000  0.000000  1
  P  P3  1  0.754538  0.888862  0.603593  1
  P  P4  1  0.754516  0.396426  0.285293  1
  P  P5  1  0.754569  0.714707  0.111139  1
  P  P6  1  0.245462  0.111138  0.396407  1
  P  P7  1  0.245484  0.603574  0.714707  1
  P  P8  1  0.245431  0.285293  0.888861  1
  Ru  Ru9  1  0.741999  0.118043  0.854534  1
  Ru  Ru10  1  0.742058  0.145481  0.263451  1
  Ru  Ru11  1  0.742073  0.736437  0.881985  1
  Ru  Ru12  1  0.258001  0.881957  0.145466  1
  Ru  Ru13  1  0.257942  0.854519  0.736549  1
  Ru  Ru14  1  0.257927  0.263563  0.118015  1
  Rh  Rh15  1  0.753597  0.618602  0.552852  1
  Rh  Rh16  1  0.753569  0.447218  0.065790  1
  Rh  Rh17  1  0.753590  0.934291  0.381422  1
  Rh  Rh18  1  0.246403  0.381398  0.447148  1
  Rh  Rh19  1  0.246431  0.552782  0.934210  1
  Rh  Rh20  1  0.246410  0.065709  0.618578  1
