# generated using pymatgen
data_Sm3Dy3RhI10
_symmetry_space_group_name_H-M   'P 1'
_cell_length_a   7.81689122
_cell_length_b   9.81647102
_cell_length_c   9.80987345
_cell_angle_alpha   106.68964862
_cell_angle_beta   96.59468431
_cell_angle_gamma   104.77524806
_symmetry_Int_Tables_number   1
_chemical_formula_structural   Sm3Dy3RhI10
_chemical_formula_sum   'Sm3 Dy3 Rh1 I10'
_cell_volume   682.67408621
_cell_formula_units_Z   1
loop_
 _symmetry_equiv_pos_site_id
 _symmetry_equiv_pos_as_xyz
  1  'x, y, z'
loop_
 _atom_site_type_symbol
 _atom_site_label
 _atom_site_symmetry_multiplicity
 _atom_site_fract_x
 _atom_site_fract_y
 _atom_site_fract_z
 _atom_site_occupancy
  Sm  Sm0  1  0.850464  0.625545  0.667770  1
  Sm  Sm1  1  0.614182  0.543383  0.263341  1
  Sm  Sm2  1  0.382295  0.455219  0.735371  1
  Dy  Dy3  1  0.530375  0.213566  0.413531  1
  Dy  Dy4  1  0.467458  0.785787  0.585161  1
  Dy  Dy5  1  0.154715  0.375872  0.334645  1
  Rh  Rh6  1  0.498729  0.499427  0.499637  1
  I  I7  1  0.153175  0.052816  0.229062  1
  I  I8  1  0.843984  0.951528  0.771207  1
  I  I9  1  0.240080  0.411659  0.040239  1
  I  I10  1  0.756365  0.587043  0.962370  1
  I  I11  1  0.726619  0.244418  0.158363  1
  I  I12  1  0.280533  0.757863  0.844890  1
  I  I13  1  0.049072  0.683427  0.406732  1
  I  I14  1  0.952121  0.312429  0.588072  1
  I  I15  1  0.414504  0.123281  0.676234  1
  I  I16  1  0.585329  0.876734  0.323377  1
