# generated using pymatgen
data_DyPa3OsPt3
_symmetry_space_group_name_H-M   'P 1'
_cell_length_a   4.34379900
_cell_length_b   5.68425416
_cell_length_c   7.19604867
_cell_angle_alpha   90.34096191
_cell_angle_beta   90.00000000
_cell_angle_gamma   90.00000000
_symmetry_Int_Tables_number   1
_chemical_formula_structural   DyPa3OsPt3
_chemical_formula_sum   'Dy1 Pa3 Os1 Pt3'
_cell_volume   177.67634482
_cell_formula_units_Z   1
loop_
 _symmetry_equiv_pos_site_id
 _symmetry_equiv_pos_as_xyz
  1  'x, y, z'
loop_
 _atom_site_type_symbol
 _atom_site_label
 _atom_site_symmetry_multiplicity
 _atom_site_fract_x
 _atom_site_fract_y
 _atom_site_fract_z
 _atom_site_occupancy
  Dy  Dy0  1  0.750000  0.848279  0.821690  1
  Pa  Pa1  1  0.250000  0.341367  0.674908  1
  Pa  Pa2  1  0.250000  0.150056  0.185967  1
  Pa  Pa3  1  0.750000  0.652784  0.324322  1
  Os  Os4  1  0.750000  0.186242  0.440286  1
  Pt  Pt5  1  0.250000  0.834230  0.548914  1
  Pt  Pt6  1  0.250000  0.655860  0.054295  1
  Pt  Pt7  1  0.750000  0.331181  0.949617  1
