# generated using pymatgen
data_Ce2FeNi3(AsP)2
_symmetry_space_group_name_H-M   'P 1'
_cell_length_a   4.09660800
_cell_length_b   4.09660800
_cell_length_c   9.20375500
_cell_angle_alpha   90.00000000
_cell_angle_beta   90.00000000
_cell_angle_gamma   90.00000000
_symmetry_Int_Tables_number   1
_chemical_formula_structural   Ce2FeNi3(AsP)2
_chemical_formula_sum   'Ce2 Fe1 Ni3 As2 P2'
_cell_volume   154.45923052
_cell_formula_units_Z   1
loop_
 _symmetry_equiv_pos_site_id
 _symmetry_equiv_pos_as_xyz
  1  'x, y, z'
loop_
 _atom_site_type_symbol
 _atom_site_label
 _atom_site_symmetry_multiplicity
 _atom_site_fract_x
 _atom_site_fract_y
 _atom_site_fract_z
 _atom_site_occupancy
  Ce  Ce0  1  0.500000  0.000000  0.237372  1
  Ce  Ce1  1  0.000000  0.500000  0.756435  1
  Fe  Fe2  1  0.500000  0.000000  0.897998  1
  Ni  Ni3  1  0.500000  0.500000  0.499802  1
  Ni  Ni4  1  0.000000  0.500000  0.105889  1
  Ni  Ni5  1  0.000000  0.000000  0.499802  1
  As  As6  1  0.000000  0.500000  0.364614  1
  As  As7  1  0.500000  0.000000  0.641141  1
  P  P8  1  0.500000  0.500000  0.998474  1
  P  P9  1  0.000000  0.000000  0.998474  1
