# generated using pymatgen
data_Li2Ho2Si3
_symmetry_space_group_name_H-M   'P 1'
_cell_length_a   9.23857011
_cell_length_b   9.23856971
_cell_length_c   6.65211900
_cell_angle_alpha   90.00000000
_cell_angle_beta   90.00000000
_cell_angle_gamma   153.47961489
_symmetry_Int_Tables_number   1
_chemical_formula_structural   Li2Ho2Si3
_chemical_formula_sum   'Li4 Ho4 Si6'
_cell_volume   253.51678596
_cell_formula_units_Z   2
loop_
 _symmetry_equiv_pos_site_id
 _symmetry_equiv_pos_as_xyz
  1  'x, y, z'
loop_
 _atom_site_type_symbol
 _atom_site_label
 _atom_site_symmetry_multiplicity
 _atom_site_fract_x
 _atom_site_fract_y
 _atom_site_fract_z
 _atom_site_occupancy
  Li  Li0  1  0.809895  0.190105  0.559233  1
  Li  Li1  1  0.190105  0.809895  0.440767  1
  Li  Li2  1  0.190105  0.809895  0.059233  1
  Li  Li3  1  0.809895  0.190105  0.940767  1
  Ho  Ho4  1  0.552135  0.447865  0.250000  1
  Ho  Ho5  1  0.447865  0.552135  0.750000  1
  Ho  Ho6  1  0.343899  0.656101  0.250000  1
  Ho  Ho7  1  0.656101  0.343899  0.750000  1
  Si  Si8  1  0.940362  0.059638  0.072139  1
  Si  Si9  1  0.059638  0.940362  0.927861  1
  Si  Si10  1  0.059638  0.940362  0.572139  1
  Si  Si11  1  0.940362  0.059638  0.427861  1
  Si  Si12  1  0.719579  0.280421  0.250000  1
  Si  Si13  1  0.280421  0.719579  0.750000  1
