# generated using pymatgen
data_LaZn2NiRh2
_symmetry_space_group_name_H-M   'P 1'
_cell_length_a   3.95247600
_cell_length_b   5.37239462
_cell_length_c   5.37239328
_cell_angle_alpha   63.86240640
_cell_angle_beta   90.00000000
_cell_angle_gamma   90.00000000
_symmetry_Int_Tables_number   1
_chemical_formula_structural   LaZn2NiRh2
_chemical_formula_sum   'La1 Zn2 Ni1 Rh2'
_cell_volume   102.41295640
_cell_formula_units_Z   1
loop_
 _symmetry_equiv_pos_site_id
 _symmetry_equiv_pos_as_xyz
  1  'x, y, z'
loop_
 _atom_site_type_symbol
 _atom_site_label
 _atom_site_symmetry_multiplicity
 _atom_site_fract_x
 _atom_site_fract_y
 _atom_site_fract_z
 _atom_site_occupancy
  La  La0  1  0.000000  0.999986  0.000014  1
  Zn  Zn1  1  0.000000  0.340773  0.340811  1
  Zn  Zn2  1  0.000000  0.659189  0.659227  1
  Ni  Ni3  1  0.500000  0.499982  0.500018  1
  Rh  Rh4  1  0.500000  0.499985  0.000016  1
  Rh  Rh5  1  0.500000  0.999984  0.500015  1
