# generated using pymatgen
data_TbHo2Fe4Co5P6
_symmetry_space_group_name_H-M   'P 1'
_cell_length_a   3.70728500
_cell_length_b   10.52374100
_cell_length_c   12.11356100
_cell_angle_alpha   90.00000000
_cell_angle_beta   90.00000000
_cell_angle_gamma   90.00000000
_symmetry_Int_Tables_number   1
_chemical_formula_structural   TbHo2Fe4Co5P6
_chemical_formula_sum   'Tb2 Ho4 Fe8 Co10 P12'
_cell_volume   472.60461229
_cell_formula_units_Z   2
loop_
 _symmetry_equiv_pos_site_id
 _symmetry_equiv_pos_as_xyz
  1  'x, y, z'
loop_
 _atom_site_type_symbol
 _atom_site_label
 _atom_site_symmetry_multiplicity
 _atom_site_fract_x
 _atom_site_fract_y
 _atom_site_fract_z
 _atom_site_occupancy
  Tb  Tb0  1  0.000000  0.500000  0.523151  1
  Tb  Tb1  1  0.500000  0.000000  0.476849  1
  Ho  Ho2  1  0.500000  0.818927  0.205176  1
  Ho  Ho3  1  0.500000  0.181073  0.205176  1
  Ho  Ho4  1  0.000000  0.681073  0.794824  1
  Ho  Ho5  1  0.000000  0.318927  0.794824  1
  Fe  Fe6  1  0.000000  0.500000  0.987275  1
  Fe  Fe7  1  0.500000  0.000000  0.012725  1
  Fe  Fe8  1  0.500000  0.298226  0.428680  1
  Fe  Fe9  1  0.500000  0.701774  0.428680  1
  Fe  Fe10  1  0.000000  0.201774  0.571320  1
  Fe  Fe11  1  0.000000  0.798226  0.571320  1
  Fe  Fe12  1  0.500000  0.500000  0.155577  1
  Fe  Fe13  1  0.000000  0.000000  0.844423  1
  Co  Co14  1  0.500000  0.880494  0.711824  1
  Co  Co15  1  0.500000  0.119506  0.711824  1
  Co  Co16  1  0.000000  0.619506  0.288176  1
  Co  Co17  1  0.000000  0.380494  0.288176  1
  Co  Co18  1  0.500000  0.332004  0.994088  1
  Co  Co19  1  0.500000  0.667996  0.994088  1
  Co  Co20  1  0.000000  0.167996  0.005912  1
  Co  Co21  1  0.000000  0.832004  0.005912  1
  Co  Co22  1  0.500000  0.500000  0.700404  1
  Co  Co23  1  0.000000  0.000000  0.299596  1
  P  P24  1  0.500000  0.307251  0.614660  1
  P  P25  1  0.500000  0.692749  0.614660  1
  P  P26  1  0.000000  0.192749  0.385340  1
  P  P27  1  0.000000  0.807251  0.385340  1
  P  P28  1  0.500000  0.500000  0.883345  1
  P  P29  1  0.000000  0.000000  0.116655  1
  P  P30  1  0.500000  0.847927  0.894069  1
  P  P31  1  0.500000  0.152073  0.894069  1
  P  P32  1  0.000000  0.652073  0.105931  1
  P  P33  1  0.000000  0.347927  0.105931  1
  P  P34  1  0.500000  0.500000  0.342350  1
  P  P35  1  0.000000  0.000000  0.657650  1
