# generated using pymatgen
data_Pr2Nd9In(Hg2Ir)4
_symmetry_space_group_name_H-M   'P 1'
_cell_length_a   13.38187481
_cell_length_b   13.38187411
_cell_length_c   3.88515000
_cell_angle_alpha   90.00000000
_cell_angle_beta   90.00000000
_cell_angle_gamma   114.45730327
_symmetry_Int_Tables_number   1
_chemical_formula_structural   Pr2Nd9In(Hg2Ir)4
_chemical_formula_sum   'Pr2 Nd9 In1 Hg8 Ir4'
_cell_volume   633.30358370
_cell_formula_units_Z   1
loop_
 _symmetry_equiv_pos_site_id
 _symmetry_equiv_pos_as_xyz
  1  'x, y, z'
loop_
 _atom_site_type_symbol
 _atom_site_label
 _atom_site_symmetry_multiplicity
 _atom_site_fract_x
 _atom_site_fract_y
 _atom_site_fract_z
 _atom_site_occupancy
  Pr  Pr0  1  0.333208  0.666792  0.500000  1
  Pr  Pr1  1  0.666792  0.333208  0.500000  1
  Nd  Nd2  1  0.500000  0.500000  0.500000  1
  Nd  Nd3  1  0.797257  0.797257  0.500000  1
  Nd  Nd4  1  0.202743  0.202743  0.500000  1
  Nd  Nd5  1  0.587511  0.918955  0.500000  1
  Nd  Nd6  1  0.412489  0.081045  0.500000  1
  Nd  Nd7  1  0.918955  0.587511  0.500000  1
  Nd  Nd8  1  0.081045  0.412489  0.500000  1
  Nd  Nd9  1  0.129441  0.870559  0.500000  1
  Nd  Nd10  1  0.870559  0.129441  0.500000  1
  In  In11  1  0.000000  0.000000  0.000000  1
  Hg  Hg12  1  0.350007  0.867941  0.000000  1
  Hg  Hg13  1  0.649993  0.132059  0.000000  1
  Hg  Hg14  1  0.867941  0.350007  0.000000  1
  Hg  Hg15  1  0.132059  0.649993  0.000000  1
  Hg  Hg16  1  0.558843  0.711295  0.000000  1
  Hg  Hg17  1  0.441157  0.288705  0.000000  1
  Hg  Hg18  1  0.711295  0.558843  0.000000  1
  Hg  Hg19  1  0.288705  0.441157  0.000000  1
  Ir  Ir20  1  0.758840  0.949082  0.000000  1
  Ir  Ir21  1  0.241160  0.050918  0.000000  1
  Ir  Ir22  1  0.949082  0.758840  0.000000  1
  Ir  Ir23  1  0.050918  0.241160  0.000000  1
