# generated using pymatgen
data_YEr2VB7
_symmetry_space_group_name_H-M   'P 1'
_cell_length_a   8.06514607
_cell_length_b   8.06514448
_cell_length_c   9.39626100
_cell_angle_alpha   90.00000000
_cell_angle_beta   90.00000000
_cell_angle_gamma   155.50573201
_symmetry_Int_Tables_number   1
_chemical_formula_structural   YEr2VB7
_chemical_formula_sum   'Y2 Er4 V2 B14'
_cell_volume   253.40260125
_cell_formula_units_Z   2
loop_
 _symmetry_equiv_pos_site_id
 _symmetry_equiv_pos_as_xyz
  1  'x, y, z'
loop_
 _atom_site_type_symbol
 _atom_site_label
 _atom_site_symmetry_multiplicity
 _atom_site_fract_x
 _atom_site_fract_y
 _atom_site_fract_z
 _atom_site_occupancy
  Y  Y0  1  0.756091  0.243909  0.250000  1
  Y  Y1  1  0.243909  0.756091  0.750000  1
  Er  Er2  1  0.894483  0.105517  0.942265  1
  Er  Er3  1  0.105517  0.894483  0.057735  1
  Er  Er4  1  0.894483  0.105517  0.557735  1
  Er  Er5  1  0.105517  0.894483  0.442265  1
  V  V6  1  0.052240  0.947760  0.750000  1
  V  V7  1  0.947760  0.052240  0.250000  1
  B  B8  1  0.543283  0.456717  0.250000  1
  B  B9  1  0.456717  0.543283  0.750000  1
  B  B10  1  0.520348  0.479652  0.905083  1
  B  B11  1  0.479652  0.520348  0.094917  1
  B  B12  1  0.479652  0.520348  0.405083  1
  B  B13  1  0.520348  0.479652  0.594917  1
  B  B14  1  0.632198  0.367802  0.850622  1
  B  B15  1  0.367802  0.632198  0.149378  1
  B  B16  1  0.726888  0.273112  0.968672  1
  B  B17  1  0.273112  0.726888  0.031328  1
  B  B18  1  0.273112  0.726888  0.468672  1
  B  B19  1  0.726888  0.273112  0.531328  1
  B  B20  1  0.632198  0.367802  0.649378  1
  B  B21  1  0.367802  0.632198  0.350622  1
