# generated using pymatgen
data_TbDy3AlGa17Ir6
_symmetry_space_group_name_H-M   'P 1'
_cell_length_a   7.59375646
_cell_length_b   7.59386097
_cell_length_c   9.49944028
_cell_angle_alpha   89.95222493
_cell_angle_beta   89.95240213
_cell_angle_gamma   119.87735062
_symmetry_Int_Tables_number   1
_chemical_formula_structural   TbDy3AlGa17Ir6
_chemical_formula_sum   'Tb1 Dy3 Al1 Ga17 Ir6'
_cell_volume   474.98814765
_cell_formula_units_Z   1
loop_
 _symmetry_equiv_pos_site_id
 _symmetry_equiv_pos_as_xyz
  1  'x, y, z'
loop_
 _atom_site_type_symbol
 _atom_site_label
 _atom_site_symmetry_multiplicity
 _atom_site_fract_x
 _atom_site_fract_y
 _atom_site_fract_z
 _atom_site_occupancy
  Tb  Tb0  1  0.998217  0.669044  0.749690  1
  Dy  Dy1  1  0.001681  0.330364  0.249348  1
  Dy  Dy2  1  0.669045  0.998228  0.749690  1
  Dy  Dy3  1  0.330361  0.001679  0.249348  1
  Al  Al4  1  0.335387  0.335387  0.449662  1
  Ga  Ga5  1  0.126840  0.126859  0.749420  1
  Ga  Ga6  1  0.872792  0.872792  0.249337  1
  Ga  Ga7  1  0.998724  0.334295  0.579848  1
  Ga  Ga8  1  0.000161  0.664992  0.418773  1
  Ga  Ga9  1  0.999864  0.664965  0.080772  1
  Ga  Ga10  1  0.334645  0.999703  0.918438  1
  Ga  Ga11  1  0.999663  0.334563  0.918440  1
  Ga  Ga12  1  0.664967  0.999868  0.080748  1
  Ga  Ga13  1  0.664994  0.000165  0.418796  1
  Ga  Ga14  1  0.334376  0.998765  0.579849  1
  Ga  Ga15  1  0.331806  0.331806  0.063570  1
  Ga  Ga16  1  0.667725  0.667758  0.936205  1
  Ga  Ga17  1  0.670913  0.670947  0.563682  1
  Ga  Ga18  1  0.340717  0.547944  0.749787  1
  Ga  Ga19  1  0.656042  0.451135  0.250237  1
  Ga  Ga20  1  0.547916  0.340671  0.749787  1
  Ga  Ga21  1  0.451137  0.656043  0.250237  1
  Ir  Ir22  1  0.669098  0.328265  0.499052  1
  Ir  Ir23  1  0.328287  0.669106  0.499050  1
  Ir  Ir24  1  0.328450  0.671799  0.999713  1
  Ir  Ir25  1  0.671789  0.328424  0.999712  1
  Ir  Ir26  1  0.004549  0.004562  0.497466  1
  Ir  Ir27  1  0.999860  0.999876  0.999347  1
