# generated using pymatgen
data_Th3B2Pt13
_symmetry_space_group_name_H-M   'P 1'
_cell_length_a   5.43951100
_cell_length_b   5.43951150
_cell_length_c   12.32557800
_cell_angle_alpha   90.00000000
_cell_angle_beta   90.00000000
_cell_angle_gamma   120.00000303
_symmetry_Int_Tables_number   1
_chemical_formula_structural   Th3B2Pt13
_chemical_formula_sum   'Th3 B2 Pt13'
_cell_volume   315.83312066
_cell_formula_units_Z   1
loop_
 _symmetry_equiv_pos_site_id
 _symmetry_equiv_pos_as_xyz
  1  'x, y, z'
loop_
 _atom_site_type_symbol
 _atom_site_label
 _atom_site_symmetry_multiplicity
 _atom_site_fract_x
 _atom_site_fract_y
 _atom_site_fract_z
 _atom_site_occupancy
  Th  Th0  1  0.000000  0.000000  0.000000  1
  Th  Th1  1  0.000000  0.000000  0.664026  1
  Th  Th2  1  0.000000  0.000000  0.335974  1
  B  B3  1  0.666667  0.333333  0.000000  1
  B  B4  1  0.333333  0.666667  0.000000  1
  Pt  Pt5  1  0.500000  0.500000  0.500000  1
  Pt  Pt6  1  0.500000  0.000000  0.500000  1
  Pt  Pt7  1  0.000000  0.500000  0.500000  1
  Pt  Pt8  1  0.666667  0.333333  0.684018  1
  Pt  Pt9  1  0.333333  0.666667  0.684018  1
  Pt  Pt10  1  0.333333  0.666667  0.315982  1
  Pt  Pt11  1  0.666667  0.333333  0.315982  1
  Pt  Pt12  1  0.500000  0.500000  0.873169  1
  Pt  Pt13  1  0.500000  0.000000  0.873169  1
  Pt  Pt14  1  0.000000  0.500000  0.873169  1
  Pt  Pt15  1  0.500000  0.500000  0.126831  1
  Pt  Pt16  1  0.500000  0.000000  0.126831  1
  Pt  Pt17  1  0.000000  0.500000  0.126831  1
