# generated using pymatgen
data_NaCa10MgSb9
_symmetry_space_group_name_H-M   'P 1'
_cell_length_a   11.94792700
_cell_length_b   11.94792700
_cell_length_c   17.20552900
_cell_angle_alpha   90.00000000
_cell_angle_beta   90.00000000
_cell_angle_gamma   90.00000000
_symmetry_Int_Tables_number   1
_chemical_formula_structural   NaCa10MgSb9
_chemical_formula_sum   'Na4 Ca40 Mg4 Sb36'
_cell_volume   2456.14018619
_cell_formula_units_Z   4
loop_
 _symmetry_equiv_pos_site_id
 _symmetry_equiv_pos_as_xyz
  1  'x, y, z'
loop_
 _atom_site_type_symbol
 _atom_site_label
 _atom_site_symmetry_multiplicity
 _atom_site_fract_x
 _atom_site_fract_y
 _atom_site_fract_z
 _atom_site_occupancy
  Na  Na0  1  0.796533  0.203467  0.500000  1
  Na  Na1  1  0.203467  0.796533  0.500000  1
  Na  Na2  1  0.703467  0.703467  0.000000  1
  Na  Na3  1  0.296533  0.296533  0.000000  1
  Ca  Ca4  1  0.484716  0.838750  0.103792  1
  Ca  Ca5  1  0.515284  0.161250  0.896208  1
  Ca  Ca6  1  0.248213  0.513115  0.688979  1
  Ca  Ca7  1  0.000000  0.000000  0.648228  1
  Ca  Ca8  1  0.751787  0.486885  0.311021  1
  Ca  Ca9  1  0.486885  0.751787  0.688979  1
  Ca  Ca10  1  0.015284  0.338750  0.396208  1
  Ca  Ca11  1  0.161250  0.515284  0.896208  1
  Ca  Ca12  1  0.013115  0.251787  0.188979  1
  Ca  Ca13  1  0.338750  0.015284  0.603792  1
  Ca  Ca14  1  0.513115  0.248213  0.688979  1
  Ca  Ca15  1  0.748213  0.986885  0.811021  1
  Ca  Ca16  1  0.838750  0.484716  0.103792  1
  Ca  Ca17  1  0.986885  0.748213  0.811021  1
  Ca  Ca18  1  0.661250  0.984716  0.396208  1
  Ca  Ca19  1  0.338750  0.015284  0.396208  1
  Ca  Ca20  1  0.500000  0.500000  0.851772  1
  Ca  Ca21  1  0.751787  0.486885  0.688979  1
  Ca  Ca22  1  0.984716  0.661250  0.396208  1
  Ca  Ca23  1  0.015284  0.338750  0.603792  1
  Ca  Ca24  1  0.248213  0.513115  0.311021  1
  Ca  Ca25  1  0.816658  0.183342  0.000000  1
  Ca  Ca26  1  0.513115  0.248213  0.311021  1
  Ca  Ca27  1  0.838750  0.484716  0.896208  1
  Ca  Ca28  1  0.500000  0.500000  0.148228  1
  Ca  Ca29  1  0.984716  0.661250  0.603792  1
  Ca  Ca30  1  0.748213  0.986885  0.188979  1
  Ca  Ca31  1  0.486885  0.751787  0.311021  1
  Ca  Ca32  1  0.986885  0.748213  0.188979  1
  Ca  Ca33  1  0.683342  0.683342  0.500000  1
  Ca  Ca34  1  0.251787  0.013115  0.188979  1
  Ca  Ca35  1  0.661250  0.984716  0.603792  1
  Ca  Ca36  1  0.013115  0.251787  0.811021  1
  Ca  Ca37  1  0.316658  0.316658  0.500000  1
  Ca  Ca38  1  0.515284  0.161250  0.103792  1
  Ca  Ca39  1  0.000000  0.000000  0.351772  1
  Ca  Ca40  1  0.251787  0.013115  0.811021  1
  Ca  Ca41  1  0.484716  0.838750  0.896208  1
  Ca  Ca42  1  0.161250  0.515284  0.103792  1
  Ca  Ca43  1  0.183342  0.816658  0.000000  1
  Mg  Mg44  1  0.102471  0.102471  0.000000  1
  Mg  Mg45  1  0.397529  0.602471  0.500000  1
  Mg  Mg46  1  0.602471  0.397529  0.500000  1
  Mg  Mg47  1  0.897529  0.897529  0.000000  1
  Sb  Sb48  1  0.222984  0.222984  0.321665  1
  Sb  Sb49  1  0.375170  0.624830  0.000000  1
  Sb  Sb50  1  0.185097  0.814903  0.677116  1
  Sb  Sb51  1  0.624830  0.375170  0.000000  1
  Sb  Sb52  1  0.314903  0.314903  0.822884  1
  Sb  Sb53  1  0.335136  0.028516  0.000000  1
  Sb  Sb54  1  0.500000  0.000000  0.750000  1
  Sb  Sb55  1  0.835136  0.471484  0.500000  1
  Sb  Sb56  1  0.314903  0.314903  0.177116  1
  Sb  Sb57  1  0.685097  0.685097  0.177116  1
  Sb  Sb58  1  0.500000  0.000000  0.250000  1
  Sb  Sb59  1  0.722984  0.277016  0.821665  1
  Sb  Sb60  1  0.814903  0.185097  0.322884  1
  Sb  Sb61  1  0.185097  0.814903  0.322884  1
  Sb  Sb62  1  0.875170  0.875170  0.500000  1
  Sb  Sb63  1  0.164864  0.528516  0.500000  1
  Sb  Sb64  1  0.777016  0.777016  0.678335  1
  Sb  Sb65  1  0.814903  0.185097  0.677116  1
  Sb  Sb66  1  0.000000  0.000000  0.865383  1
  Sb  Sb67  1  0.777016  0.777016  0.321665  1
  Sb  Sb68  1  0.500000  0.500000  0.365383  1
  Sb  Sb69  1  0.971484  0.664864  0.000000  1
  Sb  Sb70  1  0.685097  0.685097  0.822884  1
  Sb  Sb71  1  0.500000  0.500000  0.634617  1
  Sb  Sb72  1  0.277016  0.722984  0.178335  1
  Sb  Sb73  1  0.028516  0.335136  0.000000  1
  Sb  Sb74  1  0.528516  0.164864  0.500000  1
  Sb  Sb75  1  0.277016  0.722984  0.821665  1
  Sb  Sb76  1  0.664864  0.971484  0.000000  1
  Sb  Sb77  1  0.471484  0.835136  0.500000  1
  Sb  Sb78  1  0.222984  0.222984  0.678335  1
  Sb  Sb79  1  0.124830  0.124830  0.500000  1
  Sb  Sb80  1  0.722984  0.277016  0.178335  1
  Sb  Sb81  1  0.000000  0.000000  0.134617  1
  Sb  Sb82  1  0.000000  0.500000  0.750000  1
  Sb  Sb83  1  0.000000  0.500000  0.250000  1
