# generated using pymatgen
data_Tb5Tm5Si5P
_symmetry_space_group_name_H-M   'P 1'
_cell_length_a   8.37260710
_cell_length_b   8.38491524
_cell_length_c   6.24070600
_cell_angle_alpha   90.00000000
_cell_angle_beta   90.00000000
_cell_angle_gamma   120.08377275
_symmetry_Int_Tables_number   1
_chemical_formula_structural   Tb5Tm5Si5P
_chemical_formula_sum   'Tb5 Tm5 Si5 P1'
_cell_volume   379.10238308
_cell_formula_units_Z   1
loop_
 _symmetry_equiv_pos_site_id
 _symmetry_equiv_pos_as_xyz
  1  'x, y, z'
loop_
 _atom_site_type_symbol
 _atom_site_label
 _atom_site_symmetry_multiplicity
 _atom_site_fract_x
 _atom_site_fract_y
 _atom_site_fract_z
 _atom_site_occupancy
  Tb  Tb0  1  0.754614  0.754080  0.250000  1
  Tb  Tb1  1  0.244212  0.999919  0.250000  1
  Tb  Tb2  1  0.000514  0.245977  0.250000  1
  Tb  Tb3  1  0.244968  0.244791  0.750000  1
  Tb  Tb4  1  0.755930  0.000590  0.750000  1
  Tm  Tm5  1  0.666540  0.333896  0.500257  1
  Tm  Tm6  1  0.333342  0.666419  0.500317  1
  Tm  Tm7  1  0.333342  0.666419  0.999683  1
  Tm  Tm8  1  0.666540  0.333896  0.999743  1
  Tm  Tm9  1  0.000737  0.754721  0.750000  1
  Si  Si10  1  0.605188  0.999798  0.250000  1
  Si  Si11  1  0.000059  0.605159  0.250000  1
  Si  Si12  1  0.608360  0.606672  0.750000  1
  Si  Si13  1  0.392949  0.998877  0.750000  1
  Si  Si14  1  0.000549  0.396937  0.750000  1
  P  P15  1  0.392155  0.391847  0.250000  1
