# generated using pymatgen
data_Zr10Co2SnPb5
_symmetry_space_group_name_H-M   'P 1'
_cell_length_a   5.87003700
_cell_length_b   8.82561046
_cell_length_c   8.83432643
_cell_angle_alpha   119.96736279
_cell_angle_beta   90.00000000
_cell_angle_gamma   90.00000000
_symmetry_Int_Tables_number   1
_chemical_formula_structural   Zr10Co2SnPb5
_chemical_formula_sum   'Zr10 Co2 Sn1 Pb5'
_cell_volume   396.49014983
_cell_formula_units_Z   1
loop_
 _symmetry_equiv_pos_site_id
 _symmetry_equiv_pos_as_xyz
  1  'x, y, z'
loop_
 _atom_site_type_symbol
 _atom_site_label
 _atom_site_symmetry_multiplicity
 _atom_site_fract_x
 _atom_site_fract_y
 _atom_site_fract_z
 _atom_site_occupancy
  Zr  Zr0  1  0.750000  0.758071  0.758934  1
  Zr  Zr1  1  0.250000  0.244108  0.238872  1
  Zr  Zr2  1  0.750000  0.999137  0.241066  1
  Zr  Zr3  1  0.250000  0.005236  0.761128  1
  Zr  Zr4  1  0.750000  0.244247  0.000000  1
  Zr  Zr5  1  0.250000  0.753988  0.000000  1
  Zr  Zr6  1  0.000970  0.664422  0.330665  1
  Zr  Zr7  1  0.000970  0.333757  0.669335  1
  Zr  Zr8  1  0.499030  0.333757  0.669335  1
  Zr  Zr9  1  0.499030  0.664422  0.330665  1
  Co  Co10  1  0.000536  0.999192  0.000000  1
  Co  Co11  1  0.499464  0.999192  0.000000  1
  Sn  Sn12  1  0.250000  0.396185  0.000000  1
  Pb  Pb13  1  0.750000  0.395055  0.396515  1
  Pb  Pb14  1  0.250000  0.606074  0.605242  1
  Pb  Pb15  1  0.750000  0.998540  0.603485  1
  Pb  Pb16  1  0.250000  0.000832  0.394758  1
  Pb  Pb17  1  0.750000  0.603785  0.000000  1
