# generated using pymatgen
data_TmTi5(SnRu2)6
_symmetry_space_group_name_H-M   'P 1'
_cell_length_a   4.48718903
_cell_length_b   6.34780604
_cell_length_c   13.44614200
_cell_angle_alpha   89.99898270
_cell_angle_beta   90.00007234
_cell_angle_gamma   89.98692752
_symmetry_Int_Tables_number   1
_chemical_formula_structural   TmTi5(SnRu2)6
_chemical_formula_sum   'Tm1 Ti5 Sn6 Ru12'
_cell_volume   382.99728518
_cell_formula_units_Z   1
loop_
 _symmetry_equiv_pos_site_id
 _symmetry_equiv_pos_as_xyz
  1  'x, y, z'
loop_
 _atom_site_type_symbol
 _atom_site_label
 _atom_site_symmetry_multiplicity
 _atom_site_fract_x
 _atom_site_fract_y
 _atom_site_fract_z
 _atom_site_occupancy
  Tm  Tm0  1  0.000005  0.499993  0.999997  1
  Ti  Ti1  1  0.499931  0.000004  0.167738  1
  Ti  Ti2  1  0.999929  0.499997  0.333334  1
  Ti  Ti3  1  0.499999  0.999998  0.500000  1
  Ti  Ti4  1  0.000068  0.499998  0.666665  1
  Ti  Ti5  1  0.500070  0.000003  0.832262  1
  Sn  Sn6  1  0.999999  0.000019  0.000002  1
  Sn  Sn7  1  0.499964  0.499999  0.167882  1
  Sn  Sn8  1  0.999931  0.000003  0.336479  1
  Sn  Sn9  1  0.499999  0.499984  0.500000  1
  Sn  Sn10  1  0.000069  0.000003  0.663515  1
  Sn  Sn11  1  0.500038  0.499998  0.832120  1
  Ru  Ru12  1  0.499873  0.236114  0.000000  1
  Ru  Ru13  1  0.500136  0.763894  0.000001  1
  Ru  Ru14  1  0.999983  0.243630  0.173103  1
  Ru  Ru15  1  0.999868  0.756371  0.173098  1
  Ru  Ru16  1  0.499864  0.250442  0.334999  1
  Ru  Ru17  1  0.500000  0.749555  0.335001  1
  Ru  Ru18  1  0.000071  0.251239  0.500000  1
  Ru  Ru19  1  0.999927  0.748754  0.500000  1
  Ru  Ru20  1  0.499993  0.250443  0.665002  1
  Ru  Ru21  1  0.500139  0.749553  0.665001  1
  Ru  Ru22  1  0.000128  0.243637  0.826903  1
  Ru  Ru23  1  0.000010  0.756368  0.826899  1
