# generated using pymatgen
data_OsRuS4
_symmetry_space_group_name_H-M   'P 1'
_cell_length_a   5.66195100
_cell_length_b   5.65860215
_cell_length_c   5.66230653
_cell_angle_alpha   90.01517761
_cell_angle_beta   90.00000000
_cell_angle_gamma   90.00000000
_symmetry_Int_Tables_number   1
_chemical_formula_structural   OsRuS4
_chemical_formula_sum   'Os2 Ru2 S8'
_cell_volume   181.41309311
_cell_formula_units_Z   2
loop_
 _symmetry_equiv_pos_site_id
 _symmetry_equiv_pos_as_xyz
  1  'x, y, z'
loop_
 _atom_site_type_symbol
 _atom_site_label
 _atom_site_symmetry_multiplicity
 _atom_site_fract_x
 _atom_site_fract_y
 _atom_site_fract_z
 _atom_site_occupancy
  Os  Os0  1  0.500000  0.500000  0.000000  1
  Os  Os1  1  0.000000  0.500000  0.500000  1
  Ru  Ru2  1  0.500000  0.000000  0.500000  1
  Ru  Ru3  1  0.000000  0.000000  0.000000  1
  S  S4  1  0.113311  0.885395  0.387163  1
  S  S5  1  0.613311  0.114605  0.112837  1
  S  S6  1  0.884876  0.613674  0.884742  1
  S  S7  1  0.384876  0.386326  0.615258  1
  S  S8  1  0.886689  0.114605  0.612837  1
  S  S9  1  0.386689  0.885395  0.887163  1
  S  S10  1  0.115124  0.386326  0.115258  1
  S  S11  1  0.615124  0.613674  0.384742  1
