# generated using pymatgen
data_Hf6Al16Co3(CuNi)2
_symmetry_space_group_name_H-M   'P 1'
_cell_length_a   8.51864619
_cell_length_b   8.52870655
_cell_length_c   8.51814792
_cell_angle_alpha   59.91917985
_cell_angle_beta   60.06180858
_cell_angle_gamma   59.91391949
_symmetry_Int_Tables_number   1
_chemical_formula_structural   Hf6Al16Co3(CuNi)2
_chemical_formula_sum   'Hf6 Al16 Co3 Cu2 Ni2'
_cell_volume   437.25715199
_cell_formula_units_Z   1
loop_
 _symmetry_equiv_pos_site_id
 _symmetry_equiv_pos_as_xyz
  1  'x, y, z'
loop_
 _atom_site_type_symbol
 _atom_site_label
 _atom_site_symmetry_multiplicity
 _atom_site_fract_x
 _atom_site_fract_y
 _atom_site_fract_z
 _atom_site_occupancy
  Hf  Hf0  1  0.691847  0.690887  0.309060  1
  Hf  Hf1  1  0.318234  0.680394  0.318233  1
  Hf  Hf2  1  0.690873  0.309176  0.308210  1
  Hf  Hf3  1  0.308153  0.309113  0.690940  1
  Hf  Hf4  1  0.681766  0.319606  0.681767  1
  Hf  Hf5  1  0.309127  0.690824  0.691790  1
  Al  Al6  1  0.889817  0.874596  0.353029  1
  Al  Al7  1  0.876963  0.354399  0.876943  1
  Al  Al8  1  0.353030  0.874601  0.889787  1
  Al  Al9  1  0.880341  0.887612  0.880293  1
  Al  Al10  1  0.110183  0.125404  0.646971  1
  Al  Al11  1  0.123037  0.645601  0.123057  1
  Al  Al12  1  0.646970  0.125399  0.110213  1
  Al  Al13  1  0.119659  0.112388  0.119707  1
  Al  Al14  1  0.662940  0.666382  0.001261  1
  Al  Al15  1  0.667527  0.001343  0.667535  1
  Al  Al16  1  0.001288  0.666327  0.662908  1
  Al  Al17  1  0.668246  0.662342  0.668133  1
  Al  Al18  1  0.337060  0.333618  0.998739  1
  Al  Al19  1  0.332473  0.998657  0.332465  1
  Al  Al20  1  0.998712  0.333673  0.337092  1
  Al  Al21  1  0.331754  0.337658  0.331867  1
  Co  Co22  1  0.000000  0.000000  0.000000  1
  Co  Co23  1  0.000000  0.500000  0.500000  1
  Co  Co24  1  0.500000  0.500000  0.000000  1
  Cu  Cu25  1  0.500000  0.000000  0.500000  1
  Cu  Cu26  1  0.000000  0.500000  0.000000  1
  Ni  Ni27  1  0.000000  0.000000  0.500000  1
  Ni  Ni28  1  0.500000  0.000000  0.000000  1
