# generated using pymatgen
data_Dy2Er10Os3Ru
_symmetry_space_group_name_H-M   'P 1'
_cell_length_a   6.28774600
_cell_length_b   7.32643382
_cell_length_c   9.02373500
_cell_angle_alpha   90.00000000
_cell_angle_beta   90.00000000
_cell_angle_gamma   90.05202051
_symmetry_Int_Tables_number   1
_chemical_formula_structural   Dy2Er10Os3Ru
_chemical_formula_sum   'Dy2 Er10 Os3 Ru1'
_cell_volume   415.69401775
_cell_formula_units_Z   1
loop_
 _symmetry_equiv_pos_site_id
 _symmetry_equiv_pos_as_xyz
  1  'x, y, z'
loop_
 _atom_site_type_symbol
 _atom_site_label
 _atom_site_symmetry_multiplicity
 _atom_site_fract_x
 _atom_site_fract_y
 _atom_site_fract_z
 _atom_site_occupancy
  Dy  Dy0  1  0.868998  0.540098  0.250000  1
  Dy  Dy1  1  0.632414  0.039065  0.250000  1
  Er  Er2  1  0.331883  0.674831  0.062504  1
  Er  Er3  1  0.168956  0.175717  0.436921  1
  Er  Er4  1  0.669535  0.324625  0.563470  1
  Er  Er5  1  0.829628  0.824318  0.935300  1
  Er  Er6  1  0.669535  0.324625  0.936530  1
  Er  Er7  1  0.829628  0.824318  0.564700  1
  Er  Er8  1  0.331883  0.674831  0.437496  1
  Er  Er9  1  0.168956  0.175717  0.063079  1
  Er  Er10  1  0.131496  0.460870  0.750000  1
  Er  Er11  1  0.368447  0.961057  0.750000  1
  Os  Os12  1  0.459637  0.383518  0.250000  1
  Os  Os13  1  0.960801  0.116190  0.750000  1
  Os  Os14  1  0.539397  0.616529  0.750000  1
  Ru  Ru15  1  0.038805  0.883692  0.250000  1
