# generated using pymatgen
data_Ca4Ac7Sm9Sn16
_symmetry_space_group_name_H-M   'P 1'
_cell_length_a   8.36190166
_cell_length_b   8.40841924
_cell_length_c   16.07113300
_cell_angle_alpha   90.03793408
_cell_angle_beta   89.81484484
_cell_angle_gamma   90.44494214
_symmetry_Int_Tables_number   1
_chemical_formula_structural   Ca4Ac7Sm9Sn16
_chemical_formula_sum   'Ca4 Ac7 Sm9 Sn16'
_cell_volume   1129.92718450
_cell_formula_units_Z   1
loop_
 _symmetry_equiv_pos_site_id
 _symmetry_equiv_pos_as_xyz
  1  'x, y, z'
loop_
 _atom_site_type_symbol
 _atom_site_label
 _atom_site_symmetry_multiplicity
 _atom_site_fract_x
 _atom_site_fract_y
 _atom_site_fract_z
 _atom_site_occupancy
  Ca  Ca0  1  0.317180  0.999663  0.751178  1
  Ca  Ca1  1  0.819190  0.500448  0.751506  1
  Ca  Ca2  1  0.180693  0.498252  0.247932  1
  Ca  Ca3  1  0.681916  0.001860  0.248165  1
  Ac  Ac4  1  0.994512  0.825154  0.905350  1
  Ac  Ac5  1  0.499119  0.677718  0.594683  1
  Ac  Ac6  1  0.500471  0.318252  0.094166  1
  Ac  Ac7  1  0.002662  0.175077  0.402461  1
  Ac  Ac8  1  0.996364  0.824977  0.596304  1
  Ac  Ac9  1  0.501785  0.682537  0.908399  1
  Ac  Ac10  1  0.501431  0.321133  0.402862  1
  Sm  Sm11  1  0.006076  0.176439  0.098578  1
  Sm  Sm12  1  0.846643  0.671273  0.372749  1
  Sm  Sm13  1  0.347433  0.833476  0.120753  1
  Sm  Sm14  1  0.655560  0.170458  0.622640  1
  Sm  Sm15  1  0.152981  0.329468  0.875178  1
  Sm  Sm16  1  0.153819  0.328327  0.625403  1
  Sm  Sm17  1  0.650165  0.165670  0.879947  1
  Sm  Sm18  1  0.343342  0.830574  0.375361  1
  Sm  Sm19  1  0.845851  0.671416  0.125422  1
  Sn  Sn20  1  0.829025  0.458686  0.536888  1
  Sn  Sn21  1  0.306105  0.045999  0.962955  1
  Sn  Sn22  1  0.678178  0.956717  0.460002  1
  Sn  Sn23  1  0.169565  0.534617  0.039664  1
  Sn  Sn24  1  0.172533  0.541599  0.461725  1
  Sn  Sn25  1  0.695674  0.964291  0.042901  1
  Sn  Sn26  1  0.321737  0.042667  0.538756  1
  Sn  Sn27  1  0.830559  0.452869  0.964996  1
  Sn  Sn28  1  0.195981  0.630702  0.750271  1
  Sn  Sn29  1  0.690495  0.869926  0.750863  1
  Sn  Sn30  1  0.303952  0.131043  0.247274  1
  Sn  Sn31  1  0.810458  0.365553  0.246869  1
  Sn  Sn32  1  0.948156  0.120345  0.750362  1
  Sn  Sn33  1  0.454746  0.380717  0.751515  1
  Sn  Sn34  1  0.545920  0.618855  0.248204  1
  Sn  Sn35  1  0.049724  0.883241  0.247718  1
