# generated using pymatgen
data_Tm8Cd3HgAu8
_symmetry_space_group_name_H-M   'P 1'
_cell_length_a   7.86472400
_cell_length_b   7.86472400
_cell_length_c   7.39618200
_cell_angle_alpha   90.00000000
_cell_angle_beta   90.00000000
_cell_angle_gamma   90.00000000
_symmetry_Int_Tables_number   1
_chemical_formula_structural   Tm8Cd3HgAu8
_chemical_formula_sum   'Tm8 Cd3 Hg1 Au8'
_cell_volume   457.48258048
_cell_formula_units_Z   1
loop_
 _symmetry_equiv_pos_site_id
 _symmetry_equiv_pos_as_xyz
  1  'x, y, z'
loop_
 _atom_site_type_symbol
 _atom_site_label
 _atom_site_symmetry_multiplicity
 _atom_site_fract_x
 _atom_site_fract_y
 _atom_site_fract_z
 _atom_site_occupancy
  Tm  Tm0  1  0.842464  0.159341  0.499914  1
  Tm  Tm1  1  0.157536  0.840659  0.499914  1
  Tm  Tm2  1  0.340659  0.342464  0.000086  1
  Tm  Tm3  1  0.659341  0.657536  0.000086  1
  Tm  Tm4  1  0.683016  0.680476  0.499669  1
  Tm  Tm5  1  0.316984  0.319524  0.499669  1
  Tm  Tm6  1  0.180476  0.816984  0.000331  1
  Tm  Tm7  1  0.819524  0.183016  0.000331  1
  Cd  Cd8  1  0.500000  0.000000  0.250000  1
  Cd  Cd9  1  0.000000  0.500000  0.750000  1
  Cd  Cd10  1  0.500000  0.000000  0.750000  1
  Hg  Hg11  1  0.000000  0.500000  0.250000  1
  Au  Au12  1  0.625952  0.368283  0.272489  1
  Au  Au13  1  0.374048  0.631717  0.272489  1
  Au  Au14  1  0.129646  0.129756  0.772164  1
  Au  Au15  1  0.870354  0.870244  0.772164  1
  Au  Au16  1  0.370244  0.629646  0.727836  1
  Au  Au17  1  0.629756  0.370354  0.727836  1
  Au  Au18  1  0.868283  0.874048  0.227511  1
  Au  Au19  1  0.131717  0.125952  0.227511  1
