# generated using pymatgen
data_TbSm3(AuBr6)4
_symmetry_space_group_name_H-M   'P 1'
_cell_length_a   8.37063430
_cell_length_b   10.52258972
_cell_length_c   15.04209085
_cell_angle_alpha   103.26358064
_cell_angle_beta   96.33826888
_cell_angle_gamma   112.67495018
_symmetry_Int_Tables_number   1
_chemical_formula_structural   TbSm3(AuBr6)4
_chemical_formula_sum   'Tb1 Sm3 Au4 Br24'
_cell_volume   1160.36908264
_cell_formula_units_Z   1
loop_
 _symmetry_equiv_pos_site_id
 _symmetry_equiv_pos_as_xyz
  1  'x, y, z'
loop_
 _atom_site_type_symbol
 _atom_site_label
 _atom_site_symmetry_multiplicity
 _atom_site_fract_x
 _atom_site_fract_y
 _atom_site_fract_z
 _atom_site_occupancy
  Tb  Tb0  1  0.024810  0.686872  0.129014  1
  Sm  Sm1  1  0.579719  0.923827  0.622005  1
  Sm  Sm2  1  0.419669  0.075623  0.377570  1
  Sm  Sm3  1  0.975722  0.313371  0.871365  1
  Au  Au4  1  0.294869  0.632023  0.762769  1
  Au  Au5  1  0.705507  0.368405  0.236917  1
  Au  Au6  1  0.499878  0.499831  0.499890  1
  Au  Au7  1  0.000113  0.999687  0.000440  1
  Br  Br8  1  0.608980  0.735869  0.749332  1
  Br  Br9  1  0.391429  0.264388  0.250756  1
  Br  Br10  1  0.277629  0.848530  0.733168  1
  Br  Br11  1  0.722622  0.151854  0.266878  1
  Br  Br12  1  0.978127  0.531232  0.771601  1
  Br  Br13  1  0.021690  0.471324  0.227270  1
  Br  Br14  1  0.310714  0.412082  0.788502  1
  Br  Br15  1  0.692203  0.588966  0.210936  1
  Br  Br16  1  0.687372  0.366422  0.506962  1
  Br  Br17  1  0.312509  0.633460  0.492959  1
  Br  Br18  1  0.762608  0.731122  0.527581  1
  Br  Br19  1  0.237068  0.268433  0.472227  1
  Br  Br20  1  0.790497  0.110674  0.978174  1
  Br  Br21  1  0.207132  0.886781  0.023213  1
  Br  Br22  1  0.770906  0.792664  0.033314  1
  Br  Br23  1  0.230705  0.206351  0.967407  1
  Br  Br24  1  0.620068  0.194243  0.746584  1
  Br  Br25  1  0.376450  0.804860  0.252440  1
  Br  Br26  1  0.947094  0.056086  0.727422  1
  Br  Br27  1  0.052548  0.940549  0.270550  1
  Br  Br28  1  0.723501  0.048092  0.480489  1
  Br  Br29  1  0.276112  0.951691  0.519212  1
  Br  Br30  1  0.768724  0.439561  0.978581  1
  Br  Br31  1  0.233026  0.565126  0.024469  1
