# generated using pymatgen
data_Sm4Tc3Os5
_symmetry_space_group_name_H-M   'P 1'
_cell_length_a   5.30415573
_cell_length_b   5.31983093
_cell_length_c   9.25279900
_cell_angle_alpha   90.00000000
_cell_angle_beta   90.00000000
_cell_angle_gamma   120.09780686
_symmetry_Int_Tables_number   1
_chemical_formula_structural   Sm4Tc3Os5
_chemical_formula_sum   'Sm4 Tc3 Os5'
_cell_volume   225.88582889
_cell_formula_units_Z   1
loop_
 _symmetry_equiv_pos_site_id
 _symmetry_equiv_pos_as_xyz
  1  'x, y, z'
loop_
 _atom_site_type_symbol
 _atom_site_label
 _atom_site_symmetry_multiplicity
 _atom_site_fract_x
 _atom_site_fract_y
 _atom_site_fract_z
 _atom_site_occupancy
  Sm  Sm0  1  0.338158  0.669080  0.436343  1
  Sm  Sm1  1  0.668938  0.334468  0.562795  1
  Sm  Sm2  1  0.668938  0.334468  0.937205  1
  Sm  Sm3  1  0.338158  0.669080  0.063657  1
  Tc  Tc4  1  0.164487  0.332588  0.750000  1
  Tc  Tc5  1  0.164487  0.831899  0.750000  1
  Tc  Tc6  1  0.323762  0.161881  0.250000  1
  Os  Os7  1  0.824793  0.652295  0.250000  1
  Os  Os8  1  0.651759  0.825879  0.750000  1
  Os  Os9  1  0.015864  0.007932  0.001722  1
  Os  Os10  1  0.824793  0.172498  0.250000  1
  Os  Os11  1  0.015864  0.007932  0.498278  1
