# generated using pymatgen
data_TmAl3Ga(Fe3Ge)2
_symmetry_space_group_name_H-M   'P 1'
_cell_length_a   4.97341954
_cell_length_b   6.52145332
_cell_length_c   6.52145355
_cell_angle_alpha   80.21326932
_cell_angle_beta   67.58501513
_cell_angle_gamma   67.58502170
_symmetry_Int_Tables_number   1
_chemical_formula_structural   TmAl3Ga(Fe3Ge)2
_chemical_formula_sum   'Tm1 Al3 Ga1 Fe6 Ge2'
_cell_volume   180.68728034
_cell_formula_units_Z   1
loop_
 _symmetry_equiv_pos_site_id
 _symmetry_equiv_pos_as_xyz
  1  'x, y, z'
loop_
 _atom_site_type_symbol
 _atom_site_label
 _atom_site_symmetry_multiplicity
 _atom_site_fract_x
 _atom_site_fract_y
 _atom_site_fract_z
 _atom_site_occupancy
  Tm  Tm0  1  0.000792  0.999208  0.999208  1
  Al  Al1  1  0.344230  0.655770  0.655770  1
  Al  Al2  1  0.657927  0.342073  0.342073  1
  Al  Al3  1  0.317149  0.182851  0.182851  1
  Ga  Ga4  1  0.674064  0.825936  0.825936  1
  Fe  Fe5  1  0.499087  0.246780  0.755045  1
  Fe  Fe6  1  0.499087  0.755045  0.246780  1
  Fe  Fe7  1  0.000838  0.499179  0.998825  1
  Fe  Fe8  1  0.501158  0.499179  0.998825  1
  Fe  Fe9  1  0.000838  0.998825  0.499179  1
  Fe  Fe10  1  0.501158  0.998825  0.499179  1
  Ge  Ge11  1  0.001836  0.654317  0.342012  1
  Ge  Ge12  1  0.001836  0.342012  0.654317  1
