# generated using pymatgen
data_Tb2RhPbAu
_symmetry_space_group_name_H-M   'P 1'
_cell_length_a   8.09335600
_cell_length_b   7.96907900
_cell_length_c   3.64154900
_cell_angle_alpha   90.00000000
_cell_angle_beta   90.00000000
_cell_angle_gamma   90.00000000
_symmetry_Int_Tables_number   1
_chemical_formula_structural   Tb2RhPbAu
_chemical_formula_sum   'Tb4 Rh2 Pb2 Au2'
_cell_volume   234.86750498
_cell_formula_units_Z   2
loop_
 _symmetry_equiv_pos_site_id
 _symmetry_equiv_pos_as_xyz
  1  'x, y, z'
loop_
 _atom_site_type_symbol
 _atom_site_label
 _atom_site_symmetry_multiplicity
 _atom_site_fract_x
 _atom_site_fract_y
 _atom_site_fract_z
 _atom_site_occupancy
  Tb  Tb0  1  0.686080  0.167013  0.500000  1
  Tb  Tb1  1  0.142344  0.326556  0.500000  1
  Tb  Tb2  1  0.813920  0.667013  0.500000  1
  Tb  Tb3  1  0.357656  0.826556  0.500000  1
  Rh  Rh4  1  0.627516  0.874068  0.000000  1
  Rh  Rh5  1  0.872484  0.374068  0.000000  1
  Pb  Pb6  1  0.992821  0.000996  0.000000  1
  Pb  Pb7  1  0.507179  0.500996  0.000000  1
  Au  Au8  1  0.377963  0.131366  0.000000  1
  Au  Au9  1  0.122037  0.631366  0.000000  1
