# generated using pymatgen
data_InGa4CuTe8
_symmetry_space_group_name_H-M   'P 1'
_cell_length_a   7.39289302
_cell_length_b   7.39289241
_cell_length_c   8.73409480
_cell_angle_alpha   89.90559141
_cell_angle_beta   89.90558749
_cell_angle_gamma   108.05501590
_symmetry_Int_Tables_number   1
_chemical_formula_structural   InGa4CuTe8
_chemical_formula_sum   'In1 Ga4 Cu1 Te8'
_cell_volume   453.85341580
_cell_formula_units_Z   1
loop_
 _symmetry_equiv_pos_site_id
 _symmetry_equiv_pos_as_xyz
  1  'x, y, z'
loop_
 _atom_site_type_symbol
 _atom_site_label
 _atom_site_symmetry_multiplicity
 _atom_site_fract_x
 _atom_site_fract_y
 _atom_site_fract_z
 _atom_site_occupancy
  In  In0  1  0.501466  0.498534  0.500000  1
  Ga  Ga1  1  0.989096  0.010904  0.500000  1
  Ga  Ga2  1  0.510025  0.489975  0.000000  1
  Ga  Ga3  1  0.989525  0.489081  0.756460  1
  Ga  Ga4  1  0.510919  0.010475  0.243540  1
  Cu  Cu5  1  0.999101  0.000899  0.000000  1
  Te  Te6  1  0.371716  0.114483  0.990554  1
  Te  Te7  1  0.905282  0.625921  0.485808  1
  Te  Te8  1  0.885517  0.628284  0.009446  1
  Te  Te9  1  0.374079  0.094718  0.514192  1
  Te  Te10  1  0.886359  0.145687  0.243521  1
  Te  Te11  1  0.373870  0.651269  0.764003  1
  Te  Te12  1  0.854313  0.113641  0.756479  1
  Te  Te13  1  0.348731  0.626130  0.235997  1
