# generated using pymatgen
data_HfNb3(AsRu)4
_symmetry_space_group_name_H-M   'P 1'
_cell_length_a   3.93671200
_cell_length_b   6.50222169
_cell_length_c   7.43502299
_cell_angle_alpha   90.21671573
_cell_angle_beta   90.00000000
_cell_angle_gamma   90.00000000
_symmetry_Int_Tables_number   1
_chemical_formula_structural   HfNb3(AsRu)4
_chemical_formula_sum   'Hf1 Nb3 As4 Ru4'
_cell_volume   190.31570402
_cell_formula_units_Z   1
loop_
 _symmetry_equiv_pos_site_id
 _symmetry_equiv_pos_as_xyz
  1  'x, y, z'
loop_
 _atom_site_type_symbol
 _atom_site_label
 _atom_site_symmetry_multiplicity
 _atom_site_fract_x
 _atom_site_fract_y
 _atom_site_fract_z
 _atom_site_occupancy
  Hf  Hf0  1  0.250000  0.024836  0.818162  1
  Nb  Nb1  1  0.250000  0.525333  0.675556  1
  Nb  Nb2  1  0.750000  0.975666  0.180307  1
  Nb  Nb3  1  0.750000  0.475418  0.323284  1
  As  As4  1  0.250000  0.765672  0.375359  1
  As  As5  1  0.250000  0.267266  0.126455  1
  As  As6  1  0.750000  0.238251  0.620899  1
  As  As7  1  0.750000  0.731668  0.878464  1
  Ru  Ru8  1  0.250000  0.145387  0.439140  1
  Ru  Ru9  1  0.250000  0.645984  0.059264  1
  Ru  Ru10  1  0.750000  0.853247  0.561066  1
  Ru  Ru11  1  0.750000  0.351272  0.942046  1
