# generated using pymatgen
data_SrTl3Ir3RhO13
_symmetry_space_group_name_H-M   'P 1'
_cell_length_a   7.32545687
_cell_length_b   7.30785851
_cell_length_c   7.32545700
_cell_angle_alpha   59.92031124
_cell_angle_beta   60.00000395
_cell_angle_gamma   59.92030469
_symmetry_Int_Tables_number   1
_chemical_formula_structural   SrTl3Ir3RhO13
_chemical_formula_sum   'Sr1 Tl3 Ir3 Rh1 O13'
_cell_volume   276.96214003
_cell_formula_units_Z   1
loop_
 _symmetry_equiv_pos_site_id
 _symmetry_equiv_pos_as_xyz
  1  'x, y, z'
loop_
 _atom_site_type_symbol
 _atom_site_label
 _atom_site_symmetry_multiplicity
 _atom_site_fract_x
 _atom_site_fract_y
 _atom_site_fract_z
 _atom_site_occupancy
  Sr  Sr0  1  0.370104  0.889688  0.370104  1
  Tl  Tl1  1  0.873433  0.377146  0.374711  1
  Tl  Tl2  1  0.374711  0.377146  0.374711  1
  Tl  Tl3  1  0.374711  0.377146  0.873433  1
  Ir  Ir4  1  0.875891  0.875107  0.373109  1
  Ir  Ir5  1  0.875891  0.875107  0.875891  1
  Ir  Ir6  1  0.373109  0.875107  0.875891  1
  Rh  Rh7  1  0.876196  0.371408  0.876196  1
  O  O8  1  0.198135  0.796196  0.807532  1
  O  O9  1  0.198135  0.796196  0.198135  1
  O  O10  1  0.550736  0.951233  0.947296  1
  O  O11  1  0.550736  0.951233  0.550736  1
  O  O12  1  0.947296  0.951233  0.550736  1
  O  O13  1  0.807532  0.796196  0.198135  1
  O  O14  1  0.545315  0.548072  0.953307  1
  O  O15  1  0.798662  0.199051  0.798662  1
  O  O16  1  0.798662  0.199051  0.203625  1
  O  O17  1  0.953307  0.548072  0.953307  1
  O  O18  1  0.953307  0.548072  0.545315  1
  O  O19  1  0.203625  0.199051  0.798662  1
  O  O20  1  0.500504  0.498486  0.500504  1
