# generated using pymatgen
data_Dy9ScGa3Bi2Pt
_symmetry_space_group_name_H-M   'P 1'
_cell_length_a   8.60177941
_cell_length_b   8.60178015
_cell_length_c   8.73716300
_cell_angle_alpha   124.70764406
_cell_angle_beta   124.53837783
_cell_angle_gamma   81.12771725
_symmetry_Int_Tables_number   1
_chemical_formula_structural   Dy9ScGa3Bi2Pt
_chemical_formula_sum   'Dy9 Sc1 Ga3 Bi2 Pt1'
_cell_volume   423.98910314
_cell_formula_units_Z   1
loop_
 _symmetry_equiv_pos_site_id
 _symmetry_equiv_pos_as_xyz
  1  'x, y, z'
loop_
 _atom_site_type_symbol
 _atom_site_label
 _atom_site_symmetry_multiplicity
 _atom_site_fract_x
 _atom_site_fract_y
 _atom_site_fract_z
 _atom_site_occupancy
  Dy  Dy0  1  0.502263  0.504271  0.006533  1
  Dy  Dy1  1  0.787448  0.295262  0.801188  1
  Dy  Dy2  1  0.201111  0.715567  0.198366  1
  Dy  Dy3  1  0.482800  0.997255  0.198366  1
  Dy  Dy4  1  0.298471  0.465292  0.496157  1
  Dy  Dy5  1  0.030865  0.197687  0.496157  1
  Dy  Dy6  1  0.505926  0.013739  0.801188  1
  Dy  Dy7  1  0.705255  0.516970  0.502957  1
  Dy  Dy8  1  0.985987  0.797702  0.502957  1
  Sc  Sc9  1  0.995215  0.997740  0.992955  1
  Ga  Ga10  1  0.143501  0.649480  0.792980  1
  Ga  Ga11  1  0.856268  0.351189  0.207457  1
  Ga  Ga12  1  0.641759  0.862576  0.504335  1
  Bi  Bi13  1  0.243449  0.250867  0.999671  1
  Bi  Bi14  1  0.748803  0.756221  0.999671  1
  Pt  Pt15  1  0.370879  0.128182  0.499061  1
