# generated using pymatgen
data_NdDy9(In2Pt)4
_symmetry_space_group_name_H-M   'P 1'
_cell_length_a   3.64397500
_cell_length_b   8.17088563
_cell_length_c   18.36684600
_cell_angle_alpha   89.89924884
_cell_angle_beta   90.00000000
_cell_angle_gamma   90.00000000
_symmetry_Int_Tables_number   1
_chemical_formula_structural   NdDy9(In2Pt)4
_chemical_formula_sum   'Nd1 Dy9 In8 Pt4'
_cell_volume   546.86286535
_cell_formula_units_Z   1
loop_
 _symmetry_equiv_pos_site_id
 _symmetry_equiv_pos_as_xyz
  1  'x, y, z'
loop_
 _atom_site_type_symbol
 _atom_site_label
 _atom_site_symmetry_multiplicity
 _atom_site_fract_x
 _atom_site_fract_y
 _atom_site_fract_z
 _atom_site_occupancy
  Nd  Nd0  1  0.000000  0.000000  0.000000  1
  Dy  Dy1  1  0.000000  0.116848  0.414729  1
  Dy  Dy2  1  0.000000  0.883152  0.585271  1
  Dy  Dy3  1  0.000000  0.381831  0.914178  1
  Dy  Dy4  1  0.000000  0.618169  0.085822  1
  Dy  Dy5  1  0.000000  0.243662  0.221136  1
  Dy  Dy6  1  0.000000  0.756338  0.778864  1
  Dy  Dy7  1  0.000000  0.256302  0.720357  1
  Dy  Dy8  1  0.000000  0.743698  0.279643  1
  Dy  Dy9  1  0.000000  0.500000  0.500000  1
  In  In10  1  0.500000  0.425429  0.351703  1
  In  In11  1  0.500000  0.574571  0.648297  1
  In  In12  1  0.500000  0.075358  0.849371  1
  In  In13  1  0.500000  0.924642  0.150629  1
  In  In14  1  0.500000  0.296670  0.068681  1
  In  In15  1  0.500000  0.703330  0.931319  1
  In  In16  1  0.500000  0.207927  0.567305  1
  In  In17  1  0.500000  0.792073  0.432695  1
  Pt  Pt18  1  0.500000  0.024906  0.303780  1
  Pt  Pt19  1  0.500000  0.975094  0.696220  1
  Pt  Pt20  1  0.500000  0.475285  0.802809  1
  Pt  Pt21  1  0.500000  0.524715  0.197191  1
