# generated using pymatgen
data_Nd8Ho12Si13Hg3
_symmetry_space_group_name_H-M   'P 1'
_cell_length_a   7.59472755
_cell_length_b   7.80282664
_cell_length_c   15.01812554
_cell_angle_alpha   90.02974213
_cell_angle_beta   89.35475398
_cell_angle_gamma   89.83257514
_symmetry_Int_Tables_number   1
_chemical_formula_structural   Nd8Ho12Si13Hg3
_chemical_formula_sum   'Nd8 Ho12 Si13 Hg3'
_cell_volume   889.91889215
_cell_formula_units_Z   1
loop_
 _symmetry_equiv_pos_site_id
 _symmetry_equiv_pos_as_xyz
  1  'x, y, z'
loop_
 _atom_site_type_symbol
 _atom_site_label
 _atom_site_symmetry_multiplicity
 _atom_site_fract_x
 _atom_site_fract_y
 _atom_site_fract_z
 _atom_site_occupancy
  Nd  Nd0  1  0.989683  0.818781  0.106251  1
  Nd  Nd1  1  0.479685  0.674258  0.399125  1
  Nd  Nd2  1  0.510737  0.318554  0.895214  1
  Nd  Nd3  1  0.016717  0.183716  0.599282  1
  Nd  Nd4  1  0.021631  0.175875  0.897334  1
  Nd  Nd5  1  0.525570  0.326370  0.599338  1
  Nd  Nd6  1  0.478323  0.674991  0.104609  1
  Nd  Nd7  1  0.977628  0.820791  0.398725  1
  Ho  Ho8  1  0.655205  0.995531  0.255958  1
  Ho  Ho9  1  0.159314  0.505785  0.251048  1
  Ho  Ho10  1  0.842438  0.494397  0.746307  1
  Ho  Ho11  1  0.338911  0.006474  0.750669  1
  Ho  Ho12  1  0.665885  0.829873  0.870381  1
  Ho  Ho13  1  0.172448  0.671260  0.623692  1
  Ho  Ho14  1  0.833839  0.331084  0.130628  1
  Ho  Ho15  1  0.320956  0.177883  0.376247  1
  Ho  Ho16  1  0.321938  0.172124  0.123253  1
  Ho  Ho17  1  0.823964  0.324487  0.376236  1
  Ho  Ho18  1  0.178892  0.672067  0.877711  1
  Ho  Ho19  1  0.683895  0.825754  0.620976  1
  Si  Si20  1  0.775357  0.624974  0.252303  1
  Si  Si21  1  0.278077  0.876120  0.252927  1
  Si  Si22  1  0.724392  0.123253  0.747733  1
  Si  Si23  1  0.224104  0.377567  0.747102  1
  Si  Si24  1  0.029513  0.111394  0.251321  1
  Si  Si25  1  0.527147  0.383165  0.251911  1
  Si  Si26  1  0.471094  0.612680  0.748107  1
  Si  Si27  1  0.970537  0.884845  0.748721  1
  Si  Si28  1  0.145463  0.468231  0.459397  1
  Si  Si29  1  0.159622  0.465364  0.042927  1
  Si  Si30  1  0.657939  0.034848  0.457356  1
  Si  Si31  1  0.340959  0.965434  0.957857  1
  Si  Si32  1  0.855368  0.533282  0.537317  1
  Hg  Hg33  1  0.832132  0.538345  0.961472  1
  Hg  Hg34  1  0.342334  0.962970  0.540717  1
  Hg  Hg35  1  0.668301  0.037470  0.039848  1
