# generated using pymatgen
data_ThNp3Ga12Pd
_symmetry_space_group_name_H-M   'P 1'
_cell_length_a   7.56821154
_cell_length_b   7.49151729
_cell_length_c   7.56821259
_cell_angle_alpha   109.26607437
_cell_angle_beta   109.67559614
_cell_angle_gamma   109.26607315
_symmetry_Int_Tables_number   1
_chemical_formula_structural   ThNp3Ga12Pd
_chemical_formula_sum   'Th1 Np3 Ga12 Pd1'
_cell_volume   331.15225008
_cell_formula_units_Z   1
loop_
 _symmetry_equiv_pos_site_id
 _symmetry_equiv_pos_as_xyz
  1  'x, y, z'
loop_
 _atom_site_type_symbol
 _atom_site_label
 _atom_site_symmetry_multiplicity
 _atom_site_fract_x
 _atom_site_fract_y
 _atom_site_fract_z
 _atom_site_occupancy
  Th  Th0  1  0.000000  0.500000  0.000000  1
  Np  Np1  1  0.500000  0.000000  0.000000  1
  Np  Np2  1  0.000000  0.000000  0.500000  1
  Np  Np3  1  0.500000  0.500000  0.500000  1
  Ga  Ga4  1  0.298377  0.005795  0.298377  1
  Ga  Ga5  1  0.494197  0.247098  0.747098  1
  Ga  Ga6  1  0.000000  0.707419  0.701623  1
  Ga  Ga7  1  0.701623  0.994205  0.701623  1
  Ga  Ga8  1  0.747098  0.500000  0.252902  1
  Ga  Ga9  1  0.252902  0.752902  0.505803  1
  Ga  Ga10  1  0.747098  0.247098  0.494197  1
  Ga  Ga11  1  0.701623  0.707419  0.000000  1
  Ga  Ga12  1  0.252902  0.500000  0.747098  1
  Ga  Ga13  1  0.505803  0.752902  0.252902  1
  Ga  Ga14  1  0.298377  0.292581  0.000000  1
  Ga  Ga15  1  0.000000  0.292581  0.298377  1
  Pd  Pd16  1  0.000000  0.000000  0.000000  1
