# generated using pymatgen
data_DyYFe4(PC)2
_symmetry_space_group_name_H-M   'P 1'
_cell_length_a   5.49147502
_cell_length_b   5.49147477
_cell_length_c   6.67934800
_cell_angle_alpha   90.00000000
_cell_angle_beta   90.00000000
_cell_angle_gamma   140.97622039
_symmetry_Int_Tables_number   1
_chemical_formula_structural   DyYFe4(PC)2
_chemical_formula_sum   'Dy1 Y1 Fe4 P2 C2'
_cell_volume   126.82543807
_cell_formula_units_Z   1
loop_
 _symmetry_equiv_pos_site_id
 _symmetry_equiv_pos_as_xyz
  1  'x, y, z'
loop_
 _atom_site_type_symbol
 _atom_site_label
 _atom_site_symmetry_multiplicity
 _atom_site_fract_x
 _atom_site_fract_y
 _atom_site_fract_z
 _atom_site_occupancy
  Dy  Dy0  1  0.548258  0.451742  0.250000  1
  Y  Y1  1  0.451759  0.548241  0.750000  1
  Fe  Fe2  1  0.832555  0.167445  0.057154  1
  Fe  Fe3  1  0.167426  0.832574  0.942921  1
  Fe  Fe4  1  0.167426  0.832574  0.557079  1
  Fe  Fe5  1  0.832555  0.167445  0.442846  1
  P  P6  1  0.269877  0.730123  0.250000  1
  P  P7  1  0.730113  0.269887  0.750000  1
  C  C8  1  0.000015  0.999985  0.000146  1
  C  C9  1  0.000015  0.999985  0.499854  1
