# generated using pymatgen
data_Na2Np(OF2)2
_symmetry_space_group_name_H-M   'P 1'
_cell_length_a   5.23473500
_cell_length_b   5.86736400
_cell_length_c   18.66940300
_cell_angle_alpha   90.00000000
_cell_angle_beta   90.00000000
_cell_angle_gamma   90.00000000
_symmetry_Int_Tables_number   1
_chemical_formula_structural   Na2Np(OF2)2
_chemical_formula_sum   'Na8 Np4 O8 F16'
_cell_volume   573.41383019
_cell_formula_units_Z   4
loop_
 _symmetry_equiv_pos_site_id
 _symmetry_equiv_pos_as_xyz
  1  'x, y, z'
loop_
 _atom_site_type_symbol
 _atom_site_label
 _atom_site_symmetry_multiplicity
 _atom_site_fract_x
 _atom_site_fract_y
 _atom_site_fract_z
 _atom_site_occupancy
  Na  Na0  1  0.000000  0.750000  0.779257  1
  Na  Na1  1  0.500000  0.250000  0.720743  1
  Na  Na2  1  0.000000  0.250000  0.220743  1
  Na  Na3  1  0.500000  0.750000  0.279257  1
  Na  Na4  1  0.000000  0.750000  0.446805  1
  Na  Na5  1  0.500000  0.250000  0.053195  1
  Na  Na6  1  0.000000  0.250000  0.553195  1
  Na  Na7  1  0.500000  0.750000  0.946805  1
  Np  Np8  1  0.000000  0.750000  0.111058  1
  Np  Np9  1  0.500000  0.250000  0.388942  1
  Np  Np10  1  0.000000  0.250000  0.888942  1
  Np  Np11  1  0.500000  0.750000  0.611058  1
  O  O12  1  0.771387  0.883440  0.046055  1
  O  O13  1  0.271387  0.116560  0.453945  1
  O  O14  1  0.728613  0.383440  0.453945  1
  O  O15  1  0.228613  0.616560  0.046055  1
  O  O16  1  0.228613  0.116560  0.953945  1
  O  O17  1  0.728613  0.883440  0.546055  1
  O  O18  1  0.271387  0.616560  0.546055  1
  O  O19  1  0.771387  0.383440  0.953945  1
  F  F20  1  0.723463  0.936201  0.372274  1
  F  F21  1  0.223463  0.063799  0.127726  1
  F  F22  1  0.776537  0.436201  0.127726  1
  F  F23  1  0.276537  0.563799  0.372274  1
  F  F24  1  0.276537  0.063799  0.627726  1
  F  F25  1  0.776537  0.936201  0.872274  1
  F  F26  1  0.223463  0.563799  0.872274  1
  F  F27  1  0.723463  0.436201  0.627726  1
  F  F28  1  0.781774  0.899919  0.196414  1
  F  F29  1  0.281774  0.100081  0.303586  1
  F  F30  1  0.718226  0.399919  0.303586  1
  F  F31  1  0.218226  0.600081  0.196414  1
  F  F32  1  0.218226  0.100081  0.803586  1
  F  F33  1  0.718226  0.899919  0.696414  1
  F  F34  1  0.281774  0.600081  0.696414  1
  F  F35  1  0.781774  0.399919  0.803586  1
