# generated using pymatgen
data_TbSmMnCo16
_symmetry_space_group_name_H-M   'P 1'
_cell_length_a   6.29910910
_cell_length_b   6.29910726
_cell_length_c   6.29910815
_cell_angle_alpha   83.16308463
_cell_angle_beta   83.16308914
_cell_angle_gamma   83.16308378
_symmetry_Int_Tables_number   1
_chemical_formula_structural   TbSmMnCo16
_chemical_formula_sum   'Tb1 Sm1 Mn1 Co16'
_cell_volume   245.00063977
_cell_formula_units_Z   1
loop_
 _symmetry_equiv_pos_site_id
 _symmetry_equiv_pos_as_xyz
  1  'x, y, z'
loop_
 _atom_site_type_symbol
 _atom_site_label
 _atom_site_symmetry_multiplicity
 _atom_site_fract_x
 _atom_site_fract_y
 _atom_site_fract_z
 _atom_site_occupancy
  Tb  Tb0  1  0.656167  0.656167  0.656167  1
  Sm  Sm1  1  0.346748  0.346748  0.346748  1
  Mn  Mn2  1  0.096936  0.096936  0.096936  1
  Co  Co3  1  0.712089  0.287860  0.998245  1
  Co  Co4  1  0.998245  0.712089  0.287860  1
  Co  Co5  1  0.287860  0.998245  0.712089  1
  Co  Co6  1  0.998245  0.287860  0.712089  1
  Co  Co7  1  0.712089  0.998245  0.287860  1
  Co  Co8  1  0.287860  0.712089  0.998245  1
  Co  Co9  1  0.347879  0.347879  0.849038  1
  Co  Co10  1  0.849038  0.347879  0.347879  1
  Co  Co11  1  0.347879  0.849038  0.347879  1
  Co  Co12  1  0.655466  0.655466  0.150823  1
  Co  Co13  1  0.150823  0.655466  0.655466  1
  Co  Co14  1  0.655466  0.150823  0.655466  1
  Co  Co15  1  0.996895  0.996895  0.504756  1
  Co  Co16  1  0.504756  0.996895  0.996895  1
  Co  Co17  1  0.996895  0.504756  0.996895  1
  Co  Co18  1  0.898666  0.898666  0.898666  1
