# generated using pymatgen
data_Dy7Tm3(LuGa10)2
_symmetry_space_group_name_H-M   'P 1'
_cell_length_a   6.06940521
_cell_length_b   9.59564866
_cell_length_c   11.48125103
_cell_angle_alpha   90.01444640
_cell_angle_beta   89.94005098
_cell_angle_gamma   89.97449547
_symmetry_Int_Tables_number   1
_chemical_formula_structural   Dy7Tm3(LuGa10)2
_chemical_formula_sum   'Dy7 Tm3 Lu2 Ga20'
_cell_volume   668.66622911
_cell_formula_units_Z   1
loop_
 _symmetry_equiv_pos_site_id
 _symmetry_equiv_pos_as_xyz
  1  'x, y, z'
loop_
 _atom_site_type_symbol
 _atom_site_label
 _atom_site_symmetry_multiplicity
 _atom_site_fract_x
 _atom_site_fract_y
 _atom_site_fract_z
 _atom_site_occupancy
  Dy  Dy0  1  0.890580  0.509248  0.351450  1
  Dy  Dy1  1  0.609376  0.990487  0.851334  1
  Dy  Dy2  1  0.108960  0.008951  0.648871  1
  Dy  Dy3  1  0.391094  0.490972  0.147974  1
  Dy  Dy4  1  0.108827  0.491052  0.649033  1
  Dy  Dy5  1  0.391087  0.009129  0.148431  1
  Dy  Dy6  1  0.890605  0.991007  0.351463  1
  Tm  Tm7  1  0.152232  0.249782  0.925387  1
  Tm  Tm8  1  0.348654  0.250083  0.425709  1
  Tm  Tm9  1  0.608976  0.509420  0.851267  1
  Lu  Lu10  1  0.848305  0.749793  0.074341  1
  Lu  Lu11  1  0.651413  0.750008  0.574884  1
  Ga  Ga12  1  0.875793  0.053096  0.089616  1
  Ga  Ga13  1  0.623806  0.447532  0.590680  1
  Ga  Ga14  1  0.125389  0.552750  0.910029  1
  Ga  Ga15  1  0.375929  0.946876  0.410270  1
  Ga  Ga16  1  0.124013  0.946417  0.910156  1
  Ga  Ga17  1  0.376025  0.553145  0.410228  1
  Ga  Ga18  1  0.876069  0.447158  0.089385  1
  Ga  Ga19  1  0.623937  0.052908  0.589691  1
  Ga  Ga20  1  0.170229  0.750002  0.251719  1
  Ga  Ga21  1  0.329835  0.749269  0.752404  1
  Ga  Ga22  1  0.828181  0.250902  0.749025  1
  Ga  Ga23  1  0.670880  0.250147  0.247796  1
  Ga  Ga24  1  0.375872  0.749785  0.003743  1
  Ga  Ga25  1  0.124926  0.750001  0.503977  1
  Ga  Ga26  1  0.625833  0.250905  0.994690  1
  Ga  Ga27  1  0.874352  0.250215  0.496334  1
  Ga  Ga28  1  0.602623  0.750019  0.298793  1
  Ga  Ga29  1  0.896109  0.748811  0.799174  1
  Ga  Ga30  1  0.397510  0.250059  0.701051  1
  Ga  Ga31  1  0.102578  0.250071  0.201096  1
