# generated using pymatgen
data_Mn3VCl7O
_symmetry_space_group_name_H-M   'P 1'
_cell_length_a   7.64845621
_cell_length_b   7.64845543
_cell_length_c   7.57671476
_cell_angle_alpha   56.97336153
_cell_angle_beta   56.97336428
_cell_angle_gamma   57.01187111
_symmetry_Int_Tables_number   1
_chemical_formula_structural   Mn3VCl7O
_chemical_formula_sum   'Mn3 V1 Cl7 O1'
_cell_volume   291.62955160
_cell_formula_units_Z   1
loop_
 _symmetry_equiv_pos_site_id
 _symmetry_equiv_pos_as_xyz
  1  'x, y, z'
loop_
 _atom_site_type_symbol
 _atom_site_label
 _atom_site_symmetry_multiplicity
 _atom_site_fract_x
 _atom_site_fract_y
 _atom_site_fract_z
 _atom_site_occupancy
  Mn  Mn0  1  0.517627  0.981470  0.478343  1
  Mn  Mn1  1  0.981470  0.517627  0.478343  1
  Mn  Mn2  1  0.499115  0.499115  0.001525  1
  V  V3  1  0.980780  0.980780  0.026773  1
  Cl  Cl4  1  0.736676  0.736676  0.745097  1
  Cl  Cl5  1  0.247894  0.750868  0.232345  1
  Cl  Cl6  1  0.750868  0.247894  0.232345  1
  Cl  Cl7  1  0.257676  0.257676  0.250712  1
  Cl  Cl8  1  0.223552  0.223552  0.741068  1
  Cl  Cl9  1  0.756828  0.239419  0.772779  1
  Cl  Cl10  1  0.239419  0.756828  0.772779  1
  O  O11  1  0.808094  0.808094  0.267892  1
