# generated using pymatgen
data_Lu6Fe5Co18
_symmetry_space_group_name_H-M   'P 1'
_cell_length_a   8.27453398
_cell_length_b   8.27263624
_cell_length_c   8.28928500
_cell_angle_alpha   59.93340034
_cell_angle_beta   59.94100718
_cell_angle_gamma   60.15831582
_symmetry_Int_Tables_number   1
_chemical_formula_structural   Lu6Fe5Co18
_chemical_formula_sum   'Lu6 Fe5 Co18'
_cell_volume   401.32166751
_cell_formula_units_Z   1
loop_
 _symmetry_equiv_pos_site_id
 _symmetry_equiv_pos_as_xyz
  1  'x, y, z'
loop_
 _atom_site_type_symbol
 _atom_site_label
 _atom_site_symmetry_multiplicity
 _atom_site_fract_x
 _atom_site_fract_y
 _atom_site_fract_z
 _atom_site_occupancy
  Lu  Lu0  1  0.711872  0.714342  0.286893  1
  Lu  Lu1  1  0.289085  0.712162  0.287668  1
  Lu  Lu2  1  0.710915  0.287838  0.288916  1
  Lu  Lu3  1  0.288128  0.285658  0.713107  1
  Lu  Lu4  1  0.710915  0.287838  0.712332  1
  Lu  Lu5  1  0.289085  0.712162  0.711084  1
  Fe  Fe6  1  0.000000  0.000000  0.000000  1
  Fe  Fe7  1  0.000000  0.000000  0.500000  1
  Fe  Fe8  1  0.000000  0.500000  0.500000  1
  Fe  Fe9  1  0.500000  0.500000  0.000000  1
  Fe  Fe10  1  0.000000  0.500000  0.000000  1
  Co  Co11  1  0.500000  0.000000  0.500000  1
  Co  Co12  1  0.500000  0.000000  0.000000  1
  Co  Co13  1  0.876583  0.878125  0.368081  1
  Co  Co14  1  0.877629  0.365586  0.878393  1
  Co  Co15  1  0.370429  0.876905  0.876332  1
  Co  Co16  1  0.876583  0.878125  0.877211  1
  Co  Co17  1  0.123417  0.121875  0.631919  1
  Co  Co18  1  0.122371  0.634414  0.121607  1
  Co  Co19  1  0.629571  0.123095  0.123668  1
  Co  Co20  1  0.123417  0.121875  0.122789  1
  Co  Co21  1  0.676462  0.676659  0.971615  1
  Co  Co22  1  0.675869  0.971240  0.676446  1
  Co  Co23  1  0.972966  0.674929  0.676052  1
  Co  Co24  1  0.676462  0.676659  0.675264  1
  Co  Co25  1  0.323538  0.323341  0.028385  1
  Co  Co26  1  0.324131  0.028760  0.323554  1
  Co  Co27  1  0.027034  0.325071  0.323948  1
  Co  Co28  1  0.323538  0.323341  0.324736  1
