# generated using pymatgen
data_Ca2AlAg3
_symmetry_space_group_name_H-M   'P 1'
_cell_length_a   5.85726400
_cell_length_b   5.85726414
_cell_length_c   9.01094500
_cell_angle_alpha   90.00000000
_cell_angle_beta   90.00000000
_cell_angle_gamma   120.00001053
_symmetry_Int_Tables_number   1
_chemical_formula_structural   Ca2AlAg3
_chemical_formula_sum   'Ca4 Al2 Ag6'
_cell_volume   267.72598974
_cell_formula_units_Z   2
loop_
 _symmetry_equiv_pos_site_id
 _symmetry_equiv_pos_as_xyz
  1  'x, y, z'
loop_
 _atom_site_type_symbol
 _atom_site_label
 _atom_site_symmetry_multiplicity
 _atom_site_fract_x
 _atom_site_fract_y
 _atom_site_fract_z
 _atom_site_occupancy
  Ca  Ca0  1  0.333333  0.666667  0.443789  1
  Ca  Ca1  1  0.666667  0.333333  0.556211  1
  Ca  Ca2  1  0.666667  0.333333  0.943789  1
  Ca  Ca3  1  0.333333  0.666667  0.056211  1
  Al  Al4  1  0.000000  0.000000  0.500000  1
  Al  Al5  1  0.000000  0.000000  0.000000  1
  Ag  Ag6  1  0.832925  0.167075  0.250000  1
  Ag  Ag7  1  0.832925  0.665851  0.250000  1
  Ag  Ag8  1  0.334149  0.167075  0.250000  1
  Ag  Ag9  1  0.167075  0.832925  0.750000  1
  Ag  Ag10  1  0.167075  0.334149  0.750000  1
  Ag  Ag11  1  0.665851  0.832925  0.750000  1
