# generated using pymatgen
data_La5Sn2BiCl
_symmetry_space_group_name_H-M   'P 1'
_cell_length_a   9.75504100
_cell_length_b   9.72114440
_cell_length_c   6.81074200
_cell_angle_alpha   90.00000000
_cell_angle_beta   90.00000000
_cell_angle_gamma   120.11540248
_symmetry_Int_Tables_number   1
_chemical_formula_structural   La5Sn2BiCl
_chemical_formula_sum   'La10 Sn4 Bi2 Cl2'
_cell_volume   558.68286268
_cell_formula_units_Z   2
loop_
 _symmetry_equiv_pos_site_id
 _symmetry_equiv_pos_as_xyz
  1  'x, y, z'
loop_
 _atom_site_type_symbol
 _atom_site_label
 _atom_site_symmetry_multiplicity
 _atom_site_fract_x
 _atom_site_fract_y
 _atom_site_fract_z
 _atom_site_occupancy
  La  La0  1  0.664704  0.329408  0.000000  1
  La  La1  1  0.333951  0.667904  0.500000  1
  La  La2  1  0.664704  0.329408  0.500000  1
  La  La3  1  0.333951  0.667904  0.000000  1
  La  La4  1  0.738514  0.004307  0.750000  1
  La  La5  1  0.735515  0.739351  0.250000  1
  La  La6  1  0.000402  0.259806  0.250000  1
  La  La7  1  0.003836  0.739351  0.750000  1
  La  La8  1  0.259404  0.259806  0.750000  1
  La  La9  1  0.265793  0.004307  0.250000  1
  Sn  Sn10  1  0.614030  0.000089  0.250000  1
  Sn  Sn11  1  0.386059  0.000089  0.750000  1
  Sn  Sn12  1  0.000208  0.386273  0.750000  1
  Sn  Sn13  1  0.386065  0.386273  0.250000  1
  Bi  Bi14  1  0.614937  0.614844  0.750000  1
  Bi  Bi15  1  0.999907  0.614844  0.250000  1
  Cl  Cl16  1  0.999009  0.998018  0.500000  1
  Cl  Cl17  1  0.999009  0.998018  0.000000  1
