# generated using pymatgen
data_Tb3DyInRh
_symmetry_space_group_name_H-M   'P 1'
_cell_length_a   9.70338660
_cell_length_b   9.70338614
_cell_length_c   9.70557314
_cell_angle_alpha   59.97683842
_cell_angle_beta   59.97683748
_cell_angle_gamma   60.01665789
_symmetry_Int_Tables_number   1
_chemical_formula_structural   Tb3DyInRh
_chemical_formula_sum   'Tb12 Dy4 In4 Rh4'
_cell_volume   646.03390516
_cell_formula_units_Z   4
loop_
 _symmetry_equiv_pos_site_id
 _symmetry_equiv_pos_as_xyz
  1  'x, y, z'
loop_
 _atom_site_type_symbol
 _atom_site_label
 _atom_site_symmetry_multiplicity
 _atom_site_fract_x
 _atom_site_fract_y
 _atom_site_fract_z
 _atom_site_occupancy
  Tb  Tb0  1  0.690194  0.310850  0.310001  1
  Tb  Tb1  1  0.689565  0.689565  0.310785  1
  Tb  Tb2  1  0.310850  0.690194  0.310001  1
  Tb  Tb3  1  0.937767  0.937767  0.562462  1
  Tb  Tb4  1  0.150031  0.150031  0.547382  1
  Tb  Tb5  1  0.561237  0.937696  0.561866  1
  Tb  Tb6  1  0.150361  0.150361  0.152343  1
  Tb  Tb7  1  0.310726  0.310726  0.689628  1
  Tb  Tb8  1  0.937696  0.561237  0.561866  1
  Tb  Tb9  1  0.560962  0.560962  0.938600  1
  Tb  Tb10  1  0.561591  0.937974  0.938625  1
  Tb  Tb11  1  0.937974  0.561591  0.938625  1
  Dy  Dy12  1  0.148831  0.549602  0.150570  1
  Dy  Dy13  1  0.311244  0.689819  0.689257  1
  Dy  Dy14  1  0.689819  0.311244  0.689257  1
  Dy  Dy15  1  0.549602  0.148831  0.150570  1
  In  In16  1  0.917449  0.917449  0.247858  1
  In  In17  1  0.247594  0.917596  0.917308  1
  In  In18  1  0.917596  0.247594  0.917308  1
  In  In19  1  0.917507  0.917507  0.917106  1
  Rh  Rh20  1  0.357864  0.357864  0.356318  1
  Rh  Rh21  1  0.926964  0.358294  0.357553  1
  Rh  Rh22  1  0.358280  0.358280  0.927159  1
  Rh  Rh23  1  0.358294  0.926964  0.357553  1
