# generated using pymatgen
data_HoTmLu2(Al3Ir)6
_symmetry_space_group_name_H-M   'P 1'
_cell_length_a   7.53168449
_cell_length_b   7.53155359
_cell_length_c   9.42607100
_cell_angle_alpha   90.00000000
_cell_angle_beta   90.00000000
_cell_angle_gamma   119.53215475
_symmetry_Int_Tables_number   1
_chemical_formula_structural   HoTmLu2(Al3Ir)6
_chemical_formula_sum   'Ho1 Tm1 Lu2 Al18 Ir6'
_cell_volume   465.22836541
_cell_formula_units_Z   1
loop_
 _symmetry_equiv_pos_site_id
 _symmetry_equiv_pos_as_xyz
  1  'x, y, z'
loop_
 _atom_site_type_symbol
 _atom_site_label
 _atom_site_symmetry_multiplicity
 _atom_site_fract_x
 _atom_site_fract_y
 _atom_site_fract_z
 _atom_site_occupancy
  Ho  Ho0  1  0.671614  0.994762  0.250000  1
  Tm  Tm1  1  0.994783  0.671644  0.250000  1
  Lu  Lu2  1  0.005348  0.328099  0.750000  1
  Lu  Lu3  1  0.328151  0.005414  0.750000  1
  Al  Al4  1  0.129520  0.129438  0.250000  1
  Al  Al5  1  0.871110  0.871213  0.750000  1
  Al  Al6  1  0.000852  0.335319  0.074275  1
  Al  Al7  1  0.999671  0.664790  0.924467  1
  Al  Al8  1  0.999671  0.664790  0.575533  1
  Al  Al9  1  0.335011  0.000684  0.425715  1
  Al  Al10  1  0.000852  0.335319  0.425725  1
  Al  Al11  1  0.664799  0.999701  0.575514  1
  Al  Al12  1  0.664799  0.999701  0.924486  1
  Al  Al13  1  0.335011  0.000684  0.074285  1
  Al  Al14  1  0.332809  0.332810  0.553246  1
  Al  Al15  1  0.666914  0.666754  0.447843  1
  Al  Al16  1  0.666914  0.666754  0.052157  1
  Al  Al17  1  0.332809  0.332810  0.946754  1
  Al  Al18  1  0.339664  0.548806  0.250000  1
  Al  Al19  1  0.660062  0.450406  0.750000  1
  Al  Al20  1  0.548919  0.339794  0.250000  1
  Al  Al21  1  0.450424  0.660175  0.750000  1
  Ir  Ir22  1  0.672198  0.327752  0.999654  1
  Ir  Ir23  1  0.327489  0.672058  0.999622  1
  Ir  Ir24  1  0.327489  0.672058  0.500378  1
  Ir  Ir25  1  0.672198  0.327752  0.500346  1
  Ir  Ir26  1  0.000461  0.000256  0.999552  1
  Ir  Ir27  1  0.000461  0.000256  0.500448  1
