# generated using pymatgen
data_Y9ScPt18
_symmetry_space_group_name_H-M   'P 1'
_cell_length_a   9.77255440
_cell_length_b   9.77255440
_cell_length_c   5.77164000
_cell_angle_alpha   90.00000000
_cell_angle_beta   90.00000000
_cell_angle_gamma   90.29049665
_symmetry_Int_Tables_number   1
_chemical_formula_structural   Y9ScPt18
_chemical_formula_sum   'Y9 Sc1 Pt18'
_cell_volume   551.20080865
_cell_formula_units_Z   1
loop_
 _symmetry_equiv_pos_site_id
 _symmetry_equiv_pos_as_xyz
  1  'x, y, z'
loop_
 _atom_site_type_symbol
 _atom_site_label
 _atom_site_symmetry_multiplicity
 _atom_site_fract_x
 _atom_site_fract_y
 _atom_site_fract_z
 _atom_site_occupancy
  Y  Y0  1  0.452145  0.808909  0.000000  1
  Y  Y1  1  0.547855  0.191091  0.000000  1
  Y  Y2  1  0.191091  0.547855  0.000000  1
  Y  Y3  1  0.808909  0.452145  0.000000  1
  Y  Y4  1  0.310157  0.047622  0.500000  1
  Y  Y5  1  0.689843  0.952378  0.500000  1
  Y  Y6  1  0.952378  0.689843  0.500000  1
  Y  Y7  1  0.047622  0.310157  0.500000  1
  Y  Y8  1  0.000000  0.000000  0.000000  1
  Sc  Sc9  1  0.500000  0.500000  0.500000  1
  Pt  Pt10  1  0.191896  0.808104  0.251712  1
  Pt  Pt11  1  0.808104  0.191896  0.748288  1
  Pt  Pt12  1  0.808104  0.191896  0.251712  1
  Pt  Pt13  1  0.191896  0.808104  0.748288  1
  Pt  Pt14  1  0.440226  0.773093  0.500000  1
  Pt  Pt15  1  0.559774  0.226907  0.500000  1
  Pt  Pt16  1  0.226907  0.559774  0.500000  1
  Pt  Pt17  1  0.773093  0.440226  0.500000  1
  Pt  Pt18  1  0.311865  0.311865  0.250392  1
  Pt  Pt19  1  0.688135  0.688135  0.749608  1
  Pt  Pt20  1  0.688135  0.688135  0.250392  1
  Pt  Pt21  1  0.311865  0.311865  0.749608  1
  Pt  Pt22  1  0.281694  0.061782  0.000000  1
  Pt  Pt23  1  0.718306  0.938218  0.000000  1
  Pt  Pt24  1  0.938218  0.718306  0.000000  1
  Pt  Pt25  1  0.061782  0.281694  0.000000  1
  Pt  Pt26  1  0.000000  0.000000  0.500000  1
  Pt  Pt27  1  0.500000  0.500000  0.000000  1
