# generated using pymatgen
data_DyTi4Re17Tc7
_symmetry_space_group_name_H-M   'P 1'
_cell_length_a   8.39867814
_cell_length_b   8.39827999
_cell_length_c   8.38733400
_cell_angle_alpha   109.54163182
_cell_angle_beta   109.47055941
_cell_angle_gamma   109.53721268
_symmetry_Int_Tables_number   1
_chemical_formula_structural   DyTi4Re17Tc7
_chemical_formula_sum   'Dy1 Ti4 Re17 Tc7'
_cell_volume   454.64612308
_cell_formula_units_Z   1
loop_
 _symmetry_equiv_pos_site_id
 _symmetry_equiv_pos_as_xyz
  1  'x, y, z'
loop_
 _atom_site_type_symbol
 _atom_site_label
 _atom_site_symmetry_multiplicity
 _atom_site_fract_x
 _atom_site_fract_y
 _atom_site_fract_z
 _atom_site_occupancy
  Dy  Dy0  1  0.999170  0.999176  0.999567  1
  Ti  Ti1  1  0.626021  0.999279  0.999507  1
  Ti  Ti2  1  0.999360  0.626136  0.999752  1
  Ti  Ti3  1  0.000998  0.001155  0.628233  1
  Ti  Ti4  1  0.371589  0.371434  0.372056  1
  Re  Re5  1  0.000840  0.681245  0.400938  1
  Re  Re6  1  0.681412  0.000918  0.401050  1
  Re  Re7  1  0.598634  0.598591  0.278639  1
  Re  Re8  1  0.279761  0.600160  0.598918  1
  Re  Re9  1  0.600222  0.279844  0.598943  1
  Re  Re10  1  0.379184  0.195828  0.000967  1
  Re  Re11  1  0.182086  0.805350  0.804419  1
  Re  Re12  1  0.377541  0.000819  0.195509  1
  Re  Re13  1  0.195804  0.379199  0.000895  1
  Re  Re14  1  0.000833  0.377741  0.195454  1
  Re  Re15  1  0.805377  0.182081  0.804357  1
  Re  Re16  1  0.804789  0.804746  0.182693  1
  Re  Re17  1  0.001043  0.195098  0.380143  1
  Re  Re18  1  0.195072  0.000990  0.379963  1
  Re  Re19  1  0.619857  0.619833  0.814306  1
  Re  Re20  1  0.814434  0.620209  0.619749  1
  Re  Re21  1  0.620278  0.814438  0.619749  1
  Tc  Tc22  1  0.401136  0.682675  0.000681  1
  Tc  Tc23  1  0.720531  0.318028  0.317597  1
  Tc  Tc24  1  0.402841  0.002084  0.683475  1
  Tc  Tc25  1  0.682778  0.401157  0.000711  1
  Tc  Tc26  1  0.002138  0.402888  0.683521  1
  Tc  Tc27  1  0.317842  0.720419  0.317422  1
  Tc  Tc28  1  0.318432  0.318479  0.720785  1
