# generated using pymatgen
data_TbY3(Ho3Ir2)2
_symmetry_space_group_name_H-M   'P 1'
_cell_length_a   6.46085973
_cell_length_b   7.22061914
_cell_length_c   8.55093684
_cell_angle_alpha   96.68850556
_cell_angle_beta   112.22791423
_cell_angle_gamma   90.14251080
_symmetry_Int_Tables_number   1
_chemical_formula_structural   TbY3(Ho3Ir2)2
_chemical_formula_sum   'Tb1 Y3 Ho6 Ir4'
_cell_volume   366.28497787
_cell_formula_units_Z   1
loop_
 _symmetry_equiv_pos_site_id
 _symmetry_equiv_pos_as_xyz
  1  'x, y, z'
loop_
 _atom_site_type_symbol
 _atom_site_label
 _atom_site_symmetry_multiplicity
 _atom_site_fract_x
 _atom_site_fract_y
 _atom_site_fract_z
 _atom_site_occupancy
  Tb  Tb0  1  0.975127  0.917215  0.185534  1
  Y  Y1  1  0.789646  0.581833  0.814542  1
  Y  Y2  1  0.025366  0.081700  0.814558  1
  Y  Y3  1  0.210694  0.418647  0.185209  1
  Ho  Ho4  1  0.649604  0.816062  0.440506  1
  Ho  Ho5  1  0.209275  0.683743  0.559802  1
  Ho  Ho6  1  0.350299  0.183832  0.560074  1
  Ho  Ho7  1  0.790646  0.316159  0.439946  1
  Ho  Ho8  1  0.426925  0.750082  0.999850  1
  Ho  Ho9  1  0.572906  0.250022  0.000119  1
  Ir  Ir10  1  0.821396  0.574316  0.221921  1
  Ir  Ir11  1  0.598668  0.926423  0.777978  1
  Ir  Ir12  1  0.179234  0.426444  0.777931  1
  Ir  Ir13  1  0.400213  0.073520  0.222030  1
