# generated using pymatgen
data_Yb6ErPt7
_symmetry_space_group_name_H-M   'P 1'
_cell_length_a   5.96276142
_cell_length_b   7.68776779
_cell_length_c   7.68776685
_cell_angle_alpha   113.56170248
_cell_angle_beta   104.98337711
_cell_angle_gamma   104.98338118
_symmetry_Int_Tables_number   1
_chemical_formula_structural   Yb6ErPt7
_chemical_formula_sum   'Yb6 Er1 Pt7'
_cell_volume   284.79580107
_cell_formula_units_Z   1
loop_
 _symmetry_equiv_pos_site_id
 _symmetry_equiv_pos_as_xyz
  1  'x, y, z'
loop_
 _atom_site_type_symbol
 _atom_site_label
 _atom_site_symmetry_multiplicity
 _atom_site_fract_x
 _atom_site_fract_y
 _atom_site_fract_z
 _atom_site_occupancy
  Yb  Yb0  1  0.354488  0.434498  0.143828  1
  Yb  Yb1  1  0.210660  0.856172  0.290671  1
  Yb  Yb2  1  0.080010  0.290670  0.434498  1
  Yb  Yb3  1  0.919990  0.709330  0.565502  1
  Yb  Yb4  1  0.789340  0.143828  0.709330  1
  Yb  Yb5  1  0.645512  0.565502  0.856172  1
  Er  Er6  1  0.500000  0.000000  0.000000  1
  Pt  Pt7  1  0.000000  0.000000  0.000000  1
  Pt  Pt8  1  0.850497  0.417507  0.138866  1
  Pt  Pt9  1  0.711630  0.861134  0.278641  1
  Pt  Pt10  1  0.567011  0.278641  0.417507  1
  Pt  Pt11  1  0.432991  0.721359  0.582494  1
  Pt  Pt12  1  0.288370  0.138866  0.721360  1
  Pt  Pt13  1  0.149503  0.582493  0.861134  1
