# generated using pymatgen
data_Tm3Lu9CdCo5
_symmetry_space_group_name_H-M   'P 1'
_cell_length_a   8.09310458
_cell_length_b   8.09078998
_cell_length_c   8.09310404
_cell_angle_alpha   111.06120588
_cell_angle_beta   110.87784836
_cell_angle_gamma   106.52551707
_symmetry_Int_Tables_number   1
_chemical_formula_structural   Tm3Lu9CdCo5
_chemical_formula_sum   'Tm3 Lu9 Cd1 Co5'
_cell_volume   407.07991483
_cell_formula_units_Z   1
loop_
 _symmetry_equiv_pos_site_id
 _symmetry_equiv_pos_as_xyz
  1  'x, y, z'
loop_
 _atom_site_type_symbol
 _atom_site_label
 _atom_site_symmetry_multiplicity
 _atom_site_fract_x
 _atom_site_fract_y
 _atom_site_fract_z
 _atom_site_occupancy
  Tm  Tm0  1  0.784951  0.592775  0.807824  1
  Tm  Tm1  1  0.215916  0.023551  0.807636  1
  Tm  Tm2  1  0.784265  0.977188  0.192923  1
  Lu  Lu3  1  0.286311  0.184161  0.469746  1
  Lu  Lu4  1  0.713009  0.815644  0.529033  1
  Lu  Lu5  1  0.286612  0.815644  0.102635  1
  Lu  Lu6  1  0.714415  0.184161  0.897851  1
  Lu  Lu7  1  0.619591  0.315092  0.305515  1
  Lu  Lu8  1  0.379564  0.684815  0.693926  1
  Lu  Lu9  1  0.009577  0.315092  0.695501  1
  Lu  Lu10  1  0.990888  0.684815  0.305252  1
  Lu  Lu11  1  0.215557  0.408376  0.192820  1
  Cd  Cd12  1  0.499108  0.498954  0.999846  1
  Co  Co13  1  0.999990  0.373905  0.373915  1
  Co  Co14  1  0.999969  0.624636  0.624666  1
  Co  Co15  1  0.385777  0.886145  0.500368  1
  Co  Co16  1  0.613727  0.112912  0.499185  1
  Co  Co17  1  0.000775  0.002133  0.001359  1
