# generated using pymatgen
data_Li2NiGe2Ru
_symmetry_space_group_name_H-M   'P 1'
_cell_length_a   3.89870300
_cell_length_b   3.89870300
_cell_length_c   6.21656900
_cell_angle_alpha   90.00000000
_cell_angle_beta   90.00000000
_cell_angle_gamma   90.00000000
_symmetry_Int_Tables_number   1
_chemical_formula_structural   Li2NiGe2Ru
_chemical_formula_sum   'Li2 Ni1 Ge2 Ru1'
_cell_volume   94.49113441
_cell_formula_units_Z   1
loop_
 _symmetry_equiv_pos_site_id
 _symmetry_equiv_pos_as_xyz
  1  'x, y, z'
loop_
 _atom_site_type_symbol
 _atom_site_label
 _atom_site_symmetry_multiplicity
 _atom_site_fract_x
 _atom_site_fract_y
 _atom_site_fract_z
 _atom_site_occupancy
  Li  Li0  1  0.000000  0.500000  0.669600  1
  Li  Li1  1  0.500000  0.000000  0.330400  1
  Ni  Ni2  1  0.000000  0.000000  0.000000  1
  Ge  Ge3  1  0.500000  0.000000  0.768859  1
  Ge  Ge4  1  0.000000  0.500000  0.231141  1
  Ru  Ru5  1  0.500000  0.500000  0.000000  1
