# generated using pymatgen
data_Ho8TaTi11Si15Sn
_symmetry_space_group_name_H-M   'P 1'
_cell_length_a   7.09306265
_cell_length_b   7.05814600
_cell_length_c   13.01235426
_cell_angle_alpha   89.98414902
_cell_angle_beta   89.75626519
_cell_angle_gamma   89.99459880
_symmetry_Int_Tables_number   1
_chemical_formula_structural   Ho8TaTi11Si15Sn
_chemical_formula_sum   'Ho8 Ta1 Ti11 Si15 Sn1'
_cell_volume   651.44291342
_cell_formula_units_Z   1
loop_
 _symmetry_equiv_pos_site_id
 _symmetry_equiv_pos_as_xyz
  1  'x, y, z'
loop_
 _atom_site_type_symbol
 _atom_site_label
 _atom_site_symmetry_multiplicity
 _atom_site_fract_x
 _atom_site_fract_y
 _atom_site_fract_z
 _atom_site_occupancy
  Ho  Ho0  1  0.342887  0.999171  0.461556  1
  Ho  Ho1  1  0.505355  0.834487  0.718273  1
  Ho  Ho2  1  0.501895  0.159615  0.216542  1
  Ho  Ho3  1  0.840261  0.496900  0.282021  1
  Ho  Ho4  1  0.159131  0.509622  0.786266  1
  Ho  Ho5  1  0.660995  0.997020  0.968744  1
  Ho  Ho6  1  0.993137  0.348295  0.527470  1
  Ho  Ho7  1  0.999295  0.659006  0.034146  1
  Ta  Ta8  1  0.326768  0.326841  0.001215  1
  Ti  Ti9  1  0.174231  0.826109  0.249720  1
  Ti  Ti10  1  0.816901  0.175343  0.752047  1
  Ti  Ti11  1  0.672347  0.672523  0.499470  1
  Ti  Ti12  1  0.154026  0.008184  0.883231  1
  Ti  Ti13  1  0.491848  0.649736  0.125830  1
  Ti  Ti14  1  0.514800  0.354522  0.626093  1
  Ti  Ti15  1  0.653281  0.492898  0.876420  1
  Ti  Ti16  1  0.348126  0.508864  0.373093  1
  Ti  Ti17  1  0.846874  0.992849  0.375566  1
  Ti  Ti18  1  0.009864  0.153182  0.123395  1
  Ti  Ti19  1  0.980094  0.834870  0.619031  1
  Si  Si20  1  0.370922  0.702581  0.935842  1
  Si  Si21  1  0.628083  0.297498  0.432765  1
  Si  Si22  1  0.703020  0.369373  0.066600  1
  Si  Si23  1  0.296837  0.630639  0.565621  1
  Si  Si24  1  0.797743  0.869759  0.184174  1
  Si  Si25  1  0.129964  0.202528  0.315153  1
  Si  Si26  1  0.870642  0.800180  0.816280  1
  Si  Si27  1  0.292967  0.952384  0.066980  1
  Si  Si28  1  0.549079  0.790000  0.313675  1
  Si  Si29  1  0.460474  0.208726  0.819063  1
  Si  Si30  1  0.794036  0.544593  0.686645  1
  Si  Si31  1  0.207908  0.453626  0.186120  1
  Si  Si32  1  0.706770  0.048065  0.564427  1
  Si  Si33  1  0.952906  0.291964  0.935324  1
  Si  Si34  1  0.047756  0.710903  0.432794  1
  Sn  Sn35  1  0.198775  0.127142  0.678410  1
