# generated using pymatgen
data_HfZr15(Si4Mo)4
_symmetry_space_group_name_H-M   'P 1'
_cell_length_a   7.01777502
_cell_length_b   7.01820236
_cell_length_c   12.85833265
_cell_angle_alpha   90.03606431
_cell_angle_beta   90.00596566
_cell_angle_gamma   89.99402291
_symmetry_Int_Tables_number   1
_chemical_formula_structural   HfZr15(Si4Mo)4
_chemical_formula_sum   'Hf1 Zr15 Si16 Mo4'
_cell_volume   633.30059150
_cell_formula_units_Z   1
loop_
 _symmetry_equiv_pos_site_id
 _symmetry_equiv_pos_as_xyz
  1  'x, y, z'
loop_
 _atom_site_type_symbol
 _atom_site_label
 _atom_site_symmetry_multiplicity
 _atom_site_fract_x
 _atom_site_fract_y
 _atom_site_fract_z
 _atom_site_occupancy
  Hf  Hf0  1  0.996796  0.144563  0.625469  1
  Zr  Zr1  1  0.497108  0.152492  0.532144  1
  Zr  Zr2  1  0.502202  0.847436  0.032189  1
  Zr  Zr3  1  0.652706  0.002252  0.282254  1
  Zr  Zr4  1  0.346887  0.998052  0.781688  1
  Zr  Zr5  1  0.847544  0.502032  0.967685  1
  Zr  Zr6  1  0.152344  0.497297  0.468232  1
  Zr  Zr7  1  0.002017  0.653444  0.718021  1
  Zr  Zr8  1  0.997805  0.347345  0.217927  1
  Zr  Zr9  1  0.497449  0.355322  0.124587  1
  Zr  Zr10  1  0.502554  0.644691  0.624561  1
  Zr  Zr11  1  0.855597  0.002663  0.874304  1
  Zr  Zr12  1  0.144790  0.997575  0.374858  1
  Zr  Zr13  1  0.644961  0.502524  0.375657  1
  Zr  Zr14  1  0.355269  0.497150  0.875121  1
  Zr  Zr15  1  0.002526  0.855346  0.125448  1
  Si  Si16  1  0.796954  0.145966  0.071091  1
  Si  Si17  1  0.202690  0.854970  0.571709  1
  Si  Si18  1  0.645871  0.703055  0.821195  1
  Si  Si19  1  0.354171  0.296979  0.321294  1
  Si  Si20  1  0.854155  0.202865  0.429527  1
  Si  Si21  1  0.146044  0.796747  0.928720  1
  Si  Si22  1  0.703096  0.645941  0.178861  1
  Si  Si23  1  0.295596  0.354025  0.678282  1
  Si  Si24  1  0.547680  0.198621  0.933312  1
  Si  Si25  1  0.452447  0.801310  0.433527  1
  Si  Si26  1  0.699344  0.952555  0.683135  1
  Si  Si27  1  0.301282  0.047780  0.183529  1
  Si  Si28  1  0.801408  0.451340  0.566826  1
  Si  Si29  1  0.198652  0.547642  0.066481  1
  Si  Si30  1  0.952364  0.698754  0.316712  1
  Si  Si31  1  0.047715  0.300973  0.815831  1
  Mo  Mo32  1  0.673631  0.326556  0.749583  1
  Mo  Mo33  1  0.327459  0.672737  0.250033  1
  Mo  Mo34  1  0.828316  0.828503  0.500409  1
  Mo  Mo35  1  0.172570  0.172497  0.999799  1
