# generated using pymatgen
data_Zr6Zn22SnHg
_symmetry_space_group_name_H-M   'P 1'
_cell_length_a   8.89467187
_cell_length_b   8.89465423
_cell_length_c   8.89465400
_cell_angle_alpha   60.00010498
_cell_angle_beta   60.00011853
_cell_angle_gamma   60.00012102
_symmetry_Int_Tables_number   1
_chemical_formula_structural   Zr6Zn22SnHg
_chemical_formula_sum   'Zr6 Zn22 Sn1 Hg1'
_cell_volume   497.59292077
_cell_formula_units_Z   1
loop_
 _symmetry_equiv_pos_site_id
 _symmetry_equiv_pos_as_xyz
  1  'x, y, z'
loop_
 _atom_site_type_symbol
 _atom_site_label
 _atom_site_symmetry_multiplicity
 _atom_site_fract_x
 _atom_site_fract_y
 _atom_site_fract_z
 _atom_site_occupancy
  Zr  Zr0  1  0.732483  0.267517  0.267517  1
  Zr  Zr1  1  0.267517  0.732483  0.732483  1
  Zr  Zr2  1  0.267518  0.732483  0.267515  1
  Zr  Zr3  1  0.732482  0.267517  0.732485  1
  Zr  Zr4  1  0.267518  0.267515  0.732483  1
  Zr  Zr5  1  0.732482  0.732485  0.267517  1
  Zn  Zn6  1  0.133782  0.133782  0.133782  1
  Zn  Zn7  1  0.866218  0.866218  0.866218  1
  Zn  Zn8  1  0.133781  0.133781  0.598658  1
  Zn  Zn9  1  0.133781  0.598658  0.133781  1
  Zn  Zn10  1  0.866219  0.866219  0.401342  1
  Zn  Zn11  1  0.866219  0.401342  0.866219  1
  Zn  Zn12  1  0.598657  0.133781  0.133781  1
  Zn  Zn13  1  0.401343  0.866219  0.866219  1
  Zn  Zn14  1  0.500000  0.000000  0.000000  1
  Zn  Zn15  1  0.000000  0.500000  0.500000  1
  Zn  Zn16  1  0.000000  0.500000  0.000000  1
  Zn  Zn17  1  0.500000  0.000000  0.500000  1
  Zn  Zn18  1  0.000000  0.000000  0.500000  1
  Zn  Zn19  1  0.500000  0.500000  0.000000  1
  Zn  Zn20  1  0.347058  0.347058  0.347058  1
  Zn  Zn21  1  0.652942  0.652942  0.652942  1
  Zn  Zn22  1  0.347056  0.347056  0.958830  1
  Zn  Zn23  1  0.347056  0.958830  0.347056  1
  Zn  Zn24  1  0.652944  0.652944  0.041170  1
  Zn  Zn25  1  0.652944  0.041170  0.652944  1
  Zn  Zn26  1  0.958830  0.347056  0.347056  1
  Zn  Zn27  1  0.041170  0.652944  0.652944  1
  Sn  Sn28  1  0.500000  0.500000  0.500000  1
  Hg  Hg29  1  0.000000  0.000000  0.000000  1
