# generated using pymatgen
data_NdTm3U4(ReB6)4
_symmetry_space_group_name_H-M   'P 1'
_cell_length_a   3.63917600
_cell_length_b   9.30340914
_cell_length_c   11.42798239
_cell_angle_alpha   89.94340206
_cell_angle_beta   90.00000000
_cell_angle_gamma   90.00000000
_symmetry_Int_Tables_number   1
_chemical_formula_structural   NdTm3U4(ReB6)4
_chemical_formula_sum   'Nd1 Tm3 U4 Re4 B24'
_cell_volume   386.91407691
_cell_formula_units_Z   1
loop_
 _symmetry_equiv_pos_site_id
 _symmetry_equiv_pos_as_xyz
  1  'x, y, z'
loop_
 _atom_site_type_symbol
 _atom_site_label
 _atom_site_symmetry_multiplicity
 _atom_site_fract_x
 _atom_site_fract_y
 _atom_site_fract_z
 _atom_site_occupancy
  Nd  Nd0  1  0.000000  0.163020  0.907710  1
  Tm  Tm1  1  0.000000  0.337194  0.407818  1
  Tm  Tm2  1  0.000000  0.662941  0.591620  1
  Tm  Tm3  1  0.000000  0.836487  0.092930  1
  U  U4  1  0.000000  0.956447  0.396379  1
  U  U5  1  0.000000  0.043076  0.603346  1
  U  U6  1  0.000000  0.457752  0.104568  1
  U  U7  1  0.000000  0.544478  0.896579  1
  Re  Re8  1  0.000000  0.645761  0.318522  1
  Re  Re9  1  0.000000  0.355988  0.679771  1
  Re  Re10  1  0.000000  0.145711  0.183416  1
  Re  Re11  1  0.000000  0.851200  0.817621  1
  B  B12  1  0.500000  0.551540  0.431138  1
  B  B13  1  0.500000  0.449375  0.567735  1
  B  B14  1  0.500000  0.050812  0.071180  1
  B  B15  1  0.500000  0.944382  0.930920  1
  B  B16  1  0.500000  0.742562  0.423052  1
  B  B17  1  0.500000  0.258059  0.575709  1
  B  B18  1  0.500000  0.244350  0.079315  1
  B  B19  1  0.500000  0.755491  0.922964  1
  B  B20  1  0.500000  0.802413  0.275244  1
  B  B21  1  0.500000  0.199055  0.722899  1
  B  B22  1  0.500000  0.302891  0.226360  1
  B  B23  1  0.500000  0.696465  0.774263  1
  B  B24  1  0.500000  0.645137  0.188743  1
  B  B25  1  0.500000  0.357878  0.810324  1
  B  B26  1  0.500000  0.144785  0.312299  1
  B  B27  1  0.500000  0.853427  0.687397  1
  B  B28  1  0.500000  0.988635  0.220298  1
  B  B29  1  0.500000  0.007403  0.778832  1
  B  B30  1  0.500000  0.489165  0.281202  1
  B  B31  1  0.500000  0.511790  0.718296  1
  B  B32  1  0.500000  0.640967  0.039463  1
  B  B33  1  0.500000  0.363970  0.962476  1
  B  B34  1  0.500000  0.141228  0.460996  1
  B  B35  1  0.500000  0.858165  0.538615  1
