# generated using pymatgen
data_Sc10GaBi3Se2
_symmetry_space_group_name_H-M   'P 1'
_cell_length_a   7.48021100
_cell_length_b   8.59313336
_cell_length_c   11.22533745
_cell_angle_alpha   89.96732300
_cell_angle_beta   90.00000000
_cell_angle_gamma   90.00000000
_symmetry_Int_Tables_number   1
_chemical_formula_structural   Sc10GaBi3Se2
_chemical_formula_sum   'Sc20 Ga2 Bi6 Se4'
_cell_volume   721.54718187
_cell_formula_units_Z   2
loop_
 _symmetry_equiv_pos_site_id
 _symmetry_equiv_pos_as_xyz
  1  'x, y, z'
loop_
 _atom_site_type_symbol
 _atom_site_label
 _atom_site_symmetry_multiplicity
 _atom_site_fract_x
 _atom_site_fract_y
 _atom_site_fract_z
 _atom_site_occupancy
  Sc  Sc0  1  0.188571  0.059156  0.937504  1
  Sc  Sc1  1  0.315838  0.059367  0.439507  1
  Sc  Sc2  1  0.313495  0.443216  0.442776  1
  Sc  Sc3  1  0.340549  0.723369  0.715998  1
  Sc  Sc4  1  0.474979  0.740280  0.992533  1
  Sc  Sc5  1  0.141771  0.248955  0.208231  1
  Sc  Sc6  1  0.815838  0.940633  0.060493  1
  Sc  Sc7  1  0.641771  0.751045  0.291769  1
  Sc  Sc8  1  0.033735  0.738512  0.510106  1
  Sc  Sc9  1  0.688571  0.940844  0.562496  1
  Sc  Sc10  1  0.187088  0.447947  0.928447  1
  Sc  Sc11  1  0.352807  0.272482  0.711858  1
  Sc  Sc12  1  0.151306  0.751146  0.206576  1
  Sc  Sc13  1  0.974979  0.259720  0.507467  1
  Sc  Sc14  1  0.687088  0.552053  0.571553  1
  Sc  Sc15  1  0.651306  0.248854  0.293424  1
  Sc  Sc16  1  0.813495  0.556784  0.057224  1
  Sc  Sc17  1  0.533735  0.261488  0.989894  1
  Sc  Sc18  1  0.840549  0.276631  0.784002  1
  Sc  Sc19  1  0.852807  0.727518  0.788142  1
  Ga  Ga20  1  0.066901  0.492188  0.671281  1
  Ga  Ga21  1  0.566901  0.507812  0.828719  1
  Bi  Bi22  1  0.930217  0.991434  0.330800  1
  Bi  Bi23  1  0.430217  0.008566  0.169200  1
  Bi  Bi24  1  0.571201  0.991487  0.821332  1
  Bi  Bi25  1  0.427486  0.491992  0.175261  1
  Bi  Bi26  1  0.071201  0.008513  0.678668  1
  Bi  Bi27  1  0.927486  0.508008  0.324739  1
  Se  Se28  1  0.416695  0.750815  0.482035  1
  Se  Se29  1  0.087361  0.751966  0.972769  1
  Se  Se30  1  0.587361  0.248034  0.527231  1
  Se  Se31  1  0.916695  0.249185  0.017965  1
