# generated using pymatgen
data_Tm2VPtF14
_symmetry_space_group_name_H-M   'P 1'
_cell_length_a   5.46738300
_cell_length_b   8.75654618
_cell_length_c   11.76299876
_cell_angle_alpha   62.96852984
_cell_angle_beta   90.00000000
_cell_angle_gamma   90.00000000
_symmetry_Int_Tables_number   1
_chemical_formula_structural   Tm2VPtF14
_chemical_formula_sum   'Tm4 V2 Pt2 F28'
_cell_volume   501.63710303
_cell_formula_units_Z   2
loop_
 _symmetry_equiv_pos_site_id
 _symmetry_equiv_pos_as_xyz
  1  'x, y, z'
loop_
 _atom_site_type_symbol
 _atom_site_label
 _atom_site_symmetry_multiplicity
 _atom_site_fract_x
 _atom_site_fract_y
 _atom_site_fract_z
 _atom_site_occupancy
  Tm  Tm0  1  0.758790  0.813538  0.763340  1
  Tm  Tm1  1  0.258790  0.186462  0.736660  1
  Tm  Tm2  1  0.240175  0.189705  0.228212  1
  Tm  Tm3  1  0.740175  0.810295  0.271788  1
  V  V4  1  0.755588  0.274887  0.954392  1
  V  V5  1  0.255588  0.725113  0.545608  1
  Pt  Pt6  1  0.242294  0.729341  0.043103  1
  Pt  Pt7  1  0.742294  0.270659  0.456897  1
  F  F8  1  0.437973  0.700390  0.914186  1
  F  F9  1  0.937973  0.299610  0.585814  1
  F  F10  1  0.548003  0.291015  0.077089  1
  F  F11  1  0.048003  0.708985  0.422911  1
  F  F12  1  0.437626  0.280690  0.543188  1
  F  F13  1  0.937626  0.719310  0.956812  1
  F  F14  1  0.542621  0.720029  0.453688  1
  F  F15  1  0.042621  0.279971  0.046312  1
  F  F16  1  0.771259  0.510542  0.863641  1
  F  F17  1  0.271259  0.489458  0.636359  1
  F  F18  1  0.228741  0.478607  0.144076  1
  F  F19  1  0.728741  0.521393  0.355924  1
  F  F20  1  0.757077  0.042264  0.046530  1
  F  F21  1  0.257077  0.957736  0.453470  1
  F  F22  1  0.245414  0.980284  0.949129  1
  F  F23  1  0.745414  0.019716  0.550871  1
  F  F24  1  0.981480  0.726515  0.644279  1
  F  F25  1  0.481480  0.273485  0.855721  1
  F  F26  1  0.041197  0.267372  0.365296  1
  F  F27  1  0.541197  0.732628  0.134704  1
  F  F28  1  0.050967  0.752335  0.176378  1
  F  F29  1  0.550967  0.247665  0.323622  1
  F  F30  1  0.960798  0.256518  0.829160  1
  F  F31  1  0.460798  0.743482  0.670840  1
  F  F32  1  0.420357  0.972130  0.231054  1
  F  F33  1  0.920357  0.027870  0.268946  1
  F  F34  1  0.579640  0.027675  0.766405  1
  F  F35  1  0.079640  0.972325  0.733595  1
