# generated using pymatgen
data_La2Er2CoI5
_symmetry_space_group_name_H-M   'P 1'
_cell_length_a   9.74933148
_cell_length_b   9.74933009
_cell_length_c   9.11924634
_cell_angle_alpha   76.55778338
_cell_angle_beta   76.55778437
_cell_angle_gamma   25.09888810
_symmetry_Int_Tables_number   1
_chemical_formula_structural   La2Er2CoI5
_chemical_formula_sum   'La2 Er2 Co1 I5'
_cell_volume   357.09315686
_cell_formula_units_Z   1
loop_
 _symmetry_equiv_pos_site_id
 _symmetry_equiv_pos_as_xyz
  1  'x, y, z'
loop_
 _atom_site_type_symbol
 _atom_site_label
 _atom_site_symmetry_multiplicity
 _atom_site_fract_x
 _atom_site_fract_y
 _atom_site_fract_z
 _atom_site_occupancy
  La  La0  1  0.866795  0.866795  0.068647  1
  La  La1  1  0.133205  0.133205  0.931353  1
  Er  Er2  1  0.500075  0.500075  0.208826  1
  Er  Er3  1  0.499925  0.499925  0.791174  1
  Co  Co4  1  0.000000  0.000000  0.000000  1
  I  I5  1  0.669814  0.669814  0.183217  1
  I  I6  1  0.330186  0.330186  0.816783  1
  I  I7  1  0.664413  0.664413  0.648817  1
  I  I8  1  0.335587  0.335587  0.351183  1
  I  I9  1  0.000000  0.000000  0.500000  1
