# generated using pymatgen
data_RbAc3Te8
_symmetry_space_group_name_H-M   'P 1'
_cell_length_a   13.40838200
_cell_length_b   9.36274363
_cell_length_c   14.52993900
_cell_angle_alpha   80.65779396
_cell_angle_beta   90.00000000
_cell_angle_gamma   90.00000000
_symmetry_Int_Tables_number   1
_chemical_formula_structural   RbAc3Te8
_chemical_formula_sum   'Rb4 Ac12 Te32'
_cell_volume   1799.88372127
_cell_formula_units_Z   4
loop_
 _symmetry_equiv_pos_site_id
 _symmetry_equiv_pos_as_xyz
  1  'x, y, z'
loop_
 _atom_site_type_symbol
 _atom_site_label
 _atom_site_symmetry_multiplicity
 _atom_site_fract_x
 _atom_site_fract_y
 _atom_site_fract_z
 _atom_site_occupancy
  Rb  Rb0  1  0.091391  0.242620  0.035002  1
  Rb  Rb1  1  0.908609  0.757380  0.964998  1
  Rb  Rb2  1  0.591391  0.257380  0.964998  1
  Rb  Rb3  1  0.408609  0.742620  0.035002  1
  Ac  Ac4  1  0.415987  0.406915  0.351483  1
  Ac  Ac5  1  0.584013  0.593085  0.648517  1
  Ac  Ac6  1  0.915987  0.093085  0.648517  1
  Ac  Ac7  1  0.084013  0.906915  0.351483  1
  Ac  Ac8  1  0.084903  0.418724  0.350194  1
  Ac  Ac9  1  0.915097  0.581276  0.649806  1
  Ac  Ac10  1  0.584903  0.081276  0.649806  1
  Ac  Ac11  1  0.415097  0.918724  0.350194  1
  Ac  Ac12  1  0.249273  0.086963  0.651267  1
  Ac  Ac13  1  0.750727  0.913037  0.348733  1
  Ac  Ac14  1  0.749273  0.413037  0.348733  1
  Ac  Ac15  1  0.250727  0.586963  0.651267  1
  Te  Te16  1  0.777053  0.209796  0.161464  1
  Te  Te17  1  0.222947  0.790204  0.838536  1
  Te  Te18  1  0.277053  0.290204  0.838536  1
  Te  Te19  1  0.722947  0.709796  0.161464  1
  Te  Te20  1  0.394873  0.209006  0.169124  1
  Te  Te21  1  0.605127  0.790994  0.830876  1
  Te  Te22  1  0.894873  0.290994  0.830876  1
  Te  Te23  1  0.105127  0.709006  0.169124  1
  Te  Te24  1  0.250599  0.458197  0.171106  1
  Te  Te25  1  0.749401  0.541803  0.828894  1
  Te  Te26  1  0.750599  0.041803  0.828894  1
  Te  Te27  1  0.249401  0.958197  0.171106  1
  Te  Te28  1  0.245003  0.146658  0.415093  1
  Te  Te29  1  0.754997  0.853342  0.584907  1
  Te  Te30  1  0.745003  0.353342  0.584907  1
  Te  Te31  1  0.254997  0.646658  0.415093  1
  Te  Te32  1  0.420691  0.350585  0.589198  1
  Te  Te33  1  0.579309  0.649415  0.410802  1
  Te  Te34  1  0.920691  0.149415  0.410802  1
  Te  Te35  1  0.079309  0.850585  0.589198  1
  Te  Te36  1  0.914257  0.970124  0.167716  1
  Te  Te37  1  0.085743  0.029876  0.832284  1
  Te  Te38  1  0.414257  0.529876  0.832284  1
  Te  Te39  1  0.585743  0.470124  0.167716  1
  Te  Te40  1  0.913373  0.447147  0.167877  1
  Te  Te41  1  0.086627  0.552853  0.832123  1
  Te  Te42  1  0.413373  0.052853  0.832123  1
  Te  Te43  1  0.586627  0.947147  0.167877  1
  Te  Te44  1  0.084505  0.354671  0.588785  1
  Te  Te45  1  0.915495  0.645329  0.411215  1
  Te  Te46  1  0.584505  0.145329  0.411215  1
  Te  Te47  1  0.415495  0.854671  0.588785  1
