# generated using pymatgen
data_Tb2Dy10OsRh3
_symmetry_space_group_name_H-M   'P 1'
_cell_length_a   6.29808700
_cell_length_b   7.25330299
_cell_length_c   9.38331700
_cell_angle_alpha   90.00000000
_cell_angle_beta   90.00000000
_cell_angle_gamma   89.79812422
_symmetry_Int_Tables_number   1
_chemical_formula_structural   Tb2Dy10OsRh3
_chemical_formula_sum   'Tb2 Dy10 Os1 Rh3'
_cell_volume   428.64540034
_cell_formula_units_Z   1
loop_
 _symmetry_equiv_pos_site_id
 _symmetry_equiv_pos_as_xyz
  1  'x, y, z'
loop_
 _atom_site_type_symbol
 _atom_site_label
 _atom_site_symmetry_multiplicity
 _atom_site_fract_x
 _atom_site_fract_y
 _atom_site_fract_z
 _atom_site_occupancy
  Tb  Tb0  1  0.137711  0.463172  0.750000  1
  Tb  Tb1  1  0.365277  0.963956  0.750000  1
  Dy  Dy2  1  0.327453  0.678481  0.065119  1
  Dy  Dy3  1  0.170514  0.174893  0.434875  1
  Dy  Dy4  1  0.668180  0.323087  0.564010  1
  Dy  Dy5  1  0.834418  0.823906  0.940210  1
  Dy  Dy6  1  0.668180  0.323087  0.935990  1
  Dy  Dy7  1  0.834418  0.823906  0.559790  1
  Dy  Dy8  1  0.327453  0.678481  0.434881  1
  Dy  Dy9  1  0.170514  0.174893  0.065125  1
  Dy  Dy10  1  0.864738  0.536209  0.250000  1
  Dy  Dy11  1  0.635559  0.033819  0.250000  1
  Os  Os12  1  0.048050  0.881589  0.250000  1
  Rh  Rh13  1  0.446143  0.381425  0.250000  1
  Rh  Rh14  1  0.943724  0.119199  0.750000  1
  Rh  Rh15  1  0.557667  0.619896  0.750000  1
