# generated using pymatgen
data_DyScCrB6
_symmetry_space_group_name_H-M   'P 1'
_cell_length_a   3.46908700
_cell_length_b   9.01324500
_cell_length_c   11.37504200
_cell_angle_alpha   90.00000000
_cell_angle_beta   90.00000000
_cell_angle_gamma   90.00000000
_symmetry_Int_Tables_number   1
_chemical_formula_structural   DyScCrB6
_chemical_formula_sum   'Dy4 Sc4 Cr4 B24'
_cell_volume   355.67175402
_cell_formula_units_Z   4
loop_
 _symmetry_equiv_pos_site_id
 _symmetry_equiv_pos_as_xyz
  1  'x, y, z'
loop_
 _atom_site_type_symbol
 _atom_site_label
 _atom_site_symmetry_multiplicity
 _atom_site_fract_x
 _atom_site_fract_y
 _atom_site_fract_z
 _atom_site_occupancy
  Dy  Dy0  1  0.000000  0.822778  0.085453  1
  Dy  Dy1  1  0.000000  0.177222  0.914547  1
  Dy  Dy2  1  0.000000  0.322778  0.414547  1
  Dy  Dy3  1  0.000000  0.677222  0.585453  1
  Sc  Sc4  1  0.000000  0.443258  0.130843  1
  Sc  Sc5  1  0.000000  0.556742  0.869157  1
  Sc  Sc6  1  0.000000  0.943258  0.369157  1
  Sc  Sc7  1  0.000000  0.056742  0.630843  1
  Cr  Cr8  1  0.000000  0.141649  0.181800  1
  Cr  Cr9  1  0.000000  0.858351  0.818200  1
  Cr  Cr10  1  0.000000  0.641649  0.318200  1
  Cr  Cr11  1  0.000000  0.358351  0.681800  1
  B  B12  1  0.500000  0.054849  0.067741  1
  B  B13  1  0.500000  0.945151  0.932259  1
  B  B14  1  0.500000  0.554849  0.432259  1
  B  B15  1  0.500000  0.445151  0.567741  1
  B  B16  1  0.500000  0.253190  0.082575  1
  B  B17  1  0.500000  0.746810  0.917425  1
  B  B18  1  0.500000  0.753190  0.417425  1
  B  B19  1  0.500000  0.246810  0.582575  1
  B  B20  1  0.500000  0.294645  0.235460  1
  B  B21  1  0.500000  0.705355  0.764540  1
  B  B22  1  0.500000  0.794645  0.264540  1
  B  B23  1  0.500000  0.205355  0.735460  1
  B  B24  1  0.500000  0.129586  0.316463  1
  B  B25  1  0.500000  0.870414  0.683537  1
  B  B26  1  0.500000  0.629586  0.183537  1
  B  B27  1  0.500000  0.370414  0.816463  1
  B  B28  1  0.500000  0.482639  0.286535  1
  B  B29  1  0.500000  0.517361  0.713465  1
  B  B30  1  0.500000  0.982639  0.213465  1
  B  B31  1  0.500000  0.017361  0.786535  1
  B  B32  1  0.500000  0.096029  0.473865  1
  B  B33  1  0.500000  0.903971  0.526135  1
  B  B34  1  0.500000  0.596029  0.026135  1
  B  B35  1  0.500000  0.403971  0.973865  1
