# generated using pymatgen
data_Sr6TlIn(CoO6)2
_symmetry_space_group_name_H-M   'P 1'
_cell_length_a   6.74647262
_cell_length_b   6.74629649
_cell_length_c   6.74631487
_cell_angle_alpha   91.54957739
_cell_angle_beta   91.55328525
_cell_angle_gamma   91.55307002
_symmetry_Int_Tables_number   1
_chemical_formula_structural   Sr6TlIn(CoO6)2
_chemical_formula_sum   'Sr6 Tl1 In1 Co2 O12'
_cell_volume   306.70564206
_cell_formula_units_Z   1
loop_
 _symmetry_equiv_pos_site_id
 _symmetry_equiv_pos_as_xyz
  1  'x, y, z'
loop_
 _atom_site_type_symbol
 _atom_site_label
 _atom_site_symmetry_multiplicity
 _atom_site_fract_x
 _atom_site_fract_y
 _atom_site_fract_z
 _atom_site_occupancy
  Sr  Sr0  1  0.882089  0.249968  0.617915  1
  Sr  Sr1  1  0.249994  0.617948  0.882051  1
  Sr  Sr2  1  0.617923  0.882078  0.250048  1
  Sr  Sr3  1  0.750012  0.381906  0.118103  1
  Sr  Sr4  1  0.381918  0.118059  0.749952  1
  Sr  Sr5  1  0.118071  0.750036  0.381948  1
  Tl  Tl6  1  0.749969  0.749906  0.750108  1
  In  In7  1  0.250011  0.250045  0.249941  1
  Co  Co8  1  0.003138  0.003154  0.003141  1
  Co  Co9  1  0.496867  0.496858  0.496859  1
  O  O10  1  0.218054  0.410827  0.540906  1
  O  O11  1  0.410877  0.541056  0.218023  1
  O  O12  1  0.540995  0.218069  0.410768  1
  O  O13  1  0.919144  0.724535  0.050792  1
  O  O14  1  0.724507  0.050634  0.919133  1
  O  O15  1  0.050660  0.919070  0.724536  1
  O  O16  1  0.775470  0.580897  0.449377  1
  O  O17  1  0.580863  0.449212  0.775458  1
  O  O18  1  0.449294  0.775429  0.580941  1
  O  O19  1  0.089118  0.281991  0.958935  1
  O  O20  1  0.281976  0.959097  0.089124  1
  O  O21  1  0.959050  0.089227  0.281940  1
