# generated using pymatgen
data_AcS2
_symmetry_space_group_name_H-M   'P 1'
_cell_length_a   4.28925700
_cell_length_b   8.40760400
_cell_length_c   16.99184100
_cell_angle_alpha   90.00000000
_cell_angle_beta   90.00000000
_cell_angle_gamma   90.00000000
_symmetry_Int_Tables_number   1
_chemical_formula_structural   AcS2
_chemical_formula_sum   'Ac8 S16'
_cell_volume   612.76613036
_cell_formula_units_Z   8
loop_
 _symmetry_equiv_pos_site_id
 _symmetry_equiv_pos_as_xyz
  1  'x, y, z'
loop_
 _atom_site_type_symbol
 _atom_site_label
 _atom_site_symmetry_multiplicity
 _atom_site_fract_x
 _atom_site_fract_y
 _atom_site_fract_z
 _atom_site_occupancy
  Ac  Ac0  1  0.216817  0.129861  0.388422  1
  Ac  Ac1  1  0.716817  0.370139  0.611578  1
  Ac  Ac2  1  0.283183  0.629861  0.111578  1
  Ac  Ac3  1  0.783183  0.870139  0.888422  1
  Ac  Ac4  1  0.783183  0.870139  0.611578  1
  Ac  Ac5  1  0.283183  0.629861  0.388422  1
  Ac  Ac6  1  0.716817  0.370139  0.888422  1
  Ac  Ac7  1  0.216817  0.129861  0.111578  1
  S  S8  1  0.738375  0.374321  0.432539  1
  S  S9  1  0.238375  0.125679  0.567461  1
  S  S10  1  0.761625  0.874321  0.067461  1
  S  S11  1  0.261625  0.625679  0.932539  1
  S  S12  1  0.261625  0.625679  0.567461  1
  S  S13  1  0.761625  0.874321  0.432539  1
  S  S14  1  0.238375  0.125679  0.932539  1
  S  S15  1  0.738375  0.374321  0.067461  1
  S  S16  1  0.139642  0.395159  0.250000  1
  S  S17  1  0.639642  0.104841  0.750000  1
  S  S18  1  0.360358  0.895159  0.250000  1
  S  S19  1  0.860358  0.604841  0.750000  1
  S  S20  1  0.657556  0.097406  0.250000  1
  S  S21  1  0.157556  0.402594  0.750000  1
  S  S22  1  0.842444  0.597406  0.250000  1
  S  S23  1  0.342444  0.902594  0.750000  1
