# generated using pymatgen
data_Pr2Ru2I
_symmetry_space_group_name_H-M   'P 1'
_cell_length_a   4.32872100
_cell_length_b   4.32872045
_cell_length_c   17.72511600
_cell_angle_alpha   90.00000000
_cell_angle_beta   90.00000000
_cell_angle_gamma   119.99999660
_symmetry_Int_Tables_number   1
_chemical_formula_structural   Pr2Ru2I
_chemical_formula_sum   'Pr4 Ru4 I2'
_cell_volume   287.63310338
_cell_formula_units_Z   2
loop_
 _symmetry_equiv_pos_site_id
 _symmetry_equiv_pos_as_xyz
  1  'x, y, z'
loop_
 _atom_site_type_symbol
 _atom_site_label
 _atom_site_symmetry_multiplicity
 _atom_site_fract_x
 _atom_site_fract_y
 _atom_site_fract_z
 _atom_site_occupancy
  Pr  Pr0  1  0.000000  0.000000  0.605291  1
  Pr  Pr1  1  0.000000  0.000000  0.394709  1
  Pr  Pr2  1  0.000000  0.000000  0.105291  1
  Pr  Pr3  1  0.000000  0.000000  0.894709  1
  Ru  Ru4  1  0.666667  0.333333  0.504178  1
  Ru  Ru5  1  0.333333  0.666667  0.004178  1
  Ru  Ru6  1  0.666667  0.333333  0.995822  1
  Ru  Ru7  1  0.333333  0.666667  0.495822  1
  I  I8  1  0.666667  0.333333  0.250000  1
  I  I9  1  0.333333  0.666667  0.750000  1
