# generated using pymatgen
data_Ca7Yb(HgPb)4
_symmetry_space_group_name_H-M   'P 1'
_cell_length_a   7.67169401
_cell_length_b   5.51151000
_cell_length_c   11.02105022
_cell_angle_alpha   90.00000000
_cell_angle_beta   90.00796868
_cell_angle_gamma   90.00000000
_symmetry_Int_Tables_number   1
_chemical_formula_structural   Ca7Yb(HgPb)4
_chemical_formula_sum   'Ca7 Yb1 Hg4 Pb4'
_cell_volume   465.99885501
_cell_formula_units_Z   1
loop_
 _symmetry_equiv_pos_site_id
 _symmetry_equiv_pos_as_xyz
  1  'x, y, z'
loop_
 _atom_site_type_symbol
 _atom_site_label
 _atom_site_symmetry_multiplicity
 _atom_site_fract_x
 _atom_site_fract_y
 _atom_site_fract_z
 _atom_site_occupancy
  Ca  Ca0  1  0.999920  0.750000  0.125397  1
  Ca  Ca1  1  0.499936  0.250001  0.374356  1
  Ca  Ca2  1  0.999934  0.250001  0.374500  1
  Ca  Ca3  1  0.000104  0.750000  0.625357  1
  Ca  Ca4  1  0.500172  0.750000  0.625409  1
  Ca  Ca5  1  0.000013  0.250001  0.874751  1
  Ca  Ca6  1  0.500020  0.250001  0.874893  1
  Yb  Yb7  1  0.499811  0.750000  0.125307  1
  Hg  Hg8  1  0.747783  0.250001  0.124406  1
  Hg  Hg9  1  0.251066  0.750000  0.374479  1
  Hg  Hg10  1  0.749991  0.250001  0.624413  1
  Hg  Hg11  1  0.251136  0.750000  0.876717  1
  Pb  Pb12  1  0.251381  0.250001  0.124664  1
  Pb  Pb13  1  0.749211  0.750000  0.374721  1
  Pb  Pb14  1  0.250131  0.250001  0.624657  1
  Pb  Pb15  1  0.749294  0.750000  0.875973  1
