# generated using pymatgen
data_SmHo19Pb16
_symmetry_space_group_name_H-M   'P 1'
_cell_length_a   8.20375788
_cell_length_b   8.26668071
_cell_length_c   15.61912452
_cell_angle_alpha   89.98452349
_cell_angle_beta   89.72092355
_cell_angle_gamma   89.92828633
_symmetry_Int_Tables_number   1
_chemical_formula_structural   SmHo19Pb16
_chemical_formula_sum   'Sm1 Ho19 Pb16'
_cell_volume   1059.24196597
_cell_formula_units_Z   1
loop_
 _symmetry_equiv_pos_site_id
 _symmetry_equiv_pos_as_xyz
  1  'x, y, z'
loop_
 _atom_site_type_symbol
 _atom_site_label
 _atom_site_symmetry_multiplicity
 _atom_site_fract_x
 _atom_site_fract_y
 _atom_site_fract_z
 _atom_site_occupancy
  Sm  Sm0  1  0.967325  0.822882  0.598174  1
  Ho  Ho1  1  0.623793  0.158556  0.621380  1
  Ho  Ho2  1  0.122147  0.341427  0.879924  1
  Ho  Ho3  1  0.378134  0.842211  0.121210  1
  Ho  Ho4  1  0.875447  0.657928  0.378104  1
  Ho  Ho5  1  0.375679  0.841667  0.378540  1
  Ho  Ho6  1  0.877780  0.658184  0.121180  1
  Ho  Ho7  1  0.621713  0.158341  0.879284  1
  Ho  Ho8  1  0.123336  0.341486  0.621227  1
  Ho  Ho9  1  0.464436  0.675174  0.599593  1
  Ho  Ho10  1  0.962818  0.824078  0.899539  1
  Ho  Ho11  1  0.536649  0.324534  0.100403  1
  Ho  Ho12  1  0.035325  0.176476  0.400109  1
  Ho  Ho13  1  0.534985  0.323756  0.400286  1
  Ho  Ho14  1  0.036919  0.175627  0.100288  1
  Ho  Ho15  1  0.463423  0.675451  0.900554  1
  Ho  Ho16  1  0.790501  0.495727  0.750627  1
  Ho  Ho17  1  0.290916  0.004751  0.750776  1
  Ho  Ho18  1  0.209085  0.504109  0.249879  1
  Ho  Ho19  1  0.709117  0.995547  0.249357  1
  Pb  Pb20  1  0.715199  0.967682  0.455521  1
  Pb  Pb21  1  0.219411  0.534851  0.043303  1
  Pb  Pb22  1  0.280678  0.032200  0.958166  1
  Pb  Pb23  1  0.781382  0.464709  0.541890  1
  Pb  Pb24  1  0.286718  0.036779  0.542004  1
  Pb  Pb25  1  0.780368  0.466652  0.958370  1
  Pb  Pb26  1  0.719796  0.966247  0.042188  1
  Pb  Pb27  1  0.216873  0.533168  0.457178  1
  Pb  Pb28  1  0.426728  0.373814  0.750379  1
  Pb  Pb29  1  0.926876  0.127057  0.750139  1
  Pb  Pb30  1  0.572184  0.626362  0.249786  1
  Pb  Pb31  1  0.073230  0.874235  0.249857  1
  Pb  Pb32  1  0.650034  0.846079  0.749885  1
  Pb  Pb33  1  0.152919  0.652758  0.750655  1
  Pb  Pb34  1  0.348753  0.154861  0.250412  1
  Pb  Pb35  1  0.849322  0.344634  0.249833  1
