# generated using pymatgen
data_YZrMn12P7
_symmetry_space_group_name_H-M   'P 1'
_cell_length_a   9.24972200
_cell_length_b   9.24972230
_cell_length_c   3.57979400
_cell_angle_alpha   90.00000000
_cell_angle_beta   90.00000000
_cell_angle_gamma   120.00000608
_symmetry_Int_Tables_number   1
_chemical_formula_structural   YZrMn12P7
_chemical_formula_sum   'Y1 Zr1 Mn12 P7'
_cell_volume   265.24427291
_cell_formula_units_Z   1
loop_
 _symmetry_equiv_pos_site_id
 _symmetry_equiv_pos_as_xyz
  1  'x, y, z'
loop_
 _atom_site_type_symbol
 _atom_site_label
 _atom_site_symmetry_multiplicity
 _atom_site_fract_x
 _atom_site_fract_y
 _atom_site_fract_z
 _atom_site_occupancy
  Y  Y0  1  0.333333  0.666667  0.500000  1
  Zr  Zr1  1  0.666667  0.333333  0.000000  1
  Mn  Mn2  1  0.046675  0.424762  0.000000  1
  Mn  Mn3  1  0.575238  0.621914  0.000000  1
  Mn  Mn4  1  0.378086  0.953325  0.000000  1
  Mn  Mn5  1  0.278887  0.157864  0.000000  1
  Mn  Mn6  1  0.842136  0.121022  0.000000  1
  Mn  Mn7  1  0.878978  0.721113  0.000000  1
  Mn  Mn8  1  0.439852  0.391969  0.500000  1
  Mn  Mn9  1  0.608031  0.047882  0.500000  1
  Mn  Mn10  1  0.952118  0.560148  0.500000  1
  Mn  Mn11  1  0.103565  0.228656  0.500000  1
  Mn  Mn12  1  0.771344  0.874910  0.500000  1
  Mn  Mn13  1  0.125090  0.896435  0.500000  1
  P  P14  1  0.290380  0.410213  0.000000  1
  P  P15  1  0.589787  0.880166  0.000000  1
  P  P16  1  0.119834  0.709620  0.000000  1
  P  P17  1  0.412111  0.130782  0.500000  1
  P  P18  1  0.869218  0.281329  0.500000  1
  P  P19  1  0.718671  0.587889  0.500000  1
  P  P20  1  0.000000  0.000000  0.000000  1
