# generated using pymatgen
data_Cd3Hg(SeO4)4
_symmetry_space_group_name_H-M   'P 1'
_cell_length_a   5.21710083
_cell_length_b   7.56603265
_cell_length_c   9.65965854
_cell_angle_alpha   89.81381583
_cell_angle_beta   89.74196160
_cell_angle_gamma   91.17900047
_symmetry_Int_Tables_number   1
_chemical_formula_structural   Cd3Hg(SeO4)4
_chemical_formula_sum   'Cd3 Hg1 Se4 O16'
_cell_volume   381.20661786
_cell_formula_units_Z   1
loop_
 _symmetry_equiv_pos_site_id
 _symmetry_equiv_pos_as_xyz
  1  'x, y, z'
loop_
 _atom_site_type_symbol
 _atom_site_label
 _atom_site_symmetry_multiplicity
 _atom_site_fract_x
 _atom_site_fract_y
 _atom_site_fract_z
 _atom_site_occupancy
  Cd  Cd0  1  0.000000  0.500000  0.000000  1
  Cd  Cd1  1  0.500000  0.000000  0.500000  1
  Cd  Cd2  1  0.500000  0.500000  0.500000  1
  Hg  Hg3  1  0.000000  0.000000  0.000000  1
  Se  Se4  1  0.982908  0.749386  0.678572  1
  Se  Se5  1  0.517723  0.747090  0.183053  1
  Se  Se6  1  0.482277  0.252910  0.816947  1
  Se  Se7  1  0.017092  0.250614  0.321428  1
  O  O8  1  0.966883  0.743546  0.854640  1
  O  O9  1  0.845076  0.935527  0.629263  1
  O  O10  1  0.844412  0.560924  0.626523  1
  O  O11  1  0.788462  0.261063  0.870417  1
  O  O12  1  0.710184  0.246848  0.377440  1
  O  O13  1  0.649116  0.940495  0.130773  1
  O  O14  1  0.659889  0.563835  0.131876  1
  O  O15  1  0.535512  0.750988  0.358769  1
  O  O16  1  0.464488  0.249012  0.641231  1
  O  O17  1  0.340111  0.436165  0.868124  1
  O  O18  1  0.350884  0.059505  0.869227  1
  O  O19  1  0.289816  0.753152  0.622560  1
  O  O20  1  0.211538  0.738937  0.129583  1
  O  O21  1  0.155588  0.439076  0.373477  1
  O  O22  1  0.154924  0.064473  0.370737  1
  O  O23  1  0.033117  0.256454  0.145360  1
