# generated using pymatgen
data_Y3Lu(Tc3Ir)2
_symmetry_space_group_name_H-M   'P 1'
_cell_length_a   5.24242100
_cell_length_b   5.24242045
_cell_length_c   9.27445200
_cell_angle_alpha   90.00000000
_cell_angle_beta   90.00000000
_cell_angle_gamma   119.99998451
_symmetry_Int_Tables_number   1
_chemical_formula_structural   Y3Lu(Tc3Ir)2
_chemical_formula_sum   'Y3 Lu1 Tc6 Ir2'
_cell_volume   220.74084540
_cell_formula_units_Z   1
loop_
 _symmetry_equiv_pos_site_id
 _symmetry_equiv_pos_as_xyz
  1  'x, y, z'
loop_
 _atom_site_type_symbol
 _atom_site_label
 _atom_site_symmetry_multiplicity
 _atom_site_fract_x
 _atom_site_fract_y
 _atom_site_fract_z
 _atom_site_occupancy
  Y  Y0  1  0.333333  0.666667  0.434628  1
  Y  Y1  1  0.666667  0.333333  0.564537  1
  Y  Y2  1  0.666667  0.333333  0.936332  1
  Lu  Lu3  1  0.333333  0.666667  0.065781  1
  Tc  Tc4  1  0.829559  0.170441  0.248256  1
  Tc  Tc5  1  0.829559  0.659116  0.248256  1
  Tc  Tc6  1  0.340884  0.170441  0.248256  1
  Tc  Tc7  1  0.170650  0.829350  0.751093  1
  Tc  Tc8  1  0.170650  0.341302  0.751093  1
  Tc  Tc9  1  0.658698  0.829350  0.751093  1
  Ir  Ir10  1  0.000000  0.000000  0.499999  1
  Ir  Ir11  1  0.000000  0.000000  0.000674  1
