# generated using pymatgen
data_Tm3LuTcB12Rh
_symmetry_space_group_name_H-M   'P 1'
_cell_length_a   3.63298600
_cell_length_b   9.06730747
_cell_length_c   11.44945115
_cell_angle_alpha   90.31540111
_cell_angle_beta   90.00000000
_cell_angle_gamma   90.00000000
_symmetry_Int_Tables_number   1
_chemical_formula_structural   Tm3LuTcB12Rh
_chemical_formula_sum   'Tm6 Lu2 Tc2 B24 Rh2'
_cell_volume   377.15524789
_cell_formula_units_Z   2
loop_
 _symmetry_equiv_pos_site_id
 _symmetry_equiv_pos_as_xyz
  1  'x, y, z'
loop_
 _atom_site_type_symbol
 _atom_site_label
 _atom_site_symmetry_multiplicity
 _atom_site_fract_x
 _atom_site_fract_y
 _atom_site_fract_z
 _atom_site_occupancy
  Tm  Tm0  1  0.500000  0.317545  0.411359  1
  Tm  Tm1  1  0.500000  0.682455  0.588641  1
  Tm  Tm2  1  0.500000  0.173662  0.917140  1
  Tm  Tm3  1  0.500000  0.826338  0.082860  1
  Tm  Tm4  1  0.500000  0.441741  0.126921  1
  Tm  Tm5  1  0.500000  0.558259  0.873079  1
  Lu  Lu6  1  0.500000  0.053858  0.628229  1
  Lu  Lu7  1  0.500000  0.946142  0.371771  1
  Tc  Tc8  1  0.500000  0.138608  0.180310  1
  Tc  Tc9  1  0.500000  0.861392  0.819690  1
  B  B10  1  0.000000  0.105102  0.471793  1
  B  B11  1  0.000000  0.894898  0.528207  1
  B  B12  1  0.000000  0.394301  0.970682  1
  B  B13  1  0.000000  0.605699  0.029318  1
  B  B14  1  0.000000  0.131418  0.315899  1
  B  B15  1  0.000000  0.868582  0.684101  1
  B  B16  1  0.000000  0.367355  0.816896  1
  B  B17  1  0.000000  0.632645  0.183104  1
  B  B18  1  0.000000  0.052833  0.067126  1
  B  B19  1  0.000000  0.947167  0.932874  1
  B  B20  1  0.000000  0.445348  0.565311  1
  B  B21  1  0.000000  0.554652  0.434689  1
  B  B22  1  0.000000  0.483052  0.287956  1
  B  B23  1  0.000000  0.516948  0.712044  1
  B  B24  1  0.000000  0.017802  0.786465  1
  B  B25  1  0.000000  0.982198  0.213535  1
  B  B26  1  0.000000  0.248718  0.081038  1
  B  B27  1  0.000000  0.751282  0.918962  1
  B  B28  1  0.000000  0.249455  0.578521  1
  B  B29  1  0.000000  0.750545  0.421479  1
  B  B30  1  0.000000  0.293175  0.235544  1
  B  B31  1  0.000000  0.706825  0.764456  1
  B  B32  1  0.000000  0.207186  0.735074  1
  B  B33  1  0.000000  0.792814  0.264926  1
  Rh  Rh34  1  0.500000  0.361206  0.678565  1
  Rh  Rh35  1  0.500000  0.638794  0.321435  1
