# generated using pymatgen
data_LaCe3Nd6(Al2Ru3)2
_symmetry_space_group_name_H-M   'P 1'
_cell_length_a   8.60372190
_cell_length_b   8.59295000
_cell_length_c   8.62746442
_cell_angle_alpha   110.15067377
_cell_angle_beta   110.50238910
_cell_angle_gamma   110.04764818
_symmetry_Int_Tables_number   1
_chemical_formula_structural   LaCe3Nd6(Al2Ru3)2
_chemical_formula_sum   'La1 Ce3 Nd6 Al4 Ru6'
_cell_volume   476.64145225
_cell_formula_units_Z   1
loop_
 _symmetry_equiv_pos_site_id
 _symmetry_equiv_pos_as_xyz
  1  'x, y, z'
loop_
 _atom_site_type_symbol
 _atom_site_label
 _atom_site_symmetry_multiplicity
 _atom_site_fract_x
 _atom_site_fract_y
 _atom_site_fract_z
 _atom_site_occupancy
  La  La0  1  0.501769  0.990894  0.716227  1
  Ce  Ce1  1  0.252295  0.201563  0.945789  1
  Ce  Ce2  1  0.943541  0.251487  0.200248  1
  Ce  Ce3  1  0.200410  0.944259  0.251312  1
  Nd  Nd4  1  0.782533  0.782247  0.782553  1
  Nd  Nd5  1  0.310793  0.562973  0.755436  1
  Nd  Nd6  1  0.756741  0.312786  0.564008  1
  Nd  Nd7  1  0.563078  0.753226  0.308845  1
  Nd  Nd8  1  0.722463  0.507418  0.993707  1
  Nd  Nd9  1  0.990790  0.721242  0.504567  1
  Al  Al10  1  0.404900  0.404399  0.404226  1
  Al  Al11  1  0.094384  0.495745  0.009215  1
  Al  Al12  1  0.008007  0.094225  0.496059  1
  Al  Al13  1  0.495750  0.007824  0.095289  1
  Ru  Ru14  1  0.919200  0.124417  0.755724  1
  Ru  Ru15  1  0.756106  0.916968  0.124370  1
  Ru  Ru16  1  0.124374  0.756160  0.919514  1
  Ru  Ru17  1  0.220366  0.588195  0.366227  1
  Ru  Ru18  1  0.365220  0.219473  0.586612  1
  Ru  Ru19  1  0.587279  0.364498  0.220072  1
