# generated using pymatgen
data_Tb16In4TcPt3
_symmetry_space_group_name_H-M   'P 1'
_cell_length_a   9.76031944
_cell_length_b   9.75526049
_cell_length_c   9.76032000
_cell_angle_alpha   59.98284869
_cell_angle_beta   60.00000488
_cell_angle_gamma   59.98284510
_symmetry_Int_Tables_number   1
_chemical_formula_structural   Tb16In4TcPt3
_chemical_formula_sum   'Tb16 In4 Tc1 Pt3'
_cell_volume   656.96060755
_cell_formula_units_Z   1
loop_
 _symmetry_equiv_pos_site_id
 _symmetry_equiv_pos_as_xyz
  1  'x, y, z'
loop_
 _atom_site_type_symbol
 _atom_site_label
 _atom_site_symmetry_multiplicity
 _atom_site_fract_x
 _atom_site_fract_y
 _atom_site_fract_z
 _atom_site_occupancy
  Tb  Tb0  1  0.809603  0.809168  0.190615  1
  Tb  Tb1  1  0.810155  0.194643  0.810155  1
  Tb  Tb2  1  0.185048  0.194643  0.810155  1
  Tb  Tb3  1  0.648554  0.054339  0.648554  1
  Tb  Tb4  1  0.063542  0.061463  0.437498  1
  Tb  Tb5  1  0.445634  0.434764  0.059801  1
  Tb  Tb6  1  0.650602  0.648269  0.650602  1
  Tb  Tb7  1  0.810155  0.194643  0.185048  1
  Tb  Tb8  1  0.190615  0.809168  0.809603  1
  Tb  Tb9  1  0.050527  0.648269  0.650602  1
  Tb  Tb10  1  0.437498  0.061463  0.063542  1
  Tb  Tb11  1  0.437498  0.061463  0.437498  1
  Tb  Tb12  1  0.059801  0.434764  0.059801  1
  Tb  Tb13  1  0.650602  0.648269  0.050527  1
  Tb  Tb14  1  0.190615  0.809168  0.190615  1
  Tb  Tb15  1  0.059801  0.434764  0.445634  1
  In  In16  1  0.417147  0.416697  0.417147  1
  In  In17  1  0.417147  0.416697  0.749009  1
  In  In18  1  0.417415  0.747756  0.417415  1
  In  In19  1  0.749009  0.416697  0.417147  1
  Tc  Tc20  1  0.857623  0.427133  0.857623  1
  Pt  Pt21  1  0.857255  0.858587  0.857255  1
  Pt  Pt22  1  0.857255  0.858587  0.426903  1
  Pt  Pt23  1  0.426903  0.858587  0.857255  1
