# generated using pymatgen
data_Ba14TbSb11
_symmetry_space_group_name_H-M   'P 1'
_cell_length_a   17.92246367
_cell_length_b   17.92246407
_cell_length_c   17.92246500
_cell_angle_alpha   94.37919761
_cell_angle_beta   117.50162997
_cell_angle_gamma   117.50778438
_symmetry_Int_Tables_number   1
_chemical_formula_structural   Ba14TbSb11
_chemical_formula_sum   'Ba56 Tb4 Sb44'
_cell_volume   4211.01304974
_cell_formula_units_Z   4
loop_
 _symmetry_equiv_pos_site_id
 _symmetry_equiv_pos_as_xyz
  1  'x, y, z'
loop_
 _atom_site_type_symbol
 _atom_site_label
 _atom_site_symmetry_multiplicity
 _atom_site_fract_x
 _atom_site_fract_y
 _atom_site_fract_z
 _atom_site_occupancy
  Ba  Ba0  1  0.144911  0.749414  0.892846  1
  Ba  Ba1  1  0.031004  0.746290  0.627294  1
  Ba  Ba2  1  0.025272  0.781776  0.398629  1
  Ba  Ba3  1  0.092367  0.524429  0.753310  1
  Ba  Ba4  1  0.355951  0.973399  0.874903  1
  Ba  Ba5  1  0.118823  0.372279  0.903184  1
  Ba  Ba6  1  0.098436  0.125365  0.980797  1
  Ba  Ba7  1  0.144088  0.894088  0.250001  1
  Ba  Ba8  1  0.144569  0.625365  0.526931  1
  Ba  Ba9  1  0.409364  0.747829  0.974569  1
  Ba  Ba10  1  0.469094  0.872279  0.753455  1
  Ba  Ba11  1  0.357512  0.882627  0.479813  1
  Ba  Ba12  1  0.355803  0.605804  0.749999  1
  Ba  Ba13  1  0.225525  0.974221  0.063583  1
  Ba  Ba14  1  0.271116  0.339057  0.746689  1
  Ba  Ba15  1  0.227749  0.752509  0.161398  1
  Ba  Ba16  1  0.098495  0.473399  0.117448  1
  Ba  Ba17  1  0.273258  0.434795  0.525429  1
  Ba  Ba18  1  0.143015  0.020422  0.617585  1
  Ba  Ba19  1  0.598432  0.617636  0.973066  1
  Ba  Ba20  1  0.091110  0.066348  0.338603  1
  Ba  Ba21  1  0.118996  0.246290  0.215286  1
  Ba  Ba22  1  0.592369  0.839057  0.567941  1
  Ba  Ba23  1  0.618824  0.715640  0.746547  1
  Ba  Ba24  1  0.356567  0.252065  0.607153  1
  Ba  Ba25  1  0.402837  0.520422  0.377407  1
  Ba  Ba26  1  0.531006  0.903711  0.284714  1
  Ba  Ba27  1  0.618997  0.403711  0.872706  1
  Ba  Ba28  1  0.383396  0.601929  0.127197  1
  Ba  Ba29  1  0.474732  0.101929  0.718533  1
  Ba  Ba30  1  0.598497  0.481050  0.625102  1
  Ba  Ba31  1  0.644912  0.752065  0.395498  1
  Ba  Ba32  1  0.383146  0.281776  0.256503  1
  Ba  Ba33  1  0.410636  0.161942  0.436414  1
  Ba  Ba34  1  0.883396  0.756200  0.781468  1
  Ba  Ba35  1  0.909366  0.934795  0.661537  1
  Ba  Ba36  1  0.402814  0.382627  0.025115  1
  Ba  Ba37  1  0.855948  0.981050  0.382553  1
  Ba  Ba38  1  0.727746  0.566348  0.475239  1
  Ba  Ba39  1  0.902836  0.525429  0.882414  1
  Ba  Ba40  1  0.773258  0.247829  0.838464  1
  Ba  Ba41  1  0.725528  0.661942  0.251306  1
  Ba  Ba42  1  0.771118  0.024429  0.932062  1
  Ba  Ba43  1  0.644088  0.394088  0.249999  1
  Ba  Ba44  1  0.644570  0.117636  0.519204  1
  Ba  Ba45  1  0.525271  0.126642  0.243495  1
  Ba  Ba46  1  0.591110  0.252509  0.024760  1
  Ba  Ba47  1  0.857512  0.377701  0.474888  1
  Ba  Ba48  1  0.855805  0.105804  0.750002  1
  Ba  Ba49  1  0.902812  0.877701  0.020188  1
  Ba  Ba50  1  0.883147  0.626642  0.101371  1
  Ba  Ba51  1  0.643015  0.025429  0.122593  1
  Ba  Ba52  1  0.910637  0.474221  0.248696  1
  Ba  Ba53  1  0.969093  0.215640  0.596816  1
  Ba  Ba54  1  0.974734  0.256200  0.372805  1
  Ba  Ba55  1  0.856568  0.249414  0.104503  1
  Tb  Tb56  1  0.250233  0.125509  0.874738  1
  Tb  Tb57  1  0.250772  0.625509  0.375276  1
  Tb  Tb58  1  0.750234  0.875495  0.124725  1
  Tb  Tb59  1  0.750769  0.375495  0.625261  1
  Sb  Sb60  1  0.115869  0.924160  0.815211  1
  Sb  Sb61  1  0.157963  0.586026  0.979555  1
  Sb  Sb62  1  0.250021  0.743630  0.756256  1
  Sb  Sb63  1  0.250145  0.881425  0.618718  1
  Sb  Sb64  1  0.106618  0.428054  0.585552  1
  Sb  Sb65  1  0.107942  0.184548  0.799051  1
  Sb  Sb66  1  0.007574  0.753756  0.003723  1
  Sb  Sb67  1  0.115448  0.691355  0.299861  1
  Sb  Sb68  1  0.342501  0.521067  0.914448  1
  Sb  Sb69  1  0.108950  0.424160  0.308291  1
  Sb  Sb70  1  0.106471  0.178409  0.520444  1
  Sb  Sb71  1  0.392756  0.979508  0.320971  1
  Sb  Sb72  1  0.385497  0.684548  0.576606  1
  Sb  Sb73  1  0.607943  0.808892  0.923395  1
  Sb  Sb74  1  0.385997  0.201899  0.809352  1
  Sb  Sb75  1  0.487370  0.493765  0.743743  1
  Sb  Sb76  1  0.392548  0.701899  0.315902  1
  Sb  Sb77  1  0.392579  0.913627  0.071845  1
  Sb  Sb78  1  0.341782  0.320733  0.428154  1
  Sb  Sb79  1  0.250033  0.003851  0.496277  1
  Sb  Sb80  1  0.262706  0.381425  0.131280  1
  Sb  Sb81  1  0.842502  0.928054  0.821436  1
  Sb  Sb82  1  0.158534  0.071781  0.179027  1
  Sb  Sb83  1  0.750021  0.993765  0.506394  1
  Sb  Sb84  1  0.762713  0.631428  0.881282  1
  Sb  Sb85  1  0.657965  0.678409  0.571938  1
  Sb  Sb86  1  0.606472  0.086026  0.928063  1
  Sb  Sb87  1  0.608950  0.300658  0.684790  1
  Sb  Sb88  1  0.507574  0.503851  0.253818  1
  Sb  Sb89  1  0.615868  0.800658  0.191709  1
  Sb  Sb90  1  0.391493  0.191355  0.075906  1
  Sb  Sb91  1  0.615449  0.315585  0.424093  1
  Sb  Sb92  1  0.606619  0.021067  0.678566  1
  Sb  Sb93  1  0.892580  0.820733  0.478951  1
  Sb  Sb94  1  0.892546  0.576642  0.690646  1
  Sb  Sb95  1  0.658536  0.479508  0.086752  1
  Sb  Sb96  1  0.885496  0.308892  0.700948  1
  Sb  Sb97  1  0.987374  0.243630  0.993609  1
  Sb  Sb98  1  0.891494  0.815585  0.200137  1
  Sb  Sb99  1  0.892755  0.571782  0.413247  1
  Sb  Sb100  1  0.750146  0.131428  0.368714  1
  Sb  Sb101  1  0.750033  0.253756  0.246182  1
  Sb  Sb102  1  0.841781  0.413627  0.021049  1
  Sb  Sb103  1  0.885995  0.076642  0.184096  1
