# generated using pymatgen
data_K6PaO6
_symmetry_space_group_name_H-M   'P 1'
_cell_length_a   6.59239312
_cell_length_b   6.59278401
_cell_length_c   6.59325193
_cell_angle_alpha   101.46535601
_cell_angle_beta   101.45966620
_cell_angle_gamma   101.47319828
_symmetry_Int_Tables_number   1
_chemical_formula_structural   K6PaO6
_chemical_formula_sum   'K6 Pa1 O6'
_cell_volume   266.62769238
_cell_formula_units_Z   1
loop_
 _symmetry_equiv_pos_site_id
 _symmetry_equiv_pos_as_xyz
  1  'x, y, z'
loop_
 _atom_site_type_symbol
 _atom_site_label
 _atom_site_symmetry_multiplicity
 _atom_site_fract_x
 _atom_site_fract_y
 _atom_site_fract_z
 _atom_site_occupancy
  K  K0  1  0.280683  0.586067  0.119798  1
  K  K1  1  0.586074  0.119803  0.280663  1
  K  K2  1  0.880190  0.719310  0.413920  1
  K  K3  1  0.119811  0.280688  0.586080  1
  K  K4  1  0.413926  0.880200  0.719335  1
  K  K5  1  0.719317  0.413931  0.880202  1
  Pa  Pa6  1  0.000000  0.000000  0.000000  1
  O  O7  1  0.703975  0.813265  0.041929  1
  O  O8  1  0.958077  0.296015  0.186731  1
  O  O9  1  0.186717  0.958079  0.296002  1
  O  O10  1  0.813286  0.041921  0.703998  1
  O  O11  1  0.041926  0.703987  0.813270  1
  O  O12  1  0.296026  0.186737  0.958072  1
