# generated using pymatgen
data_HfBe9NbW
_symmetry_space_group_name_H-M   'P 1'
_cell_length_a   7.54679205
_cell_length_b   7.54679203
_cell_length_c   7.54679191
_cell_angle_alpha   35.06347996
_cell_angle_beta   35.06348330
_cell_angle_gamma   35.06347420
_symmetry_Int_Tables_number   1
_chemical_formula_structural   HfBe9NbW
_chemical_formula_sum   'Hf1 Be9 Nb1 W1'
_cell_volume   126.67270339
_cell_formula_units_Z   1
loop_
 _symmetry_equiv_pos_site_id
 _symmetry_equiv_pos_as_xyz
  1  'x, y, z'
loop_
 _atom_site_type_symbol
 _atom_site_label
 _atom_site_symmetry_multiplicity
 _atom_site_fract_x
 _atom_site_fract_y
 _atom_site_fract_z
 _atom_site_occupancy
  Hf  Hf0  1  0.001612  0.001612  0.001612  1
  Be  Be1  1  0.499555  0.499555  0.499555  1
  Be  Be2  1  0.334231  0.334231  0.334232  1
  Be  Be3  1  0.664470  0.664470  0.664469  1
  Be  Be4  1  0.078478  0.585414  0.585414  1
  Be  Be5  1  0.585414  0.585414  0.078478  1
  Be  Be6  1  0.585414  0.078478  0.585414  1
  Be  Be7  1  0.413090  0.924591  0.413090  1
  Be  Be8  1  0.924591  0.413090  0.413090  1
  Be  Be9  1  0.413090  0.413090  0.924591  1
  Nb  Nb10  1  0.856729  0.856729  0.856729  1
  W  W11  1  0.143325  0.143325  0.143325  1
