# generated using pymatgen
data_Hf6NiAs5Ru6
_symmetry_space_group_name_H-M   'P 1'
_cell_length_a   7.62509320
_cell_length_b   7.66276226
_cell_length_c   7.62509358
_cell_angle_alpha   128.56456300
_cell_angle_beta   119.18898008
_cell_angle_gamma   83.47675687
_symmetry_Int_Tables_number   1
_chemical_formula_structural   Hf6NiAs5Ru6
_chemical_formula_sum   'Hf6 Ni1 As5 Ru6'
_cell_volume   292.05280533
_cell_formula_units_Z   1
loop_
 _symmetry_equiv_pos_site_id
 _symmetry_equiv_pos_as_xyz
  1  'x, y, z'
loop_
 _atom_site_type_symbol
 _atom_site_label
 _atom_site_symmetry_multiplicity
 _atom_site_fract_x
 _atom_site_fract_y
 _atom_site_fract_z
 _atom_site_occupancy
  Hf  Hf0  1  0.445736  0.653967  0.708231  1
  Hf  Hf1  1  0.524892  0.252220  0.227329  1
  Hf  Hf2  1  0.748007  0.839167  0.591160  1
  Hf  Hf3  1  0.248913  0.853445  0.104531  1
  Hf  Hf4  1  0.066275  0.257212  0.690937  1
  Hf  Hf5  1  0.958419  0.667366  0.208947  1
  Ni  Ni6  1  0.266911  0.254107  0.487197  1
  As  As7  1  0.734069  0.252435  0.018366  1
  As  As8  1  0.332161  0.586458  0.251149  1
  As  As9  1  0.671598  0.920106  0.257357  1
  As  As10  1  0.162750  0.920106  0.748508  1
  As  As11  1  0.835309  0.586458  0.754298  1
  Ru  Ru12  1  0.497964  0.495236  0.992633  1
  Ru  Ru13  1  0.002603  0.495236  0.497272  1
  Ru  Ru14  1  0.092255  0.253013  0.099620  1
  Ru  Ru15  1  0.883360  0.010027  0.134640  1
  Ru  Ru16  1  0.375386  0.010027  0.626667  1
  Ru  Ru17  1  0.653393  0.253013  0.660758  1
