# generated using pymatgen
data_Er8Ti7Si16Mo4W
_symmetry_space_group_name_H-M   'P 1'
_cell_length_a   6.95080025
_cell_length_b   6.94521859
_cell_length_c   12.80189125
_cell_angle_alpha   89.89659167
_cell_angle_beta   89.96766267
_cell_angle_gamma   89.97380352
_symmetry_Int_Tables_number   1
_chemical_formula_structural   Er8Ti7Si16Mo4W
_chemical_formula_sum   'Er8 Ti7 Si16 Mo4 W1'
_cell_volume   618.00791717
_cell_formula_units_Z   1
loop_
 _symmetry_equiv_pos_site_id
 _symmetry_equiv_pos_as_xyz
  1  'x, y, z'
loop_
 _atom_site_type_symbol
 _atom_site_label
 _atom_site_symmetry_multiplicity
 _atom_site_fract_x
 _atom_site_fract_y
 _atom_site_fract_z
 _atom_site_occupancy
  Er  Er0  1  0.340683  0.999996  0.467862  1
  Er  Er1  1  0.499680  0.840166  0.719048  1
  Er  Er2  1  0.499486  0.159940  0.217306  1
  Er  Er3  1  0.839959  0.499887  0.282225  1
  Er  Er4  1  0.159610  0.498704  0.781736  1
  Er  Er5  1  0.659322  0.999747  0.968008  1
  Er  Er6  1  0.999676  0.340350  0.532714  1
  Er  Er7  1  0.000049  0.659473  0.030547  1
  Ti  Ti8  1  0.491077  0.654300  0.124549  1
  Ti  Ti9  1  0.506353  0.347589  0.627239  1
  Ti  Ti10  1  0.653885  0.489222  0.873567  1
  Ti  Ti11  1  0.346925  0.508374  0.374482  1
  Ti  Ti12  1  0.846284  0.992849  0.374939  1
  Ti  Ti13  1  0.005771  0.153579  0.125824  1
  Ti  Ti14  1  0.992524  0.847367  0.625037  1
  Si  Si15  1  0.202532  0.129775  0.683687  1
  Si  Si16  1  0.371068  0.702926  0.931917  1
  Si  Si17  1  0.630210  0.298335  0.434325  1
  Si  Si18  1  0.702554  0.369161  0.066886  1
  Si  Si19  1  0.298712  0.631351  0.567159  1
  Si  Si20  1  0.797408  0.868832  0.182828  1
  Si  Si21  1  0.130466  0.203533  0.317196  1
  Si  Si22  1  0.870824  0.797997  0.817935  1
  Si  Si23  1  0.293438  0.956451  0.064036  1
  Si  Si24  1  0.545518  0.793278  0.314723  1
  Si  Si25  1  0.451431  0.207050  0.815939  1
  Si  Si26  1  0.792359  0.547775  0.684019  1
  Si  Si27  1  0.206442  0.454323  0.184799  1
  Si  Si28  1  0.707989  0.046083  0.565326  1
  Si  Si29  1  0.957872  0.289230  0.934864  1
  Si  Si30  1  0.045631  0.707554  0.434811  1
  Mo  Mo31  1  0.171367  0.828261  0.248999  1
  Mo  Mo32  1  0.827538  0.171693  0.750343  1
  Mo  Mo33  1  0.673118  0.672740  0.499680  1
  Mo  Mo34  1  0.154639  0.003775  0.875154  1
  W  W35  1  0.327598  0.328337  0.000290  1
