# generated using pymatgen
data_Sr10Bi6SCl
_symmetry_space_group_name_H-M   'P 1'
_cell_length_a   9.79805400
_cell_length_b   9.79805428
_cell_length_c   7.65943500
_cell_angle_alpha   90.00000000
_cell_angle_beta   90.00000000
_cell_angle_gamma   119.99999904
_symmetry_Int_Tables_number   1
_chemical_formula_structural   Sr10Bi6SCl
_chemical_formula_sum   'Sr10 Bi6 S1 Cl1'
_cell_volume   636.80584473
_cell_formula_units_Z   1
loop_
 _symmetry_equiv_pos_site_id
 _symmetry_equiv_pos_as_xyz
  1  'x, y, z'
loop_
 _atom_site_type_symbol
 _atom_site_label
 _atom_site_symmetry_multiplicity
 _atom_site_fract_x
 _atom_site_fract_y
 _atom_site_fract_z
 _atom_site_occupancy
  Sr  Sr0  1  0.756506  0.000000  0.736833  1
  Sr  Sr1  1  0.000000  0.243494  0.263167  1
  Sr  Sr2  1  0.756506  0.756506  0.263167  1
  Sr  Sr3  1  0.333333  0.666667  0.500000  1
  Sr  Sr4  1  0.333333  0.666667  0.000000  1
  Sr  Sr5  1  0.666667  0.333333  0.500000  1
  Sr  Sr6  1  0.666667  0.333333  0.000000  1
  Sr  Sr7  1  0.243494  0.000000  0.263167  1
  Sr  Sr8  1  0.243494  0.243494  0.736833  1
  Sr  Sr9  1  0.000000  0.756506  0.736833  1
  Bi  Bi10  1  0.402749  0.000000  0.750776  1
  Bi  Bi11  1  0.597251  0.000000  0.249224  1
  Bi  Bi12  1  0.000000  0.597251  0.249224  1
  Bi  Bi13  1  0.597251  0.597251  0.750776  1
  Bi  Bi14  1  0.000000  0.402749  0.750776  1
  Bi  Bi15  1  0.402749  0.402749  0.249224  1
  S  S16  1  0.000000  0.000000  0.500000  1
  Cl  Cl17  1  0.000000  0.000000  0.000000  1
