# generated using pymatgen
data_TbTm9Sn8
_symmetry_space_group_name_H-M   'P 1'
_cell_length_a   7.96127671
_cell_length_b   8.08397700
_cell_length_c   15.28488895
_cell_angle_alpha   90.00000000
_cell_angle_beta   89.63094915
_cell_angle_gamma   90.00000000
_symmetry_Int_Tables_number   1
_chemical_formula_structural   TbTm9Sn8
_chemical_formula_sum   'Tb2 Tm18 Sn16'
_cell_volume   983.69636583
_cell_formula_units_Z   2
loop_
 _symmetry_equiv_pos_site_id
 _symmetry_equiv_pos_as_xyz
  1  'x, y, z'
loop_
 _atom_site_type_symbol
 _atom_site_label
 _atom_site_symmetry_multiplicity
 _atom_site_fract_x
 _atom_site_fract_y
 _atom_site_fract_z
 _atom_site_occupancy
  Tb  Tb0  1  0.982152  0.820474  0.596617  1
  Tb  Tb1  1  0.517848  0.320474  0.403383  1
  Tm  Tm2  1  0.020421  0.179260  0.402689  1
  Tm  Tm3  1  0.368949  0.837266  0.121672  1
  Tm  Tm4  1  0.133767  0.337602  0.623486  1
  Tm  Tm5  1  0.477709  0.678519  0.903747  1
  Tm  Tm6  1  0.869427  0.662533  0.122001  1
  Tm  Tm7  1  0.131051  0.337266  0.878328  1
  Tm  Tm8  1  0.198584  0.503939  0.248858  1
  Tm  Tm9  1  0.698332  0.996581  0.248823  1
  Tm  Tm10  1  0.479579  0.679260  0.597311  1
  Tm  Tm11  1  0.301416  0.003939  0.751142  1
  Tm  Tm12  1  0.634469  0.161928  0.623675  1
  Tm  Tm13  1  0.801668  0.496581  0.751177  1
  Tm  Tm14  1  0.865531  0.661928  0.376325  1
  Tm  Tm15  1  0.022291  0.178519  0.096253  1
  Tm  Tm16  1  0.976820  0.820852  0.902210  1
  Tm  Tm17  1  0.630573  0.162533  0.877999  1
  Tm  Tm18  1  0.523180  0.320852  0.097790  1
  Tm  Tm19  1  0.366233  0.837602  0.376514  1
  Sn  Sn20  1  0.794729  0.462194  0.542294  1
  Sn  Sn21  1  0.705271  0.962194  0.457706  1
  Sn  Sn22  1  0.667112  0.850427  0.750790  1
  Sn  Sn23  1  0.202287  0.540958  0.459463  1
  Sn  Sn24  1  0.290484  0.035769  0.958560  1
  Sn  Sn25  1  0.832888  0.350427  0.249210  1
  Sn  Sn26  1  0.791072  0.463293  0.958904  1
  Sn  Sn27  1  0.564480  0.620570  0.249161  1
  Sn  Sn28  1  0.209516  0.535769  0.041440  1
  Sn  Sn29  1  0.435988  0.379739  0.750656  1
  Sn  Sn30  1  0.171421  0.648094  0.751645  1
  Sn  Sn31  1  0.935520  0.120570  0.750839  1
  Sn  Sn32  1  0.297713  0.040958  0.540537  1
  Sn  Sn33  1  0.708928  0.963293  0.041096  1
  Sn  Sn34  1  0.328579  0.148094  0.248355  1
  Sn  Sn35  1  0.064012  0.879739  0.249344  1
