# generated using pymatgen
data_Er4CBr6
_symmetry_space_group_name_H-M   'P 1'
_cell_length_a   3.83621200
_cell_length_b   12.98413700
_cell_length_c   13.44430200
_cell_angle_alpha   90.00000000
_cell_angle_beta   90.00000000
_cell_angle_gamma   90.00000000
_symmetry_Int_Tables_number   1
_chemical_formula_structural   Er4CBr6
_chemical_formula_sum   'Er8 C2 Br12'
_cell_volume   669.65936735
_cell_formula_units_Z   2
loop_
 _symmetry_equiv_pos_site_id
 _symmetry_equiv_pos_as_xyz
  1  'x, y, z'
loop_
 _atom_site_type_symbol
 _atom_site_label
 _atom_site_symmetry_multiplicity
 _atom_site_fract_x
 _atom_site_fract_y
 _atom_site_fract_z
 _atom_site_occupancy
  Er  Er0  1  0.000000  0.098139  0.078076  1
  Er  Er1  1  0.000000  0.901861  0.921924  1
  Er  Er2  1  0.000000  0.598139  0.421924  1
  Er  Er3  1  0.000000  0.401861  0.578076  1
  Er  Er4  1  0.500000  0.118784  0.860549  1
  Er  Er5  1  0.500000  0.881216  0.139451  1
  Er  Er6  1  0.500000  0.618784  0.639451  1
  Er  Er7  1  0.500000  0.381216  0.360549  1
  C  C8  1  0.500000  0.000000  0.000000  1
  C  C9  1  0.500000  0.500000  0.500000  1
  Br  Br10  1  0.500000  0.269930  0.680878  1
  Br  Br11  1  0.500000  0.730070  0.319122  1
  Br  Br12  1  0.500000  0.769930  0.819122  1
  Br  Br13  1  0.500000  0.230070  0.180878  1
  Br  Br14  1  0.000000  0.259967  0.932914  1
  Br  Br15  1  0.000000  0.740033  0.067086  1
  Br  Br16  1  0.000000  0.481670  0.240540  1
  Br  Br17  1  0.000000  0.518330  0.759460  1
  Br  Br18  1  0.000000  0.981670  0.259460  1
  Br  Br19  1  0.000000  0.018330  0.740540  1
  Br  Br20  1  0.000000  0.240033  0.432914  1
  Br  Br21  1  0.000000  0.759967  0.567086  1
