# generated using pymatgen
data_Be8V2OsW
_symmetry_space_group_name_H-M   'P 1'
_cell_length_a   4.35224100
_cell_length_b   4.35223965
_cell_length_c   7.14376100
_cell_angle_alpha   90.00000000
_cell_angle_beta   90.00000000
_cell_angle_gamma   120.00000266
_symmetry_Int_Tables_number   1
_chemical_formula_structural   Be8V2OsW
_chemical_formula_sum   'Be8 V2 Os1 W1'
_cell_volume   117.18803542
_cell_formula_units_Z   1
loop_
 _symmetry_equiv_pos_site_id
 _symmetry_equiv_pos_as_xyz
  1  'x, y, z'
loop_
 _atom_site_type_symbol
 _atom_site_label
 _atom_site_symmetry_multiplicity
 _atom_site_fract_x
 _atom_site_fract_y
 _atom_site_fract_z
 _atom_site_occupancy
  Be  Be0  1  0.000000  0.000000  0.001307  1
  Be  Be1  1  0.000000  0.000000  0.499105  1
  Be  Be2  1  0.830360  0.660722  0.248392  1
  Be  Be3  1  0.169569  0.830431  0.751480  1
  Be  Be4  1  0.660863  0.830431  0.751480  1
  Be  Be5  1  0.339278  0.169640  0.248392  1
  Be  Be6  1  0.830360  0.169640  0.248392  1
  Be  Be7  1  0.169569  0.339137  0.751480  1
  V  V8  1  0.666667  0.333333  0.938796  1
  V  V9  1  0.333333  0.666667  0.433597  1
  Os  Os10  1  0.333333  0.666667  0.063719  1
  W  W11  1  0.666667  0.333333  0.563862  1
