# generated using pymatgen
data_LiDy2Lu(B6Os)2
_symmetry_space_group_name_H-M   'P 1'
_cell_length_a   3.57670900
_cell_length_b   8.96261519
_cell_length_c   11.35435105
_cell_angle_alpha   89.85508915
_cell_angle_beta   90.00000000
_cell_angle_gamma   90.00000000
_symmetry_Int_Tables_number   1
_chemical_formula_structural   LiDy2Lu(B6Os)2
_chemical_formula_sum   'Li2 Dy4 Lu2 B24 Os4'
_cell_volume   363.98147977
_cell_formula_units_Z   2
loop_
 _symmetry_equiv_pos_site_id
 _symmetry_equiv_pos_as_xyz
  1  'x, y, z'
loop_
 _atom_site_type_symbol
 _atom_site_label
 _atom_site_symmetry_multiplicity
 _atom_site_fract_x
 _atom_site_fract_y
 _atom_site_fract_z
 _atom_site_occupancy
  Li  Li0  1  0.000000  0.945141  0.374892  1
  Li  Li1  1  0.000000  0.054859  0.625108  1
  Dy  Dy2  1  0.000000  0.317640  0.415574  1
  Dy  Dy3  1  0.000000  0.682360  0.584426  1
  Dy  Dy4  1  0.000000  0.823912  0.087967  1
  Dy  Dy5  1  0.000000  0.176088  0.912033  1
  Lu  Lu6  1  0.000000  0.442935  0.130550  1
  Lu  Lu7  1  0.000000  0.557065  0.869450  1
  B  B8  1  0.500000  0.555666  0.433213  1
  B  B9  1  0.500000  0.444334  0.566787  1
  B  B10  1  0.500000  0.053367  0.068326  1
  B  B11  1  0.500000  0.946633  0.931674  1
  B  B12  1  0.500000  0.759458  0.418147  1
  B  B13  1  0.500000  0.240542  0.581853  1
  B  B14  1  0.500000  0.249346  0.082554  1
  B  B15  1  0.500000  0.750654  0.917446  1
  B  B16  1  0.500000  0.796097  0.266027  1
  B  B17  1  0.500000  0.203903  0.733972  1
  B  B18  1  0.500000  0.289424  0.236745  1
  B  B19  1  0.500000  0.710576  0.763256  1
  B  B20  1  0.500000  0.631701  0.185908  1
  B  B21  1  0.500000  0.368299  0.814092  1
  B  B22  1  0.500000  0.123114  0.319666  1
  B  B23  1  0.500000  0.876886  0.680334  1
  B  B24  1  0.500000  0.979279  0.215306  1
  B  B25  1  0.500000  0.020721  0.784694  1
  B  B26  1  0.500000  0.482205  0.288709  1
  B  B27  1  0.500000  0.517795  0.711291  1
  B  B28  1  0.500000  0.601188  0.027517  1
  B  B29  1  0.500000  0.398812  0.972483  1
  B  B30  1  0.500000  0.091358  0.474391  1
  B  B31  1  0.500000  0.908642  0.525609  1
  Os  Os32  1  0.000000  0.642781  0.322188  1
  Os  Os33  1  0.000000  0.357219  0.677812  1
  Os  Os34  1  0.000000  0.135711  0.184001  1
  Os  Os35  1  0.000000  0.864289  0.815999  1
