# generated using pymatgen
data_Tm3LuSn5GeIr7
_symmetry_space_group_name_H-M   'P 1'
_cell_length_a   7.49668220
_cell_length_b   7.49801085
_cell_length_c   7.51154712
_cell_angle_alpha   109.47695660
_cell_angle_beta   109.52681977
_cell_angle_gamma   109.45364693
_symmetry_Int_Tables_number   1
_chemical_formula_structural   Tm3LuSn5GeIr7
_chemical_formula_sum   'Tm3 Lu1 Sn5 Ge1 Ir7'
_cell_volume   324.85365577
_cell_formula_units_Z   1
loop_
 _symmetry_equiv_pos_site_id
 _symmetry_equiv_pos_as_xyz
  1  'x, y, z'
loop_
 _atom_site_type_symbol
 _atom_site_label
 _atom_site_symmetry_multiplicity
 _atom_site_fract_x
 _atom_site_fract_y
 _atom_site_fract_z
 _atom_site_occupancy
  Tm  Tm0  1  0.000000  0.525272  0.989942  1
  Tm  Tm1  1  0.464783  0.990065  0.990056  1
  Tm  Tm2  1  0.535217  0.525282  0.525273  1
  Lu  Lu3  1  0.000000  0.989827  0.525544  1
  Sn  Sn4  1  0.688244  0.700295  0.012442  1
  Sn  Sn5  1  0.311756  0.012051  0.324198  1
  Sn  Sn6  1  0.000000  0.293306  0.293605  1
  Sn  Sn7  1  0.311781  0.323846  0.011581  1
  Sn  Sn8  1  0.688219  0.012065  0.699800  1
  Ge  Ge9  1  0.000000  0.662226  0.661823  1
  Ir  Ir10  1  0.754378  0.249626  0.495835  1
  Ir  Ir11  1  0.754331  0.496510  0.250239  1
  Ir  Ir12  1  0.499363  0.257802  0.757899  1
  Ir  Ir13  1  0.245622  0.495248  0.741456  1
  Ir  Ir14  1  0.245669  0.742179  0.495908  1
  Ir  Ir15  1  0.500637  0.758439  0.258536  1
  Ir  Ir16  1  0.000000  0.965962  0.965863  1
