# generated using pymatgen
data_La20Ir5Os4Rh3
_symmetry_space_group_name_H-M   'P 1'
_cell_length_a   11.42747390
_cell_length_b   11.42747390
_cell_length_c   6.66464616
_cell_angle_alpha   90.01786879
_cell_angle_beta   90.01786879
_cell_angle_gamma   89.95811280
_symmetry_Int_Tables_number   1
_chemical_formula_structural   La20Ir5Os4Rh3
_chemical_formula_sum   'La20 Ir5 Os4 Rh3'
_cell_volume   870.31689612
_cell_formula_units_Z   1
loop_
 _symmetry_equiv_pos_site_id
 _symmetry_equiv_pos_as_xyz
  1  'x, y, z'
loop_
 _atom_site_type_symbol
 _atom_site_label
 _atom_site_symmetry_multiplicity
 _atom_site_fract_x
 _atom_site_fract_y
 _atom_site_fract_z
 _atom_site_occupancy
  La  La0  1  0.295576  0.089094  0.385348  1
  La  La1  1  0.295278  0.909306  0.887195  1
  La  La2  1  0.703968  0.090244  0.885657  1
  La  La3  1  0.703751  0.909675  0.385785  1
  La  La4  1  0.588447  0.794707  0.887234  1
  La  La5  1  0.588401  0.205319  0.387332  1
  La  La6  1  0.410264  0.794785  0.386989  1
  La  La7  1  0.411440  0.205216  0.887290  1
  La  La8  1  0.205293  0.411553  0.612766  1
  La  La9  1  0.205215  0.589736  0.113011  1
  La  La10  1  0.794681  0.411599  0.112668  1
  La  La11  1  0.794784  0.588560  0.612710  1
  La  La12  1  0.910906  0.704424  0.114652  1
  La  La13  1  0.909756  0.296032  0.614343  1
  La  La14  1  0.090694  0.704722  0.612805  1
  La  La15  1  0.090325  0.296249  0.114215  1
  La  La16  1  0.000155  0.999760  0.500274  1
  La  La17  1  0.000240  0.999845  0.999726  1
  La  La18  1  0.499975  0.500055  0.999996  1
  La  La19  1  0.499945  0.500025  0.500004  1
  Ir  Ir20  1  0.150988  0.849012  0.250000  1
  Ir  Ir21  1  0.652223  0.347777  0.750000  1
  Ir  Ir22  1  0.652063  0.652015  0.250077  1
  Ir  Ir23  1  0.347985  0.347937  0.249923  1
  Ir  Ir24  1  0.348178  0.651822  0.750000  1
  Os  Os25  1  0.500631  0.000282  0.124000  1
  Os  Os26  1  0.500397  0.000232  0.623947  1
  Os  Os27  1  0.999768  0.499603  0.876053  1
  Os  Os28  1  0.999718  0.499369  0.376000  1
  Rh  Rh29  1  0.849156  0.150844  0.250000  1
  Rh  Rh30  1  0.848624  0.848825  0.749939  1
  Rh  Rh31  1  0.151175  0.151376  0.750061  1
