# generated using pymatgen
data_BH(Rh3Pb2)4
_symmetry_space_group_name_H-M   'P 1'
_cell_length_a   5.77695200
_cell_length_b   5.77695270
_cell_length_c   13.98498600
_cell_angle_alpha   90.00000000
_cell_angle_beta   90.00000000
_cell_angle_gamma   119.99999598
_symmetry_Int_Tables_number   1
_chemical_formula_structural   BH(Rh3Pb2)4
_chemical_formula_sum   'B1 H1 Rh12 Pb8'
_cell_volume   404.19436650
_cell_formula_units_Z   1
loop_
 _symmetry_equiv_pos_site_id
 _symmetry_equiv_pos_as_xyz
  1  'x, y, z'
loop_
 _atom_site_type_symbol
 _atom_site_label
 _atom_site_symmetry_multiplicity
 _atom_site_fract_x
 _atom_site_fract_y
 _atom_site_fract_z
 _atom_site_occupancy
  B  B0  1  0.000000  0.000000  0.000000  1
  H  H1  1  0.000000  0.000000  0.500000  1
  Rh  Rh2  1  0.330957  0.165479  0.412897  1
  Rh  Rh3  1  0.834521  0.165479  0.412897  1
  Rh  Rh4  1  0.834521  0.669043  0.412897  1
  Rh  Rh5  1  0.167563  0.335125  0.909189  1
  Rh  Rh6  1  0.669043  0.834521  0.587103  1
  Rh  Rh7  1  0.664875  0.832437  0.909189  1
  Rh  Rh8  1  0.335125  0.167563  0.090811  1
  Rh  Rh9  1  0.165479  0.330957  0.587103  1
  Rh  Rh10  1  0.165479  0.834521  0.587103  1
  Rh  Rh11  1  0.832437  0.167563  0.090811  1
  Rh  Rh12  1  0.832437  0.664875  0.090811  1
  Rh  Rh13  1  0.167563  0.832437  0.909189  1
  Pb  Pb14  1  0.000000  0.000000  0.746121  1
  Pb  Pb15  1  0.000000  0.000000  0.253879  1
  Pb  Pb16  1  0.333333  0.666667  0.744755  1
  Pb  Pb17  1  0.666667  0.333333  0.255245  1
  Pb  Pb18  1  0.333333  0.666667  0.419695  1
  Pb  Pb19  1  0.666667  0.333333  0.918896  1
  Pb  Pb20  1  0.666667  0.333333  0.580305  1
  Pb  Pb21  1  0.333333  0.666667  0.081104  1
