# generated using pymatgen
data_HoEr4(Hg2Pd)2
_symmetry_space_group_name_H-M   'P 1'
_cell_length_a   3.58707000
_cell_length_b   7.93831600
_cell_length_c   18.18006300
_cell_angle_alpha   90.00000000
_cell_angle_beta   90.00000000
_cell_angle_gamma   90.00000000
_symmetry_Int_Tables_number   1
_chemical_formula_structural   HoEr4(Hg2Pd)2
_chemical_formula_sum   'Ho2 Er8 Hg8 Pd4'
_cell_volume   517.68266021
_cell_formula_units_Z   2
loop_
 _symmetry_equiv_pos_site_id
 _symmetry_equiv_pos_as_xyz
  1  'x, y, z'
loop_
 _atom_site_type_symbol
 _atom_site_label
 _atom_site_symmetry_multiplicity
 _atom_site_fract_x
 _atom_site_fract_y
 _atom_site_fract_z
 _atom_site_occupancy
  Ho  Ho0  1  0.000000  0.500000  0.500000  1
  Ho  Ho1  1  0.000000  0.000000  0.000000  1
  Er  Er2  1  0.000000  0.736308  0.283771  1
  Er  Er3  1  0.000000  0.263692  0.716229  1
  Er  Er4  1  0.000000  0.763692  0.783771  1
  Er  Er5  1  0.000000  0.236308  0.216229  1
  Er  Er6  1  0.000000  0.613275  0.082866  1
  Er  Er7  1  0.000000  0.386725  0.917134  1
  Er  Er8  1  0.000000  0.886725  0.582866  1
  Er  Er9  1  0.000000  0.113275  0.417134  1
  Hg  Hg10  1  0.500000  0.712856  0.933903  1
  Hg  Hg11  1  0.500000  0.287144  0.066097  1
  Hg  Hg12  1  0.500000  0.787144  0.433903  1
  Hg  Hg13  1  0.500000  0.212856  0.566097  1
  Hg  Hg14  1  0.500000  0.583363  0.648312  1
  Hg  Hg15  1  0.500000  0.416637  0.351688  1
  Hg  Hg16  1  0.500000  0.916637  0.148312  1
  Hg  Hg17  1  0.500000  0.083363  0.851688  1
  Pd  Pd18  1  0.500000  0.526067  0.195862  1
  Pd  Pd19  1  0.500000  0.473933  0.804138  1
  Pd  Pd20  1  0.500000  0.973933  0.695862  1
  Pd  Pd21  1  0.500000  0.026067  0.304138  1
