# generated using pymatgen
data_Ho7TmTi9Si16Mo3
_symmetry_space_group_name_H-M   'P 1'
_cell_length_a   6.98569608
_cell_length_b   6.98614804
_cell_length_c   12.83891800
_cell_angle_alpha   90.00552094
_cell_angle_beta   89.99408549
_cell_angle_gamma   90.00332250
_symmetry_Int_Tables_number   1
_chemical_formula_structural   Ho7TmTi9Si16Mo3
_chemical_formula_sum   'Ho7 Tm1 Ti9 Si16 Mo3'
_cell_volume   626.57908132
_cell_formula_units_Z   1
loop_
 _symmetry_equiv_pos_site_id
 _symmetry_equiv_pos_as_xyz
  1  'x, y, z'
loop_
 _atom_site_type_symbol
 _atom_site_label
 _atom_site_symmetry_multiplicity
 _atom_site_fract_x
 _atom_site_fract_y
 _atom_site_fract_z
 _atom_site_occupancy
  Ho  Ho0  1  0.498565  0.842283  0.717825  1
  Ho  Ho1  1  0.500293  0.158353  0.216677  1
  Ho  Ho2  1  0.842213  0.498685  0.282133  1
  Ho  Ho3  1  0.158434  0.500394  0.783334  1
  Ho  Ho4  1  0.658952  0.999477  0.966845  1
  Ho  Ho5  1  0.002292  0.340499  0.533545  1
  Ho  Ho6  1  0.999472  0.658998  0.033091  1
  Tm  Tm7  1  0.340777  0.001752  0.466406  1
  Ti  Ti8  1  0.672744  0.673018  0.500003  1
  Ti  Ti9  1  0.152113  0.008423  0.875923  1
  Ti  Ti10  1  0.491613  0.652320  0.125100  1
  Ti  Ti11  1  0.507342  0.346892  0.626763  1
  Ti  Ti12  1  0.652274  0.491612  0.874894  1
  Ti  Ti13  1  0.347016  0.507467  0.373221  1
  Ti  Ti14  1  0.848938  0.992119  0.374803  1
  Ti  Ti15  1  0.008446  0.152063  0.124074  1
  Ti  Ti16  1  0.992164  0.848821  0.625166  1
  Si  Si17  1  0.202448  0.130389  0.683857  1
  Si  Si18  1  0.369091  0.701496  0.934091  1
  Si  Si19  1  0.630782  0.297006  0.434210  1
  Si  Si20  1  0.701429  0.369102  0.065851  1
  Si  Si21  1  0.297374  0.631538  0.565789  1
  Si  Si22  1  0.798044  0.869279  0.184465  1
  Si  Si23  1  0.130807  0.201999  0.316262  1
  Si  Si24  1  0.869341  0.798065  0.815507  1
  Si  Si25  1  0.291733  0.952659  0.064990  1
  Si  Si26  1  0.546367  0.791249  0.315244  1
  Si  Si27  1  0.452417  0.208662  0.815233  1
  Si  Si28  1  0.790954  0.546733  0.684932  1
  Si  Si29  1  0.208713  0.452462  0.184740  1
  Si  Si30  1  0.707558  0.048131  0.565640  1
  Si  Si31  1  0.952697  0.291654  0.934956  1
  Si  Si32  1  0.048465  0.708302  0.434296  1
  Mo  Mo33  1  0.327119  0.327109  0.000002  1
  Mo  Mo34  1  0.173818  0.827270  0.249560  1
  Mo  Mo35  1  0.827195  0.173715  0.750573  1
