# generated using pymatgen
data_Dy6Ni20GeP12
_symmetry_space_group_name_H-M   'P 1'
_cell_length_a   12.69958500
_cell_length_b   12.69958592
_cell_length_c   3.74273100
_cell_angle_alpha   90.00000000
_cell_angle_beta   90.00000000
_cell_angle_gamma   120.00000021
_symmetry_Int_Tables_number   1
_chemical_formula_structural   Dy6Ni20GeP12
_chemical_formula_sum   'Dy6 Ni20 Ge1 P12'
_cell_volume   522.75516798
_cell_formula_units_Z   1
loop_
 _symmetry_equiv_pos_site_id
 _symmetry_equiv_pos_as_xyz
  1  'x, y, z'
loop_
 _atom_site_type_symbol
 _atom_site_label
 _atom_site_symmetry_multiplicity
 _atom_site_fract_x
 _atom_site_fract_y
 _atom_site_fract_z
 _atom_site_occupancy
  Dy  Dy0  1  0.811073  0.281569  0.500000  1
  Dy  Dy1  1  0.718431  0.529504  0.500000  1
  Dy  Dy2  1  0.470496  0.188927  0.500000  1
  Dy  Dy3  1  0.189729  0.716696  0.000000  1
  Dy  Dy4  1  0.283304  0.473033  0.000000  1
  Dy  Dy5  1  0.526967  0.810271  0.000000  1
  Ni  Ni6  1  0.416773  0.980335  0.000000  1
  Ni  Ni7  1  0.019665  0.436440  0.000000  1
  Ni  Ni8  1  0.584356  0.020161  0.500000  1
  Ni  Ni9  1  0.563560  0.583227  0.000000  1
  Ni  Ni10  1  0.979839  0.564196  0.500000  1
  Ni  Ni11  1  0.917446  0.089703  0.500000  1
  Ni  Ni12  1  0.172257  0.082554  0.500000  1
  Ni  Ni13  1  0.910297  0.827743  0.500000  1
  Ni  Ni14  1  0.096998  0.890089  0.000000  1
  Ni  Ni15  1  0.793091  0.903002  0.000000  1
  Ni  Ni16  1  0.109911  0.206909  0.000000  1
  Ni  Ni17  1  0.333333  0.666667  0.500000  1
  Ni  Ni18  1  0.666667  0.333333  0.000000  1
  Ni  Ni19  1  0.678238  0.749743  0.500000  1
  Ni  Ni20  1  0.250257  0.928494  0.500000  1
  Ni  Ni21  1  0.922252  0.677413  0.000000  1
  Ni  Ni22  1  0.322587  0.244840  0.000000  1
  Ni  Ni23  1  0.755160  0.077748  0.000000  1
  Ni  Ni24  1  0.435804  0.415644  0.500000  1
  Ni  Ni25  1  0.071506  0.321762  0.500000  1
  Ge  Ge26  1  0.000000  0.000000  0.000000  1
  P  P27  1  0.233617  0.282914  0.500000  1
  P  P28  1  0.717086  0.950702  0.500000  1
  P  P29  1  0.049298  0.766383  0.500000  1
  P  P30  1  0.767240  0.717149  0.000000  1
  P  P31  1  0.282851  0.050093  0.000000  1
  P  P32  1  0.475620  0.613098  0.500000  1
  P  P33  1  0.386902  0.862520  0.500000  1
  P  P34  1  0.861890  0.475904  0.000000  1
  P  P35  1  0.524096  0.385987  0.000000  1
  P  P36  1  0.614013  0.138110  0.000000  1
  P  P37  1  0.949907  0.232760  0.000000  1
  P  P38  1  0.137480  0.524380  0.500000  1
