# generated using pymatgen
data_Tb4Tc4OsRu3
_symmetry_space_group_name_H-M   'P 1'
_cell_length_a   5.32066765
_cell_length_b   5.13485291
_cell_length_c   9.22917400
_cell_angle_alpha   90.00000000
_cell_angle_beta   90.00000000
_cell_angle_gamma   118.85134327
_symmetry_Int_Tables_number   1
_chemical_formula_structural   Tb4Tc4OsRu3
_chemical_formula_sum   'Tb4 Tc4 Os1 Ru3'
_cell_volume   220.85077010
_cell_formula_units_Z   1
loop_
 _symmetry_equiv_pos_site_id
 _symmetry_equiv_pos_as_xyz
  1  'x, y, z'
loop_
 _atom_site_type_symbol
 _atom_site_label
 _atom_site_symmetry_multiplicity
 _atom_site_fract_x
 _atom_site_fract_y
 _atom_site_fract_z
 _atom_site_occupancy
  Tb  Tb0  1  0.329675  0.664838  0.435185  1
  Tb  Tb1  1  0.671380  0.335690  0.564666  1
  Tb  Tb2  1  0.671380  0.335690  0.935334  1
  Tb  Tb3  1  0.329675  0.664838  0.064815  1
  Tc  Tc4  1  0.830400  0.170172  0.250000  1
  Tc  Tc5  1  0.830400  0.660228  0.250000  1
  Tc  Tc6  1  0.163259  0.825505  0.750000  1
  Tc  Tc7  1  0.163259  0.337754  0.750000  1
  Os  Os8  1  0.341641  0.170821  0.250000  1
  Ru  Ru9  1  0.008953  0.004477  0.501060  1
  Ru  Ru10  1  0.008953  0.004477  0.998940  1
  Ru  Ru11  1  0.651025  0.825513  0.750000  1
