# generated using pymatgen
data_Dy16Mg2TlNi4Ag
_symmetry_space_group_name_H-M   'P 1'
_cell_length_a   9.57106508
_cell_length_b   9.57106475
_cell_length_c   9.52530064
_cell_angle_alpha   59.91030020
_cell_angle_beta   59.91030051
_cell_angle_gamma   60.33862335
_symmetry_Int_Tables_number   1
_chemical_formula_structural   Dy16Mg2TlNi4Ag
_chemical_formula_sum   'Dy16 Mg2 Tl1 Ni4 Ag1'
_cell_volume   617.71781839
_cell_formula_units_Z   1
loop_
 _symmetry_equiv_pos_site_id
 _symmetry_equiv_pos_as_xyz
  1  'x, y, z'
loop_
 _atom_site_type_symbol
 _atom_site_label
 _atom_site_symmetry_multiplicity
 _atom_site_fract_x
 _atom_site_fract_y
 _atom_site_fract_z
 _atom_site_occupancy
  Dy  Dy0  1  0.344442  0.344442  0.346239  1
  Dy  Dy1  1  0.348887  0.348887  0.956840  1
  Dy  Dy2  1  0.349510  0.954624  0.349581  1
  Dy  Dy3  1  0.954624  0.349510  0.349581  1
  Dy  Dy4  1  0.812053  0.187152  0.188500  1
  Dy  Dy5  1  0.187335  0.811215  0.811158  1
  Dy  Dy6  1  0.187152  0.812053  0.188500  1
  Dy  Dy7  1  0.811215  0.187335  0.811158  1
  Dy  Dy8  1  0.187791  0.187791  0.812494  1
  Dy  Dy9  1  0.808248  0.808248  0.190489  1
  Dy  Dy10  1  0.936444  0.564117  0.567040  1
  Dy  Dy11  1  0.561356  0.932923  0.940924  1
  Dy  Dy12  1  0.564117  0.936444  0.567040  1
  Dy  Dy13  1  0.932923  0.561356  0.940924  1
  Dy  Dy14  1  0.563524  0.563524  0.944073  1
  Dy  Dy15  1  0.934207  0.934207  0.564941  1
  Mg  Mg16  1  0.581878  0.270492  0.569763  1
  Mg  Mg17  1  0.270492  0.581878  0.569763  1
  Tl  Tl18  1  0.583101  0.583101  0.581318  1
  Ni  Ni19  1  0.142879  0.142879  0.143485  1
  Ni  Ni20  1  0.141312  0.141312  0.574504  1
  Ni  Ni21  1  0.140122  0.573828  0.142232  1
  Ni  Ni22  1  0.573828  0.140122  0.142232  1
  Ag  Ag23  1  0.582559  0.582559  0.247225  1
