# generated using pymatgen
data_Tb2Ho9Tm(GaCo2)2
_symmetry_space_group_name_H-M   'P 1'
_cell_length_a   8.22178106
_cell_length_b   8.24232397
_cell_length_c   8.24718285
_cell_angle_alpha   112.17768871
_cell_angle_beta   109.39513134
_cell_angle_gamma   106.95667039
_symmetry_Int_Tables_number   1
_chemical_formula_structural   Tb2Ho9Tm(GaCo2)2
_chemical_formula_sum   'Tb2 Ho9 Tm1 Ga2 Co4'
_cell_volume   428.94201345
_cell_formula_units_Z   1
loop_
 _symmetry_equiv_pos_site_id
 _symmetry_equiv_pos_as_xyz
  1  'x, y, z'
loop_
 _atom_site_type_symbol
 _atom_site_label
 _atom_site_symmetry_multiplicity
 _atom_site_fract_x
 _atom_site_fract_y
 _atom_site_fract_z
 _atom_site_occupancy
  Tb  Tb0  1  0.958390  0.261212  0.696918  1
  Tb  Tb1  1  0.040677  0.738448  0.302599  1
  Ho  Ho2  1  0.327507  0.514602  0.188605  1
  Ho  Ho3  1  0.327293  0.138698  0.812811  1
  Ho  Ho4  1  0.672914  0.486079  0.811922  1
  Ho  Ho5  1  0.563992  0.261111  0.302632  1
  Ho  Ho6  1  0.436374  0.738967  0.697787  1
  Ho  Ho7  1  0.180730  0.781076  0.960887  1
  Ho  Ho8  1  0.819363  0.780349  0.600212  1
  Ho  Ho9  1  0.180196  0.219474  0.399329  1
  Ho  Ho10  1  0.819466  0.218835  0.039382  1
  Tm  Tm11  1  0.672840  0.860633  0.186674  1
  Ga  Ga12  1  0.000081  0.500008  0.500037  1
  Ga  Ga13  1  0.500142  0.000014  0.499808  1
  Co  Co14  1  0.115581  0.114744  0.000706  1
  Co  Co15  1  0.884085  0.885033  0.999382  1
  Co  Co16  1  0.663191  0.499990  0.163472  1
  Co  Co17  1  0.337179  0.500727  0.836836  1
