# generated using pymatgen
data_TbTh3(PdPt5)2
_symmetry_space_group_name_H-M   'P 1'
_cell_length_a   5.94657556
_cell_length_b   5.94657516
_cell_length_c   9.79360365
_cell_angle_alpha   90.05762772
_cell_angle_beta   89.94237428
_cell_angle_gamma   120.14578414
_symmetry_Int_Tables_number   1
_chemical_formula_structural   TbTh3(PdPt5)2
_chemical_formula_sum   'Tb1 Th3 Pd2 Pt10'
_cell_volume   299.47933149
_cell_formula_units_Z   1
loop_
 _symmetry_equiv_pos_site_id
 _symmetry_equiv_pos_as_xyz
  1  'x, y, z'
loop_
 _atom_site_type_symbol
 _atom_site_label
 _atom_site_symmetry_multiplicity
 _atom_site_fract_x
 _atom_site_fract_y
 _atom_site_fract_z
 _atom_site_occupancy
  Tb  Tb0  1  0.999843  0.000157  0.499780  1
  Th  Th1  1  0.999947  0.000053  0.000029  1
  Th  Th2  1  0.333238  0.666762  0.253316  1
  Th  Th3  1  0.667000  0.333000  0.746645  1
  Pd  Pd4  1  0.499993  0.500007  0.999652  1
  Pd  Pd5  1  0.174467  0.825533  0.749935  1
  Pt  Pt6  1  0.499984  0.500016  0.500562  1
  Pt  Pt7  1  0.500122  0.000042  0.500275  1
  Pt  Pt8  1  0.999958  0.499878  0.500275  1
  Pt  Pt9  1  0.500064  0.000089  0.999720  1
  Pt  Pt10  1  0.999911  0.499936  0.999720  1
  Pt  Pt11  1  0.825433  0.651188  0.250334  1
  Pt  Pt12  1  0.348812  0.174567  0.250334  1
  Pt  Pt13  1  0.825833  0.174167  0.250064  1
  Pt  Pt14  1  0.174697  0.349302  0.749679  1
  Pt  Pt15  1  0.650698  0.825303  0.749679  1
