# generated using pymatgen
data_Tb4HoRuRh
_symmetry_space_group_name_H-M   'P 1'
_cell_length_a   6.37584701
_cell_length_b   7.23417743
_cell_length_c   8.59656464
_cell_angle_alpha   96.59274997
_cell_angle_beta   111.76724195
_cell_angle_gamma   90.00000053
_symmetry_Int_Tables_number   1
_chemical_formula_structural   Tb4HoRuRh
_chemical_formula_sum   'Tb8 Ho2 Ru2 Rh2'
_cell_volume   365.41141152
_cell_formula_units_Z   2
loop_
 _symmetry_equiv_pos_site_id
 _symmetry_equiv_pos_as_xyz
  1  'x, y, z'
loop_
 _atom_site_type_symbol
 _atom_site_label
 _atom_site_symmetry_multiplicity
 _atom_site_fract_x
 _atom_site_fract_y
 _atom_site_fract_z
 _atom_site_occupancy
  Tb  Tb0  1  0.981555  0.918033  0.187515  1
  Tb  Tb1  1  0.794041  0.581967  0.812485  1
  Tb  Tb2  1  0.023529  0.085087  0.815326  1
  Tb  Tb3  1  0.208204  0.414913  0.184674  1
  Tb  Tb4  1  0.641698  0.815769  0.433348  1
  Tb  Tb5  1  0.208349  0.684231  0.566652  1
  Tb  Tb6  1  0.355110  0.187576  0.563410  1
  Tb  Tb7  1  0.791701  0.312424  0.436590  1
  Ho  Ho8  1  0.423147  0.750000  0.000000  1
  Ho  Ho9  1  0.575438  0.250000  0.000000  1
  Ru  Ru10  1  0.178510  0.426437  0.780165  1
  Ru  Ru11  1  0.398344  0.073563  0.219835  1
  Rh  Rh12  1  0.820402  0.575123  0.220434  1
  Rh  Rh13  1  0.599970  0.924877  0.779566  1
