# generated using pymatgen
data_Dy5Ta3(ReB6)4
_symmetry_space_group_name_H-M   'P 1'
_cell_length_a   3.58895800
_cell_length_b   8.98048964
_cell_length_c   11.37127366
_cell_angle_alpha   89.91009186
_cell_angle_beta   90.00000000
_cell_angle_gamma   90.00000000
_symmetry_Int_Tables_number   1
_chemical_formula_structural   Dy5Ta3(ReB6)4
_chemical_formula_sum   'Dy5 Ta3 Re4 B24'
_cell_volume   366.50252318
_cell_formula_units_Z   1
loop_
 _symmetry_equiv_pos_site_id
 _symmetry_equiv_pos_as_xyz
  1  'x, y, z'
loop_
 _atom_site_type_symbol
 _atom_site_label
 _atom_site_symmetry_multiplicity
 _atom_site_fract_x
 _atom_site_fract_y
 _atom_site_fract_z
 _atom_site_occupancy
  Dy  Dy0  1  0.000000  0.321943  0.414195  1
  Dy  Dy1  1  0.000000  0.677135  0.587641  1
  Dy  Dy2  1  0.000000  0.822022  0.085785  1
  Dy  Dy3  1  0.000000  0.177749  0.912499  1
  Dy  Dy4  1  0.000000  0.945155  0.374118  1
  Ta  Ta5  1  0.000000  0.056098  0.628946  1
  Ta  Ta6  1  0.000000  0.445207  0.123337  1
  Ta  Ta7  1  0.000000  0.555592  0.875892  1
  Re  Re8  1  0.000000  0.633550  0.314318  1
  Re  Re9  1  0.000000  0.358829  0.684494  1
  Re  Re10  1  0.000000  0.148082  0.177233  1
  Re  Re11  1  0.000000  0.857161  0.819940  1
  B  B12  1  0.500000  0.550712  0.433147  1
  B  B13  1  0.500000  0.444783  0.567629  1
  B  B14  1  0.500000  0.055642  0.065297  1
  B  B15  1  0.500000  0.945827  0.933222  1
  B  B16  1  0.500000  0.747210  0.417079  1
  B  B17  1  0.500000  0.246057  0.584272  1
  B  B18  1  0.500000  0.255978  0.079815  1
  B  B19  1  0.500000  0.745389  0.918306  1
  B  B20  1  0.500000  0.791949  0.262457  1
  B  B21  1  0.500000  0.204566  0.738153  1
  B  B22  1  0.500000  0.297176  0.233739  1
  B  B23  1  0.500000  0.703873  0.763816  1
  B  B24  1  0.500000  0.627143  0.181251  1
  B  B25  1  0.500000  0.372036  0.818592  1
  B  B26  1  0.500000  0.133604  0.314448  1
  B  B27  1  0.500000  0.871442  0.683330  1
  B  B28  1  0.500000  0.984342  0.210773  1
  B  B29  1  0.500000  0.018992  0.787412  1
  B  B30  1  0.500000  0.479167  0.285332  1
  B  B31  1  0.500000  0.519816  0.713976  1
  B  B32  1  0.500000  0.598875  0.025306  1
  B  B33  1  0.500000  0.402259  0.972605  1
  B  B34  1  0.500000  0.102387  0.479166  1
  B  B35  1  0.500000  0.902250  0.532481  1
