# generated using pymatgen
data_Tb2Nd17YSn16
_symmetry_space_group_name_H-M   'P 1'
_cell_length_a   8.26478000
_cell_length_b   8.41328297
_cell_length_c   15.95887400
_cell_angle_alpha   90.00000000
_cell_angle_beta   90.00000000
_cell_angle_gamma   89.97243929
_symmetry_Int_Tables_number   1
_chemical_formula_structural   Tb2Nd17YSn16
_chemical_formula_sum   'Tb2 Nd17 Y1 Sn16'
_cell_volume   1109.68314474
_cell_formula_units_Z   1
loop_
 _symmetry_equiv_pos_site_id
 _symmetry_equiv_pos_as_xyz
  1  'x, y, z'
loop_
 _atom_site_type_symbol
 _atom_site_label
 _atom_site_symmetry_multiplicity
 _atom_site_fract_x
 _atom_site_fract_y
 _atom_site_fract_z
 _atom_site_occupancy
  Tb  Tb0  1  0.199103  0.502228  0.250000  1
  Tb  Tb1  1  0.699287  0.998036  0.250000  1
  Nd  Nd2  1  0.017687  0.181127  0.401115  1
  Nd  Nd3  1  0.368110  0.837224  0.120696  1
  Nd  Nd4  1  0.132530  0.336633  0.620611  1
  Nd  Nd5  1  0.481613  0.681607  0.901454  1
  Nd  Nd6  1  0.867975  0.662846  0.121410  1
  Nd  Nd7  1  0.132530  0.336633  0.879389  1
  Nd  Nd8  1  0.481613  0.681607  0.598546  1
  Nd  Nd9  1  0.631299  0.162674  0.620310  1
  Nd  Nd10  1  0.802592  0.497996  0.750000  1
  Nd  Nd11  1  0.867975  0.662846  0.378590  1
  Nd  Nd12  1  0.017687  0.181127  0.098885  1
  Nd  Nd13  1  0.982510  0.819548  0.901313  1
  Nd  Nd14  1  0.631299  0.162674  0.879690  1
  Nd  Nd15  1  0.517867  0.318952  0.099147  1
  Nd  Nd16  1  0.368110  0.837224  0.379304  1
  Nd  Nd17  1  0.982510  0.819548  0.598687  1
  Nd  Nd18  1  0.517867  0.318952  0.400853  1
  Y  Y19  1  0.300644  0.002403  0.750000  1
  Sn  Sn20  1  0.791717  0.463512  0.541606  1
  Sn  Sn21  1  0.708348  0.964811  0.456130  1
  Sn  Sn22  1  0.674623  0.858082  0.750000  1
  Sn  Sn23  1  0.208195  0.534859  0.456230  1
  Sn  Sn24  1  0.291845  0.034986  0.956351  1
  Sn  Sn25  1  0.824584  0.353712  0.250000  1
  Sn  Sn26  1  0.791717  0.463512  0.958394  1
  Sn  Sn27  1  0.564869  0.617049  0.250000  1
  Sn  Sn28  1  0.208195  0.534859  0.043770  1
  Sn  Sn29  1  0.431838  0.382308  0.750000  1
  Sn  Sn30  1  0.177613  0.647271  0.750000  1
  Sn  Sn31  1  0.936265  0.114683  0.750000  1
  Sn  Sn32  1  0.291845  0.034986  0.543649  1
  Sn  Sn33  1  0.708348  0.964811  0.043870  1
  Sn  Sn34  1  0.323950  0.145564  0.250000  1
  Sn  Sn35  1  0.065240  0.883104  0.250000  1
