# generated using pymatgen
data_Pr3Dy2(Sn5Rh2)2
_symmetry_space_group_name_H-M   'P 1'
_cell_length_a   14.19690500
_cell_length_b   14.19690500
_cell_length_c   4.59190600
_cell_angle_alpha   90.00000000
_cell_angle_beta   90.00000000
_cell_angle_gamma   90.00000000
_symmetry_Int_Tables_number   1
_chemical_formula_structural   Pr3Dy2(Sn5Rh2)2
_chemical_formula_sum   'Pr6 Dy4 Sn20 Rh8'
_cell_volume   925.50835047
_cell_formula_units_Z   2
loop_
 _symmetry_equiv_pos_site_id
 _symmetry_equiv_pos_as_xyz
  1  'x, y, z'
loop_
 _atom_site_type_symbol
 _atom_site_label
 _atom_site_symmetry_multiplicity
 _atom_site_fract_x
 _atom_site_fract_y
 _atom_site_fract_z
 _atom_site_occupancy
  Pr  Pr0  1  0.500000  0.500000  0.000000  1
  Pr  Pr1  1  0.000000  0.000000  0.000000  1
  Pr  Pr2  1  0.888010  0.388010  0.500000  1
  Pr  Pr3  1  0.111990  0.611990  0.500000  1
  Pr  Pr4  1  0.388010  0.111990  0.500000  1
  Pr  Pr5  1  0.611990  0.888010  0.500000  1
  Dy  Dy6  1  0.677309  0.177309  0.500000  1
  Dy  Dy7  1  0.322691  0.822691  0.500000  1
  Dy  Dy8  1  0.177309  0.322691  0.500000  1
  Dy  Dy9  1  0.822691  0.677309  0.500000  1
  Sn  Sn10  1  0.570249  0.070249  0.000000  1
  Sn  Sn11  1  0.429751  0.929751  0.000000  1
  Sn  Sn12  1  0.070249  0.429751  0.000000  1
  Sn  Sn13  1  0.929751  0.570249  0.000000  1
  Sn  Sn14  1  0.654763  0.697984  0.000000  1
  Sn  Sn15  1  0.345237  0.302016  0.000000  1
  Sn  Sn16  1  0.154763  0.802016  0.000000  1
  Sn  Sn17  1  0.845237  0.197984  0.000000  1
  Sn  Sn18  1  0.302016  0.654763  0.000000  1
  Sn  Sn19  1  0.697984  0.345237  0.000000  1
  Sn  Sn20  1  0.197984  0.154763  0.000000  1
  Sn  Sn21  1  0.802016  0.845237  0.000000  1
  Sn  Sn22  1  0.663952  0.505315  0.500000  1
  Sn  Sn23  1  0.336048  0.494685  0.500000  1
  Sn  Sn24  1  0.163952  0.994685  0.500000  1
  Sn  Sn25  1  0.836048  0.005315  0.500000  1
  Sn  Sn26  1  0.494685  0.663952  0.500000  1
  Sn  Sn27  1  0.505315  0.336048  0.500000  1
  Sn  Sn28  1  0.005315  0.163952  0.500000  1
  Sn  Sn29  1  0.994685  0.836048  0.500000  1
  Rh  Rh30  1  0.747046  0.529024  0.000000  1
  Rh  Rh31  1  0.252954  0.470976  0.000000  1
  Rh  Rh32  1  0.247046  0.970976  0.000000  1
  Rh  Rh33  1  0.752954  0.029024  0.000000  1
  Rh  Rh34  1  0.470976  0.747046  0.000000  1
  Rh  Rh35  1  0.529024  0.252954  0.000000  1
  Rh  Rh36  1  0.029024  0.247046  0.000000  1
  Rh  Rh37  1  0.970976  0.752954  0.000000  1
