# generated using pymatgen
data_Dy16In2Co3Ag2Ir
_symmetry_space_group_name_H-M   'P 1'
_cell_length_a   9.50485063
_cell_length_b   9.46365495
_cell_length_c   9.48497300
_cell_angle_alpha   59.92545929
_cell_angle_beta   60.06915951
_cell_angle_gamma   60.23990856
_symmetry_Int_Tables_number   1
_chemical_formula_structural   Dy16In2Co3Ag2Ir
_chemical_formula_sum   'Dy16 In2 Co3 Ag2 Ir1'
_cell_volume   604.34850416
_cell_formula_units_Z   1
loop_
 _symmetry_equiv_pos_site_id
 _symmetry_equiv_pos_as_xyz
  1  'x, y, z'
loop_
 _atom_site_type_symbol
 _atom_site_label
 _atom_site_symmetry_multiplicity
 _atom_site_fract_x
 _atom_site_fract_y
 _atom_site_fract_z
 _atom_site_occupancy
  Dy  Dy0  1  0.592166  0.600606  0.601586  1
  Dy  Dy1  1  0.592166  0.600606  0.205642  1
  Dy  Dy2  1  0.593803  0.204673  0.600762  1
  Dy  Dy3  1  0.208725  0.598009  0.596633  1
  Dy  Dy4  1  0.065585  0.439063  0.440500  1
  Dy  Dy5  1  0.438521  0.060898  0.061059  1
  Dy  Dy6  1  0.438521  0.060898  0.439523  1
  Dy  Dy7  1  0.065585  0.439063  0.054853  1
  Dy  Dy8  1  0.441285  0.439626  0.059545  1
  Dy  Dy9  1  0.066877  0.056346  0.438389  1
  Dy  Dy10  1  0.184651  0.811058  0.812860  1
  Dy  Dy11  1  0.810585  0.186055  0.192553  1
  Dy  Dy12  1  0.810585  0.186055  0.810805  1
  Dy  Dy13  1  0.184651  0.811058  0.191430  1
  Dy  Dy14  1  0.810151  0.807695  0.191077  1
  Dy  Dy15  1  0.186557  0.187409  0.813017  1
  In  In16  1  0.833989  0.508383  0.828814  1
  In  In17  1  0.507731  0.833513  0.829378  1
  Co  Co18  1  0.391656  0.392031  0.389045  1
  Co  Co19  1  0.391656  0.392031  0.827270  1
  Co  Co20  1  0.391595  0.827029  0.390689  1
  Ag  Ag21  1  0.833489  0.832959  0.831323  1
  Ag  Ag22  1  0.833489  0.832959  0.502229  1
  Ir  Ir23  1  0.825984  0.391981  0.391018  1
