# generated using pymatgen
data_SmHo2Co8TcP6
_symmetry_space_group_name_H-M   'P 1'
_cell_length_a   3.72005400
_cell_length_b   10.54116400
_cell_length_c   12.24257700
_cell_angle_alpha   90.00000000
_cell_angle_beta   90.00000000
_cell_angle_gamma   90.00000000
_symmetry_Int_Tables_number   1
_chemical_formula_structural   SmHo2Co8TcP6
_chemical_formula_sum   'Sm2 Ho4 Co16 Tc2 P12'
_cell_volume   480.07673317
_cell_formula_units_Z   2
loop_
 _symmetry_equiv_pos_site_id
 _symmetry_equiv_pos_as_xyz
  1  'x, y, z'
loop_
 _atom_site_type_symbol
 _atom_site_label
 _atom_site_symmetry_multiplicity
 _atom_site_fract_x
 _atom_site_fract_y
 _atom_site_fract_z
 _atom_site_occupancy
  Sm  Sm0  1  0.000000  0.500000  0.524454  1
  Sm  Sm1  1  0.500000  0.000000  0.475546  1
  Ho  Ho2  1  0.500000  0.817547  0.204987  1
  Ho  Ho3  1  0.500000  0.182453  0.204987  1
  Ho  Ho4  1  0.000000  0.682453  0.795013  1
  Ho  Ho5  1  0.000000  0.317547  0.795013  1
  Co  Co6  1  0.000000  0.500000  0.987054  1
  Co  Co7  1  0.500000  0.000000  0.012946  1
  Co  Co8  1  0.500000  0.296267  0.429951  1
  Co  Co9  1  0.500000  0.703733  0.429951  1
  Co  Co10  1  0.000000  0.203733  0.570049  1
  Co  Co11  1  0.000000  0.796267  0.570049  1
  Co  Co12  1  0.500000  0.879341  0.709890  1
  Co  Co13  1  0.500000  0.120659  0.709890  1
  Co  Co14  1  0.000000  0.620659  0.290110  1
  Co  Co15  1  0.000000  0.379341  0.290110  1
  Co  Co16  1  0.500000  0.331986  0.990115  1
  Co  Co17  1  0.500000  0.668014  0.990115  1
  Co  Co18  1  0.000000  0.168014  0.009885  1
  Co  Co19  1  0.000000  0.831986  0.009885  1
  Co  Co20  1  0.500000  0.500000  0.705070  1
  Co  Co21  1  0.000000  0.000000  0.294930  1
  Tc  Tc22  1  0.500000  0.500000  0.154941  1
  Tc  Tc23  1  0.000000  0.000000  0.845059  1
  P  P24  1  0.500000  0.309442  0.617513  1
  P  P25  1  0.500000  0.690558  0.617513  1
  P  P26  1  0.000000  0.190558  0.382487  1
  P  P27  1  0.000000  0.809442  0.382487  1
  P  P28  1  0.500000  0.500000  0.882013  1
  P  P29  1  0.000000  0.000000  0.117987  1
  P  P30  1  0.500000  0.845970  0.893254  1
  P  P31  1  0.500000  0.154030  0.893254  1
  P  P32  1  0.000000  0.654030  0.106746  1
  P  P33  1  0.000000  0.345970  0.106746  1
  P  P34  1  0.500000  0.500000  0.346065  1
  P  P35  1  0.000000  0.000000  0.653935  1
