# generated using pymatgen
data_DyHoMnFeOs2
_symmetry_space_group_name_H-M   'P 1'
_cell_length_a   5.27087712
_cell_length_b   5.32157279
_cell_length_c   5.32157198
_cell_angle_alpha   58.82036598
_cell_angle_beta   59.65208551
_cell_angle_gamma   59.65208059
_symmetry_Int_Tables_number   1
_chemical_formula_structural   DyHoMnFeOs2
_chemical_formula_sum   'Dy1 Ho1 Mn1 Fe1 Os2'
_cell_volume   104.03088082
_cell_formula_units_Z   1
loop_
 _symmetry_equiv_pos_site_id
 _symmetry_equiv_pos_as_xyz
  1  'x, y, z'
loop_
 _atom_site_type_symbol
 _atom_site_label
 _atom_site_symmetry_multiplicity
 _atom_site_fract_x
 _atom_site_fract_y
 _atom_site_fract_z
 _atom_site_occupancy
  Dy  Dy0  1  0.250221  0.247904  0.247904  1
  Ho  Ho1  1  0.999706  0.002208  0.002208  1
  Mn  Mn2  1  0.625108  0.625004  0.625004  1
  Fe  Fe3  1  0.124853  0.624987  0.624987  1
  Os  Os4  1  0.625056  0.624949  0.124946  1
  Os  Os5  1  0.625056  0.124946  0.624949  1
