# generated using pymatgen
data_Li3Y4HfPt4
_symmetry_space_group_name_H-M   'P 1'
_cell_length_a   4.10692700
_cell_length_b   7.10213984
_cell_length_c   8.63082600
_cell_angle_alpha   87.49091460
_cell_angle_beta   90.00000000
_cell_angle_gamma   90.00000000
_symmetry_Int_Tables_number   1
_chemical_formula_structural   Li3Y4HfPt4
_chemical_formula_sum   'Li3 Y4 Hf1 Pt4'
_cell_volume   251.50232396
_cell_formula_units_Z   1
loop_
 _symmetry_equiv_pos_site_id
 _symmetry_equiv_pos_as_xyz
  1  'x, y, z'
loop_
 _atom_site_type_symbol
 _atom_site_label
 _atom_site_symmetry_multiplicity
 _atom_site_fract_x
 _atom_site_fract_y
 _atom_site_fract_z
 _atom_site_occupancy
  Li  Li0  1  0.250000  0.370388  0.559323  1
  Li  Li1  1  0.250000  0.859150  0.930035  1
  Li  Li2  1  0.750000  0.625052  0.445194  1
  Y  Y3  1  0.250000  0.947669  0.331797  1
  Y  Y4  1  0.250000  0.475557  0.190157  1
  Y  Y5  1  0.750000  0.035742  0.673838  1
  Y  Y6  1  0.750000  0.548240  0.819421  1
  Hf  Hf7  1  0.750000  0.129033  0.055140  1
  Pt  Pt8  1  0.250000  0.256837  0.889323  1
  Pt  Pt9  1  0.250000  0.747486  0.625598  1
  Pt  Pt10  1  0.750000  0.762006  0.121874  1
  Pt  Pt11  1  0.750000  0.242841  0.358301  1
