# generated using pymatgen
data_Tb3Dy6Ho3InCo4Ir
_symmetry_space_group_name_H-M   'P 1'
_cell_length_a   8.33331804
_cell_length_b   8.32846814
_cell_length_c   8.32991211
_cell_angle_alpha   111.04328924
_cell_angle_beta   110.58308603
_cell_angle_gamma   106.79359472
_symmetry_Int_Tables_number   1
_chemical_formula_structural   Tb3Dy6Ho3InCo4Ir
_chemical_formula_sum   'Tb3 Dy6 Ho3 In1 Co4 Ir1'
_cell_volume   444.46088163
_cell_formula_units_Z   1
loop_
 _symmetry_equiv_pos_site_id
 _symmetry_equiv_pos_as_xyz
  1  'x, y, z'
loop_
 _atom_site_type_symbol
 _atom_site_label
 _atom_site_symmetry_multiplicity
 _atom_site_fract_x
 _atom_site_fract_y
 _atom_site_fract_z
 _atom_site_occupancy
  Tb  Tb0  1  0.183713  0.710837  0.895034  1
  Tb  Tb1  1  0.816617  0.288251  0.104450  1
  Tb  Tb2  1  0.407794  0.214637  0.193868  1
  Dy  Dy3  1  0.315274  0.622010  0.306401  1
  Dy  Dy4  1  0.684984  0.378734  0.694125  1
  Dy  Dy5  1  0.314633  0.008878  0.692647  1
  Dy  Dy6  1  0.685614  0.990856  0.306898  1
  Dy  Dy7  1  0.183759  0.288096  0.472352  1
  Dy  Dy8  1  0.816603  0.712855  0.528994  1
  Ho  Ho9  1  0.591385  0.785138  0.805598  1
  Ho  Ho10  1  0.020109  0.214056  0.805490  1
  Ho  Ho11  1  0.979115  0.785970  0.193745  1
  In  In12  1  0.500219  0.500370  0.999738  1
  Co  Co13  1  0.111609  0.611575  0.499996  1
  Co  Co14  1  0.889578  0.388605  0.500953  1
  Co  Co15  1  0.379470  0.000146  0.380149  1
  Co  Co16  1  0.621599  0.999821  0.620938  1
  Ir  Ir17  1  0.997925  0.999162  0.998624  1
