# generated using pymatgen
data_LaPrSi4OsPt3
_symmetry_space_group_name_H-M   'P 1'
_cell_length_a   4.24116600
_cell_length_b   4.24732400
_cell_length_c   10.01638900
_cell_angle_alpha   90.00000000
_cell_angle_beta   90.00000000
_cell_angle_gamma   90.00000000
_symmetry_Int_Tables_number   1
_chemical_formula_structural   LaPrSi4OsPt3
_chemical_formula_sum   'La1 Pr1 Si4 Os1 Pt3'
_cell_volume   180.43128639
_cell_formula_units_Z   1
loop_
 _symmetry_equiv_pos_site_id
 _symmetry_equiv_pos_as_xyz
  1  'x, y, z'
loop_
 _atom_site_type_symbol
 _atom_site_label
 _atom_site_symmetry_multiplicity
 _atom_site_fract_x
 _atom_site_fract_y
 _atom_site_fract_z
 _atom_site_occupancy
  La  La0  1  0.500000  0.000000  0.745242  1
  Pr  Pr1  1  0.000000  0.500000  0.255354  1
  Si  Si2  1  0.000000  0.000000  0.499189  1
  Si  Si3  1  0.500000  0.500000  0.499132  1
  Si  Si4  1  0.000000  0.500000  0.872414  1
  Si  Si5  1  0.500000  0.000000  0.128963  1
  Os  Os6  1  0.000000  0.000000  0.000378  1
  Pt  Pt7  1  0.500000  0.500000  0.000653  1
  Pt  Pt8  1  0.000000  0.500000  0.621441  1
  Pt  Pt9  1  0.500000  0.000000  0.377234  1
