# generated using pymatgen
data_Yb3Sm(Rh2O7)2
_symmetry_space_group_name_H-M   'P 1'
_cell_length_a   7.23381286
_cell_length_b   7.23381131
_cell_length_c   7.23182725
_cell_angle_alpha   59.99090844
_cell_angle_beta   59.99091786
_cell_angle_gamma   59.99999158
_symmetry_Int_Tables_number   1
_chemical_formula_structural   Yb3Sm(Rh2O7)2
_chemical_formula_sum   'Yb3 Sm1 Rh4 O14'
_cell_volume   267.55175246
_cell_formula_units_Z   1
loop_
 _symmetry_equiv_pos_site_id
 _symmetry_equiv_pos_as_xyz
  1  'x, y, z'
loop_
 _atom_site_type_symbol
 _atom_site_label
 _atom_site_symmetry_multiplicity
 _atom_site_fract_x
 _atom_site_fract_y
 _atom_site_fract_z
 _atom_site_occupancy
  Yb  Yb0  1  0.125000  0.125000  0.125000  1
  Yb  Yb1  1  0.625000  0.125000  0.125000  1
  Yb  Yb2  1  0.125000  0.625000  0.125000  1
  Sm  Sm3  1  0.125000  0.125000  0.625000  1
  Rh  Rh4  1  0.625000  0.625000  0.125000  1
  Rh  Rh5  1  0.625000  0.625000  0.625000  1
  Rh  Rh6  1  0.625000  0.125000  0.625000  1
  Rh  Rh7  1  0.125000  0.625000  0.625000  1
  O  O8  1  0.702702  0.297108  0.297488  1
  O  O9  1  0.704661  0.295398  0.704541  1
  O  O10  1  0.999955  0.999955  0.000136  1
  O  O11  1  0.297108  0.702702  0.297488  1
  O  O12  1  0.702702  0.702702  0.297488  1
  O  O13  1  0.954602  0.545339  0.545459  1
  O  O14  1  0.295398  0.704661  0.704541  1
  O  O15  1  0.250045  0.250045  0.249864  1
  O  O16  1  0.952892  0.547298  0.952512  1
  O  O17  1  0.545339  0.954602  0.545459  1
  O  O18  1  0.547298  0.547298  0.952512  1
  O  O19  1  0.954602  0.954602  0.545459  1
  O  O20  1  0.547298  0.952892  0.952512  1
  O  O21  1  0.295398  0.295398  0.704541  1
