# generated using pymatgen
data_Hf2Mg4Ta5NbN12
_symmetry_space_group_name_H-M   'P 1'
_cell_length_a   5.28733832
_cell_length_b   5.29050858
_cell_length_c   10.58182200
_cell_angle_alpha   90.00000000
_cell_angle_beta   90.00000000
_cell_angle_gamma   120.01983783
_symmetry_Int_Tables_number   1
_chemical_formula_structural   Hf2Mg4Ta5NbN12
_chemical_formula_sum   'Hf2 Mg4 Ta5 Nb1 N12'
_cell_volume   256.29418768
_cell_formula_units_Z   1
loop_
 _symmetry_equiv_pos_site_id
 _symmetry_equiv_pos_as_xyz
  1  'x, y, z'
loop_
 _atom_site_type_symbol
 _atom_site_label
 _atom_site_symmetry_multiplicity
 _atom_site_fract_x
 _atom_site_fract_y
 _atom_site_fract_z
 _atom_site_occupancy
  Hf  Hf0  1  0.000000  0.000905  0.499935  1
  Hf  Hf1  1  0.000000  0.000905  0.000065  1
  Mg  Mg2  1  0.332967  0.666311  0.000082  1
  Mg  Mg3  1  0.332967  0.666311  0.499918  1
  Mg  Mg4  1  0.667033  0.333343  0.499918  1
  Mg  Mg5  1  0.667033  0.333343  0.000082  1
  Ta  Ta6  1  0.659525  0.999829  0.750000  1
  Ta  Ta7  1  0.340475  0.340303  0.750000  1
  Ta  Ta8  1  0.659955  0.659605  0.250000  1
  Ta  Ta9  1  0.340045  0.999649  0.250000  1
  Ta  Ta10  1  0.000000  0.659773  0.750000  1
  Nb  Nb11  1  0.000000  0.339648  0.250000  1
  N  N12  1  0.667541  0.667523  0.624447  1
  N  N13  1  0.667541  0.667523  0.875553  1
  N  N14  1  0.336508  0.332326  0.123668  1
  N  N15  1  0.336508  0.332326  0.376332  1
  N  N16  1  0.332459  0.999982  0.875553  1
  N  N17  1  0.332459  0.999982  0.624447  1
  N  N18  1  0.000000  0.671453  0.376065  1
  N  N19  1  0.000000  0.671453  0.123935  1
  N  N20  1  0.663492  0.995818  0.123668  1
  N  N21  1  0.663492  0.995818  0.376332  1
  N  N22  1  0.000000  0.332936  0.875710  1
  N  N23  1  0.000000  0.332936  0.624290  1
