# generated using pymatgen
data_Y6Al24Ir5Ru3
_symmetry_space_group_name_H-M   'P 1'
_cell_length_a   8.82893098
_cell_length_b   8.79438193
_cell_length_c   9.53441653
_cell_angle_alpha   89.99999846
_cell_angle_beta   90.07399468
_cell_angle_gamma   119.87063623
_symmetry_Int_Tables_number   1
_chemical_formula_structural   Y6Al24Ir5Ru3
_chemical_formula_sum   'Y6 Al24 Ir5 Ru3'
_cell_volume   641.95172187
_cell_formula_units_Z   1
loop_
 _symmetry_equiv_pos_site_id
 _symmetry_equiv_pos_as_xyz
  1  'x, y, z'
loop_
 _atom_site_type_symbol
 _atom_site_label
 _atom_site_symmetry_multiplicity
 _atom_site_fract_x
 _atom_site_fract_y
 _atom_site_fract_z
 _atom_site_occupancy
  Y  Y0  1  0.191093  0.806249  0.249979  1
  Y  Y1  1  0.191093  0.384843  0.249979  1
  Y  Y2  1  0.614831  0.807415  0.249823  1
  Y  Y3  1  0.808907  0.193751  0.750021  1
  Y  Y4  1  0.808907  0.615157  0.750021  1
  Y  Y5  1  0.385169  0.192585  0.750177  1
  Al  Al6  1  0.561549  0.436737  0.250176  1
  Al  Al7  1  0.561549  0.124813  0.250176  1
  Al  Al8  1  0.875596  0.437798  0.248725  1
  Al  Al9  1  0.438451  0.563263  0.749824  1
  Al  Al10  1  0.438451  0.875187  0.749824  1
  Al  Al11  1  0.124404  0.562202  0.751275  1
  Al  Al12  1  0.325948  0.162974  0.423757  1
  Al  Al13  1  0.835452  0.162651  0.423510  1
  Al  Al14  1  0.835452  0.672800  0.423510  1
  Al  Al15  1  0.674052  0.837026  0.576243  1
  Al  Al16  1  0.164548  0.837349  0.576490  1
  Al  Al17  1  0.164548  0.327200  0.576490  1
  Al  Al18  1  0.673253  0.836626  0.924596  1
  Al  Al19  1  0.162648  0.835229  0.923752  1
  Al  Al20  1  0.162648  0.327419  0.923752  1
  Al  Al21  1  0.326747  0.163374  0.075404  1
  Al  Al22  1  0.837352  0.164771  0.076248  1
  Al  Al23  1  0.837352  0.672581  0.076248  1
  Al  Al24  1  0.667022  0.333510  0.528915  1
  Al  Al25  1  0.332978  0.666490  0.471085  1
  Al  Al26  1  0.330566  0.665284  0.028379  1
  Al  Al27  1  0.669434  0.334716  0.971621  1
  Al  Al28  1  0.998213  0.999106  0.250003  1
  Al  Al29  1  0.001787  0.000894  0.749997  1
  Ir  Ir30  1  0.500000  0.500000  0.500000  1
  Ir  Ir31  1  0.500000  0.000000  0.500000  1
  Ir  Ir32  1  0.000000  0.500000  0.500000  1
  Ir  Ir33  1  0.500000  0.500000  0.000000  1
  Ir  Ir34  1  0.500000  0.000000  0.000000  1
  Ru  Ru35  1  0.000000  0.000000  0.500000  1
  Ru  Ru36  1  0.000000  0.000000  0.000000  1
  Ru  Ru37  1  0.000000  0.500000  0.000000  1
