# generated using pymatgen
data_Tb5Y2Th(ReB6)4
_symmetry_space_group_name_H-M   'P 1'
_cell_length_a   3.71845900
_cell_length_b   9.22072258
_cell_length_c   11.62892201
_cell_angle_alpha   89.94740300
_cell_angle_beta   90.00000000
_cell_angle_gamma   90.00000000
_symmetry_Int_Tables_number   1
_chemical_formula_structural   Tb5Y2Th(ReB6)4
_chemical_formula_sum   'Tb5 Y2 Th1 Re4 B24'
_cell_volume   398.71927208
_cell_formula_units_Z   1
loop_
 _symmetry_equiv_pos_site_id
 _symmetry_equiv_pos_as_xyz
  1  'x, y, z'
loop_
 _atom_site_type_symbol
 _atom_site_label
 _atom_site_symmetry_multiplicity
 _atom_site_fract_x
 _atom_site_fract_y
 _atom_site_fract_z
 _atom_site_occupancy
  Tb  Tb0  1  0.000000  0.177690  0.912843  1
  Tb  Tb1  1  0.000000  0.323383  0.414754  1
  Tb  Tb2  1  0.000000  0.676080  0.585945  1
  Tb  Tb3  1  0.000000  0.441714  0.130529  1
  Tb  Tb4  1  0.000000  0.556424  0.868806  1
  Y  Y5  1  0.000000  0.943216  0.371646  1
  Y  Y6  1  0.000000  0.057562  0.629576  1
  Th  Th7  1  0.000000  0.822655  0.085882  1
  Re  Re8  1  0.000000  0.138059  0.179241  1
  Re  Re9  1  0.000000  0.862366  0.820196  1
  Re  Re10  1  0.000000  0.638179  0.321467  1
  Re  Re11  1  0.000000  0.361923  0.678966  1
  B  B12  1  0.500000  0.055390  0.068026  1
  B  B13  1  0.500000  0.946827  0.930599  1
  B  B14  1  0.500000  0.553113  0.433129  1
  B  B15  1  0.500000  0.446681  0.567293  1
  B  B16  1  0.500000  0.249028  0.082060  1
  B  B17  1  0.500000  0.751718  0.915234  1
  B  B18  1  0.500000  0.748162  0.419195  1
  B  B19  1  0.500000  0.251493  0.581924  1
  B  B20  1  0.500000  0.291039  0.234707  1
  B  B21  1  0.500000  0.709092  0.764397  1
  B  B22  1  0.500000  0.789944  0.267437  1
  B  B23  1  0.500000  0.208734  0.734353  1
  B  B24  1  0.500000  0.131528  0.314979  1
  B  B25  1  0.500000  0.869838  0.685350  1
  B  B26  1  0.500000  0.629471  0.187807  1
  B  B27  1  0.500000  0.369026  0.813469  1
  B  B28  1  0.500000  0.482465  0.288866  1
  B  B29  1  0.500000  0.516836  0.711389  1
  B  B30  1  0.500000  0.985348  0.213429  1
  B  B31  1  0.500000  0.017912  0.786835  1
  B  B32  1  0.500000  0.101356  0.472175  1
  B  B33  1  0.500000  0.899171  0.528597  1
  B  B34  1  0.500000  0.598112  0.027433  1
  B  B35  1  0.500000  0.398468  0.971468  1
