# generated using pymatgen
data_DyErV2(WO6)2
_symmetry_space_group_name_H-M   'P 1'
_cell_length_a   5.22056911
_cell_length_b   7.42549616
_cell_length_c   11.17726400
_cell_angle_alpha   90.00000000
_cell_angle_beta   90.00000000
_cell_angle_gamma   90.02379957
_symmetry_Int_Tables_number   1
_chemical_formula_structural   DyErV2(WO6)2
_chemical_formula_sum   'Dy2 Er2 V4 W4 O24'
_cell_volume   433.29013247
_cell_formula_units_Z   2
loop_
 _symmetry_equiv_pos_site_id
 _symmetry_equiv_pos_as_xyz
  1  'x, y, z'
loop_
 _atom_site_type_symbol
 _atom_site_label
 _atom_site_symmetry_multiplicity
 _atom_site_fract_x
 _atom_site_fract_y
 _atom_site_fract_z
 _atom_site_occupancy
  Dy  Dy0  1  0.543609  0.250614  0.045542  1
  Dy  Dy1  1  0.043609  0.750614  0.454458  1
  Er  Er2  1  0.954969  0.250777  0.545716  1
  Er  Er3  1  0.454969  0.750777  0.954284  1
  V  V4  1  0.050772  0.997410  0.134114  1
  V  V5  1  0.550772  0.497410  0.365887  1
  V  V6  1  0.448771  0.998430  0.634577  1
  V  V7  1  0.948771  0.498430  0.865423  1
  W  W8  1  0.056844  0.506546  0.142969  1
  W  W9  1  0.556844  0.006546  0.357031  1
  W  W10  1  0.442864  0.505714  0.643528  1
  W  W11  1  0.942864  0.005714  0.856472  1
  O  O12  1  0.755072  0.958010  0.019746  1
  O  O13  1  0.763683  0.548015  0.029131  1
  O  O14  1  0.183440  0.749610  0.114737  1
  O  O15  1  0.934261  0.258249  0.142909  1
  O  O16  1  0.375609  0.432927  0.206299  1
  O  O17  1  0.393138  0.068970  0.214112  1
  O  O18  1  0.893138  0.568970  0.285887  1
  O  O19  1  0.875609  0.932927  0.293700  1
  O  O20  1  0.434261  0.758248  0.357091  1
  O  O21  1  0.683440  0.249611  0.385263  1
  O  O22  1  0.263682  0.048014  0.470868  1
  O  O23  1  0.255072  0.458010  0.480254  1
  O  O24  1  0.744202  0.960629  0.520294  1
  O  O25  1  0.735446  0.545907  0.529525  1
  O  O26  1  0.319444  0.749270  0.615667  1
  O  O27  1  0.568999  0.258202  0.643043  1
  O  O28  1  0.123264  0.431594  0.705589  1
  O  O29  1  0.105613  0.069324  0.713275  1
  O  O30  1  0.605613  0.569324  0.786726  1
  O  O31  1  0.623264  0.931594  0.794411  1
  O  O32  1  0.068999  0.758201  0.856957  1
  O  O33  1  0.819444  0.249271  0.884334  1
  O  O34  1  0.235446  0.045906  0.970475  1
  O  O35  1  0.244204  0.460629  0.979706  1
