# generated using pymatgen
data_Dy12Y8Cd6CoRu
_symmetry_space_group_name_H-M   'P 1'
_cell_length_a   9.61395713
_cell_length_b   9.61395710
_cell_length_c   9.81647543
_cell_angle_alpha   89.94624618
_cell_angle_beta   90.05375557
_cell_angle_gamma   119.98694500
_symmetry_Int_Tables_number   1
_chemical_formula_structural   Dy12Y8Cd6CoRu
_chemical_formula_sum   'Dy12 Y8 Cd6 Co1 Ru1'
_cell_volume   785.86407959
_cell_formula_units_Z   1
loop_
 _symmetry_equiv_pos_site_id
 _symmetry_equiv_pos_as_xyz
  1  'x, y, z'
loop_
 _atom_site_type_symbol
 _atom_site_label
 _atom_site_symmetry_multiplicity
 _atom_site_fract_x
 _atom_site_fract_y
 _atom_site_fract_z
 _atom_site_occupancy
  Dy  Dy0  1  0.999990  0.000010  0.500235  1
  Dy  Dy1  1  0.000043  0.999957  0.999717  1
  Dy  Dy2  1  0.212146  0.787854  0.435804  1
  Dy  Dy3  1  0.212317  0.424565  0.435852  1
  Dy  Dy4  1  0.575435  0.787683  0.435852  1
  Dy  Dy5  1  0.790613  0.209387  0.560392  1
  Dy  Dy6  1  0.790649  0.581231  0.560411  1
  Dy  Dy7  1  0.418769  0.209351  0.560411  1
  Dy  Dy8  1  0.790576  0.209424  0.939535  1
  Dy  Dy9  1  0.790737  0.581103  0.939585  1
  Dy  Dy10  1  0.418897  0.209263  0.939585  1
  Dy  Dy11  1  0.212190  0.787810  0.064327  1
  Y  Y12  1  0.211659  0.423432  0.063681  1
  Y  Y13  1  0.576568  0.788341  0.063681  1
  Y  Y14  1  0.541777  0.458223  0.250157  1
  Y  Y15  1  0.541580  0.083312  0.250140  1
  Y  Y16  1  0.916688  0.458420  0.250140  1
  Y  Y17  1  0.458434  0.541566  0.749768  1
  Y  Y18  1  0.458381  0.916790  0.749905  1
  Y  Y19  1  0.083210  0.541619  0.749905  1
  Cd  Cd20  1  0.885270  0.114730  0.249924  1
  Cd  Cd21  1  0.885244  0.770567  0.249972  1
  Cd  Cd22  1  0.229433  0.114756  0.249972  1
  Cd  Cd23  1  0.114612  0.885388  0.750015  1
  Cd  Cd24  1  0.114601  0.229271  0.750099  1
  Cd  Cd25  1  0.770729  0.885399  0.750099  1
  Co  Co26  1  0.332847  0.667153  0.250995  1
  Ru  Ru27  1  0.666601  0.333399  0.749844  1
