# generated using pymatgen
data_Np2O7
_symmetry_space_group_name_H-M   'P 1'
_cell_length_a   7.94003062
_cell_length_b   7.94003099
_cell_length_c   7.94003081
_cell_angle_alpha   125.08682617
_cell_angle_beta   120.04242974
_cell_angle_gamma   85.67244725
_symmetry_Int_Tables_number   1
_chemical_formula_structural   Np2O7
_chemical_formula_sum   'Np4 O14'
_cell_volume   338.27708579
_cell_formula_units_Z   2
loop_
 _symmetry_equiv_pos_site_id
 _symmetry_equiv_pos_as_xyz
  1  'x, y, z'
loop_
 _atom_site_type_symbol
 _atom_site_label
 _atom_site_symmetry_multiplicity
 _atom_site_fract_x
 _atom_site_fract_y
 _atom_site_fract_z
 _atom_site_occupancy
  Np  Np0  1  0.500000  0.500000  0.500000  1
  Np  Np1  1  0.000000  0.500000  0.000000  1
  Np  Np2  1  0.000000  0.500000  0.500000  1
  Np  Np3  1  0.500000  0.000000  0.500000  1
  O  O4  1  0.046208  0.777754  0.731546  1
  O  O5  1  0.562259  0.801483  0.622250  1
  O  O6  1  0.179233  0.801483  0.239224  1
  O  O7  1  0.546208  0.814662  0.268454  1
  O  O8  1  0.250000  0.410298  0.160298  1
  O  O9  1  0.062259  0.440009  0.760776  1
  O  O10  1  0.679233  0.440009  0.377750  1
  O  O11  1  0.320767  0.559991  0.622250  1
  O  O12  1  0.937741  0.559991  0.239224  1
  O  O13  1  0.750000  0.589702  0.839702  1
  O  O14  1  0.453792  0.185338  0.731546  1
  O  O15  1  0.820767  0.198517  0.760776  1
  O  O16  1  0.437741  0.198517  0.377750  1
  O  O17  1  0.953792  0.222246  0.268454  1
