# generated using pymatgen
data_K5InSn8
_symmetry_space_group_name_H-M   'P 1'
_cell_length_a   13.05842145
_cell_length_b   13.05842182
_cell_length_c   13.05842129
_cell_angle_alpha   29.67486449
_cell_angle_beta   29.67486213
_cell_angle_gamma   29.67486249
_symmetry_Int_Tables_number   1
_chemical_formula_structural   K5InSn8
_chemical_formula_sum   'K5 In1 Sn8'
_cell_volume   483.21127189
_cell_formula_units_Z   1
loop_
 _symmetry_equiv_pos_site_id
 _symmetry_equiv_pos_as_xyz
  1  'x, y, z'
loop_
 _atom_site_type_symbol
 _atom_site_label
 _atom_site_symmetry_multiplicity
 _atom_site_fract_x
 _atom_site_fract_y
 _atom_site_fract_z
 _atom_site_occupancy
  K  K0  1  0.682919  0.682919  0.682919  1
  K  K1  1  0.317081  0.317081  0.317081  1
  K  K2  1  0.780528  0.780528  0.780528  1
  K  K3  1  0.219472  0.219472  0.219472  1
  K  K4  1  0.500000  0.500000  0.500000  1
  In  In5  1  0.000000  0.000000  0.000000  1
  Sn  Sn6  1  0.762648  0.276015  0.762650  1
  Sn  Sn7  1  0.762650  0.762650  0.276014  1
  Sn  Sn8  1  0.276015  0.762648  0.762650  1
  Sn  Sn9  1  0.723986  0.237352  0.237350  1
  Sn  Sn10  1  0.237351  0.237351  0.723986  1
  Sn  Sn11  1  0.237352  0.723986  0.237350  1
  Sn  Sn12  1  0.875603  0.875603  0.875602  1
  Sn  Sn13  1  0.124398  0.124398  0.124398  1
