# generated using pymatgen
data_Sc4Zn2AgAu
_symmetry_space_group_name_H-M   'P 1'
_cell_length_a   6.79779134
_cell_length_b   6.70932900
_cell_length_c   6.79853332
_cell_angle_alpha   90.00000000
_cell_angle_beta   90.03551616
_cell_angle_gamma   90.00000000
_symmetry_Int_Tables_number   1
_chemical_formula_structural   Sc4Zn2AgAu
_chemical_formula_sum   'Sc8 Zn4 Ag2 Au2'
_cell_volume   310.07165317
_cell_formula_units_Z   2
loop_
 _symmetry_equiv_pos_site_id
 _symmetry_equiv_pos_as_xyz
  1  'x, y, z'
loop_
 _atom_site_type_symbol
 _atom_site_label
 _atom_site_symmetry_multiplicity
 _atom_site_fract_x
 _atom_site_fract_y
 _atom_site_fract_z
 _atom_site_occupancy
  Sc  Sc0  1  0.250013  0.000521  0.249991  1
  Sc  Sc1  1  0.250013  0.499479  0.249991  1
  Sc  Sc2  1  0.750014  0.500507  0.250007  1
  Sc  Sc3  1  0.750014  0.999493  0.250007  1
  Sc  Sc4  1  0.249988  0.000506  0.749974  1
  Sc  Sc5  1  0.249988  0.499494  0.749974  1
  Sc  Sc6  1  0.749977  0.500522  0.750023  1
  Sc  Sc7  1  0.749977  0.999478  0.750023  1
  Zn  Zn8  1  0.998980  0.249999  0.000004  1
  Zn  Zn9  1  0.000984  0.749999  0.999994  1
  Zn  Zn10  1  0.498981  0.749999  0.499942  1
  Zn  Zn11  1  0.500983  0.249999  0.500055  1
  Ag  Ag12  1  0.498790  0.749999  0.000106  1
  Ag  Ag13  1  0.998816  0.249999  0.499909  1
  Au  Au14  1  0.001243  0.749999  0.500055  1
  Au  Au15  1  0.501239  0.249999  0.999944  1
