# generated using pymatgen
data_Nd3Sn3HgIrRu
_symmetry_space_group_name_H-M   'P 1'
_cell_length_a   7.69613800
_cell_length_b   7.69613748
_cell_length_c   4.19363000
_cell_angle_alpha   90.00000000
_cell_angle_beta   90.00000000
_cell_angle_gamma   119.99999362
_symmetry_Int_Tables_number   1
_chemical_formula_structural   Nd3Sn3HgIrRu
_chemical_formula_sum   'Nd3 Sn3 Hg1 Ir1 Ru1'
_cell_volume   215.11288943
_cell_formula_units_Z   1
loop_
 _symmetry_equiv_pos_site_id
 _symmetry_equiv_pos_as_xyz
  1  'x, y, z'
loop_
 _atom_site_type_symbol
 _atom_site_label
 _atom_site_symmetry_multiplicity
 _atom_site_fract_x
 _atom_site_fract_y
 _atom_site_fract_z
 _atom_site_occupancy
  Nd  Nd0  1  0.603795  0.020457  0.000000  1
  Nd  Nd1  1  0.979543  0.583337  0.000000  1
  Nd  Nd2  1  0.416663  0.396205  0.000000  1
  Sn  Sn3  1  0.249031  0.010449  0.500000  1
  Sn  Sn4  1  0.989551  0.238582  0.500000  1
  Sn  Sn5  1  0.761418  0.750969  0.500000  1
  Hg  Hg6  1  0.333333  0.666667  0.500000  1
  Ir  Ir7  1  0.666667  0.333333  0.500000  1
  Ru  Ru8  1  0.000000  0.000000  0.000000  1
