# generated using pymatgen
data_Sr8P5Cl
_symmetry_space_group_name_H-M   'P 1'
_cell_length_a   8.06387661
_cell_length_b   8.06387602
_cell_length_c   8.06387633
_cell_angle_alpha   109.35922443
_cell_angle_beta   109.35921909
_cell_angle_gamma   109.69545360
_symmetry_Int_Tables_number   1
_chemical_formula_structural   Sr8P5Cl
_chemical_formula_sum   'Sr8 P5 Cl1'
_cell_volume   403.64974383
_cell_formula_units_Z   1
loop_
 _symmetry_equiv_pos_site_id
 _symmetry_equiv_pos_as_xyz
  1  'x, y, z'
loop_
 _atom_site_type_symbol
 _atom_site_label
 _atom_site_symmetry_multiplicity
 _atom_site_fract_x
 _atom_site_fract_y
 _atom_site_fract_z
 _atom_site_occupancy
  Sr  Sr0  1  0.735716  0.361189  0.240219  1
  Sr  Sr1  1  0.985062  0.739510  0.105083  1
  Sr  Sr2  1  0.634429  0.879979  0.894917  1
  Sr  Sr3  1  0.120969  0.495497  0.759781  1
  Sr  Sr4  1  0.638811  0.879031  0.374528  1
  Sr  Sr5  1  0.504503  0.264284  0.625472  1
  Sr  Sr6  1  0.260490  0.365571  0.245550  1
  Sr  Sr7  1  0.120021  0.014938  0.754450  1
  P  P8  1  0.744648  0.631719  0.616752  1
  P  P9  1  0.368281  0.985032  0.112929  1
  P  P10  1  0.014968  0.127897  0.383248  1
  P  P11  1  0.500000  0.500000  0.000000  1
  P  P12  1  0.872103  0.255352  0.887071  1
  Cl  Cl13  1  0.250000  0.750000  0.500000  1
