# generated using pymatgen
data_Er10Cd3Pd
_symmetry_space_group_name_H-M   'P 1'
_cell_length_a   9.55671100
_cell_length_b   9.55671031
_cell_length_c   9.75065800
_cell_angle_alpha   90.00000000
_cell_angle_beta   90.00000000
_cell_angle_gamma   119.99999891
_symmetry_Int_Tables_number   1
_chemical_formula_structural   Er10Cd3Pd
_chemical_formula_sum   'Er20 Cd6 Pd2'
_cell_volume   771.22559662
_cell_formula_units_Z   2
loop_
 _symmetry_equiv_pos_site_id
 _symmetry_equiv_pos_as_xyz
  1  'x, y, z'
loop_
 _atom_site_type_symbol
 _atom_site_label
 _atom_site_symmetry_multiplicity
 _atom_site_fract_x
 _atom_site_fract_y
 _atom_site_fract_z
 _atom_site_occupancy
  Er  Er0  1  0.208311  0.791689  0.943169  1
  Er  Er1  1  0.208311  0.416623  0.943169  1
  Er  Er2  1  0.583377  0.791689  0.943169  1
  Er  Er3  1  0.791689  0.208311  0.056831  1
  Er  Er4  1  0.791689  0.583377  0.056831  1
  Er  Er5  1  0.416623  0.208311  0.056831  1
  Er  Er6  1  0.791689  0.208311  0.443169  1
  Er  Er7  1  0.791689  0.583377  0.443169  1
  Er  Er8  1  0.416623  0.208311  0.443169  1
  Er  Er9  1  0.208311  0.791689  0.556831  1
  Er  Er10  1  0.208311  0.416623  0.556831  1
  Er  Er11  1  0.583377  0.791689  0.556831  1
  Er  Er12  1  0.542949  0.457051  0.750000  1
  Er  Er13  1  0.542949  0.085897  0.750000  1
  Er  Er14  1  0.914103  0.457051  0.750000  1
  Er  Er15  1  0.457051  0.542949  0.250000  1
  Er  Er16  1  0.457051  0.914103  0.250000  1
  Er  Er17  1  0.085897  0.542949  0.250000  1
  Er  Er18  1  0.000000  0.000000  0.000000  1
  Er  Er19  1  0.000000  0.000000  0.500000  1
  Cd  Cd20  1  0.885187  0.114813  0.750000  1
  Cd  Cd21  1  0.885187  0.770374  0.750000  1
  Cd  Cd22  1  0.229626  0.114813  0.750000  1
  Cd  Cd23  1  0.114813  0.885187  0.250000  1
  Cd  Cd24  1  0.114813  0.229626  0.250000  1
  Cd  Cd25  1  0.770374  0.885187  0.250000  1
  Pd  Pd26  1  0.333333  0.666667  0.750000  1
  Pd  Pd27  1  0.666667  0.333333  0.250000  1
