# generated using pymatgen
data_Nd3Th(AlRh)4
_symmetry_space_group_name_H-M   'P 1'
_cell_length_a   4.31594000
_cell_length_b   7.06433392
_cell_length_c   8.12576794
_cell_angle_alpha   90.32174640
_cell_angle_beta   90.00000000
_cell_angle_gamma   90.00000000
_symmetry_Int_Tables_number   1
_chemical_formula_structural   Nd3Th(AlRh)4
_chemical_formula_sum   'Nd3 Th1 Al4 Rh4'
_cell_volume   247.74459367
_cell_formula_units_Z   1
loop_
 _symmetry_equiv_pos_site_id
 _symmetry_equiv_pos_as_xyz
  1  'x, y, z'
loop_
 _atom_site_type_symbol
 _atom_site_label
 _atom_site_symmetry_multiplicity
 _atom_site_fract_x
 _atom_site_fract_y
 _atom_site_fract_z
 _atom_site_occupancy
  Nd  Nd0  1  0.750000  0.461350  0.815068  1
  Nd  Nd1  1  0.750000  0.960221  0.680481  1
  Nd  Nd2  1  0.250000  0.038598  0.320481  1
  Th  Th3  1  0.250000  0.538928  0.177605  1
  Al  Al4  1  0.250000  0.631152  0.561725  1
  Al  Al5  1  0.750000  0.363288  0.440511  1
  Al  Al6  1  0.750000  0.874257  0.060891  1
  Al  Al7  1  0.250000  0.133160  0.937593  1
  Rh  Rh8  1  0.250000  0.765049  0.892731  1
  Rh  Rh9  1  0.750000  0.243662  0.121049  1
  Rh  Rh10  1  0.750000  0.724005  0.374237  1
  Rh  Rh11  1  0.250000  0.266330  0.617628  1
