# generated using pymatgen
data_YTh3MgTlNi4
_symmetry_space_group_name_H-M   'P 1'
_cell_length_a   7.64869691
_cell_length_b   7.65787893
_cell_length_c   3.65949000
_cell_angle_alpha   90.00000000
_cell_angle_beta   90.00000000
_cell_angle_gamma   91.05909011
_symmetry_Int_Tables_number   1
_chemical_formula_structural   YTh3MgTlNi4
_chemical_formula_sum   'Y1 Th3 Mg1 Tl1 Ni4'
_cell_volume   214.30993940
_cell_formula_units_Z   1
loop_
 _symmetry_equiv_pos_site_id
 _symmetry_equiv_pos_as_xyz
  1  'x, y, z'
loop_
 _atom_site_type_symbol
 _atom_site_label
 _atom_site_symmetry_multiplicity
 _atom_site_fract_x
 _atom_site_fract_y
 _atom_site_fract_z
 _atom_site_occupancy
  Y  Y0  1  0.829527  0.674637  0.500000  1
  Th  Th1  1  0.678900  0.168138  0.500000  1
  Th  Th2  1  0.325155  0.829047  0.500000  1
  Th  Th3  1  0.166549  0.327242  0.500000  1
  Mg  Mg4  1  0.996945  0.992069  0.000000  1
  Tl  Tl5  1  0.509169  0.503603  0.000000  1
  Ni  Ni6  1  0.125867  0.624268  0.000000  1
  Ni  Ni7  1  0.882301  0.367047  0.000000  1
  Ni  Ni8  1  0.617646  0.888562  0.000000  1
  Ni  Ni9  1  0.367942  0.125384  0.000000  1
