# generated using pymatgen
data_Dy3HoGaCo4
_symmetry_space_group_name_H-M   'P 1'
_cell_length_a   5.46748083
_cell_length_b   5.46748049
_cell_length_c   8.86318814
_cell_angle_alpha   70.74503322
_cell_angle_beta   70.74503672
_cell_angle_gamma   43.29778133
_symmetry_Int_Tables_number   1
_chemical_formula_structural   Dy3HoGaCo4
_chemical_formula_sum   'Dy3 Ho1 Ga1 Co4'
_cell_volume   169.87936768
_cell_formula_units_Z   1
loop_
 _symmetry_equiv_pos_site_id
 _symmetry_equiv_pos_as_xyz
  1  'x, y, z'
loop_
 _atom_site_type_symbol
 _atom_site_label
 _atom_site_symmetry_multiplicity
 _atom_site_fract_x
 _atom_site_fract_y
 _atom_site_fract_z
 _atom_site_occupancy
  Dy  Dy0  1  0.746111  0.746111  0.661818  1
  Dy  Dy1  1  0.253888  0.253888  0.338154  1
  Dy  Dy2  1  0.391239  0.391239  0.885369  1
  Ho  Ho3  1  0.608681  0.608681  0.114696  1
  Ga  Ga4  1  0.500008  0.500008  0.499966  1
  Co  Co5  1  0.037621  0.037621  0.645606  1
  Co  Co6  1  0.962415  0.962415  0.354345  1
  Co  Co7  1  0.094579  0.094579  0.880399  1
  Co  Co8  1  0.905458  0.905458  0.119648  1
