# generated using pymatgen
data_Dy2Ni12GeP6
_symmetry_space_group_name_H-M   'P 1'
_cell_length_a   9.10555074
_cell_length_b   9.10641050
_cell_length_c   3.68297400
_cell_angle_alpha   90.00000000
_cell_angle_beta   90.00000000
_cell_angle_gamma   120.02721222
_symmetry_Int_Tables_number   1
_chemical_formula_structural   Dy2Ni12GeP6
_chemical_formula_sum   'Dy2 Ni12 Ge1 P6'
_cell_volume   264.40129291
_cell_formula_units_Z   1
loop_
 _symmetry_equiv_pos_site_id
 _symmetry_equiv_pos_as_xyz
  1  'x, y, z'
loop_
 _atom_site_type_symbol
 _atom_site_label
 _atom_site_symmetry_multiplicity
 _atom_site_fract_x
 _atom_site_fract_y
 _atom_site_fract_z
 _atom_site_occupancy
  Dy  Dy0  1  0.333275  0.666648  0.000000  1
  Dy  Dy1  1  0.666682  0.333388  0.500000  1
  Ni  Ni2  1  0.436358  0.063203  0.000000  1
  Ni  Ni3  1  0.160539  0.289379  0.000000  1
  Ni  Ni4  1  0.936888  0.373087  0.000000  1
  Ni  Ni5  1  0.626978  0.563840  0.000000  1
  Ni  Ni6  1  0.128837  0.839476  0.000000  1
  Ni  Ni7  1  0.710551  0.871208  0.000000  1
  Ni  Ni8  1  0.231032  0.100573  0.500000  1
  Ni  Ni9  1  0.899313  0.130463  0.500000  1
  Ni  Ni10  1  0.383646  0.432477  0.500000  1
  Ni  Ni11  1  0.048871  0.616344  0.500000  1
  Ni  Ni12  1  0.869566  0.768870  0.500000  1
  Ni  Ni13  1  0.567429  0.951130  0.500000  1
  Ge  Ge14  1  0.999953  0.999958  0.000000  1
  P  P15  1  0.706449  0.112991  0.000000  1
  P  P16  1  0.406567  0.293600  0.000000  1
  P  P17  1  0.887035  0.593361  0.000000  1
  P  P18  1  0.110772  0.406028  0.500000  1
  P  P19  1  0.594023  0.704710  0.500000  1
  P  P20  1  0.295236  0.889265  0.500000  1
