# generated using pymatgen
data_Tm3Zr4BiF28
_symmetry_space_group_name_H-M   'P 1'
_cell_length_a   5.74197162
_cell_length_b   9.11206801
_cell_length_c   12.22670804
_cell_angle_alpha   62.41874539
_cell_angle_beta   89.99053374
_cell_angle_gamma   90.05116451
_symmetry_Int_Tables_number   1
_chemical_formula_structural   Tm3Zr4BiF28
_chemical_formula_sum   'Tm3 Zr4 Bi1 F28'
_cell_volume   567.01561870
_cell_formula_units_Z   1
loop_
 _symmetry_equiv_pos_site_id
 _symmetry_equiv_pos_as_xyz
  1  'x, y, z'
loop_
 _atom_site_type_symbol
 _atom_site_label
 _atom_site_symmetry_multiplicity
 _atom_site_fract_x
 _atom_site_fract_y
 _atom_site_fract_z
 _atom_site_occupancy
  Tm  Tm0  1  0.744819  0.819798  0.265719  1
  Tm  Tm1  1  0.244068  0.183957  0.234026  1
  Tm  Tm2  1  0.257901  0.189547  0.733668  1
  Zr  Zr3  1  0.743021  0.279527  0.451777  1
  Zr  Zr4  1  0.243482  0.725133  0.050845  1
  Zr  Zr5  1  0.254864  0.725818  0.539222  1
  Zr  Zr6  1  0.755510  0.268945  0.957465  1
  Bi  Bi7  1  0.757744  0.821780  0.764632  1
  F  F8  1  0.459839  0.707818  0.926270  1
  F  F9  1  0.968401  0.288816  0.577076  1
  F  F10  1  0.528265  0.285593  0.079187  1
  F  F11  1  0.030455  0.709963  0.416627  1
  F  F12  1  0.454012  0.279022  0.551600  1
  F  F13  1  0.948043  0.717553  0.960241  1
  F  F14  1  0.548882  0.720455  0.445155  1
  F  F15  1  0.045907  0.274857  0.054351  1
  F  F16  1  0.774284  0.517139  0.860173  1
  F  F17  1  0.268466  0.472867  0.638209  1
  F  F18  1  0.235975  0.472351  0.146237  1
  F  F19  1  0.732514  0.529254  0.355269  1
  F  F20  1  0.758761  0.017927  0.060774  1
  F  F21  1  0.257984  0.976938  0.438233  1
  F  F22  1  0.241984  0.975045  0.941461  1
  F  F23  1  0.739543  0.027146  0.553581  1
  F  F24  1  0.979750  0.731709  0.641295  1
  F  F25  1  0.484315  0.264259  0.850066  1
  F  F26  1  0.008276  0.263490  0.346301  1
  F  F27  1  0.509874  0.737209  0.157091  1
  F  F28  1  0.031630  0.748573  0.177685  1
  F  F29  1  0.525544  0.253671  0.327415  1
  F  F30  1  0.970474  0.247211  0.829497  1
  F  F31  1  0.457541  0.744693  0.669890  1
  F  F32  1  0.440008  0.979832  0.237081  1
  F  F33  1  0.939335  0.023293  0.263827  1
  F  F34  1  0.573432  0.038109  0.766180  1
  F  F35  1  0.085096  0.980703  0.731877  1
