# generated using pymatgen
data_Hf2NbGa2Sn
_symmetry_space_group_name_H-M   'P 1'
_cell_length_a   5.62229700
_cell_length_b   8.65602900
_cell_length_c   9.32892700
_cell_angle_alpha   90.00000000
_cell_angle_beta   90.00000000
_cell_angle_gamma   90.00000000
_symmetry_Int_Tables_number   1
_chemical_formula_structural   Hf2NbGa2Sn
_chemical_formula_sum   'Hf8 Nb4 Ga8 Sn4'
_cell_volume   454.00870621
_cell_formula_units_Z   4
loop_
 _symmetry_equiv_pos_site_id
 _symmetry_equiv_pos_as_xyz
  1  'x, y, z'
loop_
 _atom_site_type_symbol
 _atom_site_label
 _atom_site_symmetry_multiplicity
 _atom_site_fract_x
 _atom_site_fract_y
 _atom_site_fract_z
 _atom_site_occupancy
  Hf  Hf0  1  0.750000  0.468368  0.611494  1
  Hf  Hf1  1  0.250000  0.531632  0.388506  1
  Hf  Hf2  1  0.750000  0.968368  0.388506  1
  Hf  Hf3  1  0.250000  0.031632  0.611494  1
  Hf  Hf4  1  0.750000  0.374499  0.195858  1
  Hf  Hf5  1  0.250000  0.625501  0.804142  1
  Hf  Hf6  1  0.750000  0.874499  0.804142  1
  Hf  Hf7  1  0.250000  0.125501  0.195858  1
  Nb  Nb8  1  0.000000  0.750000  0.119788  1
  Nb  Nb9  1  0.500000  0.250000  0.880212  1
  Nb  Nb10  1  0.000000  0.250000  0.880212  1
  Nb  Nb11  1  0.500000  0.750000  0.119788  1
  Ga  Ga12  1  0.000000  0.750000  0.571453  1
  Ga  Ga13  1  0.500000  0.250000  0.428547  1
  Ga  Ga14  1  0.000000  0.250000  0.428547  1
  Ga  Ga15  1  0.500000  0.750000  0.571453  1
  Ga  Ga16  1  0.750000  0.138737  0.648704  1
  Ga  Ga17  1  0.250000  0.861263  0.351296  1
  Ga  Ga18  1  0.750000  0.638737  0.351296  1
  Ga  Ga19  1  0.250000  0.361263  0.648704  1
  Sn  Sn20  1  0.750000  0.050334  0.082734  1
  Sn  Sn21  1  0.250000  0.949666  0.917266  1
  Sn  Sn22  1  0.750000  0.550334  0.917266  1
  Sn  Sn23  1  0.250000  0.449666  0.082734  1
