# generated using pymatgen
data_Tm7Co5TcSn23
_symmetry_space_group_name_H-M   'P 1'
_cell_length_a   9.68190836
_cell_length_b   9.68190863
_cell_length_c   9.96863613
_cell_angle_alpha   90.04192591
_cell_angle_beta   89.95807393
_cell_angle_gamma   119.84618321
_symmetry_Int_Tables_number   1
_chemical_formula_structural   Tm7Co5TcSn23
_chemical_formula_sum   'Tm7 Co5 Tc1 Sn23'
_cell_volume   810.51157722
_cell_formula_units_Z   1
loop_
 _symmetry_equiv_pos_site_id
 _symmetry_equiv_pos_as_xyz
  1  'x, y, z'
loop_
 _atom_site_type_symbol
 _atom_site_label
 _atom_site_symmetry_multiplicity
 _atom_site_fract_x
 _atom_site_fract_y
 _atom_site_fract_z
 _atom_site_occupancy
  Tm  Tm0  1  0.994634  0.005366  0.006853  1
  Tm  Tm1  1  0.480767  0.519233  0.307441  1
  Tm  Tm2  1  0.519867  0.480133  0.693677  1
  Tm  Tm3  1  0.483149  0.961593  0.305624  1
  Tm  Tm4  1  0.518424  0.038905  0.694240  1
  Tm  Tm5  1  0.038407  0.516851  0.305624  1
  Tm  Tm6  1  0.961095  0.481576  0.694240  1
  Co  Co7  1  0.168067  0.831933  0.800640  1
  Co  Co8  1  0.831902  0.661421  0.196581  1
  Co  Co9  1  0.170507  0.338526  0.801265  1
  Co  Co10  1  0.338579  0.168098  0.196581  1
  Co  Co11  1  0.661474  0.829493  0.801265  1
  Tc  Tc12  1  0.833604  0.166396  0.199987  1
  Sn  Sn13  1  0.343387  0.998999  0.999149  1
  Sn  Sn14  1  0.648906  0.996468  0.995021  1
  Sn  Sn15  1  0.003532  0.351094  0.995021  1
  Sn  Sn16  1  0.001001  0.656613  0.999149  1
  Sn  Sn17  1  0.653529  0.652961  0.999633  1
  Sn  Sn18  1  0.347039  0.346471  0.999633  1
  Sn  Sn19  1  0.333236  0.666764  0.816575  1
  Sn  Sn20  1  0.665328  0.334672  0.183250  1
  Sn  Sn21  1  0.999440  0.000560  0.500538  1
  Sn  Sn22  1  0.779105  0.220895  0.459869  1
  Sn  Sn23  1  0.217790  0.782210  0.546529  1
  Sn  Sn24  1  0.781584  0.562987  0.452249  1
  Sn  Sn25  1  0.219093  0.437555  0.547608  1
  Sn  Sn26  1  0.437013  0.218416  0.452249  1
  Sn  Sn27  1  0.562445  0.780907  0.547608  1
  Sn  Sn28  1  0.333115  0.666885  0.121751  1
  Sn  Sn29  1  0.666796  0.333204  0.876691  1
  Sn  Sn30  1  0.118669  0.881331  0.271962  1
  Sn  Sn31  1  0.882502  0.117498  0.727091  1
  Sn  Sn32  1  0.128289  0.240131  0.274050  1
  Sn  Sn33  1  0.880571  0.762714  0.728153  1
  Sn  Sn34  1  0.759869  0.871711  0.274050  1
  Sn  Sn35  1  0.237286  0.119429  0.728153  1
