# generated using pymatgen
data_Hf4Zr6Ge6S
_symmetry_space_group_name_H-M   'P 1'
_cell_length_a   5.56174200
_cell_length_b   8.16463957
_cell_length_c   8.16444700
_cell_angle_alpha   119.98800166
_cell_angle_beta   89.99889771
_cell_angle_gamma   89.99810884
_symmetry_Int_Tables_number   1
_chemical_formula_structural   Hf4Zr6Ge6S
_chemical_formula_sum   'Hf4 Zr6 Ge6 S1'
_cell_volume   321.11290287
_cell_formula_units_Z   1
loop_
 _symmetry_equiv_pos_site_id
 _symmetry_equiv_pos_as_xyz
  1  'x, y, z'
loop_
 _atom_site_type_symbol
 _atom_site_label
 _atom_site_symmetry_multiplicity
 _atom_site_fract_x
 _atom_site_fract_y
 _atom_site_fract_z
 _atom_site_occupancy
  Hf  Hf0  1  0.500019  0.333311  0.666670  1
  Hf  Hf1  1  0.499982  0.666682  0.333333  1
  Hf  Hf2  1  0.000004  0.666658  0.333323  1
  Hf  Hf3  1  0.000000  0.333344  0.666677  1
  Zr  Zr4  1  0.760202  0.257301  0.999974  1
  Zr  Zr5  1  0.760170  0.742645  0.742664  1
  Zr  Zr6  1  0.760207  0.000013  0.257321  1
  Zr  Zr7  1  0.239795  0.742681  0.999990  1
  Zr  Zr8  1  0.239826  0.257338  0.257354  1
  Zr  Zr9  1  0.239797  0.000025  0.742696  1
  Ge  Ge10  1  0.749150  0.607134  0.999940  1
  Ge  Ge11  1  0.749153  0.392799  0.392860  1
  Ge  Ge12  1  0.749162  0.000058  0.607186  1
  Ge  Ge13  1  0.250845  0.392807  0.999940  1
  Ge  Ge14  1  0.250839  0.607147  0.607203  1
  Ge  Ge15  1  0.250845  0.000061  0.392871  1
  S  S16  1  0.500000  0.000000  0.000000  1
