# generated using pymatgen
data_Li2Zn4B6Rh11
_symmetry_space_group_name_H-M   'P 1'
_cell_length_a   2.87367400
_cell_length_b   8.50344800
_cell_length_c   11.40227700
_cell_angle_alpha   90.00000000
_cell_angle_beta   90.00000000
_cell_angle_gamma   90.00000000
_symmetry_Int_Tables_number   1
_chemical_formula_structural   Li2Zn4B6Rh11
_chemical_formula_sum   'Li2 Zn4 B6 Rh11'
_cell_volume   278.62760776
_cell_formula_units_Z   1
loop_
 _symmetry_equiv_pos_site_id
 _symmetry_equiv_pos_as_xyz
  1  'x, y, z'
loop_
 _atom_site_type_symbol
 _atom_site_label
 _atom_site_symmetry_multiplicity
 _atom_site_fract_x
 _atom_site_fract_y
 _atom_site_fract_z
 _atom_site_occupancy
  Li  Li0  1  0.500000  0.000000  0.196998  1
  Li  Li1  1  0.500000  0.000000  0.803002  1
  Zn  Zn2  1  0.500000  0.000000  0.500000  1
  Zn  Zn3  1  0.500000  0.500000  0.000000  1
  Zn  Zn4  1  0.500000  0.647921  0.500000  1
  Zn  Zn5  1  0.500000  0.352079  0.500000  1
  B  B6  1  0.500000  0.810141  0.000000  1
  B  B7  1  0.500000  0.189859  0.000000  1
  B  B8  1  0.500000  0.689572  0.270074  1
  B  B9  1  0.500000  0.310428  0.270074  1
  B  B10  1  0.500000  0.310428  0.729926  1
  B  B11  1  0.500000  0.689572  0.729926  1
  Rh  Rh12  1  0.000000  0.000000  0.000000  1
  Rh  Rh13  1  0.000000  0.500000  0.319051  1
  Rh  Rh14  1  0.000000  0.500000  0.680949  1
  Rh  Rh15  1  0.000000  0.709887  0.123749  1
  Rh  Rh16  1  0.000000  0.290113  0.123749  1
  Rh  Rh17  1  0.000000  0.290113  0.876251  1
  Rh  Rh18  1  0.000000  0.709887  0.876251  1
  Rh  Rh19  1  0.000000  0.826167  0.358506  1
  Rh  Rh20  1  0.000000  0.173833  0.358506  1
  Rh  Rh21  1  0.000000  0.173833  0.641494  1
  Rh  Rh22  1  0.000000  0.826167  0.641494  1
