# generated using pymatgen
data_Dy14Ho5InIr12
_symmetry_space_group_name_H-M   'P 1'
_cell_length_a   10.87014103
_cell_length_b   10.87035601
_cell_length_c   6.31456101
_cell_angle_alpha   90.00282793
_cell_angle_beta   89.99293510
_cell_angle_gamma   89.99582555
_symmetry_Int_Tables_number   1
_chemical_formula_structural   Dy14Ho5InIr12
_chemical_formula_sum   'Dy14 Ho5 In1 Ir12'
_cell_volume   746.14306238
_cell_formula_units_Z   1
loop_
 _symmetry_equiv_pos_site_id
 _symmetry_equiv_pos_as_xyz
  1  'x, y, z'
loop_
 _atom_site_type_symbol
 _atom_site_label
 _atom_site_symmetry_multiplicity
 _atom_site_fract_x
 _atom_site_fract_y
 _atom_site_fract_z
 _atom_site_occupancy
  Dy  Dy0  1  0.284078  0.085109  0.379402  1
  Dy  Dy1  1  0.290584  0.911481  0.879644  1
  Dy  Dy2  1  0.709358  0.088438  0.879784  1
  Dy  Dy3  1  0.715844  0.914985  0.379554  1
  Dy  Dy4  1  0.588271  0.791456  0.880828  1
  Dy  Dy5  1  0.588013  0.208433  0.377413  1
  Dy  Dy6  1  0.411913  0.791559  0.377438  1
  Dy  Dy7  1  0.411672  0.208528  0.880857  1
  Dy  Dy8  1  0.208325  0.412017  0.622575  1
  Dy  Dy9  1  0.208440  0.588204  0.119123  1
  Dy  Dy10  1  0.791610  0.411697  0.119171  1
  Dy  Dy11  1  0.791715  0.588063  0.622595  1
  Dy  Dy12  1  0.911683  0.709322  0.120281  1
  Dy  Dy13  1  0.915080  0.284160  0.620485  1
  Ho  Ho14  1  0.084893  0.715577  0.620242  1
  Ho  Ho15  1  0.088378  0.291021  0.119911  1
  Ho  Ho16  1  0.000099  0.000097  0.000083  1
  Ho  Ho17  1  0.499977  0.499979  0.000022  1
  Ho  Ho18  1  0.499982  0.500018  0.500034  1
  In  In19  1  0.000068  0.999842  0.500087  1
  Ir  Ir20  1  0.846157  0.155715  0.245428  1
  Ir  Ir21  1  0.844583  0.845808  0.754308  1
  Ir  Ir22  1  0.155507  0.154234  0.754981  1
  Ir  Ir23  1  0.153992  0.844254  0.246054  1
  Ir  Ir24  1  0.654270  0.346829  0.747361  1
  Ir  Ir25  1  0.653166  0.654282  0.252624  1
  Ir  Ir26  1  0.346569  0.345666  0.252534  1
  Ir  Ir27  1  0.345466  0.653241  0.747210  1
  Ir  Ir28  1  0.499988  0.999996  0.124791  1
  Ir  Ir29  1  0.499984  0.000004  0.620570  1
  Ir  Ir30  1  0.000169  0.499969  0.875185  1
  Ir  Ir31  1  0.000165  0.500015  0.379425  1
