# generated using pymatgen
data_Tb6Dy10Cd4CoNi3
_symmetry_space_group_name_H-M   'P 1'
_cell_length_a   9.53908977
_cell_length_b   9.53908901
_cell_length_c   9.53908892
_cell_angle_alpha   60.05937222
_cell_angle_beta   60.05937615
_cell_angle_gamma   60.05937184
_symmetry_Int_Tables_number   1
_chemical_formula_structural   Tb6Dy10Cd4CoNi3
_chemical_formula_sum   'Tb6 Dy10 Cd4 Co1 Ni3'
_cell_volume   614.59602506
_cell_formula_units_Z   1
loop_
 _symmetry_equiv_pos_site_id
 _symmetry_equiv_pos_as_xyz
  1  'x, y, z'
loop_
 _atom_site_type_symbol
 _atom_site_label
 _atom_site_symmetry_multiplicity
 _atom_site_fract_x
 _atom_site_fract_y
 _atom_site_fract_z
 _atom_site_occupancy
  Tb  Tb0  1  0.936944  0.563759  0.563759  1
  Tb  Tb1  1  0.560917  0.937410  0.937410  1
  Tb  Tb2  1  0.563759  0.936944  0.563759  1
  Tb  Tb3  1  0.937410  0.560917  0.937410  1
  Tb  Tb4  1  0.563759  0.563759  0.936944  1
  Tb  Tb5  1  0.937410  0.937410  0.560917  1
  Dy  Dy6  1  0.347396  0.347396  0.347396  1
  Dy  Dy7  1  0.347359  0.347359  0.956110  1
  Dy  Dy8  1  0.347359  0.956110  0.347359  1
  Dy  Dy9  1  0.956110  0.347359  0.347359  1
  Dy  Dy10  1  0.814821  0.188603  0.188603  1
  Dy  Dy11  1  0.187184  0.811665  0.811665  1
  Dy  Dy12  1  0.188603  0.814821  0.188603  1
  Dy  Dy13  1  0.811665  0.187184  0.811665  1
  Dy  Dy14  1  0.188603  0.188603  0.814821  1
  Dy  Dy15  1  0.811665  0.811665  0.187184  1
  Cd  Cd16  1  0.579965  0.579965  0.579965  1
  Cd  Cd17  1  0.580673  0.580673  0.256893  1
  Cd  Cd18  1  0.580673  0.256893  0.580673  1
  Cd  Cd19  1  0.256893  0.580673  0.580673  1
  Co  Co20  1  0.142641  0.142641  0.142641  1
  Ni  Ni21  1  0.141977  0.141977  0.574235  1
  Ni  Ni22  1  0.141977  0.574235  0.141977  1
  Ni  Ni23  1  0.574235  0.141977  0.141977  1
