# generated using pymatgen
data_ErTh3(SiPd14)2
_symmetry_space_group_name_H-M   'P 1'
_cell_length_a   9.01498800
_cell_length_b   9.01498800
_cell_length_c   7.07034000
_cell_angle_alpha   90.00000000
_cell_angle_beta   90.00000000
_cell_angle_gamma   90.00000000
_symmetry_Int_Tables_number   1
_chemical_formula_structural   ErTh3(SiPd14)2
_chemical_formula_sum   'Er1 Th3 Si2 Pd28'
_cell_volume   574.60659289
_cell_formula_units_Z   1
loop_
 _symmetry_equiv_pos_site_id
 _symmetry_equiv_pos_as_xyz
  1  'x, y, z'
loop_
 _atom_site_type_symbol
 _atom_site_label
 _atom_site_symmetry_multiplicity
 _atom_site_fract_x
 _atom_site_fract_y
 _atom_site_fract_z
 _atom_site_occupancy
  Er  Er0  1  0.500000  0.500000  0.500000  1
  Th  Th1  1  0.500000  0.000000  0.932703  1
  Th  Th2  1  0.000000  0.500000  0.067297  1
  Th  Th3  1  0.000000  0.000000  0.500000  1
  Si  Si4  1  0.500000  0.000000  0.445851  1
  Si  Si5  1  0.000000  0.500000  0.554149  1
  Pd  Pd6  1  0.336225  0.834304  0.615304  1
  Pd  Pd7  1  0.336225  0.165696  0.615304  1
  Pd  Pd8  1  0.663775  0.834304  0.615304  1
  Pd  Pd9  1  0.663775  0.165696  0.615304  1
  Pd  Pd10  1  0.165696  0.663775  0.384696  1
  Pd  Pd11  1  0.165696  0.336225  0.384696  1
  Pd  Pd12  1  0.834304  0.663775  0.384696  1
  Pd  Pd13  1  0.834304  0.336225  0.384696  1
  Pd  Pd14  1  0.500000  0.769317  0.257283  1
  Pd  Pd15  1  0.500000  0.230683  0.257283  1
  Pd  Pd16  1  0.270516  0.000000  0.256443  1
  Pd  Pd17  1  0.729484  0.000000  0.256443  1
  Pd  Pd18  1  0.000000  0.729484  0.743557  1
  Pd  Pd19  1  0.000000  0.270516  0.743557  1
  Pd  Pd20  1  0.230683  0.500000  0.742717  1
  Pd  Pd21  1  0.769317  0.500000  0.742717  1
  Pd  Pd22  1  0.500000  0.349781  0.852682  1
  Pd  Pd23  1  0.500000  0.650219  0.852682  1
  Pd  Pd24  1  0.848712  0.000000  0.851986  1
  Pd  Pd25  1  0.151288  0.000000  0.851986  1
  Pd  Pd26  1  0.000000  0.151288  0.148014  1
  Pd  Pd27  1  0.000000  0.848712  0.148014  1
  Pd  Pd28  1  0.650219  0.500000  0.147318  1
  Pd  Pd29  1  0.349781  0.500000  0.147318  1
  Pd  Pd30  1  0.250391  0.749609  0.000000  1
  Pd  Pd31  1  0.250391  0.250391  0.000000  1
  Pd  Pd32  1  0.749609  0.749609  0.000000  1
  Pd  Pd33  1  0.749609  0.250391  0.000000  1
