# generated using pymatgen
data_SmDyRh2O7
_symmetry_space_group_name_H-M   'P 1'
_cell_length_a   7.27995862
_cell_length_b   7.27995820
_cell_length_c   7.29525500
_cell_angle_alpha   59.93047235
_cell_angle_beta   59.93047426
_cell_angle_gamma   59.84596968
_symmetry_Int_Tables_number   1
_chemical_formula_structural   SmDyRh2O7
_chemical_formula_sum   'Sm2 Dy2 Rh4 O14'
_cell_volume   272.78408762
_cell_formula_units_Z   2
loop_
 _symmetry_equiv_pos_site_id
 _symmetry_equiv_pos_as_xyz
  1  'x, y, z'
loop_
 _atom_site_type_symbol
 _atom_site_label
 _atom_site_symmetry_multiplicity
 _atom_site_fract_x
 _atom_site_fract_y
 _atom_site_fract_z
 _atom_site_occupancy
  Sm  Sm0  1  0.125000  0.125000  0.625000  1
  Sm  Sm1  1  0.125000  0.125000  0.125000  1
  Dy  Dy2  1  0.625000  0.125000  0.125000  1
  Dy  Dy3  1  0.125000  0.625000  0.125000  1
  Rh  Rh4  1  0.125000  0.625000  0.625000  1
  Rh  Rh5  1  0.625000  0.125000  0.625000  1
  Rh  Rh6  1  0.625000  0.625000  0.125000  1
  Rh  Rh7  1  0.625000  0.625000  0.625000  1
  O  O8  1  0.709642  0.709642  0.290358  1
  O  O9  1  0.289347  0.289347  0.710653  1
  O  O10  1  0.706538  0.289641  0.714517  1
  O  O11  1  0.289641  0.706538  0.289304  1
  O  O12  1  0.289641  0.706538  0.714517  1
  O  O13  1  0.706538  0.289641  0.289304  1
  O  O14  1  0.540358  0.540358  0.959642  1
  O  O15  1  0.960653  0.960653  0.539347  1
  O  O16  1  0.543462  0.960359  0.535483  1
  O  O17  1  0.960359  0.543462  0.960696  1
  O  O18  1  0.960359  0.543462  0.535483  1
  O  O19  1  0.543462  0.960359  0.960696  1
  O  O20  1  0.254651  0.254651  0.245349  1
  O  O21  1  0.995349  0.995349  0.004651  1
