# generated using pymatgen
data_Ho4GeB4Ir9
_symmetry_space_group_name_H-M   'P 1'
_cell_length_a   10.76452296
_cell_length_b   10.76452336
_cell_length_c   10.76452431
_cell_angle_alpha   29.69292540
_cell_angle_beta   29.69292153
_cell_angle_gamma   29.69292646
_symmetry_Int_Tables_number   1
_chemical_formula_structural   Ho4GeB4Ir9
_chemical_formula_sum   'Ho4 Ge1 B4 Ir9'
_cell_volume   270.98253643
_cell_formula_units_Z   1
loop_
 _symmetry_equiv_pos_site_id
 _symmetry_equiv_pos_as_xyz
  1  'x, y, z'
loop_
 _atom_site_type_symbol
 _atom_site_label
 _atom_site_symmetry_multiplicity
 _atom_site_fract_x
 _atom_site_fract_y
 _atom_site_fract_z
 _atom_site_occupancy
  Ho  Ho0  1  0.149788  0.149788  0.149788  1
  Ho  Ho1  1  0.950293  0.950293  0.950293  1
  Ho  Ho2  1  0.850212  0.850212  0.850212  1
  Ho  Ho3  1  0.049707  0.049707  0.049707  1
  Ge  Ge4  1  0.500000  0.500000  0.500000  1
  B  B5  1  0.615971  0.615971  0.615971  1
  B  B6  1  0.717922  0.717922  0.717922  1
  B  B7  1  0.384029  0.384029  0.384029  1
  B  B8  1  0.282078  0.282078  0.282078  1
  Ir  Ir9  1  0.402014  0.901828  0.402014  1
  Ir  Ir10  1  0.901828  0.402014  0.402014  1
  Ir  Ir11  1  0.500000  0.500000  0.000000  1
  Ir  Ir12  1  0.500000  0.000000  0.500000  1
  Ir  Ir13  1  0.000000  0.500000  0.500000  1
  Ir  Ir14  1  0.597986  0.098172  0.597986  1
  Ir  Ir15  1  0.597986  0.597986  0.098172  1
  Ir  Ir16  1  0.098172  0.597986  0.597986  1
  Ir  Ir17  1  0.402014  0.402014  0.901828  1
