# generated using pymatgen
data_Ta6Mn2FeOs3C2
_symmetry_space_group_name_H-M   'P 1'
_cell_length_a   8.22650098
_cell_length_b   8.22294216
_cell_length_c   8.22746415
_cell_angle_alpha   119.82511450
_cell_angle_beta   120.13850483
_cell_angle_gamma   90.05014822
_symmetry_Int_Tables_number   1
_chemical_formula_structural   Ta6Mn2FeOs3C2
_chemical_formula_sum   'Ta12 Mn4 Fe2 Os6 C4'
_cell_volume   393.58517248
_cell_formula_units_Z   2
loop_
 _symmetry_equiv_pos_site_id
 _symmetry_equiv_pos_as_xyz
  1  'x, y, z'
loop_
 _atom_site_type_symbol
 _atom_site_label
 _atom_site_symmetry_multiplicity
 _atom_site_fract_x
 _atom_site_fract_y
 _atom_site_fract_z
 _atom_site_occupancy
  Ta  Ta0  1  0.178783  0.178774  0.999971  1
  Ta  Ta1  1  0.567498  0.567458  0.999970  1
  Ta  Ta2  1  0.180920  0.568221  0.001049  1
  Ta  Ta3  1  0.567110  0.179872  0.998867  1
  Ta  Ta4  1  0.180986  0.179862  0.612752  1
  Ta  Ta5  1  0.567169  0.568226  0.387287  1
  Ta  Ta6  1  0.317796  0.817837  0.500054  1
  Ta  Ta7  1  0.933783  0.433864  0.500045  1
  Ta  Ta8  1  0.315168  0.429442  0.498559  1
  Ta  Ta9  1  0.930909  0.816640  0.501537  1
  Ta  Ta10  1  0.315106  0.816653  0.885731  1
  Ta  Ta11  1  0.930869  0.429439  0.114272  1
  Mn  Mn12  1  0.756916  0.007507  0.250593  1
  Mn  Mn13  1  0.757017  0.506441  0.749430  1
  Mn  Mn14  1  0.761307  0.999630  0.761526  1
  Mn  Mn15  1  0.238103  0.999644  0.238324  1
  Fe  Fe16  1  0.958343  0.791867  0.833573  1
  Fe  Fe17  1  0.958403  0.124837  0.166465  1
  Os  Os18  1  0.958249  0.794894  0.163296  1
  Os  Os19  1  0.631613  0.794906  0.836645  1
  Os  Os20  1  0.542928  0.206589  0.663669  1
  Os  Os21  1  0.542854  0.879129  0.336283  1
  Os  Os22  1  0.542056  0.206637  0.335508  1
  Os  Os23  1  0.871136  0.206634  0.664590  1
  C  C24  1  0.248624  0.497859  0.249230  1
  C  C25  1  0.248609  0.999378  0.750762  1
  C  C26  1  0.249137  0.498880  0.750273  1
  C  C27  1  0.748607  0.498881  0.249737  1
