# generated using pymatgen
data_Nb3SnPtC
_symmetry_space_group_name_H-M   'P 1'
_cell_length_a   7.20816300
_cell_length_b   7.20816300
_cell_length_c   7.20816300
_cell_angle_alpha   90.00000000
_cell_angle_beta   90.00000000
_cell_angle_gamma   90.00000000
_symmetry_Int_Tables_number   1
_chemical_formula_structural   Nb3SnPtC
_chemical_formula_sum   'Nb12 Sn4 Pt4 C4'
_cell_volume   374.51894961
_cell_formula_units_Z   4
loop_
 _symmetry_equiv_pos_site_id
 _symmetry_equiv_pos_as_xyz
  1  'x, y, z'
loop_
 _atom_site_type_symbol
 _atom_site_label
 _atom_site_symmetry_multiplicity
 _atom_site_fract_x
 _atom_site_fract_y
 _atom_site_fract_z
 _atom_site_occupancy
  Nb  Nb0  1  0.790936  0.958836  0.377126  1
  Nb  Nb1  1  0.709064  0.041164  0.877126  1
  Nb  Nb2  1  0.209064  0.458836  0.122874  1
  Nb  Nb3  1  0.290936  0.541164  0.622874  1
  Nb  Nb4  1  0.958836  0.377126  0.790936  1
  Nb  Nb5  1  0.041164  0.877126  0.709064  1
  Nb  Nb6  1  0.458836  0.122874  0.209064  1
  Nb  Nb7  1  0.541164  0.622874  0.290936  1
  Nb  Nb8  1  0.377126  0.790936  0.958836  1
  Nb  Nb9  1  0.877126  0.709064  0.041164  1
  Nb  Nb10  1  0.122874  0.209064  0.458836  1
  Nb  Nb11  1  0.622874  0.290936  0.541164  1
  Sn  Sn12  1  0.569357  0.430643  0.930643  1
  Sn  Sn13  1  0.430643  0.930643  0.569357  1
  Sn  Sn14  1  0.930643  0.569357  0.430643  1
  Sn  Sn15  1  0.069357  0.069357  0.069357  1
  Pt  Pt16  1  0.181297  0.818703  0.318703  1
  Pt  Pt17  1  0.318703  0.181297  0.818703  1
  Pt  Pt18  1  0.818703  0.318703  0.181297  1
  Pt  Pt19  1  0.681297  0.681297  0.681297  1
  C  C20  1  0.874264  0.125736  0.625736  1
  C  C21  1  0.625736  0.874264  0.125736  1
  C  C22  1  0.125736  0.625736  0.874264  1
  C  C23  1  0.374264  0.374264  0.374264  1
