# generated using pymatgen
data_Sm2Mn(Co3As2)3
_symmetry_space_group_name_H-M   'P 1'
_cell_length_a   3.82968100
_cell_length_b   10.76255300
_cell_length_c   12.30419600
_cell_angle_alpha   90.00000000
_cell_angle_beta   90.00000000
_cell_angle_gamma   90.00000000
_symmetry_Int_Tables_number   1
_chemical_formula_structural   Sm2Mn(Co3As2)3
_chemical_formula_sum   'Sm4 Mn2 Co18 As12'
_cell_volume   507.14382739
_cell_formula_units_Z   2
loop_
 _symmetry_equiv_pos_site_id
 _symmetry_equiv_pos_as_xyz
  1  'x, y, z'
loop_
 _atom_site_type_symbol
 _atom_site_label
 _atom_site_symmetry_multiplicity
 _atom_site_fract_x
 _atom_site_fract_y
 _atom_site_fract_z
 _atom_site_occupancy
  Sm  Sm0  1  0.250000  0.579644  0.701236  1
  Sm  Sm1  1  0.250000  0.920356  0.201236  1
  Sm  Sm2  1  0.750000  0.418973  0.297491  1
  Sm  Sm3  1  0.750000  0.081027  0.797491  1
  Mn  Mn4  1  0.250000  0.701718  0.989941  1
  Mn  Mn5  1  0.250000  0.798282  0.489941  1
  Co  Co6  1  0.750000  0.294449  0.010039  1
  Co  Co7  1  0.750000  0.205551  0.510039  1
  Co  Co8  1  0.250000  0.404418  0.489241  1
  Co  Co9  1  0.250000  0.095582  0.989241  1
  Co  Co10  1  0.750000  0.593409  0.512385  1
  Co  Co11  1  0.750000  0.906591  0.012385  1
  Co  Co12  1  0.250000  0.217506  0.176037  1
  Co  Co13  1  0.250000  0.282494  0.676037  1
  Co  Co14  1  0.750000  0.782036  0.824750  1
  Co  Co15  1  0.750000  0.717964  0.324750  1
  Co  Co16  1  0.250000  0.882948  0.696968  1
  Co  Co17  1  0.250000  0.617052  0.196968  1
  Co  Co18  1  0.750000  0.118490  0.303128  1
  Co  Co19  1  0.750000  0.381510  0.803128  1
  Co  Co20  1  0.250000  0.466612  0.933206  1
  Co  Co21  1  0.250000  0.033388  0.433206  1
  Co  Co22  1  0.750000  0.530974  0.065911  1
  Co  Co23  1  0.750000  0.969026  0.565911  1
  As  As24  1  0.250000  0.417100  0.113779  1
  As  As25  1  0.250000  0.082900  0.613779  1
  As  As26  1  0.750000  0.580524  0.884117  1
  As  As27  1  0.750000  0.919476  0.384117  1
  As  As28  1  0.250000  0.269440  0.868175  1
  As  As29  1  0.250000  0.230560  0.368175  1
  As  As30  1  0.750000  0.729350  0.134486  1
  As  As31  1  0.750000  0.770650  0.634486  1
  As  As32  1  0.250000  0.598459  0.391484  1
  As  As33  1  0.250000  0.901541  0.891484  1
  As  As34  1  0.750000  0.395872  0.607625  1
  As  As35  1  0.750000  0.104128  0.107625  1
