# generated using pymatgen
data_SrDyHo5PtI12
_symmetry_space_group_name_H-M   'P 1'
_cell_length_a   9.79960623
_cell_length_b   9.79738665
_cell_length_c   9.80275430
_cell_angle_alpha   106.44461073
_cell_angle_beta   106.43580388
_cell_angle_gamma   106.43012255
_symmetry_Int_Tables_number   1
_chemical_formula_structural   SrDyHo5PtI12
_chemical_formula_sum   'Sr1 Dy1 Ho5 Pt1 I12'
_cell_volume   795.54748267
_cell_formula_units_Z   1
loop_
 _symmetry_equiv_pos_site_id
 _symmetry_equiv_pos_as_xyz
  1  'x, y, z'
loop_
 _atom_site_type_symbol
 _atom_site_label
 _atom_site_symmetry_multiplicity
 _atom_site_fract_x
 _atom_site_fract_y
 _atom_site_fract_z
 _atom_site_occupancy
  Sr  Sr0  1  0.000009  0.000000  0.000008  1
  Dy  Dy1  1  0.404139  0.476514  0.201620  1
  Ho  Ho2  1  0.202549  0.404493  0.476649  1
  Ho  Ho3  1  0.476557  0.202517  0.404616  1
  Ho  Ho4  1  0.595469  0.523469  0.797401  1
  Ho  Ho5  1  0.797518  0.595511  0.523591  1
  Ho  Ho6  1  0.523534  0.797506  0.595656  1
  Pt  Pt7  1  0.500178  0.500045  0.500520  1
  I  I8  1  0.048063  0.363373  0.127965  1
  I  I9  1  0.127958  0.048415  0.363500  1
  I  I10  1  0.363490  0.127671  0.048372  1
  I  I11  1  0.951607  0.636512  0.872061  1
  I  I12  1  0.872043  0.951587  0.636502  1
  I  I13  1  0.636513  0.872065  0.951611  1
  I  I14  1  0.722334  0.573882  0.176350  1
  I  I15  1  0.176296  0.721907  0.573760  1
  I  I16  1  0.573755  0.176265  0.721906  1
  I  I17  1  0.278004  0.426196  0.823437  1
  I  I18  1  0.823703  0.278095  0.426247  1
  I  I19  1  0.426282  0.823976  0.278226  1
