# generated using pymatgen
data_Pr2Y4TcBi2
_symmetry_space_group_name_H-M   'P 1'
_cell_length_a   8.42202731
_cell_length_b   8.42202696
_cell_length_c   4.35956700
_cell_angle_alpha   90.00000000
_cell_angle_beta   90.00000000
_cell_angle_gamma   119.36992278
_symmetry_Int_Tables_number   1
_chemical_formula_structural   Pr2Y4TcBi2
_chemical_formula_sum   'Pr2 Y4 Tc1 Bi2'
_cell_volume   269.48200071
_cell_formula_units_Z   1
loop_
 _symmetry_equiv_pos_site_id
 _symmetry_equiv_pos_as_xyz
  1  'x, y, z'
loop_
 _atom_site_type_symbol
 _atom_site_label
 _atom_site_symmetry_multiplicity
 _atom_site_fract_x
 _atom_site_fract_y
 _atom_site_fract_z
 _atom_site_occupancy
  Pr  Pr0  1  0.601113  0.997261  0.000000  1
  Pr  Pr1  1  0.997261  0.601113  0.000000  1
  Y  Y2  1  0.232845  0.999773  0.500000  1
  Y  Y3  1  0.999773  0.232845  0.500000  1
  Y  Y4  1  0.774018  0.774018  0.500000  1
  Y  Y5  1  0.391654  0.391654  0.000000  1
  Tc  Tc6  1  0.009346  0.009346  0.000000  1
  Bi  Bi7  1  0.334838  0.659153  0.500000  1
  Bi  Bi8  1  0.659153  0.334838  0.500000  1
