# generated using pymatgen
data_Ba6PrNd(BO3)6
_symmetry_space_group_name_H-M   'P 1'
_cell_length_a   8.33003064
_cell_length_b   8.33003188
_cell_length_c   8.33003034
_cell_angle_alpha   105.47785259
_cell_angle_beta   105.47786227
_cell_angle_gamma   105.47787300
_symmetry_Int_Tables_number   1
_chemical_formula_structural   Ba6PrNd(BO3)6
_chemical_formula_sum   'Ba6 Pr1 Nd1 B6 O18'
_cell_volume   500.02107494
_cell_formula_units_Z   1
loop_
 _symmetry_equiv_pos_site_id
 _symmetry_equiv_pos_as_xyz
  1  'x, y, z'
loop_
 _atom_site_type_symbol
 _atom_site_label
 _atom_site_symmetry_multiplicity
 _atom_site_fract_x
 _atom_site_fract_y
 _atom_site_fract_z
 _atom_site_occupancy
  Ba  Ba0  1  0.354145  0.732569  0.848596  1
  Ba  Ba1  1  0.848596  0.354145  0.732569  1
  Ba  Ba2  1  0.732569  0.848596  0.354145  1
  Ba  Ba3  1  0.645855  0.267431  0.151404  1
  Ba  Ba4  1  0.151404  0.645855  0.267431  1
  Ba  Ba5  1  0.267431  0.151404  0.645855  1
  Pr  Pr6  1  0.000000  0.000000  0.000000  1
  Nd  Nd7  1  0.500000  0.500000  0.500000  1
  B  B8  1  0.709215  0.615621  0.959301  1
  B  B9  1  0.959301  0.709215  0.615621  1
  B  B10  1  0.615621  0.959301  0.709215  1
  B  B11  1  0.040699  0.290785  0.384379  1
  B  B12  1  0.384379  0.040699  0.290785  1
  B  B13  1  0.290785  0.384379  0.040699  1
  O  O14  1  0.057132  0.810586  0.543496  1
  O  O15  1  0.543496  0.057132  0.810586  1
  O  O16  1  0.428610  0.495000  0.205421  1
  O  O17  1  0.495000  0.205421  0.428610  1
  O  O18  1  0.205421  0.428610  0.495000  1
  O  O19  1  0.794579  0.571390  0.505000  1
  O  O20  1  0.571390  0.505000  0.794579  1
  O  O21  1  0.505000  0.794579  0.571390  1
  O  O22  1  0.260806  0.201277  0.979241  1
  O  O23  1  0.201277  0.979241  0.260806  1
  O  O24  1  0.979241  0.260806  0.201277  1
  O  O25  1  0.739194  0.798723  0.020759  1
  O  O26  1  0.798723  0.020759  0.739194  1
  O  O27  1  0.020759  0.739194  0.798723  1
  O  O28  1  0.189414  0.456504  0.942868  1
  O  O29  1  0.456504  0.942868  0.189414  1
  O  O30  1  0.942868  0.189414  0.456504  1
  O  O31  1  0.810586  0.543496  0.057132  1
