# generated using pymatgen
data_DyTm5(AlAu)6
_symmetry_space_group_name_H-M   'P 1'
_cell_length_a   7.35560351
_cell_length_b   7.35596341
_cell_length_c   7.94556900
_cell_angle_alpha   90.00000000
_cell_angle_beta   90.00000000
_cell_angle_gamma   120.06973009
_symmetry_Int_Tables_number   1
_chemical_formula_structural   DyTm5(AlAu)6
_chemical_formula_sum   'Dy1 Tm5 Al6 Au6'
_cell_volume   372.05566562
_cell_formula_units_Z   1
loop_
 _symmetry_equiv_pos_site_id
 _symmetry_equiv_pos_as_xyz
  1  'x, y, z'
loop_
 _atom_site_type_symbol
 _atom_site_label
 _atom_site_symmetry_multiplicity
 _atom_site_fract_x
 _atom_site_fract_y
 _atom_site_fract_z
 _atom_site_occupancy
  Dy  Dy0  1  0.414216  0.410977  0.250000  1
  Tm  Tm1  1  0.586500  0.996860  0.750000  1
  Tm  Tm2  1  0.002954  0.589527  0.750000  1
  Tm  Tm3  1  0.411037  0.414057  0.750000  1
  Tm  Tm4  1  0.997387  0.586879  0.250000  1
  Tm  Tm5  1  0.589943  0.003477  0.250000  1
  Al  Al6  1  0.751990  0.752193  0.999689  1
  Al  Al7  1  0.247827  0.999498  0.999244  1
  Al  Al8  1  0.999765  0.247935  0.999326  1
  Al  Al9  1  0.751990  0.752193  0.500311  1
  Al  Al10  1  0.247827  0.999498  0.500756  1
  Al  Al11  1  0.999765  0.247935  0.500674  1
  Au  Au12  1  0.999080  0.999085  0.750000  1
  Au  Au13  1  0.998193  0.998120  0.250000  1
  Au  Au14  1  0.668052  0.332697  0.994318  1
  Au  Au15  1  0.668052  0.332697  0.505682  1
  Au  Au16  1  0.332711  0.668185  0.497769  1
  Au  Au17  1  0.332711  0.668185  0.002231  1
