# generated using pymatgen
data_Mn2Co2AgO8
_symmetry_space_group_name_H-M   'P 1'
_cell_length_a   2.91739017
_cell_length_b   6.93407043
_cell_length_c   7.00379613
_cell_angle_alpha   91.79051913
_cell_angle_beta   77.97630134
_cell_angle_gamma   102.14416873
_symmetry_Int_Tables_number   1
_chemical_formula_structural   Mn2Co2AgO8
_chemical_formula_sum   'Mn2 Co2 Ag1 O8'
_cell_volume   135.46139084
_cell_formula_units_Z   1
loop_
 _symmetry_equiv_pos_site_id
 _symmetry_equiv_pos_as_xyz
  1  'x, y, z'
loop_
 _atom_site_type_symbol
 _atom_site_label
 _atom_site_symmetry_multiplicity
 _atom_site_fract_x
 _atom_site_fract_y
 _atom_site_fract_z
 _atom_site_occupancy
  Mn  Mn0  1  0.654007  0.820634  0.512565  1
  Mn  Mn1  1  0.827683  0.476538  0.821243  1
  Co  Co2  1  0.164767  0.513739  0.184294  1
  Co  Co3  1  0.356745  0.190636  0.477129  1
  Ag  Ag4  1  0.994330  0.990897  0.001875  1
  O  O5  1  0.798810  0.645289  0.047811  1
  O  O6  1  0.542226  0.382517  0.298129  1
  O  O7  1  0.853878  0.056007  0.348230  1
  O  O8  1  0.169847  0.713073  0.373407  1
  O  O9  1  0.834488  0.288194  0.619234  1
  O  O10  1  0.157406  0.958625  0.643713  1
  O  O11  1  0.454779  0.622456  0.712986  1
  O  O12  1  0.191039  0.341395  0.959382  1
