# generated using pymatgen
data_YHo2(CuSi)4
_symmetry_space_group_name_H-M   'P 1'
_cell_length_a   7.84134110
_cell_length_b   7.84134057
_cell_length_c   7.84134143
_cell_angle_alpha   149.39131385
_cell_angle_beta   130.67286128
_cell_angle_gamma   59.17589888
_symmetry_Int_Tables_number   1
_chemical_formula_structural   YHo2(CuSi)4
_chemical_formula_sum   'Y1 Ho2 Cu4 Si4'
_cell_volume   184.71517725
_cell_formula_units_Z   1
loop_
 _symmetry_equiv_pos_site_id
 _symmetry_equiv_pos_as_xyz
  1  'x, y, z'
loop_
 _atom_site_type_symbol
 _atom_site_label
 _atom_site_symmetry_multiplicity
 _atom_site_fract_x
 _atom_site_fract_y
 _atom_site_fract_z
 _atom_site_occupancy
  Y  Y0  1  0.500000  0.500000  0.000000  1
  Ho  Ho1  1  0.870707  0.370707  0.500000  1
  Ho  Ho2  1  0.129293  0.629293  0.500000  1
  Cu  Cu3  1  0.522074  0.831163  0.690911  1
  Cu  Cu4  1  0.859748  0.168837  0.690911  1
  Cu  Cu5  1  0.140252  0.831163  0.309089  1
  Cu  Cu6  1  0.477926  0.168837  0.309089  1
  Si  Si7  1  0.815839  0.000000  0.815839  1
  Si  Si8  1  0.184161  0.000000  0.184161  1
  Si  Si9  1  0.283756  0.283756  0.000000  1
  Si  Si10  1  0.716244  0.716244  0.000000  1
