# generated using pymatgen
data_Cs8HoLu3Cl20
_symmetry_space_group_name_H-M   'P 1'
_cell_length_a   7.48620500
_cell_length_b   9.71957247
_cell_length_c   15.37274700
_cell_angle_alpha   90.01773771
_cell_angle_beta   90.00000000
_cell_angle_gamma   90.00000000
_symmetry_Int_Tables_number   1
_chemical_formula_structural   Cs8HoLu3Cl20
_chemical_formula_sum   'Cs8 Ho1 Lu3 Cl20'
_cell_volume   1118.56270887
_cell_formula_units_Z   1
loop_
 _symmetry_equiv_pos_site_id
 _symmetry_equiv_pos_as_xyz
  1  'x, y, z'
loop_
 _atom_site_type_symbol
 _atom_site_label
 _atom_site_symmetry_multiplicity
 _atom_site_fract_x
 _atom_site_fract_y
 _atom_site_fract_z
 _atom_site_occupancy
  Cs  Cs0  1  0.250000  0.664608  0.916768  1
  Cs  Cs1  1  0.750000  0.335376  0.083313  1
  Cs  Cs2  1  0.750000  0.835525  0.416588  1
  Cs  Cs3  1  0.250000  0.164604  0.583356  1
  Cs  Cs4  1  0.250000  0.974880  0.211121  1
  Cs  Cs5  1  0.750000  0.025253  0.788829  1
  Cs  Cs6  1  0.750000  0.525081  0.711314  1
  Cs  Cs7  1  0.250000  0.474753  0.288675  1
  Ho  Ho8  1  0.250000  0.675921  0.564211  1
  Lu  Lu9  1  0.750000  0.323432  0.435501  1
  Lu  Lu10  1  0.750000  0.823968  0.064316  1
  Lu  Lu11  1  0.250000  0.176033  0.935698  1
  Cl  Cl12  1  0.250000  0.519926  0.700943  1
  Cl  Cl13  1  0.750000  0.477940  0.300714  1
  Cl  Cl14  1  0.750000  0.977969  0.199282  1
  Cl  Cl15  1  0.250000  0.022036  0.800736  1
  Cl  Cl16  1  0.503209  0.831658  0.617746  1
  Cl  Cl17  1  0.499866  0.170332  0.382935  1
  Cl  Cl18  1  0.500034  0.670470  0.117030  1
  Cl  Cl19  1  0.000134  0.170332  0.382935  1
  Cl  Cl20  1  0.500007  0.329478  0.883004  1
  Cl  Cl21  1  0.996791  0.831658  0.617746  1
  Cl  Cl22  1  0.999993  0.329478  0.883004  1
  Cl  Cl23  1  0.999966  0.670470  0.117030  1
  Cl  Cl24  1  0.250000  0.786261  0.406724  1
  Cl  Cl25  1  0.750000  0.214969  0.591325  1
  Cl  Cl26  1  0.750000  0.714949  0.908669  1
  Cl  Cl27  1  0.250000  0.285059  0.091330  1
  Cl  Cl28  1  0.998116  0.498800  0.499571  1
  Cl  Cl29  1  0.000008  0.999989  0.000006  1
  Cl  Cl30  1  0.501884  0.498800  0.499571  1
  Cl  Cl31  1  0.499992  0.999989  0.000006  1
