# generated using pymatgen
data_Sm3YAs3S
_symmetry_space_group_name_H-M   'P 1'
_cell_length_a   7.16463090
_cell_length_b   7.16463000
_cell_length_c   7.18156969
_cell_angle_alpha   80.37419317
_cell_angle_beta   80.37419653
_cell_angle_gamma   33.76012081
_symmetry_Int_Tables_number   1
_chemical_formula_structural   Sm3YAs3S
_chemical_formula_sum   'Sm3 Y1 As3 S1'
_cell_volume   201.70974336
_cell_formula_units_Z   1
loop_
 _symmetry_equiv_pos_site_id
 _symmetry_equiv_pos_as_xyz
  1  'x, y, z'
loop_
 _atom_site_type_symbol
 _atom_site_label
 _atom_site_symmetry_multiplicity
 _atom_site_fract_x
 _atom_site_fract_y
 _atom_site_fract_z
 _atom_site_occupancy
  Sm  Sm0  1  0.248884  0.248884  0.249754  1
  Sm  Sm1  1  0.499829  0.499829  0.500890  1
  Sm  Sm2  1  0.750872  0.750872  0.749437  1
  Y  Y3  1  0.000447  0.000447  0.999912  1
  As  As4  1  0.622001  0.622001  0.120472  1
  As  As5  1  0.875502  0.875502  0.370707  1
  As  As6  1  0.125067  0.125067  0.630615  1
  S  S7  1  0.377398  0.377398  0.878213  1
