# generated using pymatgen
data_Dy2Er2Tm(ReO6)2
_symmetry_space_group_name_H-M   'P 1'
_cell_length_a   6.80351686
_cell_length_b   6.80351800
_cell_length_c   7.49795800
_cell_angle_alpha   73.88232655
_cell_angle_beta   73.88233154
_cell_angle_gamma   49.15479800
_symmetry_Int_Tables_number   1
_chemical_formula_structural   Dy2Er2Tm(ReO6)2
_chemical_formula_sum   'Dy2 Er2 Tm1 Re2 O12'
_cell_volume   250.01469663
_cell_formula_units_Z   1
loop_
 _symmetry_equiv_pos_site_id
 _symmetry_equiv_pos_as_xyz
  1  'x, y, z'
loop_
 _atom_site_type_symbol
 _atom_site_label
 _atom_site_symmetry_multiplicity
 _atom_site_fract_x
 _atom_site_fract_y
 _atom_site_fract_z
 _atom_site_occupancy
  Dy  Dy0  1  0.696825  0.696825  0.641529  1
  Dy  Dy1  1  0.303175  0.303175  0.358471  1
  Er  Er2  1  0.685523  0.685523  0.175702  1
  Er  Er3  1  0.314477  0.314477  0.824298  1
  Tm  Tm4  1  0.000000  0.000000  0.500000  1
  Re  Re5  1  0.785830  0.214170  0.000000  1
  Re  Re6  1  0.214170  0.785830  0.000000  1
  O  O7  1  0.000572  0.000572  0.208459  1
  O  O8  1  0.999428  0.999428  0.791541  1
  O  O9  1  0.581502  0.086354  0.084115  1
  O  O10  1  0.418498  0.913646  0.915885  1
  O  O11  1  0.913646  0.418498  0.915885  1
  O  O12  1  0.086354  0.581502  0.084115  1
  O  O13  1  0.499687  0.499687  0.178073  1
  O  O14  1  0.500313  0.500313  0.821927  1
  O  O15  1  0.403890  0.901039  0.425253  1
  O  O16  1  0.596110  0.098961  0.574747  1
  O  O17  1  0.098961  0.596110  0.574747  1
  O  O18  1  0.901039  0.403890  0.425253  1
