# generated using pymatgen
data_Ba3Na2Sr(AlAs3)2
_symmetry_space_group_name_H-M   'P 1'
_cell_length_a   8.57718838
_cell_length_b   8.57718795
_cell_length_c   12.31818780
_cell_angle_alpha   76.05286261
_cell_angle_beta   76.05286692
_cell_angle_gamma   67.96067007
_symmetry_Int_Tables_number   1
_chemical_formula_structural   Ba3Na2Sr(AlAs3)2
_chemical_formula_sum   'Ba6 Na4 Sr2 Al4 As12'
_cell_volume   803.73835252
_cell_formula_units_Z   2
loop_
 _symmetry_equiv_pos_site_id
 _symmetry_equiv_pos_as_xyz
  1  'x, y, z'
loop_
 _atom_site_type_symbol
 _atom_site_label
 _atom_site_symmetry_multiplicity
 _atom_site_fract_x
 _atom_site_fract_y
 _atom_site_fract_z
 _atom_site_occupancy
  Ba  Ba0  1  0.741628  0.193612  0.688482  1
  Ba  Ba1  1  0.258372  0.806388  0.311518  1
  Ba  Ba2  1  0.193612  0.741628  0.688482  1
  Ba  Ba3  1  0.500000  0.000000  0.500000  1
  Ba  Ba4  1  0.806388  0.258372  0.311518  1
  Ba  Ba5  1  0.000000  0.500000  0.500000  1
  Na  Na6  1  0.296463  0.703537  0.000000  1
  Na  Na7  1  0.357590  0.357590  0.223221  1
  Na  Na8  1  0.642410  0.642410  0.776779  1
  Na  Na9  1  0.703537  0.296463  0.000000  1
  Sr  Sr10  1  0.000000  0.500000  0.000000  1
  Sr  Sr11  1  0.500000  0.000000  0.000000  1
  Al  Al12  1  0.699858  0.699858  0.257360  1
  Al  Al13  1  0.090416  0.090416  0.885697  1
  Al  Al14  1  0.909584  0.909584  0.114303  1
  Al  Al15  1  0.300142  0.300142  0.742640  1
  As  As16  1  0.020720  0.611279  0.221896  1
  As  As17  1  0.592987  0.592987  0.127146  1
  As  As18  1  0.979280  0.388721  0.778104  1
  As  As19  1  0.090480  0.090480  0.487513  1
  As  As20  1  0.591443  0.591443  0.481644  1
  As  As21  1  0.909720  0.909720  0.908642  1
  As  As22  1  0.090280  0.090280  0.091358  1
  As  As23  1  0.407013  0.407013  0.872854  1
  As  As24  1  0.611279  0.020720  0.221896  1
  As  As25  1  0.909520  0.909520  0.512487  1
  As  As26  1  0.388721  0.979280  0.778104  1
  As  As27  1  0.408557  0.408557  0.518356  1
