# generated using pymatgen
data_Zr2SiPRh2
_symmetry_space_group_name_H-M   'P 1'
_cell_length_a   3.86977400
_cell_length_b   6.57404800
_cell_length_c   7.49899600
_cell_angle_alpha   90.00000000
_cell_angle_beta   90.00000000
_cell_angle_gamma   90.00000000
_symmetry_Int_Tables_number   1
_chemical_formula_structural   Zr2SiPRh2
_chemical_formula_sum   'Zr4 Si2 P2 Rh4'
_cell_volume   190.77505835
_cell_formula_units_Z   2
loop_
 _symmetry_equiv_pos_site_id
 _symmetry_equiv_pos_as_xyz
  1  'x, y, z'
loop_
 _atom_site_type_symbol
 _atom_site_label
 _atom_site_symmetry_multiplicity
 _atom_site_fract_x
 _atom_site_fract_y
 _atom_site_fract_z
 _atom_site_occupancy
  Zr  Zr0  1  0.250000  0.022127  0.816131  1
  Zr  Zr1  1  0.250000  0.522127  0.683869  1
  Zr  Zr2  1  0.750000  0.973944  0.177047  1
  Zr  Zr3  1  0.750000  0.473944  0.322953  1
  Si  Si4  1  0.250000  0.770092  0.381117  1
  Si  Si5  1  0.250000  0.270092  0.118883  1
  P  P6  1  0.750000  0.232554  0.621128  1
  P  P7  1  0.750000  0.732554  0.878872  1
  Rh  Rh8  1  0.250000  0.147298  0.437839  1
  Rh  Rh9  1  0.250000  0.647298  0.062161  1
  Rh  Rh10  1  0.750000  0.853986  0.562117  1
  Rh  Rh11  1  0.750000  0.353986  0.937883  1
