# generated using pymatgen
data_TbNd2Y(Zn5Sn)2
_symmetry_space_group_name_H-M   'P 1'
_cell_length_a   8.48248600
_cell_length_b   8.48248545
_cell_length_c   9.03141200
_cell_angle_alpha   90.00000000
_cell_angle_beta   90.00000000
_cell_angle_gamma   149.69140479
_symmetry_Int_Tables_number   1
_chemical_formula_structural   TbNd2Y(Zn5Sn)2
_chemical_formula_sum   'Tb1 Nd2 Y1 Zn10 Sn2'
_cell_volume   327.94298972
_cell_formula_units_Z   1
loop_
 _symmetry_equiv_pos_site_id
 _symmetry_equiv_pos_as_xyz
  1  'x, y, z'
loop_
 _atom_site_type_symbol
 _atom_site_label
 _atom_site_symmetry_multiplicity
 _atom_site_fract_x
 _atom_site_fract_y
 _atom_site_fract_z
 _atom_site_occupancy
  Tb  Tb0  1  0.204592  0.795408  0.250000  1
  Nd  Nd1  1  0.999976  0.000024  0.500096  1
  Nd  Nd2  1  0.999976  0.000024  0.999904  1
  Y  Y3  1  0.795705  0.204295  0.750000  1
  Zn  Zn4  1  0.812362  0.187638  0.390497  1
  Zn  Zn5  1  0.187531  0.812469  0.609504  1
  Zn  Zn6  1  0.812362  0.187638  0.109503  1
  Zn  Zn7  1  0.187531  0.812469  0.890496  1
  Zn  Zn8  1  0.657582  0.342418  0.482372  1
  Zn  Zn9  1  0.342472  0.657528  0.517517  1
  Zn  Zn10  1  0.657582  0.342418  0.017628  1
  Zn  Zn11  1  0.342472  0.657528  0.982483  1
  Zn  Zn12  1  0.393609  0.606391  0.250000  1
  Zn  Zn13  1  0.606418  0.393582  0.750000  1
  Sn  Sn14  1  0.555882  0.444118  0.250000  1
  Sn  Sn15  1  0.443949  0.556051  0.750000  1
