# generated using pymatgen
data_Dy3Ho(Si5Os3)2
_symmetry_space_group_name_H-M   'P 1'
_cell_length_a   8.12950249
_cell_length_b   8.13490839
_cell_length_c   5.78920924
_cell_angle_alpha   70.53795963
_cell_angle_beta   70.49628782
_cell_angle_gamma   94.00107849
_symmetry_Int_Tables_number   1
_chemical_formula_structural   Dy3Ho(Si5Os3)2
_chemical_formula_sum   'Dy3 Ho1 Si10 Os6'
_cell_volume   333.13559440
_cell_formula_units_Z   1
loop_
 _symmetry_equiv_pos_site_id
 _symmetry_equiv_pos_as_xyz
  1  'x, y, z'
loop_
 _atom_site_type_symbol
 _atom_site_label
 _atom_site_symmetry_multiplicity
 _atom_site_fract_x
 _atom_site_fract_y
 _atom_site_fract_z
 _atom_site_occupancy
  Dy  Dy0  1  0.399514  0.130693  0.746157  1
  Dy  Dy1  1  0.131034  0.398628  0.246397  1
  Dy  Dy2  1  0.601362  0.868012  0.254589  1
  Ho  Ho3  1  0.867768  0.602534  0.753274  1
  Si  Si4  1  0.068074  0.261111  0.834217  1
  Si  Si5  1  0.737748  0.932989  0.666871  1
  Si  Si6  1  0.932812  0.738830  0.165822  1
  Si  Si7  1  0.262270  0.067838  0.333825  1
  Si  Si8  1  0.206245  0.793339  0.749447  1
  Si  Si9  1  0.793052  0.205839  0.252201  1
  Si  Si10  1  0.512409  0.487423  0.749098  1
  Si  Si11  1  0.487342  0.511958  0.250201  1
  Si  Si12  1  0.774859  0.225543  0.749041  1
  Si  Si13  1  0.224929  0.774794  0.250446  1
  Os  Os14  1  0.254878  0.543555  0.631124  1
  Os  Os15  1  0.455604  0.743666  0.869440  1
  Os  Os16  1  0.744702  0.456976  0.367729  1
  Os  Os17  1  0.544890  0.255976  0.130042  1
  Os  Os18  1  0.002398  0.997919  0.749944  1
  Os  Os19  1  0.998111  0.002376  0.250139  1
