# generated using pymatgen
data_CsCeMnSe3
_symmetry_space_group_name_H-M   'P 1'
_cell_length_a   8.25601390
_cell_length_b   8.25601284
_cell_length_c   11.32182300
_cell_angle_alpha   90.00000000
_cell_angle_beta   90.00000000
_cell_angle_gamma   149.53896014
_symmetry_Int_Tables_number   1
_chemical_formula_structural   CsCeMnSe3
_chemical_formula_sum   'Cs2 Ce2 Mn2 Se6'
_cell_volume   391.22291025
_cell_formula_units_Z   2
loop_
 _symmetry_equiv_pos_site_id
 _symmetry_equiv_pos_as_xyz
  1  'x, y, z'
loop_
 _atom_site_type_symbol
 _atom_site_label
 _atom_site_symmetry_multiplicity
 _atom_site_fract_x
 _atom_site_fract_y
 _atom_site_fract_z
 _atom_site_occupancy
  Cs  Cs0  1  0.258901  0.741099  0.250000  1
  Cs  Cs1  1  0.741099  0.258901  0.750000  1
  Ce  Ce2  1  0.000000  0.000000  0.000000  1
  Ce  Ce3  1  0.000000  0.000000  0.500000  1
  Mn  Mn4  1  0.535953  0.464047  0.250000  1
  Mn  Mn5  1  0.464047  0.535953  0.750000  1
  Se  Se6  1  0.618314  0.381686  0.063004  1
  Se  Se7  1  0.381686  0.618314  0.936996  1
  Se  Se8  1  0.381686  0.618314  0.563004  1
  Se  Se9  1  0.618314  0.381686  0.436996  1
  Se  Se10  1  0.946259  0.053741  0.250000  1
  Se  Se11  1  0.053741  0.946259  0.750000  1
