# generated using pymatgen
data_Ba8CaFe4(ReO8)3
_symmetry_space_group_name_H-M   'P 1'
_cell_length_a   8.32731700
_cell_length_b   8.32731700
_cell_length_c   8.32731700
_cell_angle_alpha   90.00000000
_cell_angle_beta   90.00000000
_cell_angle_gamma   90.00000000
_symmetry_Int_Tables_number   1
_chemical_formula_structural   Ba8CaFe4(ReO8)3
_chemical_formula_sum   'Ba8 Ca1 Fe4 Re3 O24'
_cell_volume   577.45120561
_cell_formula_units_Z   1
loop_
 _symmetry_equiv_pos_site_id
 _symmetry_equiv_pos_as_xyz
  1  'x, y, z'
loop_
 _atom_site_type_symbol
 _atom_site_label
 _atom_site_symmetry_multiplicity
 _atom_site_fract_x
 _atom_site_fract_y
 _atom_site_fract_z
 _atom_site_occupancy
  Ba  Ba0  1  0.261793  0.261793  0.261793  1
  Ba  Ba1  1  0.738207  0.261793  0.261793  1
  Ba  Ba2  1  0.261793  0.738207  0.261793  1
  Ba  Ba3  1  0.738207  0.738207  0.261793  1
  Ba  Ba4  1  0.261793  0.261793  0.738207  1
  Ba  Ba5  1  0.738207  0.261793  0.738207  1
  Ba  Ba6  1  0.261793  0.738207  0.738207  1
  Ba  Ba7  1  0.738207  0.738207  0.738207  1
  Ca  Ca8  1  0.000000  0.000000  0.000000  1
  Fe  Fe9  1  0.500000  0.500000  0.000000  1
  Fe  Fe10  1  0.500000  0.000000  0.500000  1
  Fe  Fe11  1  0.000000  0.500000  0.500000  1
  Fe  Fe12  1  0.500000  0.500000  0.500000  1
  Re  Re13  1  0.500000  0.000000  0.000000  1
  Re  Re14  1  0.000000  0.500000  0.000000  1
  Re  Re15  1  0.000000  0.000000  0.500000  1
  O  O16  1  0.272329  0.000000  0.000000  1
  O  O17  1  0.727671  0.000000  0.000000  1
  O  O18  1  0.500000  0.229395  0.000000  1
  O  O19  1  0.000000  0.272329  0.000000  1
  O  O20  1  0.229395  0.500000  0.000000  1
  O  O21  1  0.770606  0.500000  0.000000  1
  O  O22  1  0.000000  0.727671  0.000000  1
  O  O23  1  0.500000  0.770606  0.000000  1
  O  O24  1  0.500000  0.000000  0.229395  1
  O  O25  1  0.000000  0.500000  0.229395  1
  O  O26  1  0.500000  0.500000  0.246820  1
  O  O27  1  0.000000  0.000000  0.272329  1
  O  O28  1  0.229395  0.000000  0.500000  1
  O  O29  1  0.770606  0.000000  0.500000  1
  O  O30  1  0.000000  0.229395  0.500000  1
  O  O31  1  0.500000  0.246820  0.500000  1
  O  O32  1  0.246820  0.500000  0.500000  1
  O  O33  1  0.753179  0.500000  0.500000  1
  O  O34  1  0.500000  0.753179  0.500000  1
  O  O35  1  0.000000  0.770606  0.500000  1
  O  O36  1  0.000000  0.000000  0.727671  1
  O  O37  1  0.500000  0.500000  0.753179  1
  O  O38  1  0.500000  0.000000  0.770606  1
  O  O39  1  0.000000  0.500000  0.770606  1
