# generated using pymatgen
data_Sm3Ag2Hg3Pd
_symmetry_space_group_name_H-M   'P 1'
_cell_length_a   8.04411500
_cell_length_b   8.04411617
_cell_length_c   3.82548800
_cell_angle_alpha   90.00000000
_cell_angle_beta   90.00000000
_cell_angle_gamma   119.99999931
_symmetry_Int_Tables_number   1
_chemical_formula_structural   Sm3Ag2Hg3Pd
_chemical_formula_sum   'Sm3 Ag2 Hg3 Pd1'
_cell_volume   214.37497322
_cell_formula_units_Z   1
loop_
 _symmetry_equiv_pos_site_id
 _symmetry_equiv_pos_as_xyz
  1  'x, y, z'
loop_
 _atom_site_type_symbol
 _atom_site_label
 _atom_site_symmetry_multiplicity
 _atom_site_fract_x
 _atom_site_fract_y
 _atom_site_fract_z
 _atom_site_occupancy
  Sm  Sm0  1  0.589399  0.982450  0.500000  1
  Sm  Sm1  1  0.017550  0.606950  0.500000  1
  Sm  Sm2  1  0.393050  0.410601  0.500000  1
  Ag  Ag3  1  0.000000  0.000000  0.500000  1
  Ag  Ag4  1  0.666667  0.333333  0.000000  1
  Hg  Hg5  1  0.275701  0.002904  0.000000  1
  Hg  Hg6  1  0.727203  0.724299  0.000000  1
  Hg  Hg7  1  0.997096  0.272797  0.000000  1
  Pd  Pd8  1  0.333333  0.666667  0.000000  1
