# generated using pymatgen
data_K4Sb2WF14
_symmetry_space_group_name_H-M   'P 1'
_cell_length_a   6.84479256
_cell_length_b   7.61997002
_cell_length_c   7.81996111
_cell_angle_alpha   92.21140609
_cell_angle_beta   91.14517025
_cell_angle_gamma   115.31480091
_symmetry_Int_Tables_number   1
_chemical_formula_structural   K4Sb2WF14
_chemical_formula_sum   'K4 Sb2 W1 F14'
_cell_volume   368.12480063
_cell_formula_units_Z   1
loop_
 _symmetry_equiv_pos_site_id
 _symmetry_equiv_pos_as_xyz
  1  'x, y, z'
loop_
 _atom_site_type_symbol
 _atom_site_label
 _atom_site_symmetry_multiplicity
 _atom_site_fract_x
 _atom_site_fract_y
 _atom_site_fract_z
 _atom_site_occupancy
  K  K0  1  0.281625  0.551140  0.139502  1
  K  K1  1  0.851212  0.732956  0.410105  1
  K  K2  1  0.718375  0.448860  0.860498  1
  K  K3  1  0.148788  0.267044  0.589895  1
  Sb  Sb4  1  0.389713  0.808881  0.682222  1
  Sb  Sb5  1  0.610287  0.191119  0.317778  1
  W  W6  1  0.000000  0.000000  0.000000  1
  F  F7  1  0.922454  0.377987  0.330928  1
  F  F8  1  0.282629  0.119575  0.881128  1
  F  F9  1  0.428223  0.660629  0.481461  1
  F  F10  1  0.717371  0.880425  0.118872  1
  F  F11  1  0.932727  0.231411  0.947249  1
  F  F12  1  0.274128  0.936461  0.493779  1
  F  F13  1  0.067273  0.768589  0.052751  1
  F  F14  1  0.855183  0.869463  0.775617  1
  F  F15  1  0.077546  0.622013  0.669072  1
  F  F16  1  0.144817  0.130537  0.224383  1
  F  F17  1  0.402613  0.575229  0.811798  1
  F  F18  1  0.597387  0.424771  0.188202  1
  F  F19  1  0.725872  0.063539  0.506221  1
  F  F20  1  0.571777  0.339371  0.518539  1
