# generated using pymatgen
data_Ho8Mg2Ni4BiSb
_symmetry_space_group_name_H-M   'P 1'
_cell_length_a   8.66840682
_cell_length_b   8.66840655
_cell_length_c   8.66840567
_cell_angle_alpha   129.25713095
_cell_angle_beta   129.25713667
_cell_angle_gamma   74.59719258
_symmetry_Int_Tables_number   1
_chemical_formula_structural   Ho8Mg2Ni4BiSb
_chemical_formula_sum   'Ho8 Mg2 Ni4 Bi1 Sb1'
_cell_volume   380.52413108
_cell_formula_units_Z   1
loop_
 _symmetry_equiv_pos_site_id
 _symmetry_equiv_pos_as_xyz
  1  'x, y, z'
loop_
 _atom_site_type_symbol
 _atom_site_label
 _atom_site_symmetry_multiplicity
 _atom_site_fract_x
 _atom_site_fract_y
 _atom_site_fract_z
 _atom_site_occupancy
  Ho  Ho0  1  0.036247  0.540946  0.833291  1
  Ho  Ho1  1  0.707656  0.202956  0.166709  1
  Ho  Ho2  1  0.540946  0.707656  0.504700  1
  Ho  Ho3  1  0.202956  0.036247  0.495300  1
  Ho  Ho4  1  0.959054  0.463753  0.166709  1
  Ho  Ho5  1  0.297044  0.792344  0.833291  1
  Ho  Ho6  1  0.463753  0.297044  0.504700  1
  Ho  Ho7  1  0.792344  0.959054  0.495300  1
  Mg  Mg8  1  0.000023  0.000023  0.000000  1
  Mg  Mg9  1  0.499977  0.499977  0.000000  1
  Ni  Ni10  1  0.373598  0.873598  0.247194  1
  Ni  Ni11  1  0.626402  0.126402  0.752806  1
  Ni  Ni12  1  0.873598  0.626402  0.500000  1
  Ni  Ni13  1  0.126402  0.373598  0.500000  1
  Bi  Bi14  1  0.250000  0.250000  0.000000  1
  Sb  Sb15  1  0.750000  0.750000  0.000000  1
