# generated using pymatgen
data_Ca6Cd2AgPb3
_symmetry_space_group_name_H-M   'P 1'
_cell_length_a   5.47258101
_cell_length_b   7.65633200
_cell_length_c   16.50470305
_cell_angle_alpha   89.99998558
_cell_angle_beta   89.99954989
_cell_angle_gamma   90.00004339
_symmetry_Int_Tables_number   1
_chemical_formula_structural   Ca6Cd2AgPb3
_chemical_formula_sum   'Ca12 Cd4 Ag2 Pb6'
_cell_volume   691.54536033
_cell_formula_units_Z   2
loop_
 _symmetry_equiv_pos_site_id
 _symmetry_equiv_pos_as_xyz
  1  'x, y, z'
loop_
 _atom_site_type_symbol
 _atom_site_label
 _atom_site_symmetry_multiplicity
 _atom_site_fract_x
 _atom_site_fract_y
 _atom_site_fract_z
 _atom_site_occupancy
  Ca  Ca0  1  0.499997  0.253685  0.996071  1
  Ca  Ca1  1  0.499997  0.746316  0.996071  1
  Ca  Ca2  1  0.999994  0.250061  0.166279  1
  Ca  Ca3  1  0.999995  0.749941  0.166279  1
  Ca  Ca4  1  0.499991  0.249936  0.333715  1
  Ca  Ca5  1  0.499992  0.750065  0.333715  1
  Ca  Ca6  1  0.000000  0.246328  0.503930  1
  Ca  Ca7  1  0.000001  0.753672  0.503930  1
  Ca  Ca8  1  0.500008  0.246572  0.670025  1
  Ca  Ca9  1  0.500009  0.753427  0.670025  1
  Ca  Ca10  1  0.999996  0.253422  0.829980  1
  Ca  Ca11  1  0.999996  0.746579  0.829980  1
  Cd  Cd12  1  0.999999  0.000000  0.997829  1
  Cd  Cd13  1  0.499996  0.500000  0.165785  1
  Cd  Cd14  1  0.999991  0.000000  0.334219  1
  Cd  Cd15  1  0.499999  0.500000  0.502171  1
  Ag  Ag16  1  0.000051  0.000000  0.667285  1
  Ag  Ag17  1  0.500019  0.500000  0.832707  1
  Pb  Pb18  1  0.999999  0.500000  0.000127  1
  Pb  Pb19  1  0.499995  0.000000  0.165863  1
  Pb  Pb20  1  0.999977  0.500000  0.334127  1
  Pb  Pb21  1  0.499998  0.000000  0.499873  1
  Pb  Pb22  1  0.000001  0.500000  0.665572  1
  Pb  Pb23  1  0.499999  0.000000  0.834442  1
