# generated using pymatgen
data_Ca4Sn4IrPt3
_symmetry_space_group_name_H-M   'P 1'
_cell_length_a   4.59245500
_cell_length_b   7.38069530
_cell_length_c   8.04460691
_cell_angle_alpha   89.34589283
_cell_angle_beta   90.00000000
_cell_angle_gamma   90.00000000
_symmetry_Int_Tables_number   1
_chemical_formula_structural   Ca4Sn4IrPt3
_chemical_formula_sum   'Ca4 Sn4 Ir1 Pt3'
_cell_volume   272.65829325
_cell_formula_units_Z   1
loop_
 _symmetry_equiv_pos_site_id
 _symmetry_equiv_pos_as_xyz
  1  'x, y, z'
loop_
 _atom_site_type_symbol
 _atom_site_label
 _atom_site_symmetry_multiplicity
 _atom_site_fract_x
 _atom_site_fract_y
 _atom_site_fract_z
 _atom_site_occupancy
  Ca  Ca0  1  0.250000  0.981677  0.314097  1
  Ca  Ca1  1  0.250000  0.477926  0.184175  1
  Ca  Ca2  1  0.750000  0.019776  0.685655  1
  Ca  Ca3  1  0.750000  0.520641  0.815698  1
  Sn  Sn4  1  0.250000  0.332592  0.577487  1
  Sn  Sn5  1  0.250000  0.839285  0.925208  1
  Sn  Sn6  1  0.750000  0.665012  0.427423  1
  Sn  Sn7  1  0.750000  0.166129  0.070492  1
  Ir  Ir8  1  0.250000  0.211548  0.893446  1
  Pt  Pt9  1  0.250000  0.713239  0.607479  1
  Pt  Pt10  1  0.750000  0.784886  0.107595  1
  Pt  Pt11  1  0.750000  0.287289  0.391245  1
