# generated using pymatgen
data_Cs6HoUBr12
_symmetry_space_group_name_H-M   'P 1'
_cell_length_a   10.08353442
_cell_length_b   10.09347099
_cell_length_c   8.40004400
_cell_angle_alpha   90.00000000
_cell_angle_beta   90.00000000
_cell_angle_gamma   89.86305365
_symmetry_Int_Tables_number   1
_chemical_formula_structural   Cs6HoUBr12
_chemical_formula_sum   'Cs6 Ho1 U1 Br12'
_cell_volume   854.93607830
_cell_formula_units_Z   1
loop_
 _symmetry_equiv_pos_site_id
 _symmetry_equiv_pos_as_xyz
  1  'x, y, z'
loop_
 _atom_site_type_symbol
 _atom_site_label
 _atom_site_symmetry_multiplicity
 _atom_site_fract_x
 _atom_site_fract_y
 _atom_site_fract_z
 _atom_site_occupancy
  Cs  Cs0  1  0.000000  0.000000  0.500000  1
  Cs  Cs1  1  0.000000  0.000000  0.000000  1
  Cs  Cs2  1  0.235288  0.580371  0.500000  1
  Cs  Cs3  1  0.764712  0.419629  0.500000  1
  Cs  Cs4  1  0.419330  0.236480  0.000000  1
  Cs  Cs5  1  0.580670  0.763520  0.000000  1
  Ho  Ho6  1  0.000000  0.500000  0.000000  1
  U  U7  1  0.500000  0.000000  0.500000  1
  Br  Br8  1  0.697414  0.056605  0.746298  1
  Br  Br9  1  0.302586  0.943395  0.746298  1
  Br  Br10  1  0.945461  0.689579  0.236886  1
  Br  Br11  1  0.054539  0.310421  0.236886  1
  Br  Br12  1  0.302586  0.943395  0.253702  1
  Br  Br13  1  0.697414  0.056605  0.253702  1
  Br  Br14  1  0.054539  0.310421  0.763114  1
  Br  Br15  1  0.945461  0.689579  0.763114  1
  Br  Br16  1  0.571187  0.721127  0.500000  1
  Br  Br17  1  0.428813  0.278873  0.500000  1
  Br  Br18  1  0.267945  0.568725  0.000000  1
  Br  Br19  1  0.732055  0.431275  0.000000  1
