# generated using pymatgen
data_Sr2CaPa(AsPd)4
_symmetry_space_group_name_H-M   'P 1'
_cell_length_a   4.38596800
_cell_length_b   8.12802839
_cell_length_c   7.51483972
_cell_angle_alpha   90.17202664
_cell_angle_beta   90.00000000
_cell_angle_gamma   90.00000000
_symmetry_Int_Tables_number   1
_chemical_formula_structural   Sr2CaPa(AsPd)4
_chemical_formula_sum   'Sr2 Ca1 Pa1 As4 Pd4'
_cell_volume   267.89736098
_cell_formula_units_Z   1
loop_
 _symmetry_equiv_pos_site_id
 _symmetry_equiv_pos_as_xyz
  1  'x, y, z'
loop_
 _atom_site_type_symbol
 _atom_site_label
 _atom_site_symmetry_multiplicity
 _atom_site_fract_x
 _atom_site_fract_y
 _atom_site_fract_z
 _atom_site_occupancy
  Sr  Sr0  1  0.250000  0.499171  0.250236  1
  Sr  Sr1  1  0.750000  0.499403  0.750152  1
  Ca  Ca2  1  0.250000  0.000561  0.250023  1
  Pa  Pa3  1  0.750000  0.000439  0.749930  1
  As  As4  1  0.250000  0.214743  0.915163  1
  As  As5  1  0.250000  0.787496  0.585165  1
  As  As6  1  0.750000  0.774167  0.079906  1
  As  As7  1  0.750000  0.230019  0.419513  1
  Pd  Pd8  1  0.250000  0.762762  0.915719  1
  Pd  Pd9  1  0.250000  0.233782  0.584667  1
  Pd  Pd10  1  0.750000  0.227516  0.077613  1
  Pd  Pd11  1  0.750000  0.769938  0.421915  1
