# generated using pymatgen
data_Tm5OsRu
_symmetry_space_group_name_H-M   'P 1'
_cell_length_a   6.25400933
_cell_length_b   7.27168106
_cell_length_c   8.31871231
_cell_angle_alpha   96.92298102
_cell_angle_beta   112.07995843
_cell_angle_gamma   90.00000249
_symmetry_Int_Tables_number   1
_chemical_formula_structural   Tm5OsRu
_chemical_formula_sum   'Tm10 Os2 Ru2'
_cell_volume   347.58778642
_cell_formula_units_Z   2
loop_
 _symmetry_equiv_pos_site_id
 _symmetry_equiv_pos_as_xyz
  1  'x, y, z'
loop_
 _atom_site_type_symbol
 _atom_site_label
 _atom_site_symmetry_multiplicity
 _atom_site_fract_x
 _atom_site_fract_y
 _atom_site_fract_z
 _atom_site_occupancy
  Tm  Tm0  1  0.792844  0.083782  0.816297  1
  Tm  Tm1  1  0.976547  0.416218  0.183703  1
  Tm  Tm2  1  0.208530  0.915317  0.185434  1
  Tm  Tm3  1  0.023096  0.584683  0.814566  1
  Tm  Tm4  1  0.204354  0.183443  0.564296  1
  Tm  Tm5  1  0.640058  0.316557  0.435704  1
  Tm  Tm6  1  0.794826  0.816359  0.435139  1
  Tm  Tm7  1  0.359687  0.683641  0.564861  1
  Tm  Tm8  1  0.420495  0.250000  0.000000  1
  Tm  Tm9  1  0.580777  0.750000  0.000000  1
  Os  Os10  1  0.602501  0.422829  0.780155  1
  Os  Os11  1  0.822345  0.077171  0.219845  1
  Ru  Ru12  1  0.397070  0.577269  0.220200  1
  Ru  Ru13  1  0.176871  0.922731  0.779800  1
