# generated using pymatgen
data_ErTm2Cd3Ga2Hg
_symmetry_space_group_name_H-M   'P 1'
_cell_length_a   7.27347307
_cell_length_b   7.27518040
_cell_length_c   4.45203000
_cell_angle_alpha   90.00000000
_cell_angle_beta   90.00000000
_cell_angle_gamma   120.00778346
_symmetry_Int_Tables_number   1
_chemical_formula_structural   ErTm2Cd3Ga2Hg
_chemical_formula_sum   'Er1 Tm2 Cd3 Ga2 Hg1'
_cell_volume   204.00473510
_cell_formula_units_Z   1
loop_
 _symmetry_equiv_pos_site_id
 _symmetry_equiv_pos_as_xyz
  1  'x, y, z'
loop_
 _atom_site_type_symbol
 _atom_site_label
 _atom_site_symmetry_multiplicity
 _atom_site_fract_x
 _atom_site_fract_y
 _atom_site_fract_z
 _atom_site_occupancy
  Er  Er0  1  0.000000  0.573966  0.500000  1
  Tm  Tm1  1  0.426028  0.425971  0.500000  1
  Tm  Tm2  1  0.573972  0.999943  0.500000  1
  Cd  Cd3  1  0.744925  0.744986  0.000000  1
  Cd  Cd4  1  0.255075  0.000061  0.000000  1
  Cd  Cd5  1  0.000000  0.254965  0.000000  1
  Ga  Ga6  1  0.666598  0.333304  0.000000  1
  Ga  Ga7  1  0.333402  0.666707  0.000000  1
  Hg  Hg8  1  0.000000  0.000098  0.500000  1
