# generated using pymatgen
data_Pr3Nd(SiPd)4
_symmetry_space_group_name_H-M   'P 1'
_cell_length_a   10.89662191
_cell_length_b   5.88991100
_cell_length_c   7.91067506
_cell_angle_alpha   90.00000000
_cell_angle_beta   91.76926854
_cell_angle_gamma   90.00000000
_symmetry_Int_Tables_number   1
_chemical_formula_structural   Pr3Nd(SiPd)4
_chemical_formula_sum   'Pr6 Nd2 Si8 Pd8'
_cell_volume   507.46613635
_cell_formula_units_Z   2
loop_
 _symmetry_equiv_pos_site_id
 _symmetry_equiv_pos_as_xyz
  1  'x, y, z'
loop_
 _atom_site_type_symbol
 _atom_site_label
 _atom_site_symmetry_multiplicity
 _atom_site_fract_x
 _atom_site_fract_y
 _atom_site_fract_z
 _atom_site_occupancy
  Pr  Pr0  1  0.857585  0.365979  0.965407  1
  Pr  Pr1  1  0.142415  0.865979  0.534593  1
  Pr  Pr2  1  0.370139  0.131594  0.173755  1
  Pr  Pr3  1  0.629860  0.631594  0.326244  1
  Pr  Pr4  1  0.629827  0.868591  0.826019  1
  Pr  Pr5  1  0.370173  0.368591  0.673982  1
  Nd  Nd6  1  0.142929  0.634756  0.034657  1
  Nd  Nd7  1  0.857071  0.134754  0.465342  1
  Si  Si8  1  0.577560  0.132382  0.464763  1
  Si  Si9  1  0.422439  0.632383  0.035238  1
  Si  Si10  1  0.423150  0.867142  0.535322  1
  Si  Si11  1  0.576849  0.367142  0.964678  1
  Si  Si12  1  0.143131  0.358606  0.375854  1
  Si  Si13  1  0.856868  0.858604  0.124147  1
  Si  Si14  1  0.856479  0.642287  0.622871  1
  Si  Si15  1  0.143520  0.142287  0.877129  1
  Pd  Pd16  1  0.668663  0.108416  0.178545  1
  Pd  Pd17  1  0.331337  0.608418  0.321456  1
  Pd  Pd18  1  0.331426  0.891519  0.822217  1
  Pd  Pd19  1  0.668574  0.391521  0.677782  1
  Pd  Pd20  1  0.051918  0.098741  0.164728  1
  Pd  Pd21  1  0.948082  0.598741  0.335272  1
  Pd  Pd22  1  0.948484  0.899990  0.835668  1
  Pd  Pd23  1  0.051516  0.399990  0.664332  1
