# generated using pymatgen
data_ErLu4Ga2Sb
_symmetry_space_group_name_H-M   'P 1'
_cell_length_a   8.52080102
_cell_length_b   8.55172224
_cell_length_c   6.39733300
_cell_angle_alpha   90.00000000
_cell_angle_beta   90.00000000
_cell_angle_gamma   120.12012804
_symmetry_Int_Tables_number   1
_chemical_formula_structural   ErLu4Ga2Sb
_chemical_formula_sum   'Er2 Lu8 Ga4 Sb2'
_cell_volume   403.21494146
_cell_formula_units_Z   2
loop_
 _symmetry_equiv_pos_site_id
 _symmetry_equiv_pos_as_xyz
  1  'x, y, z'
loop_
 _atom_site_type_symbol
 _atom_site_label
 _atom_site_symmetry_multiplicity
 _atom_site_fract_x
 _atom_site_fract_y
 _atom_site_fract_z
 _atom_site_occupancy
  Er  Er0  1  0.234886  0.249340  0.750000  1
  Er  Er1  1  0.234886  0.985545  0.250000  1
  Lu  Lu2  1  0.984852  0.751197  0.750000  1
  Lu  Lu3  1  0.984852  0.233655  0.250000  1
  Lu  Lu4  1  0.766064  0.766400  0.250000  1
  Lu  Lu5  1  0.766064  0.999665  0.750000  1
  Lu  Lu6  1  0.332807  0.666404  0.500000  1
  Lu  Lu7  1  0.687552  0.343776  0.000000  1
  Lu  Lu8  1  0.687552  0.343776  0.500000  1
  Lu  Lu9  1  0.332807  0.666404  0.000000  1
  Ga  Ga10  1  0.001466  0.600023  0.250000  1
  Ga  Ga11  1  0.001466  0.401443  0.750000  1
  Ga  Ga12  1  0.598058  0.602932  0.750000  1
  Ga  Ga13  1  0.598058  0.995124  0.250000  1
  Sb  Sb14  1  0.394315  0.004276  0.750000  1
  Sb  Sb15  1  0.394315  0.390039  0.250000  1
