# generated using pymatgen
data_Tb6YbS8
_symmetry_space_group_name_H-M   'P 1'
_cell_length_a   7.83637916
_cell_length_b   7.85903313
_cell_length_c   7.83637916
_cell_angle_alpha   120.09567555
_cell_angle_beta   89.80450828
_cell_angle_gamma   120.09567555
_symmetry_Int_Tables_number   1
_chemical_formula_structural   Tb6YbS8
_chemical_formula_sum   'Tb6 Yb1 S8'
_cell_volume   340.85307318
_cell_formula_units_Z   1
loop_
 _symmetry_equiv_pos_site_id
 _symmetry_equiv_pos_as_xyz
  1  'x, y, z'
loop_
 _atom_site_type_symbol
 _atom_site_label
 _atom_site_symmetry_multiplicity
 _atom_site_fract_x
 _atom_site_fract_y
 _atom_site_fract_z
 _atom_site_occupancy
  Tb  Tb0  1  0.249995  0.000000  0.249997  1
  Tb  Tb1  1  0.249995  0.499991  0.249997  1
  Tb  Tb2  1  0.750002  0.000000  0.249999  1
  Tb  Tb3  1  0.250002  0.500001  0.750001  1
  Tb  Tb4  1  0.750003  0.000000  0.750005  1
  Tb  Tb5  1  0.750003  0.500008  0.750005  1
  Yb  Yb6  1  0.249998  0.000000  0.750003  1
  S  S7  1  0.000445  0.000000  0.999555  1
  S  S8  1  0.499556  0.000000  0.500444  1
  S  S9  1  0.000264  0.001527  0.500264  1
  S  S10  1  0.000264  0.499002  0.500264  1
  S  S11  1  0.500217  0.500001  0.499786  1
  S  S12  1  0.999785  0.500001  0.000217  1
  S  S13  1  0.499737  0.501000  0.999736  1
  S  S14  1  0.499737  0.998472  0.999736  1
