# generated using pymatgen
data_Sm4Si10PdPt5
_symmetry_space_group_name_H-M   'P 1'
_cell_length_a   8.23623065
_cell_length_b   8.23623087
_cell_length_c   8.23623002
_cell_angle_alpha   136.68567230
_cell_angle_beta   105.21815069
_cell_angle_gamma   90.56745936
_symmetry_Int_Tables_number   1
_chemical_formula_structural   Sm4Si10PdPt5
_chemical_formula_sum   'Sm4 Si10 Pd1 Pt5'
_cell_volume   352.39054455
_cell_formula_units_Z   1
loop_
 _symmetry_equiv_pos_site_id
 _symmetry_equiv_pos_as_xyz
  1  'x, y, z'
loop_
 _atom_site_type_symbol
 _atom_site_label
 _atom_site_symmetry_multiplicity
 _atom_site_fract_x
 _atom_site_fract_y
 _atom_site_fract_z
 _atom_site_occupancy
  Sm  Sm0  1  0.639883  0.872187  0.769670  1
  Sm  Sm1  1  0.360117  0.129787  0.232304  1
  Sm  Sm2  1  0.102517  0.370213  0.730330  1
  Sm  Sm3  1  0.897483  0.627813  0.267696  1
  Si  Si4  1  0.272075  0.022075  0.750000  1
  Si  Si5  1  0.727411  0.977411  0.250000  1
  Si  Si6  1  0.727925  0.477925  0.750000  1
  Si  Si7  1  0.272589  0.522589  0.250000  1
  Si  Si8  1  0.461798  0.613251  0.849177  1
  Si  Si9  1  0.538202  0.387379  0.151453  1
  Si  Si10  1  0.764074  0.112621  0.650823  1
  Si  Si11  1  0.235926  0.886749  0.348547  1
  Si  Si12  1  0.000000  0.750000  0.750000  1
  Si  Si13  1  0.000000  0.250000  0.250000  1
  Pd  Pd14  1  0.500000  0.250000  0.750000  1
  Pt  Pt15  1  0.247304  0.637234  0.610329  1
  Pt  Pt16  1  0.752696  0.363024  0.389929  1
  Pt  Pt17  1  0.026905  0.136976  0.889671  1
  Pt  Pt18  1  0.973095  0.862766  0.110071  1
  Pt  Pt19  1  0.500000  0.750000  0.250000  1
