# generated using pymatgen
data_La2CBr3
_symmetry_space_group_name_H-M   'P 1'
_cell_length_a   13.81642500
_cell_length_b   8.51061834
_cell_length_c   16.83971400
_cell_angle_alpha   59.77007430
_cell_angle_beta   90.00000000
_cell_angle_gamma   90.00000000
_symmetry_Int_Tables_number   1
_chemical_formula_structural   La2CBr3
_chemical_formula_sum   'La16 C8 Br24'
_cell_volume   1710.84735382
_cell_formula_units_Z   8
loop_
 _symmetry_equiv_pos_site_id
 _symmetry_equiv_pos_as_xyz
  1  'x, y, z'
loop_
 _atom_site_type_symbol
 _atom_site_label
 _atom_site_symmetry_multiplicity
 _atom_site_fract_x
 _atom_site_fract_y
 _atom_site_fract_z
 _atom_site_occupancy
  La  La0  1  0.609121  0.136391  0.581907  1
  La  La1  1  0.401641  0.303396  0.426332  1
  La  La2  1  0.109121  0.863609  0.918093  1
  La  La3  1  0.901641  0.696604  0.073668  1
  La  La4  1  0.390879  0.863609  0.418093  1
  La  La5  1  0.598359  0.696604  0.573668  1
  La  La6  1  0.890879  0.136391  0.081907  1
  La  La7  1  0.098359  0.303396  0.926332  1
  La  La8  1  0.612709  0.634344  0.364628  1
  La  La9  1  0.387291  0.365656  0.635372  1
  La  La10  1  0.112709  0.365656  0.135372  1
  La  La11  1  0.887291  0.634344  0.864628  1
  La  La12  1  0.362667  0.835167  0.664946  1
  La  La13  1  0.637333  0.164833  0.335054  1
  La  La14  1  0.862667  0.164833  0.835054  1
  La  La15  1  0.137333  0.835167  0.164946  1
  C  C16  1  0.468504  0.962487  0.537688  1
  C  C17  1  0.531496  0.037513  0.462312  1
  C  C18  1  0.968504  0.037513  0.962312  1
  C  C19  1  0.031496  0.962487  0.037688  1
  C  C20  1  0.522658  0.416099  0.516873  1
  C  C21  1  0.022658  0.583901  0.983127  1
  C  C22  1  0.477342  0.583901  0.483127  1
  C  C23  1  0.977342  0.416099  0.016873  1
  Br  Br24  1  0.759651  0.327582  0.425259  1
  Br  Br25  1  0.242263  0.182376  0.573837  1
  Br  Br26  1  0.259651  0.672418  0.074741  1
  Br  Br27  1  0.742263  0.817624  0.926163  1
  Br  Br28  1  0.240349  0.672418  0.574741  1
  Br  Br29  1  0.757737  0.817624  0.426163  1
  Br  Br30  1  0.740349  0.327582  0.925259  1
  Br  Br31  1  0.257737  0.182376  0.073837  1
  Br  Br32  1  0.727376  0.338602  0.665975  1
  Br  Br33  1  0.272624  0.661398  0.334025  1
  Br  Br34  1  0.227376  0.661398  0.834025  1
  Br  Br35  1  0.772624  0.338602  0.165975  1
  Br  Br36  1  0.482889  0.996934  0.757077  1
  Br  Br37  1  0.514707  0.509190  0.245499  1
  Br  Br38  1  0.982889  0.003066  0.742923  1
  Br  Br39  1  0.014707  0.490810  0.254501  1
  Br  Br40  1  0.517111  0.003066  0.242923  1
  Br  Br41  1  0.485293  0.490810  0.754501  1
  Br  Br42  1  0.017111  0.996934  0.257077  1
  Br  Br43  1  0.985293  0.509190  0.745499  1
  Br  Br44  1  0.744305  0.800286  0.683209  1
  Br  Br45  1  0.255695  0.199714  0.316791  1
  Br  Br46  1  0.244305  0.199714  0.816791  1
  Br  Br47  1  0.755695  0.800286  0.183209  1
