# generated using pymatgen
data_Tb2PaSn3IrRh2
_symmetry_space_group_name_H-M   'P 1'
_cell_length_a   7.67384934
_cell_length_b   7.57462688
_cell_length_c   3.87139600
_cell_angle_alpha   90.00000000
_cell_angle_beta   90.00000000
_cell_angle_gamma   120.52376112
_symmetry_Int_Tables_number   1
_chemical_formula_structural   Tb2PaSn3IrRh2
_chemical_formula_sum   'Tb2 Pa1 Sn3 Ir1 Rh2'
_cell_volume   193.84578323
_cell_formula_units_Z   1
loop_
 _symmetry_equiv_pos_site_id
 _symmetry_equiv_pos_as_xyz
  1  'x, y, z'
loop_
 _atom_site_type_symbol
 _atom_site_label
 _atom_site_symmetry_multiplicity
 _atom_site_fract_x
 _atom_site_fract_y
 _atom_site_fract_z
 _atom_site_occupancy
  Tb  Tb0  1  0.001832  0.406104  0.500000  1
  Tb  Tb1  1  0.593656  0.595907  0.500000  1
  Pa  Pa2  1  0.413077  0.999225  0.500000  1
  Sn  Sn3  1  0.757236  0.002272  0.000000  1
  Sn  Sn4  1  0.985088  0.727787  0.000000  1
  Sn  Sn5  1  0.258915  0.270072  0.000000  1
  Ir  Ir6  1  0.336763  0.698393  0.000000  1
  Rh  Rh7  1  0.637751  0.300859  0.000000  1
  Rh  Rh8  1  0.015681  0.999381  0.500000  1
