# generated using pymatgen
data_Tb3Ga4Se
_symmetry_space_group_name_H-M   'P 1'
_cell_length_a   7.87529747
_cell_length_b   7.87529687
_cell_length_c   7.87529643
_cell_angle_alpha   119.37987617
_cell_angle_beta   119.37987120
_cell_angle_gamma   91.07748478
_symmetry_Int_Tables_number   1
_chemical_formula_structural   Tb3Ga4Se
_chemical_formula_sum   'Tb6 Ga8 Se2'
_cell_volume   348.54148800
_cell_formula_units_Z   2
loop_
 _symmetry_equiv_pos_site_id
 _symmetry_equiv_pos_as_xyz
  1  'x, y, z'
loop_
 _atom_site_type_symbol
 _atom_site_label
 _atom_site_symmetry_multiplicity
 _atom_site_fract_x
 _atom_site_fract_y
 _atom_site_fract_z
 _atom_site_occupancy
  Tb  Tb0  1  0.662921  0.162921  0.825842  1
  Tb  Tb1  1  0.162921  0.337079  0.500000  1
  Tb  Tb2  1  0.837079  0.662921  0.500000  1
  Tb  Tb3  1  0.750000  0.750000  0.000000  1
  Tb  Tb4  1  0.337079  0.837079  0.174158  1
  Tb  Tb5  1  0.250000  0.250000  0.000000  1
  Ga  Ga6  1  0.948163  0.448163  0.788578  1
  Ga  Ga7  1  0.840416  0.051837  0.500000  1
  Ga  Ga8  1  0.340416  0.840416  0.788578  1
  Ga  Ga9  1  0.448163  0.659584  0.500000  1
  Ga  Ga10  1  0.551837  0.340416  0.500000  1
  Ga  Ga11  1  0.051837  0.551837  0.211422  1
  Ga  Ga12  1  0.159584  0.948163  0.500000  1
  Ga  Ga13  1  0.659584  0.159584  0.211422  1
  Se  Se14  1  0.500000  0.500000  0.000000  1
  Se  Se15  1  0.000000  0.000000  0.000000  1
