# generated using pymatgen
data_Zr6TiNb3AlGa11Ir7
_symmetry_space_group_name_H-M   'P 1'
_cell_length_a   8.85455008
_cell_length_b   8.85455015
_cell_length_c   8.85455000
_cell_angle_alpha   60.02021719
_cell_angle_beta   60.02021693
_cell_angle_gamma   60.02022380
_symmetry_Int_Tables_number   1
_chemical_formula_structural   Zr6TiNb3AlGa11Ir7
_chemical_formula_sum   'Zr6 Ti1 Nb3 Al1 Ga11 Ir7'
_cell_volume   491.11535883
_cell_formula_units_Z   1
loop_
 _symmetry_equiv_pos_site_id
 _symmetry_equiv_pos_as_xyz
  1  'x, y, z'
loop_
 _atom_site_type_symbol
 _atom_site_label
 _atom_site_symmetry_multiplicity
 _atom_site_fract_x
 _atom_site_fract_y
 _atom_site_fract_z
 _atom_site_occupancy
  Zr  Zr0  1  0.694086  0.694086  0.305317  1
  Zr  Zr1  1  0.309813  0.689169  0.309813  1
  Zr  Zr2  1  0.689169  0.309813  0.309813  1
  Zr  Zr3  1  0.309813  0.309813  0.689169  1
  Zr  Zr4  1  0.694086  0.305317  0.694086  1
  Zr  Zr5  1  0.305317  0.694086  0.694086  1
  Ti  Ti6  1  0.878154  0.878154  0.878154  1
  Nb  Nb7  1  0.878017  0.878017  0.366174  1
  Nb  Nb8  1  0.878017  0.366174  0.878017  1
  Nb  Nb9  1  0.366174  0.878017  0.878017  1
  Al  Al10  1  0.338589  0.338589  0.338589  1
  Ga  Ga11  1  0.120179  0.120179  0.636403  1
  Ga  Ga12  1  0.120179  0.636403  0.120179  1
  Ga  Ga13  1  0.636403  0.120179  0.120179  1
  Ga  Ga14  1  0.121463  0.121463  0.121463  1
  Ga  Ga15  1  0.657445  0.657445  0.031784  1
  Ga  Ga16  1  0.657445  0.031784  0.657445  1
  Ga  Ga17  1  0.031784  0.657445  0.657445  1
  Ga  Ga18  1  0.654591  0.654591  0.654591  1
  Ga  Ga19  1  0.343020  0.343020  0.971320  1
  Ga  Ga20  1  0.343020  0.971320  0.343020  1
  Ga  Ga21  1  0.971320  0.343020  0.343020  1
  Ir  Ir22  1  0.999764  0.999764  0.999764  1
  Ir  Ir23  1  0.996533  0.996533  0.503521  1
  Ir  Ir24  1  0.503167  0.999235  0.503167  1
  Ir  Ir25  1  0.999235  0.503167  0.503167  1
  Ir  Ir26  1  0.503167  0.503167  0.999235  1
  Ir  Ir27  1  0.996533  0.503521  0.996533  1
  Ir  Ir28  1  0.503521  0.996533  0.996533  1
