# generated using pymatgen
data_Sc3Zn2SnRh6
_symmetry_space_group_name_H-M   'P 1'
_cell_length_a   4.52127900
_cell_length_b   6.25343200
_cell_length_c   13.42425600
_cell_angle_alpha   89.99953133
_cell_angle_beta   89.99844166
_cell_angle_gamma   90.00399612
_symmetry_Int_Tables_number   1
_chemical_formula_structural   Sc3Zn2SnRh6
_chemical_formula_sum   'Sc6 Zn4 Sn2 Rh12'
_cell_volume   379.55084619
_cell_formula_units_Z   2
loop_
 _symmetry_equiv_pos_site_id
 _symmetry_equiv_pos_as_xyz
  1  'x, y, z'
loop_
 _atom_site_type_symbol
 _atom_site_label
 _atom_site_symmetry_multiplicity
 _atom_site_fract_x
 _atom_site_fract_y
 _atom_site_fract_z
 _atom_site_occupancy
  Sc  Sc0  1  0.999990  0.000018  0.994277  1
  Sc  Sc1  1  0.499817  0.499978  0.172399  1
  Sc  Sc2  1  0.999833  0.000024  0.342088  1
  Sc  Sc3  1  0.500012  0.499973  0.503955  1
  Sc  Sc4  1  0.000177  0.000029  0.662707  1
  Sc  Sc5  1  0.500152  0.499973  0.824582  1
  Zn  Zn6  1  0.999834  0.500010  0.335677  1
  Zn  Zn7  1  0.500005  0.999991  0.500565  1
  Zn  Zn8  1  0.000174  0.500010  0.666091  1
  Zn  Zn9  1  0.500164  0.999993  0.830974  1
  Sn  Sn10  1  0.999996  0.500006  0.997695  1
  Sn  Sn11  1  0.499864  0.999993  0.168992  1
  Rh  Rh12  1  0.499972  0.248302  0.997549  1
  Rh  Rh13  1  0.500006  0.751707  0.997546  1
  Rh  Rh14  1  0.999835  0.251660  0.169085  1
  Rh  Rh15  1  0.999799  0.748331  0.169085  1
  Rh  Rh16  1  0.499817  0.252365  0.337000  1
  Rh  Rh17  1  0.499808  0.747628  0.336997  1
  Rh  Rh18  1  0.000062  0.252229  0.501048  1
  Rh  Rh19  1  0.999969  0.747781  0.501046  1
  Rh  Rh20  1  0.500144  0.247769  0.665645  1
  Rh  Rh21  1  0.500248  0.752234  0.665642  1
  Rh  Rh22  1  0.000172  0.247606  0.829677  1
  Rh  Rh23  1  0.000150  0.752389  0.829676  1
