# generated using pymatgen
data_Pr6Ho9Th(CdIr)4
_symmetry_space_group_name_H-M   'P 1'
_cell_length_a   9.76086662
_cell_length_b   9.76086618
_cell_length_c   9.76086678
_cell_angle_alpha   60.29290228
_cell_angle_beta   60.29290601
_cell_angle_gamma   60.29290174
_symmetry_Int_Tables_number   1
_chemical_formula_structural   Pr6Ho9Th(CdIr)4
_chemical_formula_sum   'Pr6 Ho9 Th1 Cd4 Ir4'
_cell_volume   661.94108425
_cell_formula_units_Z   1
loop_
 _symmetry_equiv_pos_site_id
 _symmetry_equiv_pos_as_xyz
  1  'x, y, z'
loop_
 _atom_site_type_symbol
 _atom_site_label
 _atom_site_symmetry_multiplicity
 _atom_site_fract_x
 _atom_site_fract_y
 _atom_site_fract_z
 _atom_site_occupancy
  Pr  Pr0  1  0.939534  0.560999  0.560999  1
  Pr  Pr1  1  0.558242  0.942649  0.942649  1
  Pr  Pr2  1  0.560999  0.939534  0.560999  1
  Pr  Pr3  1  0.942649  0.558242  0.942649  1
  Pr  Pr4  1  0.560999  0.560999  0.939534  1
  Pr  Pr5  1  0.942649  0.942649  0.558242  1
  Ho  Ho6  1  0.347875  0.347875  0.955719  1
  Ho  Ho7  1  0.347875  0.955719  0.347875  1
  Ho  Ho8  1  0.955719  0.347875  0.347875  1
  Ho  Ho9  1  0.814498  0.185946  0.185946  1
  Ho  Ho10  1  0.186564  0.812856  0.812856  1
  Ho  Ho11  1  0.185946  0.814498  0.185946  1
  Ho  Ho12  1  0.812856  0.186564  0.812856  1
  Ho  Ho13  1  0.185946  0.185946  0.814498  1
  Ho  Ho14  1  0.812856  0.812856  0.186564  1
  Th  Th15  1  0.345560  0.345560  0.345560  1
  Cd  Cd16  1  0.578263  0.578263  0.578263  1
  Cd  Cd17  1  0.579796  0.579796  0.262110  1
  Cd  Cd18  1  0.579796  0.262110  0.579796  1
  Cd  Cd19  1  0.262110  0.579796  0.579796  1
  Ir  Ir20  1  0.141710  0.141710  0.141710  1
  Ir  Ir21  1  0.141701  0.141701  0.574154  1
  Ir  Ir22  1  0.141701  0.574154  0.141701  1
  Ir  Ir23  1  0.574154  0.141701  0.141701  1
