# generated using pymatgen
data_Tb12IrOs3
_symmetry_space_group_name_H-M   'P 1'
_cell_length_a   6.40085162
_cell_length_b   7.38813672
_cell_length_c   9.15384500
_cell_angle_alpha   90.00000000
_cell_angle_beta   90.00000000
_cell_angle_gamma   90.05057374
_symmetry_Int_Tables_number   1
_chemical_formula_structural   Tb12IrOs3
_chemical_formula_sum   'Tb12 Ir1 Os3'
_cell_volume   432.88852010
_cell_formula_units_Z   1
loop_
 _symmetry_equiv_pos_site_id
 _symmetry_equiv_pos_as_xyz
  1  'x, y, z'
loop_
 _atom_site_type_symbol
 _atom_site_label
 _atom_site_symmetry_multiplicity
 _atom_site_fract_x
 _atom_site_fract_y
 _atom_site_fract_z
 _atom_site_occupancy
  Tb  Tb0  1  0.332061  0.674386  0.063042  1
  Tb  Tb1  1  0.170134  0.177128  0.437241  1
  Tb  Tb2  1  0.669801  0.324405  0.564002  1
  Tb  Tb3  1  0.828055  0.824110  0.934146  1
  Tb  Tb4  1  0.669801  0.324405  0.935998  1
  Tb  Tb5  1  0.828055  0.824110  0.565854  1
  Tb  Tb6  1  0.332061  0.674386  0.436958  1
  Tb  Tb7  1  0.170134  0.177128  0.062759  1
  Tb  Tb8  1  0.867646  0.537825  0.250000  1
  Tb  Tb9  1  0.631906  0.039610  0.250000  1
  Tb  Tb10  1  0.132149  0.461510  0.750000  1
  Tb  Tb11  1  0.367207  0.961203  0.750000  1
  Ir  Ir12  1  0.042563  0.883537  0.250000  1
  Os  Os13  1  0.458010  0.383612  0.250000  1
  Os  Os14  1  0.959640  0.115790  0.750000  1
  Os  Os15  1  0.540779  0.616853  0.750000  1
