# generated using pymatgen
data_ErTmGa5Rh3
_symmetry_space_group_name_H-M   'P 1'
_cell_length_a   8.59071059
_cell_length_b   8.59071075
_cell_length_c   5.64639305
_cell_angle_alpha   70.80390419
_cell_angle_beta   70.80389339
_cell_angle_gamma   97.63341959
_symmetry_Int_Tables_number   1
_chemical_formula_structural   ErTmGa5Rh3
_chemical_formula_sum   'Er2 Tm2 Ga10 Rh6'
_cell_volume   357.83610973
_cell_formula_units_Z   2
loop_
 _symmetry_equiv_pos_site_id
 _symmetry_equiv_pos_as_xyz
  1  'x, y, z'
loop_
 _atom_site_type_symbol
 _atom_site_label
 _atom_site_symmetry_multiplicity
 _atom_site_fract_x
 _atom_site_fract_y
 _atom_site_fract_z
 _atom_site_occupancy
  Er  Er0  1  0.870543  0.578718  0.776185  1
  Er  Er1  1  0.421282  0.129457  0.723815  1
  Tm  Tm2  1  0.129457  0.421343  0.223781  1
  Tm  Tm3  1  0.578657  0.870543  0.276219  1
  Ga  Ga4  1  0.100566  0.265589  0.816480  1
  Ga  Ga5  1  0.734411  0.899434  0.683520  1
  Ga  Ga6  1  0.899414  0.734501  0.183477  1
  Ga  Ga7  1  0.265499  0.100586  0.316523  1
  Ga  Ga8  1  0.199032  0.800968  0.750000  1
  Ga  Ga9  1  0.801028  0.198972  0.250000  1
  Ga  Ga10  1  0.500182  0.499818  0.750000  1
  Ga  Ga11  1  0.499754  0.500246  0.250000  1
  Ga  Ga12  1  0.800651  0.199349  0.750000  1
  Ga  Ga13  1  0.199410  0.800590  0.250000  1
  Rh  Rh14  1  0.263458  0.569005  0.584315  1
  Rh  Rh15  1  0.430995  0.736542  0.915685  1
  Rh  Rh16  1  0.736682  0.431009  0.415612  1
  Rh  Rh17  1  0.568991  0.263318  0.084388  1
  Rh  Rh18  1  0.999830  0.000170  0.750000  1
  Rh  Rh19  1  0.000159  0.999841  0.250000  1
