# generated using pymatgen
data_Hf9Zr8Nb3Si16
_symmetry_space_group_name_H-M   'P 1'
_cell_length_a   7.05189697
_cell_length_b   7.05189690
_cell_length_c   12.87996403
_cell_angle_alpha   90.02725255
_cell_angle_beta   90.02725484
_cell_angle_gamma   90.04136416
_symmetry_Int_Tables_number   1
_chemical_formula_structural   Hf9Zr8Nb3Si16
_chemical_formula_sum   'Hf9 Zr8 Nb3 Si16'
_cell_volume   640.51064433
_cell_formula_units_Z   1
loop_
 _symmetry_equiv_pos_site_id
 _symmetry_equiv_pos_as_xyz
  1  'x, y, z'
loop_
 _atom_site_type_symbol
 _atom_site_label
 _atom_site_symmetry_multiplicity
 _atom_site_fract_x
 _atom_site_fract_y
 _atom_site_fract_z
 _atom_site_occupancy
  Hf  Hf0  1  0.675072  0.324928  0.750000  1
  Hf  Hf1  1  0.145730  0.996602  0.375988  1
  Hf  Hf2  1  0.854746  0.002407  0.877151  1
  Hf  Hf3  1  0.502815  0.647836  0.624896  1
  Hf  Hf4  1  0.352164  0.497185  0.875104  1
  Hf  Hf5  1  0.496094  0.353696  0.126800  1
  Hf  Hf6  1  0.646304  0.503906  0.373200  1
  Hf  Hf7  1  0.997593  0.145254  0.622849  1
  Hf  Hf8  1  0.003398  0.854270  0.124012  1
  Zr  Zr9  1  0.998774  0.345545  0.217259  1
  Zr  Zr10  1  0.002021  0.653979  0.716841  1
  Zr  Zr11  1  0.153977  0.499218  0.466738  1
  Zr  Zr12  1  0.500782  0.846023  0.033262  1
  Zr  Zr13  1  0.846278  0.501075  0.967814  1
  Zr  Zr14  1  0.498925  0.153722  0.532186  1
  Zr  Zr15  1  0.346021  0.997979  0.783159  1
  Zr  Zr16  1  0.654455  0.001226  0.282741  1
  Nb  Nb17  1  0.174984  0.175087  0.000711  1
  Nb  Nb18  1  0.824913  0.825016  0.499289  1
  Nb  Nb19  1  0.324926  0.675074  0.250000  1
  Si  Si20  1  0.354407  0.296644  0.322083  1
  Si  Si21  1  0.644652  0.704350  0.822051  1
  Si  Si22  1  0.204017  0.855207  0.571836  1
  Si  Si23  1  0.144793  0.795983  0.928164  1
  Si  Si24  1  0.796061  0.145240  0.072239  1
  Si  Si25  1  0.854760  0.203939  0.427761  1
  Si  Si26  1  0.295650  0.355348  0.677949  1
  Si  Si27  1  0.703356  0.645593  0.177917  1
  Si  Si28  1  0.300963  0.047900  0.185869  1
  Si  Si29  1  0.699806  0.950021  0.685604  1
  Si  Si30  1  0.451867  0.801181  0.435070  1
  Si  Si31  1  0.198819  0.548133  0.064930  1
  Si  Si32  1  0.546704  0.197910  0.936611  1
  Si  Si33  1  0.802090  0.453296  0.563389  1
  Si  Si34  1  0.049979  0.300194  0.814396  1
  Si  Si35  1  0.952100  0.699037  0.314131  1
