# generated using pymatgen
data_KSc2(H6Rh)2
_symmetry_space_group_name_H-M   'P 1'
_cell_length_a   4.62349500
_cell_length_b   4.62349687
_cell_length_c   8.49084100
_cell_angle_alpha   90.00000000
_cell_angle_beta   90.00000000
_cell_angle_gamma   119.99999374
_symmetry_Int_Tables_number   1
_chemical_formula_structural   KSc2(H6Rh)2
_chemical_formula_sum   'K1 Sc2 H12 Rh2'
_cell_volume   157.18906407
_cell_formula_units_Z   1
loop_
 _symmetry_equiv_pos_site_id
 _symmetry_equiv_pos_as_xyz
  1  'x, y, z'
loop_
 _atom_site_type_symbol
 _atom_site_label
 _atom_site_symmetry_multiplicity
 _atom_site_fract_x
 _atom_site_fract_y
 _atom_site_fract_z
 _atom_site_occupancy
  K  K0  1  0.000000  0.000000  0.000000  1
  Sc  Sc1  1  0.666667  0.333333  0.371298  1
  Sc  Sc2  1  0.333333  0.666667  0.628702  1
  H  H3  1  0.157405  0.842595  0.397462  1
  H  H4  1  0.685190  0.842595  0.397462  1
  H  H5  1  0.157405  0.314810  0.397462  1
  H  H6  1  0.842595  0.157405  0.602538  1
  H  H7  1  0.314810  0.157405  0.602538  1
  H  H8  1  0.842595  0.685190  0.602538  1
  H  H9  1  0.497087  0.994172  0.825535  1
  H  H10  1  0.497087  0.502913  0.825535  1
  H  H11  1  0.005828  0.502913  0.825535  1
  H  H12  1  0.502913  0.005828  0.174465  1
  H  H13  1  0.502913  0.497087  0.174465  1
  H  H14  1  0.994172  0.497087  0.174465  1
  Rh  Rh15  1  0.666667  0.333333  0.710903  1
  Rh  Rh16  1  0.333333  0.666667  0.289097  1
