# generated using pymatgen
data_Yb2HoGa3Ge2Pt
_symmetry_space_group_name_H-M   'P 1'
_cell_length_a   6.98974425
_cell_length_b   6.98974298
_cell_length_c   4.26316200
_cell_angle_alpha   90.00000000
_cell_angle_beta   90.00000000
_cell_angle_gamma   120.14044853
_symmetry_Int_Tables_number   1
_chemical_formula_structural   Yb2HoGa3Ge2Pt
_chemical_formula_sum   'Yb2 Ho1 Ga3 Ge2 Pt1'
_cell_volume   180.12275551
_cell_formula_units_Z   1
loop_
 _symmetry_equiv_pos_site_id
 _symmetry_equiv_pos_as_xyz
  1  'x, y, z'
loop_
 _atom_site_type_symbol
 _atom_site_label
 _atom_site_symmetry_multiplicity
 _atom_site_fract_x
 _atom_site_fract_y
 _atom_site_fract_z
 _atom_site_occupancy
  Yb  Yb0  1  0.416852  0.000414  0.000000  1
  Yb  Yb1  1  0.000414  0.416852  0.000000  1
  Ho  Ho2  1  0.583849  0.583850  0.000000  1
  Ga  Ga3  1  0.762901  0.000703  0.500000  1
  Ga  Ga4  1  0.236565  0.236565  0.500000  1
  Ga  Ga5  1  0.000703  0.762902  0.500000  1
  Ge  Ge6  1  0.666136  0.337554  0.500000  1
  Ge  Ge7  1  0.337554  0.666136  0.500000  1
  Pt  Pt8  1  0.995024  0.995024  0.000000  1
