# generated using pymatgen
data_Ag3Hg(Pt2O7)2
_symmetry_space_group_name_H-M   'P 1'
_cell_length_a   7.24964487
_cell_length_b   7.24964460
_cell_length_c   7.24964545
_cell_angle_alpha   59.74242786
_cell_angle_beta   59.74243078
_cell_angle_gamma   59.74242969
_symmetry_Int_Tables_number   1
_chemical_formula_structural   Ag3Hg(Pt2O7)2
_chemical_formula_sum   'Ag3 Hg1 Pt4 O14'
_cell_volume   267.84744285
_cell_formula_units_Z   1
loop_
 _symmetry_equiv_pos_site_id
 _symmetry_equiv_pos_as_xyz
  1  'x, y, z'
loop_
 _atom_site_type_symbol
 _atom_site_label
 _atom_site_symmetry_multiplicity
 _atom_site_fract_x
 _atom_site_fract_y
 _atom_site_fract_z
 _atom_site_occupancy
  Ag  Ag0  1  0.625000  0.125000  0.125000  1
  Ag  Ag1  1  0.125000  0.625000  0.125000  1
  Ag  Ag2  1  0.125000  0.125000  0.625000  1
  Hg  Hg3  1  0.125000  0.125000  0.125000  1
  Pt  Pt4  1  0.625000  0.625000  0.125000  1
  Pt  Pt5  1  0.625000  0.625000  0.625000  1
  Pt  Pt6  1  0.625000  0.125000  0.625000  1
  Pt  Pt7  1  0.125000  0.625000  0.625000  1
  O  O8  1  0.706242  0.292095  0.292095  1
  O  O9  1  0.705872  0.293845  0.705872  1
  O  O10  1  0.991873  0.991873  0.991873  1
  O  O11  1  0.292095  0.706242  0.292095  1
  O  O12  1  0.705872  0.705872  0.293845  1
  O  O13  1  0.956155  0.544128  0.544128  1
  O  O14  1  0.293845  0.705872  0.705872  1
  O  O15  1  0.258127  0.258127  0.258127  1
  O  O16  1  0.957905  0.543758  0.957905  1
  O  O17  1  0.544128  0.956155  0.544128  1
  O  O18  1  0.544128  0.544128  0.956155  1
  O  O19  1  0.957905  0.957905  0.543758  1
  O  O20  1  0.543758  0.957905  0.957905  1
  O  O21  1  0.292095  0.292095  0.706242  1
