# generated using pymatgen
data_Tb8Dy9Lu3Pb16
_symmetry_space_group_name_H-M   'P 1'
_cell_length_a   8.18503600
_cell_length_b   8.27860219
_cell_length_c   15.64792900
_cell_angle_alpha   90.00000000
_cell_angle_beta   90.00000000
_cell_angle_gamma   89.92965198
_symmetry_Int_Tables_number   1
_chemical_formula_structural   Tb8Dy9Lu3Pb16
_chemical_formula_sum   'Tb8 Dy9 Lu3 Pb16'
_cell_volume   1060.31314925
_cell_formula_units_Z   1
loop_
 _symmetry_equiv_pos_site_id
 _symmetry_equiv_pos_as_xyz
  1  'x, y, z'
loop_
 _atom_site_type_symbol
 _atom_site_label
 _atom_site_symmetry_multiplicity
 _atom_site_fract_x
 _atom_site_fract_y
 _atom_site_fract_z
 _atom_site_occupancy
  Tb  Tb0  1  0.533920  0.323091  0.900016  1
  Tb  Tb1  1  0.033981  0.176889  0.600180  1
  Tb  Tb2  1  0.466394  0.676467  0.400010  1
  Tb  Tb3  1  0.965805  0.822792  0.099947  1
  Tb  Tb4  1  0.466394  0.676467  0.099990  1
  Tb  Tb5  1  0.965805  0.822792  0.400053  1
  Tb  Tb6  1  0.533920  0.323091  0.599984  1
  Tb  Tb7  1  0.033981  0.176889  0.899820  1
  Dy  Dy8  1  0.376807  0.841121  0.879285  1
  Dy  Dy9  1  0.876700  0.658828  0.620463  1
  Dy  Dy10  1  0.623798  0.159326  0.379694  1
  Dy  Dy11  1  0.122822  0.341336  0.120387  1
  Dy  Dy12  1  0.623798  0.159326  0.120306  1
  Dy  Dy13  1  0.122822  0.341336  0.379613  1
  Dy  Dy14  1  0.376807  0.841121  0.620715  1
  Dy  Dy15  1  0.876700  0.658828  0.879537  1
  Dy  Dy16  1  0.291641  0.003832  0.250000  1
  Lu  Lu17  1  0.208655  0.504015  0.750000  1
  Lu  Lu18  1  0.708616  0.995723  0.750000  1
  Lu  Lu19  1  0.791219  0.495760  0.250000  1
  Pb  Pb20  1  0.281348  0.033306  0.042831  1
  Pb  Pb21  1  0.781468  0.466999  0.456433  1
  Pb  Pb22  1  0.718578  0.967108  0.543772  1
  Pb  Pb23  1  0.218672  0.533034  0.956260  1
  Pb  Pb24  1  0.718578  0.967108  0.956228  1
  Pb  Pb25  1  0.218672  0.533034  0.543740  1
  Pb  Pb26  1  0.281348  0.033306  0.457169  1
  Pb  Pb27  1  0.781468  0.466999  0.043567  1
  Pb  Pb28  1  0.571488  0.626549  0.750000  1
  Pb  Pb29  1  0.071497  0.873276  0.750000  1
  Pb  Pb30  1  0.428765  0.374340  0.250000  1
  Pb  Pb31  1  0.926759  0.127523  0.250000  1
  Pb  Pb32  1  0.345752  0.153837  0.750000  1
  Pb  Pb33  1  0.845523  0.346744  0.750000  1
  Pb  Pb34  1  0.655157  0.846264  0.250000  1
  Pb  Pb35  1  0.154342  0.651543  0.250000  1
