# generated using pymatgen
data_AlV10Si5H2
_symmetry_space_group_name_H-M   'P 1'
_cell_length_a   4.84576100
_cell_length_b   7.16823641
_cell_length_c   7.15975198
_cell_angle_alpha   120.04229075
_cell_angle_beta   90.00006752
_cell_angle_gamma   89.99988535
_symmetry_Int_Tables_number   1
_chemical_formula_structural   AlV10Si5H2
_chemical_formula_sum   'Al1 V10 Si5 H2'
_cell_volume   215.28694143
_cell_formula_units_Z   1
loop_
 _symmetry_equiv_pos_site_id
 _symmetry_equiv_pos_as_xyz
  1  'x, y, z'
loop_
 _atom_site_type_symbol
 _atom_site_label
 _atom_site_symmetry_multiplicity
 _atom_site_fract_x
 _atom_site_fract_y
 _atom_site_fract_z
 _atom_site_occupancy
  Al  Al0  1  0.750008  0.599083  0.000021  1
  V  V1  1  0.498177  0.327801  0.659992  1
  V  V2  1  0.498182  0.667783  0.339979  1
  V  V3  1  0.001818  0.667783  0.339979  1
  V  V4  1  0.001826  0.327801  0.659994  1
  V  V5  1  0.749998  0.233436  0.000022  1
  V  V6  1  0.749998  0.764050  0.757845  1
  V  V7  1  0.749996  0.006171  0.242159  1
  V  V8  1  0.250004  0.764696  0.000033  1
  V  V9  1  0.250004  0.240526  0.240329  1
  V  V10  1  0.250001  0.000189  0.759661  1
  Si  Si11  1  0.750009  0.400662  0.399559  1
  Si  Si12  1  0.750005  0.001099  0.600407  1
  Si  Si13  1  0.249995  0.403167  0.000029  1
  Si  Si14  1  0.249995  0.601004  0.604150  1
  Si  Si15  1  0.249993  0.996838  0.395842  1
  H  H16  1  0.500719  0.998958  0.000000  1
  H  H17  1  0.999276  0.998955  0.999999  1
