# generated using pymatgen
data_Rb2SmTa5O15
_symmetry_space_group_name_H-M   'P 1'
_cell_length_a   9.29397600
_cell_length_b   9.29397732
_cell_length_c   3.95303500
_cell_angle_alpha   90.00000000
_cell_angle_beta   90.00000000
_cell_angle_gamma   111.72846065
_symmetry_Int_Tables_number   1
_chemical_formula_structural   Rb2SmTa5O15
_chemical_formula_sum   'Rb2 Sm1 Ta5 O15'
_cell_volume   317.19445649
_cell_formula_units_Z   1
loop_
 _symmetry_equiv_pos_site_id
 _symmetry_equiv_pos_as_xyz
  1  'x, y, z'
loop_
 _atom_site_type_symbol
 _atom_site_label
 _atom_site_symmetry_multiplicity
 _atom_site_fract_x
 _atom_site_fract_y
 _atom_site_fract_z
 _atom_site_occupancy
  Rb  Rb0  1  0.297844  0.702156  0.000000  1
  Rb  Rb1  1  0.702156  0.297844  0.000000  1
  Sm  Sm2  1  0.000000  0.000000  0.000000  1
  Ta  Ta3  1  0.320470  0.062155  0.500000  1
  Ta  Ta4  1  0.062155  0.320470  0.500000  1
  Ta  Ta5  1  0.679530  0.937845  0.500000  1
  Ta  Ta6  1  0.937845  0.679530  0.500000  1
  Ta  Ta7  1  0.500000  0.500000  0.500000  1
  O  O8  1  0.134258  0.134258  0.500000  1
  O  O9  1  0.153104  0.846896  0.500000  1
  O  O10  1  0.274177  0.458109  0.500000  1
  O  O11  1  0.846896  0.153104  0.500000  1
  O  O12  1  0.865742  0.865742  0.500000  1
  O  O13  1  0.288593  0.049988  0.000000  1
  O  O14  1  0.711407  0.950012  0.000000  1
  O  O15  1  0.541891  0.725823  0.500000  1
  O  O16  1  0.049988  0.288593  0.000000  1
  O  O17  1  0.500000  0.000000  0.500000  1
  O  O18  1  0.458109  0.274177  0.500000  1
  O  O19  1  0.950012  0.711407  0.000000  1
  O  O20  1  0.500000  0.500000  0.000000  1
  O  O21  1  0.725823  0.541891  0.500000  1
  O  O22  1  0.000000  0.500000  0.500000  1
