# generated using pymatgen
data_YHo9FeHg3
_symmetry_space_group_name_H-M   'P 1'
_cell_length_a   9.52941500
_cell_length_b   9.52941607
_cell_length_c   9.59535300
_cell_angle_alpha   90.00000000
_cell_angle_beta   90.00000000
_cell_angle_gamma   119.99999281
_symmetry_Int_Tables_number   1
_chemical_formula_structural   YHo9FeHg3
_chemical_formula_sum   'Y2 Ho18 Fe2 Hg6'
_cell_volume   754.61276899
_cell_formula_units_Z   2
loop_
 _symmetry_equiv_pos_site_id
 _symmetry_equiv_pos_as_xyz
  1  'x, y, z'
loop_
 _atom_site_type_symbol
 _atom_site_label
 _atom_site_symmetry_multiplicity
 _atom_site_fract_x
 _atom_site_fract_y
 _atom_site_fract_z
 _atom_site_occupancy
  Y  Y0  1  0.000000  0.000000  0.500000  1
  Y  Y1  1  0.000000  0.000000  0.000000  1
  Ho  Ho2  1  0.541689  0.458311  0.250000  1
  Ho  Ho3  1  0.541689  0.083378  0.250000  1
  Ho  Ho4  1  0.916622  0.458311  0.250000  1
  Ho  Ho5  1  0.458311  0.541689  0.750000  1
  Ho  Ho6  1  0.458311  0.916622  0.750000  1
  Ho  Ho7  1  0.083378  0.541689  0.750000  1
  Ho  Ho8  1  0.212395  0.787605  0.435893  1
  Ho  Ho9  1  0.212395  0.424790  0.435893  1
  Ho  Ho10  1  0.575210  0.787605  0.435893  1
  Ho  Ho11  1  0.787605  0.212395  0.564107  1
  Ho  Ho12  1  0.787605  0.575210  0.564107  1
  Ho  Ho13  1  0.424790  0.212395  0.564107  1
  Ho  Ho14  1  0.787605  0.212395  0.935893  1
  Ho  Ho15  1  0.787605  0.575210  0.935893  1
  Ho  Ho16  1  0.424790  0.212395  0.935893  1
  Ho  Ho17  1  0.212395  0.787605  0.064107  1
  Ho  Ho18  1  0.212395  0.424790  0.064107  1
  Ho  Ho19  1  0.575210  0.787605  0.064107  1
  Fe  Fe20  1  0.333333  0.666667  0.250000  1
  Fe  Fe21  1  0.666667  0.333333  0.750000  1
  Hg  Hg22  1  0.881425  0.118575  0.250000  1
  Hg  Hg23  1  0.881425  0.762851  0.250000  1
  Hg  Hg24  1  0.237149  0.118575  0.250000  1
  Hg  Hg25  1  0.118575  0.881425  0.750000  1
  Hg  Hg26  1  0.118575  0.237149  0.750000  1
  Hg  Hg27  1  0.762851  0.881425  0.750000  1
