# generated using pymatgen
data_Ca11InBi9
_symmetry_space_group_name_H-M   'P 1'
_cell_length_a   12.21739772
_cell_length_b   12.39251736
_cell_length_c   12.39251700
_cell_angle_alpha   117.19410534
_cell_angle_beta   60.46636360
_cell_angle_gamma   119.53363579
_symmetry_Int_Tables_number   1
_chemical_formula_structural   Ca11InBi9
_chemical_formula_sum   'Ca22 In2 Bi18'
_cell_volume   1362.42677367
_cell_formula_units_Z   2
loop_
 _symmetry_equiv_pos_site_id
 _symmetry_equiv_pos_as_xyz
  1  'x, y, z'
loop_
 _atom_site_type_symbol
 _atom_site_label
 _atom_site_symmetry_multiplicity
 _atom_site_fract_x
 _atom_site_fract_y
 _atom_site_fract_z
 _atom_site_occupancy
  Ca  Ca0  1  0.750056  0.391464  0.063838  1
  Ca  Ca1  1  0.557828  0.820913  0.071649  1
  Ca  Ca2  1  0.250055  0.436162  0.108535  1
  Ca  Ca3  1  0.829949  0.829949  0.170051  1
  Ca  Ca4  1  0.842124  0.181584  0.170270  1
  Ca  Ca5  1  0.191437  0.928351  0.179086  1
  Ca  Ca6  1  0.947591  0.574481  0.308467  1
  Ca  Ca7  1  0.342123  0.329730  0.318416  1
  Ca  Ca8  1  0.416656  0.067021  0.376650  1
  Ca  Ca9  1  0.318423  0.691533  0.425519  1
  Ca  Ca10  1  0.916656  0.123349  0.432979  1
  Ca  Ca11  1  0.077570  0.891464  0.563838  1
  Ca  Ca12  1  0.691436  0.320913  0.571649  1
  Ca  Ca13  1  0.577570  0.936162  0.608536  1
  Ca  Ca14  1  0.329949  0.329948  0.670051  1
  Ca  Ca15  1  0.669190  0.681585  0.670271  1
  Ca  Ca16  1  0.057828  0.428350  0.679086  1
  Ca  Ca17  1  0.818422  0.074481  0.808468  1
  Ca  Ca18  1  0.169191  0.829729  0.818416  1
  Ca  Ca19  1  0.773714  0.567021  0.876651  1
  Ca  Ca20  1  0.447591  0.191533  0.925519  1
  Ca  Ca21  1  0.273714  0.623349  0.932979  1
  In  In22  1  0.614377  0.614376  0.385623  1
  In  In23  1  0.114377  0.114376  0.885623  1
  Bi  Bi24  1  0.998195  0.644443  0.001889  1
  Bi  Bi25  1  0.544450  0.121681  0.107475  1
  Bi  Bi26  1  0.131894  0.118957  0.121952  1
  Bi  Bi27  1  0.541854  0.551525  0.158131  1
  Bi  Bi28  1  0.252008  0.752007  0.247992  1
  Bi  Bi29  1  0.644360  0.998112  0.355557  1
  Bi  Bi30  1  0.631894  0.378049  0.381043  1
  Bi  Bi31  1  0.044449  0.392525  0.378319  1
  Bi  Bi32  1  0.851541  0.841869  0.448476  1
  Bi  Bi33  1  0.144360  0.144443  0.501888  1
  Bi  Bi34  1  0.969757  0.621681  0.607476  1
  Bi  Bi35  1  0.365112  0.618957  0.621952  1
  Bi  Bi36  1  0.351542  0.051525  0.658131  1
  Bi  Bi37  1  0.752007  0.252007  0.747992  1
  Bi  Bi38  1  0.498195  0.498112  0.855557  1
  Bi  Bi39  1  0.865111  0.878048  0.881043  1
  Bi  Bi40  1  0.469757  0.892524  0.878319  1
  Bi  Bi41  1  0.041854  0.341870  0.948475  1
