# generated using pymatgen
data_Yb3Cu11Ni
_symmetry_space_group_name_H-M   'P 1'
_cell_length_a   4.91515793
_cell_length_b   4.91515922
_cell_length_c   10.43375364
_cell_angle_alpha   94.49740676
_cell_angle_beta   94.49740733
_cell_angle_gamma   119.31536630
_symmetry_Int_Tables_number   1
_chemical_formula_structural   Yb3Cu11Ni
_chemical_formula_sum   'Yb3 Cu11 Ni1'
_cell_volume   217.12263536
_cell_formula_units_Z   1
loop_
 _symmetry_equiv_pos_site_id
 _symmetry_equiv_pos_as_xyz
  1  'x, y, z'
loop_
 _atom_site_type_symbol
 _atom_site_label
 _atom_site_symmetry_multiplicity
 _atom_site_fract_x
 _atom_site_fract_y
 _atom_site_fract_z
 _atom_site_occupancy
  Yb  Yb0  1  0.999921  0.000079  0.000000  1
  Yb  Yb1  1  0.127866  0.127547  0.357165  1
  Yb  Yb2  1  0.872453  0.872134  0.642835  1
  Cu  Cu3  1  0.336914  0.663087  0.000000  1
  Cu  Cu4  1  0.568990  0.068592  0.196299  1
  Cu  Cu5  1  0.066950  0.568324  0.196449  1
  Cu  Cu6  1  0.573166  0.572723  0.202289  1
  Cu  Cu7  1  0.804639  0.460671  0.406175  1
  Cu  Cu8  1  0.459689  0.803775  0.405873  1
  Cu  Cu9  1  0.539331  0.195362  0.593825  1
  Cu  Cu10  1  0.196226  0.540313  0.594127  1
  Cu  Cu11  1  0.427276  0.426833  0.797711  1
  Cu  Cu12  1  0.931407  0.431009  0.803702  1
  Cu  Cu13  1  0.431675  0.933049  0.803552  1
  Ni  Ni14  1  0.663499  0.336502  0.000000  1
