# generated using pymatgen
data_V2GaSiOs4
_symmetry_space_group_name_H-M   'P 1'
_cell_length_a   7.37982075
_cell_length_b   7.37981913
_cell_length_c   7.37982048
_cell_angle_alpha   33.55238391
_cell_angle_beta   33.55237579
_cell_angle_gamma   33.55238025
_symmetry_Int_Tables_number   1
_chemical_formula_structural   V2GaSiOs4
_chemical_formula_sum   'V2 Ga1 Si1 Os4'
_cell_volume   109.35892874
_cell_formula_units_Z   1
loop_
 _symmetry_equiv_pos_site_id
 _symmetry_equiv_pos_as_xyz
  1  'x, y, z'
loop_
 _atom_site_type_symbol
 _atom_site_label
 _atom_site_symmetry_multiplicity
 _atom_site_fract_x
 _atom_site_fract_y
 _atom_site_fract_z
 _atom_site_occupancy
  V  V0  1  0.252155  0.252155  0.252155  1
  V  V1  1  0.747845  0.747845  0.747845  1
  Ga  Ga2  1  0.000000  0.000000  0.000000  1
  Si  Si3  1  0.500000  0.500000  0.500000  1
  Os  Os4  1  0.872244  0.872244  0.872244  1
  Os  Os5  1  0.378009  0.378009  0.378009  1
  Os  Os6  1  0.127756  0.127756  0.127756  1
  Os  Os7  1  0.621991  0.621991  0.621991  1
