# generated using pymatgen
data_Hf10Sn6C
_symmetry_space_group_name_H-M   'P 1'
_cell_length_a   8.41672300
_cell_length_b   8.41672244
_cell_length_c   5.75311900
_cell_angle_alpha   90.00000000
_cell_angle_beta   90.00000000
_cell_angle_gamma   120.00000613
_symmetry_Int_Tables_number   1
_chemical_formula_structural   Hf10Sn6C
_chemical_formula_sum   'Hf10 Sn6 C1'
_cell_volume   352.95553940
_cell_formula_units_Z   1
loop_
 _symmetry_equiv_pos_site_id
 _symmetry_equiv_pos_as_xyz
  1  'x, y, z'
loop_
 _atom_site_type_symbol
 _atom_site_label
 _atom_site_symmetry_multiplicity
 _atom_site_fract_x
 _atom_site_fract_y
 _atom_site_fract_z
 _atom_site_occupancy
  Hf  Hf0  1  0.666667  0.333333  0.500000  1
  Hf  Hf1  1  0.333333  0.666667  0.500000  1
  Hf  Hf2  1  0.333333  0.666667  0.000000  1
  Hf  Hf3  1  0.666667  0.333333  0.000000  1
  Hf  Hf4  1  0.771082  0.771082  0.263124  1
  Hf  Hf5  1  0.228918  0.000000  0.263124  1
  Hf  Hf6  1  0.000000  0.228918  0.263124  1
  Hf  Hf7  1  0.228918  0.228918  0.736876  1
  Hf  Hf8  1  0.771082  0.000000  0.736876  1
  Hf  Hf9  1  0.000000  0.771082  0.736876  1
  Sn  Sn10  1  0.398870  0.398870  0.246679  1
  Sn  Sn11  1  0.601130  0.000000  0.246679  1
  Sn  Sn12  1  0.000000  0.601130  0.246679  1
  Sn  Sn13  1  0.601130  0.601130  0.753321  1
  Sn  Sn14  1  0.398870  0.000000  0.753321  1
  Sn  Sn15  1  0.000000  0.398870  0.753321  1
  C  C16  1  0.000000  0.000000  0.500000  1
