# generated using pymatgen
data_Hf4Ti2CrSi4Tc
_symmetry_space_group_name_H-M   'P 1'
_cell_length_a   3.53396700
_cell_length_b   6.83503120
_cell_length_c   8.14311152
_cell_angle_alpha   90.19448748
_cell_angle_beta   90.00000000
_cell_angle_gamma   90.00000000
_symmetry_Int_Tables_number   1
_chemical_formula_structural   Hf4Ti2CrSi4Tc
_chemical_formula_sum   'Hf4 Ti2 Cr1 Si4 Tc1'
_cell_volume   196.69389102
_cell_formula_units_Z   1
loop_
 _symmetry_equiv_pos_site_id
 _symmetry_equiv_pos_as_xyz
  1  'x, y, z'
loop_
 _atom_site_type_symbol
 _atom_site_label
 _atom_site_symmetry_multiplicity
 _atom_site_fract_x
 _atom_site_fract_y
 _atom_site_fract_z
 _atom_site_occupancy
  Hf  Hf0  1  0.750000  0.458701  0.166549  1
  Hf  Hf1  1  0.750000  0.957303  0.331206  1
  Hf  Hf2  1  0.250000  0.549470  0.836629  1
  Hf  Hf3  1  0.250000  0.046589  0.666939  1
  Ti  Ti4  1  0.250000  0.627223  0.440897  1
  Ti  Ti5  1  0.250000  0.122052  0.058582  1
  Cr  Cr6  1  0.750000  0.870002  0.938967  1
  Si  Si7  1  0.750000  0.243077  0.860946  1
  Si  Si8  1  0.750000  0.745566  0.644837  1
  Si  Si9  1  0.250000  0.756580  0.130924  1
  Si  Si10  1  0.250000  0.255109  0.362589  1
  Tc  Tc11  1  0.750000  0.368327  0.560932  1
