# generated using pymatgen
data_DyTm5(Sc2Pb3)2
_symmetry_space_group_name_H-M   'P 1'
_cell_length_a   6.32896500
_cell_length_b   8.83040874
_cell_length_c   8.83851402
_cell_angle_alpha   119.96966942
_cell_angle_beta   89.99969713
_cell_angle_gamma   90.00060278
_symmetry_Int_Tables_number   1
_chemical_formula_structural   DyTm5(Sc2Pb3)2
_chemical_formula_sum   'Dy1 Tm5 Sc4 Pb6'
_cell_volume   427.91355123
_cell_formula_units_Z   1
loop_
 _symmetry_equiv_pos_site_id
 _symmetry_equiv_pos_as_xyz
  1  'x, y, z'
loop_
 _atom_site_type_symbol
 _atom_site_label
 _atom_site_symmetry_multiplicity
 _atom_site_fract_x
 _atom_site_fract_y
 _atom_site_fract_z
 _atom_site_occupancy
  Dy  Dy0  1  0.750012  0.237905  0.000000  1
  Tm  Tm1  1  0.750007  0.761706  0.761918  1
  Tm  Tm2  1  0.750007  0.999788  0.238082  1
  Tm  Tm3  1  0.249991  0.762267  0.000000  1
  Tm  Tm4  1  0.249985  0.238079  0.238250  1
  Tm  Tm5  1  0.249985  0.999829  0.761750  1
  Sc  Sc6  1  0.499947  0.333380  0.666665  1
  Sc  Sc7  1  0.499947  0.666715  0.333335  1
  Sc  Sc8  1  0.000053  0.666727  0.333335  1
  Sc  Sc9  1  0.000053  0.333391  0.666665  1
  Pb  Pb10  1  0.750022  0.602398  0.000000  1
  Pb  Pb11  1  0.750025  0.398384  0.398959  1
  Pb  Pb12  1  0.750025  0.999426  0.601041  1
  Pb  Pb13  1  0.249976  0.398125  0.000000  1
  Pb  Pb14  1  0.249983  0.601894  0.601908  1
  Pb  Pb15  1  0.249983  0.999986  0.398092  1
