# generated using pymatgen
data_Tb3Dy(TmPt)16
_symmetry_space_group_name_H-M   'P 1'
_cell_length_a   7.40967001
_cell_length_b   7.49640261
_cell_length_c   14.60253000
_cell_angle_alpha   89.99612495
_cell_angle_beta   90.00332500
_cell_angle_gamma   90.02284546
_symmetry_Int_Tables_number   1
_chemical_formula_structural   Tb3Dy(TmPt)16
_chemical_formula_sum   'Tb3 Dy1 Tm16 Pt16'
_cell_volume   811.11016015
_cell_formula_units_Z   1
loop_
 _symmetry_equiv_pos_site_id
 _symmetry_equiv_pos_as_xyz
  1  'x, y, z'
loop_
 _atom_site_type_symbol
 _atom_site_label
 _atom_site_symmetry_multiplicity
 _atom_site_fract_x
 _atom_site_fract_y
 _atom_site_fract_z
 _atom_site_occupancy
  Tb  Tb0  1  0.499309  0.321139  0.407723  1
  Tb  Tb1  1  0.999306  0.178852  0.092244  1
  Tb  Tb2  1  0.500650  0.678837  0.907689  1
  Dy  Dy3  1  0.001058  0.820812  0.592343  1
  Tm  Tm4  1  0.656850  0.167064  0.622768  1
  Tm  Tm5  1  0.156483  0.332690  0.877139  1
  Tm  Tm6  1  0.343473  0.832718  0.122823  1
  Tm  Tm7  1  0.843728  0.667451  0.377261  1
  Tm  Tm8  1  0.343685  0.832236  0.377725  1
  Tm  Tm9  1  0.843781  0.667864  0.122291  1
  Tm  Tm10  1  0.656208  0.167862  0.877687  1
  Tm  Tm11  1  0.156138  0.332108  0.622255  1
  Tm  Tm12  1  0.501852  0.680476  0.593094  1
  Tm  Tm13  1  0.001744  0.819625  0.906911  1
  Tm  Tm14  1  0.498146  0.319701  0.093134  1
  Tm  Tm15  1  0.998266  0.180068  0.406976  1
  Tm  Tm16  1  0.819327  0.510621  0.749834  1
  Tm  Tm17  1  0.319176  0.989447  0.749946  1
  Tm  Tm18  1  0.180715  0.489470  0.249931  1
  Tm  Tm19  1  0.680686  0.010491  0.250075  1
  Pt  Pt20  1  0.684704  0.966155  0.458543  1
  Pt  Pt21  1  0.184624  0.533572  0.041638  1
  Pt  Pt22  1  0.315387  0.033649  0.958262  1
  Pt  Pt23  1  0.815584  0.467044  0.541992  1
  Pt  Pt24  1  0.316947  0.032672  0.541904  1
  Pt  Pt25  1  0.817721  0.466883  0.958242  1
  Pt  Pt26  1  0.682275  0.966833  0.041650  1
  Pt  Pt27  1  0.182290  0.533487  0.458455  1
  Pt  Pt28  1  0.453796  0.386126  0.749473  1
  Pt  Pt29  1  0.953968  0.113717  0.750450  1
  Pt  Pt30  1  0.546142  0.614033  0.249441  1
  Pt  Pt31  1  0.046077  0.886001  0.250490  1
  Pt  Pt32  1  0.682390  0.856570  0.749366  1
  Pt  Pt33  1  0.181911  0.643680  0.750268  1
  Pt  Pt34  1  0.317813  0.143462  0.249444  1
  Pt  Pt35  1  0.817792  0.356582  0.250528  1
