# generated using pymatgen
data_Tb2Nd4Zn4Cu2Pd10Rh
_symmetry_space_group_name_H-M   'P 1'
_cell_length_a   8.29902719
_cell_length_b   8.21956002
_cell_length_c   8.36664146
_cell_angle_alpha   109.20169131
_cell_angle_beta   109.95005481
_cell_angle_gamma   109.23390231
_symmetry_Int_Tables_number   1
_chemical_formula_structural   Tb2Nd4Zn4Cu2Pd10Rh
_chemical_formula_sum   'Tb2 Nd4 Zn4 Cu2 Pd10 Rh1'
_cell_volume   439.47814586
_cell_formula_units_Z   1
loop_
 _symmetry_equiv_pos_site_id
 _symmetry_equiv_pos_as_xyz
  1  'x, y, z'
loop_
 _atom_site_type_symbol
 _atom_site_label
 _atom_site_symmetry_multiplicity
 _atom_site_fract_x
 _atom_site_fract_y
 _atom_site_fract_z
 _atom_site_occupancy
  Tb  Tb0  1  0.703872  0.700559  0.000202  1
  Tb  Tb1  1  0.296128  0.996687  0.296330  1
  Nd  Nd2  1  0.000000  0.298316  0.293167  1
  Nd  Nd3  1  0.297075  0.295145  0.002371  1
  Nd  Nd4  1  0.702925  0.998071  0.705297  1
  Nd  Nd5  1  0.000000  0.703938  0.701499  1
  Zn  Zn6  1  0.000000  0.002198  0.494927  1
  Zn  Zn7  1  0.000000  0.502362  0.996472  1
  Zn  Zn8  1  0.501008  0.999007  0.998548  1
  Zn  Zn9  1  0.498992  0.497999  0.497540  1
  Cu  Cu10  1  0.329803  0.330094  0.660333  1
  Cu  Cu11  1  0.670197  0.000291  0.330531  1
  Pd  Pd12  1  0.000000  0.674286  0.328060  1
  Pd  Pd13  1  0.668524  0.336347  0.004617  1
  Pd  Pd14  1  0.331476  0.667822  0.336093  1
  Pd  Pd15  1  0.000000  0.328139  0.662769  1
  Pd  Pd16  1  0.343141  0.676764  0.012013  1
  Pd  Pd17  1  0.333546  0.007325  0.666087  1
  Pd  Pd18  1  0.659349  0.321047  0.332875  1
  Pd  Pd19  1  0.666454  0.673778  0.332543  1
  Pd  Pd20  1  0.656859  0.333624  0.668872  1
  Pd  Pd21  1  0.340651  0.661697  0.673526  1
  Rh  Rh22  1  0.000000  0.994504  0.005325  1
