# generated using pymatgen
data_Yb9Er2TmRu4
_symmetry_space_group_name_H-M   'P 1'
_cell_length_a   6.22111594
_cell_length_b   7.53850861
_cell_length_c   9.16871429
_cell_angle_alpha   89.66132042
_cell_angle_beta   90.64599245
_cell_angle_gamma   89.50049716
_symmetry_Int_Tables_number   1
_chemical_formula_structural   Yb9Er2TmRu4
_chemical_formula_sum   'Yb9 Er2 Tm1 Ru4'
_cell_volume   429.94234271
_cell_formula_units_Z   1
loop_
 _symmetry_equiv_pos_site_id
 _symmetry_equiv_pos_as_xyz
  1  'x, y, z'
loop_
 _atom_site_type_symbol
 _atom_site_label
 _atom_site_symmetry_multiplicity
 _atom_site_fract_x
 _atom_site_fract_y
 _atom_site_fract_z
 _atom_site_occupancy
  Yb  Yb0  1  0.631990  0.036389  0.255892  1
  Yb  Yb1  1  0.368220  0.961496  0.745494  1
  Yb  Yb2  1  0.128100  0.461021  0.743628  1
  Yb  Yb3  1  0.869972  0.539382  0.255785  1
  Yb  Yb4  1  0.162142  0.168692  0.068007  1
  Yb  Yb5  1  0.843208  0.835090  0.928284  1
  Yb  Yb6  1  0.661254  0.332860  0.927788  1
  Yb  Yb7  1  0.844149  0.828109  0.562561  1
  Yb  Yb8  1  0.344010  0.665266  0.069439  1
  Er  Er9  1  0.150361  0.167865  0.437360  1
  Er  Er10  1  0.344460  0.669673  0.438590  1
  Tm  Tm11  1  0.649274  0.330010  0.564266  1
  Ru  Ru12  1  0.446506  0.377716  0.276387  1
  Ru  Ru13  1  0.540824  0.616950  0.734006  1
  Ru  Ru14  1  0.949458  0.129236  0.732709  1
  Ru  Ru15  1  0.066071  0.880246  0.259804  1
