# generated using pymatgen
data_Er2Al9OsRh2
_symmetry_space_group_name_H-M   'P 1'
_cell_length_a   7.50668004
_cell_length_b   7.50667982
_cell_length_c   9.49563800
_cell_angle_alpha   90.00000000
_cell_angle_beta   90.00000000
_cell_angle_gamma   118.69266931
_symmetry_Int_Tables_number   1
_chemical_formula_structural   Er2Al9OsRh2
_chemical_formula_sum   'Er4 Al18 Os2 Rh4'
_cell_volume   469.37757034
_cell_formula_units_Z   2
loop_
 _symmetry_equiv_pos_site_id
 _symmetry_equiv_pos_as_xyz
  1  'x, y, z'
loop_
 _atom_site_type_symbol
 _atom_site_label
 _atom_site_symmetry_multiplicity
 _atom_site_fract_x
 _atom_site_fract_y
 _atom_site_fract_z
 _atom_site_occupancy
  Er  Er0  1  0.993648  0.676584  0.750000  1
  Er  Er1  1  0.006352  0.323416  0.250000  1
  Er  Er2  1  0.676584  0.993648  0.750000  1
  Er  Er3  1  0.323416  0.006352  0.250000  1
  Al  Al4  1  0.131410  0.131410  0.750000  1
  Al  Al5  1  0.868590  0.868590  0.250000  1
  Al  Al6  1  0.002703  0.336802  0.574053  1
  Al  Al7  1  0.997297  0.663198  0.425947  1
  Al  Al8  1  0.997297  0.663198  0.074053  1
  Al  Al9  1  0.336802  0.002703  0.925947  1
  Al  Al10  1  0.002703  0.336802  0.925947  1
  Al  Al11  1  0.663198  0.997297  0.074053  1
  Al  Al12  1  0.663198  0.997297  0.425947  1
  Al  Al13  1  0.336802  0.002703  0.574053  1
  Al  Al14  1  0.332319  0.332319  0.049958  1
  Al  Al15  1  0.667681  0.667681  0.950042  1
  Al  Al16  1  0.667681  0.667681  0.549958  1
  Al  Al17  1  0.332319  0.332319  0.450042  1
  Al  Al18  1  0.339830  0.552180  0.750000  1
  Al  Al19  1  0.660170  0.447820  0.250000  1
  Al  Al20  1  0.552180  0.339830  0.750000  1
  Al  Al21  1  0.447820  0.660170  0.250000  1
  Os  Os22  1  0.000000  0.000000  0.500000  1
  Os  Os23  1  0.000000  0.000000  0.000000  1
  Rh  Rh24  1  0.672169  0.327831  0.500000  1
  Rh  Rh25  1  0.327831  0.672169  0.500000  1
  Rh  Rh26  1  0.327831  0.672169  0.000000  1
  Rh  Rh27  1  0.672169  0.327831  0.000000  1
