# generated using pymatgen
data_La5Al2Ru2Rh
_symmetry_space_group_name_H-M   'P 1'
_cell_length_a   8.65614168
_cell_length_b   8.65614074
_cell_length_c   8.65614115
_cell_angle_alpha   109.39898961
_cell_angle_beta   109.60778913
_cell_angle_gamma   109.40697400
_symmetry_Int_Tables_number   1
_chemical_formula_structural   La5Al2Ru2Rh
_chemical_formula_sum   'La10 Al4 Ru4 Rh2'
_cell_volume   499.28581453
_cell_formula_units_Z   2
loop_
 _symmetry_equiv_pos_site_id
 _symmetry_equiv_pos_as_xyz
  1  'x, y, z'
loop_
 _atom_site_type_symbol
 _atom_site_label
 _atom_site_symmetry_multiplicity
 _atom_site_fract_x
 _atom_site_fract_y
 _atom_site_fract_z
 _atom_site_occupancy
  La  La0  1  0.250000  0.690460  0.440461  1
  La  La1  1  0.750000  0.809540  0.059540  1
  La  La2  1  0.439969  0.250000  0.689968  1
  La  La3  1  0.691657  0.441658  0.250000  1
  La  La4  1  0.060032  0.750000  0.810032  1
  La  La5  1  0.808343  0.058343  0.750000  1
  La  La6  1  0.209113  0.210753  0.212581  1
  La  La7  1  0.498173  0.996532  0.287419  1
  La  La8  1  0.290887  0.503469  0.001640  1
  La  La9  1  0.001828  0.289247  0.498361  1
  Al  Al10  1  0.500991  0.999657  0.912090  1
  Al  Al11  1  0.587567  0.588901  0.587910  1
  Al  Al12  1  0.912433  0.500344  0.001334  1
  Al  Al13  1  0.999010  0.911099  0.498667  1
  Ru  Ru14  1  0.867205  0.250001  0.117205  1
  Ru  Ru15  1  0.119636  0.869636  0.250001  1
  Ru  Ru16  1  0.632794  0.750000  0.382794  1
  Ru  Ru17  1  0.380363  0.630363  0.750000  1
  Rh  Rh18  1  0.250001  0.116575  0.866575  1
  Rh  Rh19  1  0.750000  0.383424  0.633424  1
