# generated using pymatgen
data_Er5Pd9
_symmetry_space_group_name_H-M   'P 1'
_cell_length_a   9.72246400
_cell_length_b   9.72246400
_cell_length_c   5.74368600
_cell_angle_alpha   90.00000000
_cell_angle_beta   90.00000000
_cell_angle_gamma   90.00000000
_symmetry_Int_Tables_number   1
_chemical_formula_structural   Er5Pd9
_chemical_formula_sum   'Er10 Pd18'
_cell_volume   542.92942173
_cell_formula_units_Z   2
loop_
 _symmetry_equiv_pos_site_id
 _symmetry_equiv_pos_as_xyz
  1  'x, y, z'
loop_
 _atom_site_type_symbol
 _atom_site_label
 _atom_site_symmetry_multiplicity
 _atom_site_fract_x
 _atom_site_fract_y
 _atom_site_fract_z
 _atom_site_occupancy
  Er  Er0  1  0.453088  0.808284  0.000000  1
  Er  Er1  1  0.546912  0.191716  0.000000  1
  Er  Er2  1  0.191716  0.546912  0.000000  1
  Er  Er3  1  0.808284  0.453088  0.000000  1
  Er  Er4  1  0.500000  0.500000  0.500000  1
  Er  Er5  1  0.308284  0.046912  0.500000  1
  Er  Er6  1  0.691716  0.953088  0.500000  1
  Er  Er7  1  0.953088  0.691716  0.500000  1
  Er  Er8  1  0.046912  0.308284  0.500000  1
  Er  Er9  1  0.000000  0.000000  0.000000  1
  Pd  Pd10  1  0.191457  0.808543  0.250116  1
  Pd  Pd11  1  0.808543  0.191457  0.749884  1
  Pd  Pd12  1  0.808543  0.191457  0.250116  1
  Pd  Pd13  1  0.191457  0.808543  0.749884  1
  Pd  Pd14  1  0.440789  0.781645  0.500000  1
  Pd  Pd15  1  0.559211  0.218355  0.500000  1
  Pd  Pd16  1  0.218355  0.559211  0.500000  1
  Pd  Pd17  1  0.781645  0.440789  0.500000  1
  Pd  Pd18  1  0.308543  0.308543  0.249884  1
  Pd  Pd19  1  0.691457  0.691457  0.750116  1
  Pd  Pd20  1  0.691457  0.691457  0.249884  1
  Pd  Pd21  1  0.308543  0.308543  0.750116  1
  Pd  Pd22  1  0.281645  0.059211  0.000000  1
  Pd  Pd23  1  0.718355  0.940789  0.000000  1
  Pd  Pd24  1  0.940789  0.718355  0.000000  1
  Pd  Pd25  1  0.059211  0.281645  0.000000  1
  Pd  Pd26  1  0.000000  0.000000  0.500000  1
  Pd  Pd27  1  0.500000  0.500000  0.000000  1
