# generated using pymatgen
data_Cs5(CrSe3)2
_symmetry_space_group_name_H-M   'P 1'
_cell_length_a   8.20743879
_cell_length_b   8.91468216
_cell_length_c   18.42265239
_cell_angle_alpha   89.99053180
_cell_angle_beta   100.08849330
_cell_angle_gamma   122.89290831
_symmetry_Int_Tables_number   1
_chemical_formula_structural   Cs5(CrSe3)2
_chemical_formula_sum   'Cs10 Cr4 Se12'
_cell_volume   1106.95871077
_cell_formula_units_Z   2
loop_
 _symmetry_equiv_pos_site_id
 _symmetry_equiv_pos_as_xyz
  1  'x, y, z'
loop_
 _atom_site_type_symbol
 _atom_site_label
 _atom_site_symmetry_multiplicity
 _atom_site_fract_x
 _atom_site_fract_y
 _atom_site_fract_z
 _atom_site_occupancy
  Cs  Cs0  1  0.124929  0.802279  0.997218  1
  Cs  Cs1  1  0.875028  0.677211  0.502739  1
  Cs  Cs2  1  0.875071  0.197721  0.002782  1
  Cs  Cs3  1  0.124972  0.322789  0.497261  1
  Cs  Cs4  1  0.313940  0.075371  0.720801  1
  Cs  Cs5  1  0.686140  0.761355  0.779266  1
  Cs  Cs6  1  0.686060  0.924629  0.279199  1
  Cs  Cs7  1  0.313860  0.238645  0.220734  1
  Cs  Cs8  1  0.000026  0.384245  0.750015  1
  Cs  Cs9  1  0.999974  0.615755  0.249985  1
  Cr  Cr10  1  0.542363  0.919053  0.569262  1
  Cr  Cr11  1  0.457597  0.376555  0.930672  1
  Cr  Cr12  1  0.457637  0.080947  0.430738  1
  Cr  Cr13  1  0.542403  0.623445  0.069328  1
  Se  Se14  1  0.859400  0.995485  0.624166  1
  Se  Se15  1  0.140623  0.136014  0.875741  1
  Se  Se16  1  0.140600  0.004515  0.375834  1
  Se  Se17  1  0.859377  0.863986  0.124259  1
  Se  Se18  1  0.305356  0.712361  0.633472  1
  Se  Se19  1  0.694847  0.406895  0.866563  1
  Se  Se20  1  0.694644  0.287639  0.366528  1
  Se  Se21  1  0.305153  0.593105  0.133437  1
  Se  Se22  1  0.548906  0.193652  0.560660  1
  Se  Se23  1  0.451524  0.645094  0.939440  1
  Se  Se24  1  0.451094  0.806348  0.439340  1
  Se  Se25  1  0.548476  0.354906  0.060560  1
