# generated using pymatgen
data_CeLu3(TiIr)4
_symmetry_space_group_name_H-M   'P 1'
_cell_length_a   6.88496488
_cell_length_b   4.35615600
_cell_length_c   8.01043306
_cell_angle_alpha   90.00000000
_cell_angle_beta   90.88914256
_cell_angle_gamma   90.00000000
_symmetry_Int_Tables_number   1
_chemical_formula_structural   CeLu3(TiIr)4
_chemical_formula_sum   'Ce1 Lu3 Ti4 Ir4'
_cell_volume   240.21982857
_cell_formula_units_Z   1
loop_
 _symmetry_equiv_pos_site_id
 _symmetry_equiv_pos_as_xyz
  1  'x, y, z'
loop_
 _atom_site_type_symbol
 _atom_site_label
 _atom_site_symmetry_multiplicity
 _atom_site_fract_x
 _atom_site_fract_y
 _atom_site_fract_z
 _atom_site_occupancy
  Ce  Ce0  1  0.520423  0.750000  0.681009  1
  Lu  Lu1  1  0.977787  0.250000  0.178965  1
  Lu  Lu2  1  0.478374  0.250000  0.314312  1
  Lu  Lu3  1  0.018916  0.750000  0.820501  1
  Ti  Ti4  1  0.867671  0.250000  0.564485  1
  Ti  Ti5  1  0.354347  0.250000  0.939936  1
  Ti  Ti6  1  0.141682  0.750000  0.429341  1
  Ti  Ti7  1  0.639504  0.750000  0.072494  1
  Ir  Ir8  1  0.719827  0.250000  0.898460  1
  Ir  Ir9  1  0.226615  0.250000  0.597767  1
  Ir  Ir10  1  0.275069  0.750000  0.103770  1
  Ir  Ir11  1  0.779786  0.750000  0.398960  1
