# generated using pymatgen
data_Dy3Hf(Al3Ir)6
_symmetry_space_group_name_H-M   'P 1'
_cell_length_a   7.53653015
_cell_length_b   7.52745469
_cell_length_c   9.40941600
_cell_angle_alpha   90.00000000
_cell_angle_beta   90.00000000
_cell_angle_gamma   119.58249668
_symmetry_Int_Tables_number   1
_chemical_formula_structural   Dy3Hf(Al3Ir)6
_chemical_formula_sum   'Dy3 Hf1 Al18 Ir6'
_cell_volume   464.22086440
_cell_formula_units_Z   1
loop_
 _symmetry_equiv_pos_site_id
 _symmetry_equiv_pos_as_xyz
  1  'x, y, z'
loop_
 _atom_site_type_symbol
 _atom_site_label
 _atom_site_symmetry_multiplicity
 _atom_site_fract_x
 _atom_site_fract_y
 _atom_site_fract_z
 _atom_site_occupancy
  Dy  Dy0  1  0.005765  0.327645  0.250000  1
  Dy  Dy1  1  0.671163  0.995751  0.750000  1
  Dy  Dy2  1  0.329197  0.006546  0.250000  1
  Hf  Hf3  1  0.997562  0.673143  0.750000  1
  Al  Al4  1  0.126216  0.123504  0.750000  1
  Al  Al5  1  0.870824  0.869359  0.250000  1
  Al  Al6  1  0.000275  0.337894  0.579652  1
  Al  Al7  1  0.999178  0.664941  0.429270  1
  Al  Al8  1  0.999178  0.664941  0.070730  1
  Al  Al9  1  0.332557  0.998240  0.920259  1
  Al  Al10  1  0.000275  0.337894  0.920348  1
  Al  Al11  1  0.664635  0.998163  0.074568  1
  Al  Al12  1  0.664635  0.998163  0.425432  1
  Al  Al13  1  0.332557  0.998240  0.579741  1
  Al  Al14  1  0.333653  0.333690  0.050694  1
  Al  Al15  1  0.668752  0.666737  0.942885  1
  Al  Al16  1  0.668752  0.666737  0.557115  1
  Al  Al17  1  0.333653  0.333690  0.449306  1
  Al  Al18  1  0.335740  0.549000  0.750000  1
  Al  Al19  1  0.661083  0.452618  0.250000  1
  Al  Al20  1  0.555032  0.344966  0.750000  1
  Al  Al21  1  0.451076  0.659693  0.250000  1
  Ir  Ir22  1  0.672548  0.328242  0.501396  1
  Ir  Ir23  1  0.327478  0.672241  0.502204  1
  Ir  Ir24  1  0.327478  0.672241  0.997796  1
  Ir  Ir25  1  0.672548  0.328242  0.998604  1
  Ir  Ir26  1  0.999095  0.998740  0.501652  1
  Ir  Ir27  1  0.999095  0.998740  0.998348  1
