# generated using pymatgen
data_CsV(NiSe2)2
_symmetry_space_group_name_H-M   'P 1'
_cell_length_a   10.31162028
_cell_length_b   10.31161970
_cell_length_c   7.54458200
_cell_angle_alpha   90.00000000
_cell_angle_beta   90.00000000
_cell_angle_gamma   148.81539112
_symmetry_Int_Tables_number   1
_chemical_formula_structural   CsV(NiSe2)2
_chemical_formula_sum   'Cs2 V2 Ni4 Se8'
_cell_volume   415.38297781
_cell_formula_units_Z   2
loop_
 _symmetry_equiv_pos_site_id
 _symmetry_equiv_pos_as_xyz
  1  'x, y, z'
loop_
 _atom_site_type_symbol
 _atom_site_label
 _atom_site_symmetry_multiplicity
 _atom_site_fract_x
 _atom_site_fract_y
 _atom_site_fract_z
 _atom_site_occupancy
  Cs  Cs0  1  0.184660  0.814583  0.750000  1
  Cs  Cs1  1  0.814583  0.184660  0.250000  1
  V  V2  1  0.645122  0.846664  0.750000  1
  V  V3  1  0.846664  0.645122  0.250000  1
  Ni  Ni4  1  0.741148  0.741148  0.500000  1
  Ni  Ni5  1  0.741148  0.741148  0.000000  1
  Ni  Ni6  1  0.348838  0.147917  0.250000  1
  Ni  Ni7  1  0.147917  0.348838  0.750000  1
  Se  Se8  1  0.595966  0.403069  0.000581  1
  Se  Se9  1  0.403069  0.595967  0.500581  1
  Se  Se10  1  0.989684  0.999071  0.750000  1
  Se  Se11  1  0.403069  0.595967  0.999419  1
  Se  Se12  1  0.187860  0.798593  0.250000  1
  Se  Se13  1  0.798593  0.187860  0.750000  1
  Se  Se14  1  0.999071  0.989684  0.250000  1
  Se  Se15  1  0.595966  0.403069  0.499419  1
