# generated using pymatgen
data_Tb3(FeCo3)2
_symmetry_space_group_name_H-M   'P 1'
_cell_length_a   7.61426761
_cell_length_b   7.61658813
_cell_length_c   7.62317101
_cell_angle_alpha   109.49421284
_cell_angle_beta   109.49217801
_cell_angle_gamma   109.45713142
_symmetry_Int_Tables_number   1
_chemical_formula_structural   Tb3(FeCo3)2
_chemical_formula_sum   'Tb6 Fe4 Co12'
_cell_volume   340.20617180
_cell_formula_units_Z   2
loop_
 _symmetry_equiv_pos_site_id
 _symmetry_equiv_pos_as_xyz
  1  'x, y, z'
loop_
 _atom_site_type_symbol
 _atom_site_label
 _atom_site_symmetry_multiplicity
 _atom_site_fract_x
 _atom_site_fract_y
 _atom_site_fract_z
 _atom_site_occupancy
  Tb  Tb0  1  0.716546  0.716577  0.000149  1
  Tb  Tb1  1  0.716546  0.999969  0.716397  1
  Tb  Tb2  1  0.283454  0.283423  0.999851  1
  Tb  Tb3  1  0.000000  0.716632  0.716453  1
  Tb  Tb4  1  0.283454  0.000031  0.283603  1
  Tb  Tb5  1  0.000000  0.283368  0.283547  1
  Fe  Fe6  1  0.500000  0.500000  0.500000  1
  Fe  Fe7  1  0.000000  0.500000  0.000000  1
  Fe  Fe8  1  0.500000  0.000000  0.000000  1
  Fe  Fe9  1  0.000000  0.000000  0.500000  1
  Co  Co10  1  0.663918  0.663929  0.327568  1
  Co  Co11  1  0.663775  0.327512  0.663786  1
  Co  Co12  1  0.336225  0.672488  0.336214  1
  Co  Co13  1  0.336082  0.000011  0.663652  1
  Co  Co14  1  0.672505  0.336253  0.336253  1
  Co  Co15  1  0.336225  0.663738  0.000011  1
  Co  Co16  1  0.000000  0.336075  0.663695  1
  Co  Co17  1  0.663918  0.999989  0.336348  1
  Co  Co18  1  0.327495  0.663747  0.663747  1
  Co  Co19  1  0.336082  0.336071  0.672432  1
  Co  Co20  1  0.000000  0.663925  0.336305  1
  Co  Co21  1  0.663775  0.336262  0.999989  1
