# generated using pymatgen
data_Nd17Tm3(SnSb)8
_symmetry_space_group_name_H-M   'P 1'
_cell_length_a   8.27599673
_cell_length_b   8.35533848
_cell_length_c   15.82446000
_cell_angle_alpha   90.00000000
_cell_angle_beta   90.00000000
_cell_angle_gamma   89.85484751
_symmetry_Int_Tables_number   1
_chemical_formula_structural   Nd17Tm3(SnSb)8
_chemical_formula_sum   'Nd17 Tm3 Sn8 Sb8'
_cell_volume   1094.23817962
_cell_formula_units_Z   1
loop_
 _symmetry_equiv_pos_site_id
 _symmetry_equiv_pos_as_xyz
  1  'x, y, z'
loop_
 _atom_site_type_symbol
 _atom_site_label
 _atom_site_symmetry_multiplicity
 _atom_site_fract_x
 _atom_site_fract_y
 _atom_site_fract_z
 _atom_site_occupancy
  Nd  Nd0  1  0.037886  0.175692  0.396763  1
  Nd  Nd1  1  0.378049  0.839417  0.119565  1
  Nd  Nd2  1  0.120957  0.337936  0.619418  1
  Nd  Nd3  1  0.463203  0.675805  0.896883  1
  Nd  Nd4  1  0.878589  0.661766  0.121157  1
  Nd  Nd5  1  0.120957  0.337936  0.880582  1
  Nd  Nd6  1  0.463203  0.675805  0.603117  1
  Nd  Nd7  1  0.620638  0.161473  0.618721  1
  Nd  Nd8  1  0.794518  0.503368  0.750000  1
  Nd  Nd9  1  0.878589  0.661766  0.378843  1
  Nd  Nd10  1  0.037886  0.175692  0.103237  1
  Nd  Nd11  1  0.962424  0.822791  0.896781  1
  Nd  Nd12  1  0.620638  0.161473  0.881279  1
  Nd  Nd13  1  0.538469  0.325222  0.104503  1
  Nd  Nd14  1  0.378049  0.839417  0.380435  1
  Nd  Nd15  1  0.962424  0.822791  0.603219  1
  Nd  Nd16  1  0.538469  0.325222  0.395497  1
  Tm  Tm17  1  0.207626  0.497575  0.250000  1
  Tm  Tm18  1  0.707209  0.002829  0.250000  1
  Tm  Tm19  1  0.292943  0.997357  0.750000  1
  Sn  Sn20  1  0.657468  0.861052  0.750000  1
  Sn  Sn21  1  0.842124  0.354470  0.250000  1
  Sn  Sn22  1  0.571148  0.622348  0.250000  1
  Sn  Sn23  1  0.424014  0.376943  0.750000  1
  Sn  Sn24  1  0.164419  0.645350  0.750000  1
  Sn  Sn25  1  0.927905  0.118698  0.750000  1
  Sn  Sn26  1  0.341152  0.144948  0.250000  1
  Sn  Sn27  1  0.072561  0.879881  0.250000  1
  Sb  Sb28  1  0.777029  0.473901  0.544959  1
  Sb  Sb29  1  0.722067  0.976097  0.450288  1
  Sb  Sb30  1  0.221860  0.524423  0.450752  1
  Sb  Sb31  1  0.277286  0.023070  0.950552  1
  Sb  Sb32  1  0.777029  0.473901  0.955041  1
  Sb  Sb33  1  0.221860  0.524423  0.049248  1
  Sb  Sb34  1  0.277286  0.023070  0.549448  1
  Sb  Sb35  1  0.722067  0.976097  0.049712  1
