# generated using pymatgen
data_Eu6GeSb2
_symmetry_space_group_name_H-M   'P 1'
_cell_length_a   8.47801700
_cell_length_b   8.47807943
_cell_length_c   4.65285900
_cell_angle_alpha   90.00000000
_cell_angle_beta   90.00000000
_cell_angle_gamma   120.00024551
_symmetry_Int_Tables_number   1
_chemical_formula_structural   Eu6GeSb2
_chemical_formula_sum   'Eu6 Ge1 Sb2'
_cell_volume   289.62844561
_cell_formula_units_Z   1
loop_
 _symmetry_equiv_pos_site_id
 _symmetry_equiv_pos_as_xyz
  1  'x, y, z'
loop_
 _atom_site_type_symbol
 _atom_site_label
 _atom_site_symmetry_multiplicity
 _atom_site_fract_x
 _atom_site_fract_y
 _atom_site_fract_z
 _atom_site_occupancy
  Eu  Eu0  1  0.402814  0.000002  0.000000  1
  Eu  Eu1  1  0.000000  0.402808  0.000000  1
  Eu  Eu2  1  0.597186  0.597189  0.000000  1
  Eu  Eu3  1  0.748653  0.000000  0.499999  1
  Eu  Eu4  1  0.251348  0.251348  0.499999  1
  Eu  Eu5  1  0.000000  0.748654  0.499999  1
  Ge  Ge6  1  0.000000  0.000006  0.000000  1
  Sb  Sb7  1  0.666667  0.333331  0.499999  1
  Sb  Sb8  1  0.333333  0.666663  0.499999  1
