# generated using pymatgen
data_CaTbGa2(Co3B)2
_symmetry_space_group_name_H-M   'P 1'
_cell_length_a   5.18627000
_cell_length_b   5.18669833
_cell_length_c   6.68578500
_cell_angle_alpha   90.00000000
_cell_angle_beta   90.00000000
_cell_angle_gamma   119.99729376
_symmetry_Int_Tables_number   1
_chemical_formula_structural   CaTbGa2(Co3B)2
_chemical_formula_sum   'Ca1 Tb1 Ga2 Co6 B2'
_cell_volume   155.75463966
_cell_formula_units_Z   1
loop_
 _symmetry_equiv_pos_site_id
 _symmetry_equiv_pos_as_xyz
  1  'x, y, z'
loop_
 _atom_site_type_symbol
 _atom_site_label
 _atom_site_symmetry_multiplicity
 _atom_site_fract_x
 _atom_site_fract_y
 _atom_site_fract_z
 _atom_site_occupancy
  Ca  Ca0  1  0.999979  0.000000  0.000000  1
  Tb  Tb1  1  0.999990  0.000000  0.500000  1
  Ga  Ga2  1  0.333305  0.666653  0.000000  1
  Ga  Ga3  1  0.666652  0.333347  0.000000  1
  Co  Co4  1  0.499987  0.000000  0.296593  1
  Co  Co5  1  0.499985  0.500002  0.296630  1
  Co  Co6  1  0.999982  0.499998  0.296630  1
  Co  Co7  1  0.499987  0.000000  0.703407  1
  Co  Co8  1  0.499985  0.500002  0.703370  1
  Co  Co9  1  0.999982  0.499998  0.703370  1
  B  B10  1  0.333340  0.666718  0.500000  1
  B  B11  1  0.666623  0.333282  0.500000  1
