# generated using pymatgen
data_Zr5Tl2InGa
_symmetry_space_group_name_H-M   'P 1'
_cell_length_a   8.75657400
_cell_length_b   8.71417706
_cell_length_c   5.87426100
_cell_angle_alpha   90.00000000
_cell_angle_beta   90.00000000
_cell_angle_gamma   120.16107321
_symmetry_Int_Tables_number   1
_chemical_formula_structural   Zr5Tl2InGa
_chemical_formula_sum   'Zr10 Tl4 In2 Ga2'
_cell_volume   387.55851833
_cell_formula_units_Z   2
loop_
 _symmetry_equiv_pos_site_id
 _symmetry_equiv_pos_as_xyz
  1  'x, y, z'
loop_
 _atom_site_type_symbol
 _atom_site_label
 _atom_site_symmetry_multiplicity
 _atom_site_fract_x
 _atom_site_fract_y
 _atom_site_fract_z
 _atom_site_occupancy
  Zr  Zr0  1  0.000132  0.262339  0.250000  1
  Zr  Zr1  1  0.734382  0.000000  0.750000  1
  Zr  Zr2  1  0.737793  0.737661  0.250000  1
  Zr  Zr3  1  0.667437  0.334190  0.501131  1
  Zr  Zr4  1  0.998861  0.733374  0.750000  1
  Zr  Zr5  1  0.265486  0.266626  0.750000  1
  Zr  Zr6  1  0.333247  0.665810  0.998869  1
  Zr  Zr7  1  0.667437  0.334190  0.998869  1
  Zr  Zr8  1  0.333247  0.665810  0.501131  1
  Zr  Zr9  1  0.261208  0.000000  0.250000  1
  Tl  Tl10  1  0.613790  0.000000  0.250000  1
  Tl  Tl11  1  0.383852  0.000000  0.750000  1
  Tl  Tl12  1  0.386924  0.386716  0.250000  1
  Tl  Tl13  1  0.000209  0.613284  0.250000  1
  In  In14  1  0.000042  0.383046  0.750000  1
  In  In15  1  0.616995  0.616954  0.750000  1
  Ga  Ga16  1  0.999481  0.000000  0.995804  1
  Ga  Ga17  1  0.999481  0.000000  0.504196  1
