# generated using pymatgen
data_TbLu2Rh9
_symmetry_space_group_name_H-M   'P 1'
_cell_length_a   5.23575300
_cell_length_b   5.23575352
_cell_length_c   17.46031800
_cell_angle_alpha   90.00000000
_cell_angle_beta   90.00000000
_cell_angle_gamma   119.99999037
_symmetry_Int_Tables_number   1
_chemical_formula_structural   TbLu2Rh9
_chemical_formula_sum   'Tb2 Lu4 Rh18'
_cell_volume   414.51587429
_cell_formula_units_Z   2
loop_
 _symmetry_equiv_pos_site_id
 _symmetry_equiv_pos_as_xyz
  1  'x, y, z'
loop_
 _atom_site_type_symbol
 _atom_site_label
 _atom_site_symmetry_multiplicity
 _atom_site_fract_x
 _atom_site_fract_y
 _atom_site_fract_z
 _atom_site_occupancy
  Tb  Tb0  1  0.333333  0.666667  0.750000  1
  Tb  Tb1  1  0.666667  0.333333  0.250000  1
  Lu  Lu2  1  0.333333  0.666667  0.958802  1
  Lu  Lu3  1  0.666667  0.333333  0.041198  1
  Lu  Lu4  1  0.666667  0.333333  0.458802  1
  Lu  Lu5  1  0.333333  0.666667  0.541198  1
  Rh  Rh6  1  0.167646  0.832354  0.375566  1
  Rh  Rh7  1  0.167646  0.335293  0.375566  1
  Rh  Rh8  1  0.664707  0.832354  0.375566  1
  Rh  Rh9  1  0.832354  0.167646  0.624434  1
  Rh  Rh10  1  0.832354  0.664707  0.624434  1
  Rh  Rh11  1  0.335293  0.167646  0.624434  1
  Rh  Rh12  1  0.832354  0.167646  0.875566  1
  Rh  Rh13  1  0.832354  0.664707  0.875566  1
  Rh  Rh14  1  0.335293  0.167646  0.875566  1
  Rh  Rh15  1  0.167646  0.832354  0.124434  1
  Rh  Rh16  1  0.167646  0.335293  0.124434  1
  Rh  Rh17  1  0.664707  0.832354  0.124434  1
  Rh  Rh18  1  0.333333  0.666667  0.250000  1
  Rh  Rh19  1  0.666667  0.333333  0.750000  1
  Rh  Rh20  1  0.000000  0.000000  0.250000  1
  Rh  Rh21  1  0.000000  0.000000  0.750000  1
  Rh  Rh22  1  0.000000  0.000000  0.500000  1
  Rh  Rh23  1  0.000000  0.000000  0.000000  1
