# generated using pymatgen
data_Sc8Ti7Nb5Si15P
_symmetry_space_group_name_H-M   'P 1'
_cell_length_a   6.70774413
_cell_length_b   6.85012115
_cell_length_c   13.03856215
_cell_angle_alpha   90.04278785
_cell_angle_beta   90.07311370
_cell_angle_gamma   90.06243484
_symmetry_Int_Tables_number   1
_chemical_formula_structural   Sc8Ti7Nb5Si15P
_chemical_formula_sum   'Sc8 Ti7 Nb5 Si15 P1'
_cell_volume   599.10605471
_cell_formula_units_Z   1
loop_
 _symmetry_equiv_pos_site_id
 _symmetry_equiv_pos_as_xyz
  1  'x, y, z'
loop_
 _atom_site_type_symbol
 _atom_site_label
 _atom_site_symmetry_multiplicity
 _atom_site_fract_x
 _atom_site_fract_y
 _atom_site_fract_z
 _atom_site_occupancy
  Sc  Sc0  1  0.502370  0.676507  0.594780  1
  Sc  Sc1  1  0.002613  0.824833  0.903314  1
  Sc  Sc2  1  0.497826  0.324751  0.096949  1
  Sc  Sc3  1  0.996480  0.173725  0.404181  1
  Sc  Sc4  1  0.497782  0.322275  0.404166  1
  Sc  Sc5  1  0.997009  0.174894  0.097265  1
  Sc  Sc6  1  0.503329  0.673941  0.903676  1
  Sc  Sc7  1  0.000891  0.823833  0.596482  1
  Ti  Ti8  1  0.663500  0.172283  0.623501  1
  Ti  Ti9  1  0.166442  0.325237  0.874586  1
  Ti  Ti10  1  0.336517  0.824374  0.126439  1
  Ti  Ti11  1  0.831917  0.680060  0.375720  1
  Ti  Ti12  1  0.343366  0.827312  0.374682  1
  Ti  Ti13  1  0.836431  0.675133  0.126292  1
  Ti  Ti14  1  0.663012  0.175347  0.874027  1
  Nb  Nb15  1  0.163337  0.325006  0.624332  1
  Nb  Nb16  1  0.836901  0.493105  0.749558  1
  Nb  Nb17  1  0.336851  0.006279  0.749149  1
  Nb  Nb18  1  0.163682  0.506402  0.249237  1
  Nb  Nb19  1  0.663642  0.993358  0.252264  1
  Si  Si20  1  0.164702  0.534496  0.039059  1
  Si  Si21  1  0.335574  0.034469  0.961066  1
  Si  Si22  1  0.832570  0.467237  0.538438  1
  Si  Si23  1  0.327624  0.031155  0.538926  1
  Si  Si24  1  0.835744  0.465014  0.960690  1
  Si  Si25  1  0.664908  0.964761  0.039946  1
  Si  Si26  1  0.164710  0.537612  0.458135  1
  Si  Si27  1  0.462588  0.383289  0.750036  1
  Si  Si28  1  0.958033  0.116006  0.750953  1
  Si  Si29  1  0.539398  0.615295  0.250424  1
  Si  Si30  1  0.041574  0.881776  0.250554  1
  Si  Si31  1  0.705554  0.866022  0.749933  1
  Si  Si32  1  0.207148  0.634639  0.750545  1
  Si  Si33  1  0.293438  0.134238  0.250212  1
  Si  Si34  1  0.794581  0.367822  0.250681  1
  P  P35  1  0.667959  0.967514  0.459806  1
