# generated using pymatgen
data_Nd6Cd21Ag2Pb
_symmetry_space_group_name_H-M   'P 1'
_cell_length_a   10.04649776
_cell_length_b   10.04335600
_cell_length_c   10.04335500
_cell_angle_alpha   60.02068883
_cell_angle_beta   59.98965311
_cell_angle_gamma   59.98965094
_symmetry_Int_Tables_number   1
_chemical_formula_structural   Nd6Cd21Ag2Pb
_chemical_formula_sum   'Nd6 Cd21 Ag2 Pb1'
_cell_volume   716.56774691
_cell_formula_units_Z   1
loop_
 _symmetry_equiv_pos_site_id
 _symmetry_equiv_pos_as_xyz
  1  'x, y, z'
loop_
 _atom_site_type_symbol
 _atom_site_label
 _atom_site_symmetry_multiplicity
 _atom_site_fract_x
 _atom_site_fract_y
 _atom_site_fract_z
 _atom_site_occupancy
  Nd  Nd0  1  0.779381  0.779381  0.220619  1
  Nd  Nd1  1  0.220619  0.779381  0.220619  1
  Nd  Nd2  1  0.778175  0.221825  0.221825  1
  Nd  Nd3  1  0.220619  0.220619  0.779381  1
  Nd  Nd4  1  0.779381  0.220619  0.779381  1
  Nd  Nd5  1  0.221825  0.778175  0.778175  1
  Cd  Cd6  1  0.837948  0.832201  0.491903  1
  Cd  Cd7  1  0.837948  0.491903  0.832201  1
  Cd  Cd8  1  0.491903  0.837948  0.837948  1
  Cd  Cd9  1  0.832201  0.837948  0.837948  1
  Cd  Cd10  1  0.162052  0.167799  0.508097  1
  Cd  Cd11  1  0.162052  0.508097  0.167799  1
  Cd  Cd12  1  0.508097  0.162052  0.162052  1
  Cd  Cd13  1  0.167799  0.162052  0.162052  1
  Cd  Cd14  1  0.621256  0.628376  0.129113  1
  Cd  Cd15  1  0.621256  0.129113  0.628376  1
  Cd  Cd16  1  0.129113  0.621256  0.621256  1
  Cd  Cd17  1  0.628376  0.621256  0.621256  1
  Cd  Cd18  1  0.378744  0.371624  0.870887  1
  Cd  Cd19  1  0.378744  0.870887  0.371624  1
  Cd  Cd20  1  0.870887  0.378744  0.378744  1
  Cd  Cd21  1  0.371624  0.378744  0.378744  1
  Cd  Cd22  1  0.000000  0.000000  0.500000  1
  Cd  Cd23  1  0.500000  0.000000  0.500000  1
  Cd  Cd24  1  0.500000  0.500000  0.000000  1
  Cd  Cd25  1  0.000000  0.500000  0.000000  1
  Cd  Cd26  1  0.500000  0.500000  0.500000  1
  Ag  Ag27  1  0.000000  0.500000  0.500000  1
  Ag  Ag28  1  0.500000  0.000000  0.000000  1
  Pb  Pb29  1  0.000000  0.000000  0.000000  1
