# generated using pymatgen
data_Pr16CdCo2Hg3Pt2
_symmetry_space_group_name_H-M   'P 1'
_cell_length_a   9.94610964
_cell_length_b   9.96737758
_cell_length_c   9.97445800
_cell_angle_alpha   59.97649207
_cell_angle_beta   59.90566475
_cell_angle_gamma   60.26171752
_symmetry_Int_Tables_number   1
_chemical_formula_structural   Pr16CdCo2Hg3Pt2
_chemical_formula_sum   'Pr16 Cd1 Co2 Hg3 Pt2'
_cell_volume   699.95622414
_cell_formula_units_Z   1
loop_
 _symmetry_equiv_pos_site_id
 _symmetry_equiv_pos_as_xyz
  1  'x, y, z'
loop_
 _atom_site_type_symbol
 _atom_site_label
 _atom_site_symmetry_multiplicity
 _atom_site_fract_x
 _atom_site_fract_y
 _atom_site_fract_z
 _atom_site_occupancy
  Pr  Pr0  1  0.345884  0.345443  0.358611  1
  Pr  Pr1  1  0.345884  0.345443  0.950063  1
  Pr  Pr2  1  0.341022  0.956535  0.351222  1
  Pr  Pr3  1  0.954338  0.341833  0.351915  1
  Pr  Pr4  1  0.818565  0.190561  0.190693  1
  Pr  Pr5  1  0.189335  0.819384  0.801055  1
  Pr  Pr6  1  0.189335  0.819384  0.190226  1
  Pr  Pr7  1  0.818565  0.190561  0.800180  1
  Pr  Pr8  1  0.188215  0.189139  0.811323  1
  Pr  Pr9  1  0.806492  0.806573  0.193467  1
  Pr  Pr10  1  0.936429  0.561837  0.563770  1
  Pr  Pr11  1  0.561178  0.937475  0.937979  1
  Pr  Pr12  1  0.561178  0.937475  0.563367  1
  Pr  Pr13  1  0.936429  0.561837  0.937963  1
  Pr  Pr14  1  0.558996  0.559488  0.940758  1
  Pr  Pr15  1  0.934699  0.935510  0.564896  1
  Cd  Cd16  1  0.261511  0.580740  0.578874  1
  Co  Co17  1  0.142584  0.142594  0.140966  1
  Co  Co18  1  0.142584  0.142594  0.573856  1
  Hg  Hg19  1  0.582110  0.584400  0.583162  1
  Hg  Hg20  1  0.582110  0.584400  0.250327  1
  Hg  Hg21  1  0.583652  0.248310  0.584018  1
  Pt  Pt22  1  0.145422  0.573117  0.140730  1
  Pt  Pt23  1  0.573480  0.145364  0.140578  1
