# generated using pymatgen
data_La3Sm2(ThSe4)3
_symmetry_space_group_name_H-M   'P 1'
_cell_length_a   4.19798800
_cell_length_b   11.21589574
_cell_length_c   11.44667978
_cell_angle_alpha   90.97253519
_cell_angle_beta   90.00000000
_cell_angle_gamma   90.00000000
_symmetry_Int_Tables_number   1
_chemical_formula_structural   La3Sm2(ThSe4)3
_chemical_formula_sum   'La3 Sm2 Th3 Se12'
_cell_volume   538.88007222
_cell_formula_units_Z   1
loop_
 _symmetry_equiv_pos_site_id
 _symmetry_equiv_pos_as_xyz
  1  'x, y, z'
loop_
 _atom_site_type_symbol
 _atom_site_label
 _atom_site_symmetry_multiplicity
 _atom_site_fract_x
 _atom_site_fract_y
 _atom_site_fract_z
 _atom_site_occupancy
  La  La0  1  0.250000  0.000597  0.695343  1
  La  La1  1  0.750000  0.001448  0.304652  1
  La  La2  1  0.750000  0.493672  0.807338  1
  Sm  Sm3  1  0.750000  0.814621  0.983633  1
  Sm  Sm4  1  0.250000  0.187614  0.015343  1
  Th  Th5  1  0.250000  0.507388  0.195544  1
  Th  Th6  1  0.250000  0.313260  0.512446  1
  Th  Th7  1  0.750000  0.685524  0.485032  1
  Se  Se8  1  0.750000  0.055930  0.884686  1
  Se  Se9  1  0.250000  0.945149  0.115955  1
  Se  Se10  1  0.250000  0.556178  0.619642  1
  Se  Se11  1  0.750000  0.442753  0.376196  1
  Se  Se12  1  0.250000  0.869631  0.451099  1
  Se  Se13  1  0.750000  0.129782  0.547188  1
  Se  Se14  1  0.750000  0.373607  0.053111  1
  Se  Se15  1  0.250000  0.627467  0.957855  1
  Se  Se16  1  0.250000  0.294159  0.772051  1
  Se  Se17  1  0.750000  0.700497  0.223626  1
  Se  Se18  1  0.750000  0.795518  0.725465  1
  Se  Se19  1  0.250000  0.205205  0.273796  1
