# generated using pymatgen
data_SrLaH6Pd
_symmetry_space_group_name_H-M   'P 1'
_cell_length_a   7.37985361
_cell_length_b   7.37985362
_cell_length_c   5.50151700
_cell_angle_alpha   90.00000000
_cell_angle_beta   90.00000000
_cell_angle_gamma   136.18076607
_symmetry_Int_Tables_number   1
_chemical_formula_structural   SrLaH6Pd
_chemical_formula_sum   'Sr2 La2 H12 Pd2'
_cell_volume   207.45593872
_cell_formula_units_Z   2
loop_
 _symmetry_equiv_pos_site_id
 _symmetry_equiv_pos_as_xyz
  1  'x, y, z'
loop_
 _atom_site_type_symbol
 _atom_site_label
 _atom_site_symmetry_multiplicity
 _atom_site_fract_x
 _atom_site_fract_y
 _atom_site_fract_z
 _atom_site_occupancy
  Sr  Sr0  1  0.856598  0.143402  0.500000  1
  Sr  Sr1  1  0.356598  0.643402  0.000000  1
  La  La2  1  0.143792  0.856208  0.500000  1
  La  La3  1  0.643792  0.356208  0.000000  1
  H  H4  1  0.992321  0.507840  0.750078  1
  H  H5  1  0.492160  0.007679  0.249922  1
  H  H6  1  0.992160  0.507679  0.250078  1
  H  H7  1  0.492321  0.007840  0.749922  1
  H  H8  1  0.372834  0.627166  0.500000  1
  H  H9  1  0.872834  0.127166  0.000000  1
  H  H10  1  0.628977  0.371023  0.500000  1
  H  H11  1  0.128977  0.871023  0.000000  1
  H  H12  1  0.256287  0.245634  0.749057  1
  H  H13  1  0.754366  0.743713  0.250943  1
  H  H14  1  0.254366  0.243713  0.249057  1
  H  H15  1  0.756287  0.745634  0.750943  1
  Pd  Pd16  1  0.502664  0.497336  0.500000  1
  Pd  Pd17  1  0.002664  0.997336  0.000000  1
