# generated using pymatgen
data_Dy2Y3P12Ir16Ru3
_symmetry_space_group_name_H-M   'P 1'
_cell_length_a   12.65923600
_cell_length_b   12.65923516
_cell_length_c   3.98833900
_cell_angle_alpha   90.00000000
_cell_angle_beta   90.00000000
_cell_angle_gamma   120.00000219
_symmetry_Int_Tables_number   1
_chemical_formula_structural   Dy2Y3P12Ir16Ru3
_chemical_formula_sum   'Dy2 Y3 P12 Ir16 Ru3'
_cell_volume   553.52552329
_cell_formula_units_Z   1
loop_
 _symmetry_equiv_pos_site_id
 _symmetry_equiv_pos_as_xyz
  1  'x, y, z'
loop_
 _atom_site_type_symbol
 _atom_site_label
 _atom_site_symmetry_multiplicity
 _atom_site_fract_x
 _atom_site_fract_y
 _atom_site_fract_z
 _atom_site_occupancy
  Dy  Dy0  1  0.666667  0.333333  0.000000  1
  Dy  Dy1  1  0.333333  0.666667  0.000000  1
  Y  Y2  1  0.816849  0.000000  0.500000  1
  Y  Y3  1  0.183151  0.183151  0.500000  1
  Y  Y4  1  0.000000  0.816849  0.500000  1
  P  P5  1  0.642034  0.000000  0.000000  1
  P  P6  1  0.357966  0.357966  0.000000  1
  P  P7  1  0.000000  0.642034  0.000000  1
  P  P8  1  0.689859  0.520042  0.500000  1
  P  P9  1  0.830183  0.310141  0.500000  1
  P  P10  1  0.310141  0.830183  0.500000  1
  P  P11  1  0.520042  0.689859  0.500000  1
  P  P12  1  0.181308  0.000000  0.000000  1
  P  P13  1  0.818692  0.818692  0.000000  1
  P  P14  1  0.000000  0.181308  0.000000  1
  P  P15  1  0.479958  0.169817  0.500000  1
  P  P16  1  0.169817  0.479958  0.500000  1
  Ir  Ir17  1  0.622376  0.804548  0.000000  1
  Ir  Ir18  1  0.182172  0.377624  0.000000  1
  Ir  Ir19  1  0.377624  0.182172  0.000000  1
  Ir  Ir20  1  0.195452  0.817828  0.000000  1
  Ir  Ir21  1  0.804548  0.622376  0.000000  1
  Ir  Ir22  1  0.868334  0.505683  0.500000  1
  Ir  Ir23  1  0.494317  0.362651  0.500000  1
  Ir  Ir24  1  0.637349  0.131666  0.500000  1
  Ir  Ir25  1  0.131666  0.637349  0.500000  1
  Ir  Ir26  1  0.362651  0.494317  0.500000  1
  Ir  Ir27  1  0.505683  0.868334  0.500000  1
  Ir  Ir28  1  0.000000  0.000000  0.000000  1
  Ir  Ir29  1  0.460865  0.000000  0.000000  1
  Ir  Ir30  1  0.539135  0.539135  0.000000  1
  Ir  Ir31  1  0.000000  0.460865  0.000000  1
  Ir  Ir32  1  0.817828  0.195452  0.000000  1
  Ru  Ru33  1  0.714786  0.714786  0.500000  1
  Ru  Ru34  1  0.000000  0.285214  0.500000  1
  Ru  Ru35  1  0.285214  0.000000  0.500000  1
