# generated using pymatgen
data_Ta3AlPtN
_symmetry_space_group_name_H-M   'P 1'
_cell_length_a   7.02436000
_cell_length_b   7.02436000
_cell_length_c   7.02436000
_cell_angle_alpha   90.00000000
_cell_angle_beta   90.00000000
_cell_angle_gamma   90.00000000
_symmetry_Int_Tables_number   1
_chemical_formula_structural   Ta3AlPtN
_chemical_formula_sum   'Ta12 Al4 Pt4 N4'
_cell_volume   346.59339606
_cell_formula_units_Z   4
loop_
 _symmetry_equiv_pos_site_id
 _symmetry_equiv_pos_as_xyz
  1  'x, y, z'
loop_
 _atom_site_type_symbol
 _atom_site_label
 _atom_site_symmetry_multiplicity
 _atom_site_fract_x
 _atom_site_fract_y
 _atom_site_fract_z
 _atom_site_occupancy
  Ta  Ta0  1  0.789648  0.955460  0.375930  1
  Ta  Ta1  1  0.710352  0.044540  0.875930  1
  Ta  Ta2  1  0.210352  0.455460  0.124070  1
  Ta  Ta3  1  0.289648  0.544540  0.624070  1
  Ta  Ta4  1  0.955460  0.375930  0.789648  1
  Ta  Ta5  1  0.044540  0.875930  0.710352  1
  Ta  Ta6  1  0.455460  0.124070  0.210352  1
  Ta  Ta7  1  0.544540  0.624070  0.289648  1
  Ta  Ta8  1  0.375930  0.789648  0.955460  1
  Ta  Ta9  1  0.875930  0.710352  0.044540  1
  Ta  Ta10  1  0.124070  0.210352  0.455460  1
  Ta  Ta11  1  0.624070  0.289648  0.544540  1
  Al  Al12  1  0.570974  0.429026  0.929026  1
  Al  Al13  1  0.429026  0.929026  0.570974  1
  Al  Al14  1  0.929026  0.570974  0.429026  1
  Al  Al15  1  0.070974  0.070974  0.070974  1
  Pt  Pt16  1  0.178568  0.821432  0.321432  1
  Pt  Pt17  1  0.321432  0.178568  0.821432  1
  Pt  Pt18  1  0.821432  0.321432  0.178568  1
  Pt  Pt19  1  0.678568  0.678568  0.678568  1
  N  N20  1  0.876151  0.123849  0.623849  1
  N  N21  1  0.623849  0.876151  0.123849  1
  N  N22  1  0.123849  0.623849  0.876151  1
  N  N23  1  0.376151  0.376151  0.376151  1
