# generated using pymatgen
data_Ho6Tm10Cd4Ir3Rh
_symmetry_space_group_name_H-M   'P 1'
_cell_length_a   9.56532107
_cell_length_b   9.56608791
_cell_length_c   9.56541949
_cell_angle_alpha   59.79419073
_cell_angle_beta   59.79370674
_cell_angle_gamma   59.79025468
_symmetry_Int_Tables_number   1
_chemical_formula_structural   Ho6Tm10Cd4Ir3Rh
_chemical_formula_sum   'Ho6 Tm10 Cd4 Ir3 Rh1'
_cell_volume   615.99112593
_cell_formula_units_Z   1
loop_
 _symmetry_equiv_pos_site_id
 _symmetry_equiv_pos_as_xyz
  1  'x, y, z'
loop_
 _atom_site_type_symbol
 _atom_site_label
 _atom_site_symmetry_multiplicity
 _atom_site_fract_x
 _atom_site_fract_y
 _atom_site_fract_z
 _atom_site_occupancy
  Ho  Ho0  1  0.189790  0.811533  0.811502  1
  Ho  Ho1  1  0.812771  0.187777  0.187783  1
  Ho  Ho2  1  0.811532  0.189784  0.811541  1
  Ho  Ho3  1  0.187731  0.812816  0.187759  1
  Ho  Ho4  1  0.811509  0.811550  0.189793  1
  Ho  Ho5  1  0.187758  0.187734  0.812841  1
  Tm  Tm6  1  0.598784  0.598788  0.598816  1
  Tm  Tm7  1  0.600450  0.600441  0.203047  1
  Tm  Tm8  1  0.600481  0.203030  0.600430  1
  Tm  Tm9  1  0.203053  0.600490  0.600429  1
  Tm  Tm10  1  0.060063  0.438387  0.438434  1
  Tm  Tm11  1  0.436733  0.061331  0.061312  1
  Tm  Tm12  1  0.438411  0.060103  0.438362  1
  Tm  Tm13  1  0.061327  0.436710  0.061331  1
  Tm  Tm14  1  0.438402  0.438362  0.060102  1
  Tm  Tm15  1  0.061353  0.061362  0.436672  1
  Cd  Cd16  1  0.829440  0.829432  0.829344  1
  Cd  Cd17  1  0.830411  0.830404  0.505989  1
  Cd  Cd18  1  0.830388  0.505963  0.830448  1
  Cd  Cd19  1  0.505919  0.830411  0.830489  1
  Ir  Ir20  1  0.393178  0.393090  0.824519  1
  Ir  Ir21  1  0.393112  0.824540  0.393144  1
  Ir  Ir22  1  0.824508  0.393099  0.393192  1
  Rh  Rh23  1  0.392901  0.392865  0.392724  1
