# generated using pymatgen
data_SrDy3Pt2(RhO7)2
_symmetry_space_group_name_H-M   'P 1'
_cell_length_a   7.30735389
_cell_length_b   7.30735467
_cell_length_c   7.29702630
_cell_angle_alpha   59.92818293
_cell_angle_beta   59.92817557
_cell_angle_gamma   59.86426425
_symmetry_Int_Tables_number   1
_chemical_formula_structural   SrDy3Pt2(RhO7)2
_chemical_formula_sum   'Sr1 Dy3 Pt2 Rh2 O14'
_cell_volume   274.93650450
_cell_formula_units_Z   1
loop_
 _symmetry_equiv_pos_site_id
 _symmetry_equiv_pos_as_xyz
  1  'x, y, z'
loop_
 _atom_site_type_symbol
 _atom_site_label
 _atom_site_symmetry_multiplicity
 _atom_site_fract_x
 _atom_site_fract_y
 _atom_site_fract_z
 _atom_site_occupancy
  Sr  Sr0  1  0.125000  0.125000  0.125000  1
  Dy  Dy1  1  0.125000  0.625000  0.125000  1
  Dy  Dy2  1  0.125000  0.125000  0.625000  1
  Dy  Dy3  1  0.625000  0.125000  0.125000  1
  Pt  Pt4  1  0.625000  0.625000  0.625000  1
  Pt  Pt5  1  0.625000  0.625000  0.125000  1
  Rh  Rh6  1  0.125000  0.625000  0.625000  1
  Rh  Rh7  1  0.625000  0.125000  0.625000  1
  O  O8  1  0.289891  0.710759  0.711324  1
  O  O9  1  0.556417  0.957759  0.956856  1
  O  O10  1  0.710759  0.289891  0.711324  1
  O  O11  1  0.296865  0.296865  0.689736  1
  O  O12  1  0.713600  0.713600  0.287159  1
  O  O13  1  0.993283  0.993283  0.992429  1
  O  O14  1  0.292241  0.693583  0.293144  1
  O  O15  1  0.957759  0.556417  0.956856  1
  O  O16  1  0.953135  0.953135  0.560264  1
  O  O17  1  0.536400  0.536400  0.962841  1
  O  O18  1  0.256717  0.256717  0.257571  1
  O  O19  1  0.539241  0.960109  0.538676  1
  O  O20  1  0.693583  0.292241  0.293144  1
  O  O21  1  0.960109  0.539241  0.538676  1
