# generated using pymatgen
data_DyEr5Al24Ru5Pt3
_symmetry_space_group_name_H-M   'P 1'
_cell_length_a   8.80732809
_cell_length_b   8.78297532
_cell_length_c   9.52925309
_cell_angle_alpha   89.86786857
_cell_angle_beta   90.06550495
_cell_angle_gamma   119.49293200
_symmetry_Int_Tables_number   1
_chemical_formula_structural   DyEr5Al24Ru5Pt3
_chemical_formula_sum   'Dy1 Er5 Al24 Ru5 Pt3'
_cell_volume   641.60926511
_cell_formula_units_Z   1
loop_
 _symmetry_equiv_pos_site_id
 _symmetry_equiv_pos_as_xyz
  1  'x, y, z'
loop_
 _atom_site_type_symbol
 _atom_site_label
 _atom_site_symmetry_multiplicity
 _atom_site_fract_x
 _atom_site_fract_y
 _atom_site_fract_z
 _atom_site_occupancy
  Dy  Dy0  1  0.383903  0.189876  0.749659  1
  Er  Er1  1  0.191648  0.806570  0.249854  1
  Er  Er2  1  0.188995  0.386216  0.248430  1
  Er  Er3  1  0.615070  0.809830  0.250250  1
  Er  Er4  1  0.808633  0.193427  0.750155  1
  Er  Er5  1  0.811191  0.613973  0.751537  1
  Al  Al6  1  0.564406  0.436498  0.250206  1
  Al  Al7  1  0.561733  0.125121  0.246487  1
  Al  Al8  1  0.877677  0.440304  0.250181  1
  Al  Al9  1  0.435714  0.563947  0.749772  1
  Al  Al10  1  0.438409  0.874579  0.753544  1
  Al  Al11  1  0.122293  0.559710  0.749823  1
  Al  Al12  1  0.323364  0.162656  0.421927  1
  Al  Al13  1  0.841524  0.168138  0.420986  1
  Al  Al14  1  0.841850  0.674858  0.423221  1
  Al  Al15  1  0.676670  0.837385  0.577773  1
  Al  Al16  1  0.158372  0.831632  0.578819  1
  Al  Al17  1  0.158038  0.325277  0.576582  1
  Al  Al18  1  0.674906  0.841998  0.925347  1
  Al  Al19  1  0.164128  0.836132  0.922778  1
  Al  Al20  1  0.158633  0.326239  0.924331  1
  Al  Al21  1  0.325125  0.158017  0.074974  1
  Al  Al22  1  0.835747  0.163570  0.077434  1
  Al  Al23  1  0.841261  0.673891  0.075824  1
  Al  Al24  1  0.673312  0.336111  0.530607  1
  Al  Al25  1  0.327097  0.664107  0.469028  1
  Al  Al26  1  0.330365  0.669846  0.030203  1
  Al  Al27  1  0.670059  0.330331  0.970138  1
  Al  Al28  1  0.996596  0.001082  0.249832  1
  Al  Al29  1  0.002865  0.998660  0.750163  1
  Ru  Ru30  1  0.999991  0.000002  0.499980  1
  Ru  Ru31  1  0.999996  0.999989  0.000007  1
  Ru  Ru32  1  0.000116  0.500070  0.499969  1
  Ru  Ru33  1  0.500130  0.999849  0.000187  1
  Ru  Ru34  1  0.000148  0.500071  0.000041  1
  Pt  Pt35  1  0.500016  0.500029  0.499954  1
  Pt  Pt36  1  0.500010  0.999998  0.499965  1
  Pt  Pt37  1  0.500010  0.500012  0.000034  1
