# generated using pymatgen
data_Ga6Fe5CuIr12
_symmetry_space_group_name_H-M   'P 1'
_cell_length_a   4.28554000
_cell_length_b   6.06101600
_cell_length_c   12.88858000
_cell_angle_alpha   89.99996776
_cell_angle_beta   90.00064094
_cell_angle_gamma   90.00000000
_symmetry_Int_Tables_number   1
_chemical_formula_structural   Ga6Fe5CuIr12
_chemical_formula_sum   'Ga6 Fe5 Cu1 Ir12'
_cell_volume   334.77734057
_cell_formula_units_Z   1
loop_
 _symmetry_equiv_pos_site_id
 _symmetry_equiv_pos_as_xyz
  1  'x, y, z'
loop_
 _atom_site_type_symbol
 _atom_site_label
 _atom_site_symmetry_multiplicity
 _atom_site_fract_x
 _atom_site_fract_y
 _atom_site_fract_z
 _atom_site_occupancy
  Ga  Ga0  1  0.000000  0.499999  0.000000  1
  Ga  Ga1  1  0.499793  0.000000  0.164488  1
  Ga  Ga2  1  0.999796  0.499999  0.332340  1
  Ga  Ga3  1  0.500001  0.000000  0.500000  1
  Ga  Ga4  1  0.000204  0.499999  0.667660  1
  Ga  Ga5  1  0.500207  0.000000  0.835511  1
  Fe  Fe6  1  0.499797  0.499999  0.165128  1
  Fe  Fe7  1  0.999795  0.000000  0.332755  1
  Fe  Fe8  1  0.500001  0.499999  0.500000  1
  Fe  Fe9  1  0.000205  0.000000  0.667246  1
  Fe  Fe10  1  0.500206  0.499999  0.834872  1
  Cu  Cu11  1  0.000000  0.000000  0.000000  1
  Ir  Ir12  1  0.500001  0.253381  0.000000  1
  Ir  Ir13  1  0.500001  0.746619  0.000000  1
  Ir  Ir14  1  0.999801  0.250819  0.168893  1
  Ir  Ir15  1  0.999801  0.749181  0.168893  1
  Ir  Ir16  1  0.499803  0.249988  0.333971  1
  Ir  Ir17  1  0.499803  0.750012  0.333971  1
  Ir  Ir18  1  0.000000  0.250143  0.500000  1
  Ir  Ir19  1  0.000000  0.749856  0.500000  1
  Ir  Ir20  1  0.500197  0.249987  0.666029  1
  Ir  Ir21  1  0.500197  0.750011  0.666029  1
  Ir  Ir22  1  0.000199  0.250819  0.831107  1
  Ir  Ir23  1  0.000199  0.749181  0.831107  1
