# generated using pymatgen
data_Y4Ga20Ni2Pt9
_symmetry_space_group_name_H-M   'P 1'
_cell_length_a   4.23857319
_cell_length_b   10.94506394
_cell_length_c   13.52983088
_cell_angle_alpha   80.85901724
_cell_angle_beta   80.62473196
_cell_angle_gamma   78.49336781
_symmetry_Int_Tables_number   1
_chemical_formula_structural   Y4Ga20Ni2Pt9
_chemical_formula_sum   'Y4 Ga20 Ni2 Pt9'
_cell_volume   601.63187743
_cell_formula_units_Z   1
loop_
 _symmetry_equiv_pos_site_id
 _symmetry_equiv_pos_as_xyz
  1  'x, y, z'
loop_
 _atom_site_type_symbol
 _atom_site_label
 _atom_site_symmetry_multiplicity
 _atom_site_fract_x
 _atom_site_fract_y
 _atom_site_fract_z
 _atom_site_occupancy
  Y  Y0  1  0.122889  0.095803  0.662719  1
  Y  Y1  1  0.232516  0.365483  0.179140  1
  Y  Y2  1  0.772889  0.635561  0.817521  1
  Y  Y3  1  0.881729  0.904133  0.338006  1
  Ga  Ga4  1  0.064290  0.668452  0.202727  1
  Ga  Ga5  1  0.302318  0.895278  0.505029  1
  Ga  Ga6  1  0.606794  0.795222  0.000501  1
  Ga  Ga7  1  0.253344  0.794956  0.697610  1
  Ga  Ga8  1  0.886980  0.678084  0.548358  1
  Ga  Ga9  1  0.751434  0.209760  0.297935  1
  Ga  Ga10  1  0.642208  0.936715  0.789785  1
  Ga  Ga11  1  0.704174  0.091958  0.504086  1
  Ga  Ga12  1  0.398673  0.206152  0.997474  1
  Ga  Ga13  1  0.940455  0.331494  0.795988  1
  Ga  Ga14  1  0.460172  0.707539  0.379547  1
  Ga  Ga15  1  0.993724  0.923014  0.089530  1
  Ga  Ga16  1  0.803938  0.396963  0.005128  1
  Ga  Ga17  1  0.544726  0.293378  0.620554  1
  Ga  Ga18  1  0.010782  0.076625  0.909598  1
  Ga  Ga19  1  0.202456  0.603574  0.992965  1
  Ga  Ga20  1  0.112517  0.330423  0.454040  1
  Ga  Ga21  1  0.366955  0.060012  0.203574  1
  Ga  Ga22  1  0.618030  0.466535  0.306961  1
  Ga  Ga23  1  0.386053  0.535687  0.691713  1
  Ni  Ni24  1  0.504491  0.497141  0.498724  1
  Ni  Ni25  1  0.755551  0.878427  0.611482  1
  Pt  Pt26  1  0.143655  0.837406  0.889794  1
  Pt  Pt27  1  0.509645  0.174702  0.810612  1
  Pt  Pt28  1  0.861534  0.163196  0.107814  1
  Pt  Pt29  1  0.971806  0.440279  0.616505  1
  Pt  Pt30  1  0.656070  0.576173  0.112746  1
  Pt  Pt31  1  0.030516  0.565070  0.383830  1
  Pt  Pt32  1  0.350153  0.424547  0.885114  1
  Pt  Pt33  1  0.249853  0.118575  0.390322  1
  Pt  Pt34  1  0.495485  0.823611  0.188208  1
