# generated using pymatgen
data_Li3Pr2PaIr3
_symmetry_space_group_name_H-M   'P 1'
_cell_length_a   7.27530300
_cell_length_b   7.17911015
_cell_length_c   4.05642500
_cell_angle_alpha   90.00000000
_cell_angle_beta   90.00000000
_cell_angle_gamma   120.44421998
_symmetry_Int_Tables_number   1
_chemical_formula_structural   Li3Pr2PaIr3
_chemical_formula_sum   'Li3 Pr2 Pa1 Ir3'
_cell_volume   182.65615682
_cell_formula_units_Z   1
loop_
 _symmetry_equiv_pos_site_id
 _symmetry_equiv_pos_as_xyz
  1  'x, y, z'
loop_
 _atom_site_type_symbol
 _atom_site_label
 _atom_site_symmetry_multiplicity
 _atom_site_fract_x
 _atom_site_fract_y
 _atom_site_fract_z
 _atom_site_occupancy
  Li  Li0  1  0.224630  0.000000  0.500000  1
  Li  Li1  1  0.003336  0.238861  0.500000  1
  Li  Li2  1  0.764475  0.761139  0.500000  1
  Pr  Pr3  1  0.000610  0.584040  0.000000  1
  Pr  Pr4  1  0.416571  0.415960  0.000000  1
  Pa  Pa5  1  0.608583  0.000000  0.000000  1
  Ir  Ir6  1  0.365097  0.711807  0.500000  1
  Ir  Ir7  1  0.653292  0.288193  0.500000  1
  Ir  Ir8  1  0.963406  0.000000  0.000000  1
