# generated using pymatgen
data_Ce3Er(MgRh2)4
_symmetry_space_group_name_H-M   'P 1'
_cell_length_a   6.30093800
_cell_length_b   6.30086300
_cell_length_c   7.14828000
_cell_angle_alpha   89.99985451
_cell_angle_beta   90.00168224
_cell_angle_gamma   90.00003638
_symmetry_Int_Tables_number   1
_chemical_formula_structural   Ce3Er(MgRh2)4
_chemical_formula_sum   'Ce3 Er1 Mg4 Rh8'
_cell_volume   283.79634552
_cell_formula_units_Z   1
loop_
 _symmetry_equiv_pos_site_id
 _symmetry_equiv_pos_as_xyz
  1  'x, y, z'
loop_
 _atom_site_type_symbol
 _atom_site_label
 _atom_site_symmetry_multiplicity
 _atom_site_fract_x
 _atom_site_fract_y
 _atom_site_fract_z
 _atom_site_occupancy
  Ce  Ce0  1  0.250035  0.249971  0.000139  1
  Ce  Ce1  1  0.749830  0.750058  0.000145  1
  Ce  Ce2  1  0.749942  0.749962  0.499892  1
  Er  Er3  1  0.250192  0.249947  0.499624  1
  Mg  Mg4  1  0.749958  0.249973  0.000030  1
  Mg  Mg5  1  0.249991  0.749995  0.999981  1
  Mg  Mg6  1  0.750108  0.250064  0.499970  1
  Mg  Mg7  1  0.249942  0.749935  0.500043  1
  Rh  Rh8  1  0.503438  0.996538  0.248896  1
  Rh  Rh9  1  0.503479  0.503485  0.248895  1
  Rh  Rh10  1  0.996541  0.996542  0.248927  1
  Rh  Rh11  1  0.996520  0.503469  0.248926  1
  Rh  Rh12  1  0.996507  0.996518  0.751109  1
  Rh  Rh13  1  0.996520  0.503523  0.751116  1
  Rh  Rh14  1  0.503508  0.996497  0.751148  1
  Rh  Rh15  1  0.503492  0.503521  0.751153  1
