# generated using pymatgen
data_YCoRe(PRh)3
_symmetry_space_group_name_H-M   'P 1'
_cell_length_a   3.87517700
_cell_length_b   10.73943400
_cell_length_c   12.36710400
_cell_angle_alpha   90.00000000
_cell_angle_beta   90.00000000
_cell_angle_gamma   90.00000000
_symmetry_Int_Tables_number   1
_chemical_formula_structural   YCoRe(PRh)3
_chemical_formula_sum   'Y4 Co4 Re4 P12 Rh12'
_cell_volume   514.68433495
_cell_formula_units_Z   4
loop_
 _symmetry_equiv_pos_site_id
 _symmetry_equiv_pos_as_xyz
  1  'x, y, z'
loop_
 _atom_site_type_symbol
 _atom_site_label
 _atom_site_symmetry_multiplicity
 _atom_site_fract_x
 _atom_site_fract_y
 _atom_site_fract_z
 _atom_site_occupancy
  Y  Y0  1  0.250000  0.914111  0.206809  1
  Y  Y1  1  0.750000  0.085889  0.793191  1
  Y  Y2  1  0.750000  0.414111  0.293191  1
  Y  Y3  1  0.250000  0.585889  0.706809  1
  Co  Co4  1  0.250000  0.037767  0.435513  1
  Co  Co5  1  0.750000  0.962233  0.564487  1
  Co  Co6  1  0.750000  0.537767  0.064487  1
  Co  Co7  1  0.250000  0.462233  0.935513  1
  Re  Re8  1  0.250000  0.791045  0.486417  1
  Re  Re9  1  0.750000  0.208955  0.513583  1
  Re  Re10  1  0.750000  0.291045  0.013583  1
  Re  Re11  1  0.250000  0.708955  0.986417  1
  P  P12  1  0.250000  0.078201  0.606912  1
  P  P13  1  0.750000  0.921799  0.393088  1
  P  P14  1  0.750000  0.578201  0.893088  1
  P  P15  1  0.250000  0.421799  0.106912  1
  P  P16  1  0.250000  0.229091  0.374082  1
  P  P17  1  0.750000  0.770909  0.625918  1
  P  P18  1  0.750000  0.729091  0.125918  1
  P  P19  1  0.250000  0.270909  0.874082  1
  P  P20  1  0.250000  0.900479  0.890526  1
  P  P21  1  0.750000  0.099521  0.109474  1
  P  P22  1  0.750000  0.400479  0.609474  1
  P  P23  1  0.250000  0.599521  0.390526  1
  Rh  Rh24  1  0.250000  0.094843  0.987205  1
  Rh  Rh25  1  0.750000  0.905157  0.012795  1
  Rh  Rh26  1  0.750000  0.594843  0.512795  1
  Rh  Rh27  1  0.250000  0.405157  0.487205  1
  Rh  Rh28  1  0.250000  0.270938  0.680903  1
  Rh  Rh29  1  0.750000  0.729062  0.319097  1
  Rh  Rh30  1  0.750000  0.770938  0.819097  1
  Rh  Rh31  1  0.250000  0.229062  0.180903  1
  Rh  Rh32  1  0.250000  0.608912  0.200373  1
  Rh  Rh33  1  0.750000  0.391088  0.799627  1
  Rh  Rh34  1  0.750000  0.108912  0.299627  1
  Rh  Rh35  1  0.250000  0.891088  0.700373  1
