# generated using pymatgen
data_La5Pr3(SnI6)2
_symmetry_space_group_name_H-M   'P 1'
_cell_length_a   4.42926300
_cell_length_b   14.63844658
_cell_length_c   15.46433600
_cell_angle_alpha   89.83246619
_cell_angle_beta   90.00000000
_cell_angle_gamma   90.00000000
_symmetry_Int_Tables_number   1
_chemical_formula_structural   La5Pr3(SnI6)2
_chemical_formula_sum   'La5 Pr3 Sn2 I12'
_cell_volume   1002.66506000
_cell_formula_units_Z   1
loop_
 _symmetry_equiv_pos_site_id
 _symmetry_equiv_pos_as_xyz
  1  'x, y, z'
loop_
 _atom_site_type_symbol
 _atom_site_label
 _atom_site_symmetry_multiplicity
 _atom_site_fract_x
 _atom_site_fract_y
 _atom_site_fract_z
 _atom_site_occupancy
  La  La0  1  0.500000  0.120515  0.337129  1
  La  La1  1  0.500000  0.876926  0.661493  1
  La  La2  1  0.500000  0.621802  0.162202  1
  La  La3  1  0.500000  0.379356  0.839032  1
  La  La4  1  0.000000  0.121379  0.581896  1
  Pr  Pr5  1  0.000000  0.879932  0.419372  1
  Pr  Pr6  1  0.000000  0.619689  0.919638  1
  Pr  Pr7  1  0.000000  0.380406  0.080598  1
  Sn  Sn8  1  0.500000  0.999811  0.500048  1
  Sn  Sn9  1  0.500000  0.500442  0.000643  1
  I  I10  1  0.500000  0.239540  0.158406  1
  I  I11  1  0.500000  0.760222  0.841576  1
  I  I12  1  0.500000  0.739366  0.341061  1
  I  I13  1  0.500000  0.264165  0.658671  1
  I  I14  1  0.000000  0.261354  0.413514  1
  I  I15  1  0.000000  0.737619  0.584027  1
  I  I16  1  0.000000  0.761417  0.083880  1
  I  I17  1  0.000000  0.238847  0.915975  1
  I  I18  1  0.000000  0.996363  0.238099  1
  I  I19  1  0.000000  0.000535  0.762440  1
  I  I20  1  0.000000  0.496836  0.261135  1
  I  I21  1  0.000000  0.503477  0.739162  1
