# generated using pymatgen
data_Nd5CuRuO12
_symmetry_space_group_name_H-M   'P 1'
_cell_length_a   7.01775419
_cell_length_b   7.01775450
_cell_length_c   7.60466847
_cell_angle_alpha   74.41754681
_cell_angle_beta   74.41755637
_cell_angle_gamma   51.66307866
_symmetry_Int_Tables_number   1
_chemical_formula_structural   Nd5CuRuO12
_chemical_formula_sum   'Nd5 Cu1 Ru1 O12'
_cell_volume   280.37797681
_cell_formula_units_Z   1
loop_
 _symmetry_equiv_pos_site_id
 _symmetry_equiv_pos_as_xyz
  1  'x, y, z'
loop_
 _atom_site_type_symbol
 _atom_site_label
 _atom_site_symmetry_multiplicity
 _atom_site_fract_x
 _atom_site_fract_y
 _atom_site_fract_z
 _atom_site_occupancy
  Nd  Nd0  1  0.316146  0.298384  0.356936  1
  Nd  Nd1  1  0.701616  0.683854  0.643064  1
  Nd  Nd2  1  0.695527  0.690408  0.165865  1
  Nd  Nd3  1  0.309592  0.304473  0.834135  1
  Nd  Nd4  1  0.007952  0.992048  0.500000  1
  Cu  Cu5  1  0.745621  0.254379  0.000000  1
  Ru  Ru6  1  0.232891  0.767109  0.000000  1
  O  O7  1  0.100439  0.591047  0.578273  1
  O  O8  1  0.010969  0.986371  0.175766  1
  O  O9  1  0.408953  0.899561  0.421727  1
  O  O10  1  0.472893  0.529335  0.178333  1
  O  O11  1  0.103875  0.577410  0.078464  1
  O  O12  1  0.909933  0.398425  0.421217  1
  O  O13  1  0.013629  0.989031  0.824234  1
  O  O14  1  0.601575  0.090066  0.578783  1
  O  O15  1  0.470665  0.527107  0.821667  1
  O  O16  1  0.581192  0.106057  0.076599  1
  O  O17  1  0.422590  0.896125  0.921536  1
  O  O18  1  0.893943  0.418808  0.923401  1
