# generated using pymatgen
data_Sr(AcSe2)2
_symmetry_space_group_name_H-M   'P 1'
_cell_length_a   8.12959327
_cell_length_b   8.12959365
_cell_length_c   8.12959395
_cell_angle_alpha   109.54168267
_cell_angle_beta   109.54168513
_cell_angle_gamma   109.33039405
_symmetry_Int_Tables_number   1
_chemical_formula_structural   Sr(AcSe2)2
_chemical_formula_sum   'Sr2 Ac4 Se8'
_cell_volume   413.60197957
_cell_formula_units_Z   2
loop_
 _symmetry_equiv_pos_site_id
 _symmetry_equiv_pos_as_xyz
  1  'x, y, z'
loop_
 _atom_site_type_symbol
 _atom_site_label
 _atom_site_symmetry_multiplicity
 _atom_site_fract_x
 _atom_site_fract_y
 _atom_site_fract_z
 _atom_site_occupancy
  Sr  Sr0  1  0.000000  0.000000  0.000000  1
  Sr  Sr1  1  0.250000  0.750000  0.500000  1
  Ac  Ac2  1  0.125000  0.503640  0.878640  1
  Ac  Ac3  1  0.625000  0.246360  0.121360  1
  Ac  Ac4  1  0.496360  0.375000  0.621360  1
  Ac  Ac5  1  0.753640  0.875000  0.378640  1
  Se  Se6  1  0.377306  0.477889  0.250791  1
  Se  Se7  1  0.022903  0.272111  0.399419  1
  Se  Se8  1  0.227097  0.126516  0.749209  1
  Se  Se9  1  0.376516  0.977097  0.249209  1
  Se  Se10  1  0.522111  0.772903  0.899419  1
  Se  Se11  1  0.873484  0.622694  0.100581  1
  Se  Se12  1  0.727889  0.127306  0.750791  1
  Se  Se13  1  0.872694  0.623484  0.600581  1
