# generated using pymatgen
data_PrTh(Si2Rh3)2
_symmetry_space_group_name_H-M   'P 1'
_cell_length_a   6.70441870
_cell_length_b   6.70441905
_cell_length_c   6.70441789
_cell_angle_alpha   130.19313668
_cell_angle_beta   115.04966681
_cell_angle_gamma   86.05666751
_symmetry_Int_Tables_number   1
_chemical_formula_structural   PrTh(Si2Rh3)2
_chemical_formula_sum   'Pr1 Th1 Si4 Rh6'
_cell_volume   199.23536292
_cell_formula_units_Z   1
loop_
 _symmetry_equiv_pos_site_id
 _symmetry_equiv_pos_as_xyz
  1  'x, y, z'
loop_
 _atom_site_type_symbol
 _atom_site_label
 _atom_site_symmetry_multiplicity
 _atom_site_fract_x
 _atom_site_fract_y
 _atom_site_fract_z
 _atom_site_occupancy
  Pr  Pr0  1  0.250000  0.964713  0.714713  1
  Th  Th1  1  0.750000  0.041252  0.291252  1
  Si  Si2  1  0.573709  0.379407  0.805697  1
  Si  Si3  1  0.415577  0.614527  0.198950  1
  Si  Si4  1  0.084423  0.283373  0.198950  1
  Si  Si5  1  0.926291  0.731989  0.805697  1
  Rh  Rh6  1  0.213062  0.495285  0.711752  1
  Rh  Rh7  1  0.716467  0.998691  0.711752  1
  Rh  Rh8  1  0.783533  0.495285  0.282223  1
  Rh  Rh9  1  0.286938  0.998691  0.282223  1
  Rh  Rh10  1  0.509658  0.498394  0.508053  1
  Rh  Rh11  1  0.990342  0.498394  0.988736  1
