# generated using pymatgen
data_LaNiPH2
_symmetry_space_group_name_H-M   'P 1'
_cell_length_a   4.09698800
_cell_length_b   4.09698791
_cell_length_c   8.45551000
_cell_angle_alpha   90.00000000
_cell_angle_beta   90.00000000
_cell_angle_gamma   120.00001692
_symmetry_Int_Tables_number   1
_chemical_formula_structural   LaNiPH2
_chemical_formula_sum   'La2 Ni2 P2 H4'
_cell_volume   122.91354342
_cell_formula_units_Z   2
loop_
 _symmetry_equiv_pos_site_id
 _symmetry_equiv_pos_as_xyz
  1  'x, y, z'
loop_
 _atom_site_type_symbol
 _atom_site_label
 _atom_site_symmetry_multiplicity
 _atom_site_fract_x
 _atom_site_fract_y
 _atom_site_fract_z
 _atom_site_occupancy
  La  La0  1  0.000000  0.000000  0.500000  1
  La  La1  1  0.000000  0.000000  0.000000  1
  Ni  Ni2  1  0.333333  0.666667  0.750000  1
  Ni  Ni3  1  0.666667  0.333333  0.250000  1
  P  P4  1  0.666667  0.333333  0.750000  1
  P  P5  1  0.333333  0.666667  0.250000  1
  H  H6  1  0.666667  0.333333  0.062944  1
  H  H7  1  0.333333  0.666667  0.937056  1
  H  H8  1  0.666667  0.333333  0.437056  1
  H  H9  1  0.333333  0.666667  0.562944  1
