# generated using pymatgen
data_Dy7Er13(Bi2Ir)4
_symmetry_space_group_name_H-M   'P 1'
_cell_length_a   7.96583115
_cell_length_b   8.99379500
_cell_length_c   12.51920300
_cell_angle_alpha   90.00000000
_cell_angle_beta   90.05097462
_cell_angle_gamma   90.00000000
_symmetry_Int_Tables_number   1
_chemical_formula_structural   Dy7Er13(Bi2Ir)4
_chemical_formula_sum   'Dy7 Er13 Bi8 Ir4'
_cell_volume   896.91356146
_cell_formula_units_Z   1
loop_
 _symmetry_equiv_pos_site_id
 _symmetry_equiv_pos_as_xyz
  1  'x, y, z'
loop_
 _atom_site_type_symbol
 _atom_site_label
 _atom_site_symmetry_multiplicity
 _atom_site_fract_x
 _atom_site_fract_y
 _atom_site_fract_z
 _atom_site_occupancy
  Dy  Dy0  1  0.661789  0.750000  0.707122  1
  Dy  Dy1  1  0.337894  0.250000  0.292493  1
  Dy  Dy2  1  0.161737  0.250000  0.792647  1
  Dy  Dy3  1  0.837723  0.750000  0.207565  1
  Dy  Dy4  1  0.127493  0.750000  0.808413  1
  Dy  Dy5  1  0.872485  0.250000  0.191760  1
  Dy  Dy6  1  0.627463  0.250000  0.691612  1
  Er  Er7  1  0.373974  0.750000  0.309907  1
  Er  Er8  1  0.555854  0.750000  0.998170  1
  Er  Er9  1  0.444092  0.250000  0.001881  1
  Er  Er10  1  0.055751  0.250000  0.501526  1
  Er  Er11  1  0.944346  0.750000  0.498165  1
  Er  Er12  1  0.826492  0.458049  0.933121  1
  Er  Er13  1  0.173723  0.542139  0.067076  1
  Er  Er14  1  0.325994  0.542198  0.566307  1
  Er  Er15  1  0.173723  0.957861  0.067076  1
  Er  Er16  1  0.673243  0.458471  0.432819  1
  Er  Er17  1  0.826492  0.041951  0.933121  1
  Er  Er18  1  0.673243  0.041529  0.432819  1
  Er  Er19  1  0.325994  0.957802  0.566307  1
  Bi  Bi20  1  0.936157  0.008160  0.671695  1
  Bi  Bi21  1  0.064762  0.991198  0.328273  1
  Bi  Bi22  1  0.436354  0.991844  0.828027  1
  Bi  Bi23  1  0.064762  0.508802  0.328273  1
  Bi  Bi24  1  0.563013  0.007604  0.172112  1
  Bi  Bi25  1  0.936157  0.491840  0.671695  1
  Bi  Bi26  1  0.563013  0.492396  0.172112  1
  Bi  Bi27  1  0.436354  0.508156  0.828027  1
  Ir  Ir28  1  0.928982  0.750000  0.991549  1
  Ir  Ir29  1  0.071084  0.250000  0.008803  1
  Ir  Ir30  1  0.429041  0.250000  0.508403  1
  Ir  Ir31  1  0.570816  0.750000  0.491125  1
