# generated using pymatgen
data_Nb6Fe2NiOs3C2
_symmetry_space_group_name_H-M   'P 1'
_cell_length_a   8.22632343
_cell_length_b   8.22632265
_cell_length_c   8.22632231
_cell_angle_alpha   119.79676030
_cell_angle_beta   120.11758730
_cell_angle_gamma   90.07441724
_symmetry_Int_Tables_number   1
_chemical_formula_structural   Nb6Fe2NiOs3C2
_chemical_formula_sum   'Nb12 Fe4 Ni2 Os6 C4'
_cell_volume   393.89333647
_cell_formula_units_Z   2
loop_
 _symmetry_equiv_pos_site_id
 _symmetry_equiv_pos_as_xyz
  1  'x, y, z'
loop_
 _atom_site_type_symbol
 _atom_site_label
 _atom_site_symmetry_multiplicity
 _atom_site_fract_x
 _atom_site_fract_y
 _atom_site_fract_z
 _atom_site_occupancy
  Nb  Nb0  1  0.067903  0.067903  0.000000  1
  Nb  Nb1  1  0.682442  0.682442  0.000000  1
  Nb  Nb2  1  0.680932  0.066250  0.999097  1
  Nb  Nb3  1  0.067153  0.681835  0.000903  1
  Nb  Nb4  1  0.067153  0.066250  0.385318  1
  Nb  Nb5  1  0.680932  0.681835  0.614682  1
  Nb  Nb6  1  0.434752  0.934752  0.500000  1
  Nb  Nb7  1  0.819231  0.319231  0.500000  1
  Nb  Nb8  1  0.817315  0.928345  0.498255  1
  Nb  Nb9  1  0.430090  0.319061  0.501745  1
  Nb  Nb10  1  0.430090  0.928345  0.111029  1
  Nb  Nb11  1  0.817315  0.319061  0.888971  1
  Fe  Fe12  1  0.451433  0.301223  0.849789  1
  Fe  Fe13  1  0.451433  0.601644  0.150211  1
  Fe  Fe14  1  0.047278  0.700745  0.346533  1
  Fe  Fe15  1  0.354212  0.700745  0.653467  1
  Ni  Ni16  1  0.042874  0.704996  0.662122  1
  Ni  Ni17  1  0.042874  0.380751  0.337878  1
  Os  Os18  1  0.264249  0.509248  0.755000  1
  Os  Os19  1  0.754249  0.509248  0.245000  1
  Os  Os20  1  0.253590  0.518158  0.264567  1
  Os  Os21  1  0.253590  0.989023  0.735433  1
  Os  Os22  1  0.456591  0.295939  0.160652  1
  Os  Os23  1  0.135288  0.295939  0.839348  1
  C  C24  1  0.749457  0.999879  0.749577  1
  C  C25  1  0.250302  0.999879  0.250423  1
  C  C26  1  0.748637  0.998652  0.250015  1
  C  C27  1  0.748637  0.498622  0.749985  1
