# generated using pymatgen
data_Ca12Pr8Si15Au
_symmetry_space_group_name_H-M   'P 1'
_cell_length_a   7.66124800
_cell_length_b   7.93957938
_cell_length_c   15.20407300
_cell_angle_alpha   90.00000000
_cell_angle_beta   90.00000000
_cell_angle_gamma   90.48664166
_symmetry_Int_Tables_number   1
_chemical_formula_structural   Ca12Pr8Si15Au
_chemical_formula_sum   'Ca12 Pr8 Si15 Au1'
_cell_volume   924.78610758
_cell_formula_units_Z   1
loop_
 _symmetry_equiv_pos_site_id
 _symmetry_equiv_pos_as_xyz
  1  'x, y, z'
loop_
 _atom_site_type_symbol
 _atom_site_label
 _atom_site_symmetry_multiplicity
 _atom_site_fract_x
 _atom_site_fract_y
 _atom_site_fract_z
 _atom_site_occupancy
  Ca  Ca0  1  0.318725  0.188116  0.620244  1
  Ca  Ca1  1  0.683091  0.818578  0.378372  1
  Ca  Ca2  1  0.642577  0.996877  0.750000  1
  Ca  Ca3  1  0.183640  0.681237  0.378676  1
  Ca  Ca4  1  0.815389  0.318881  0.876708  1
  Ca  Ca5  1  0.815389  0.318881  0.623292  1
  Ca  Ca6  1  0.858810  0.502723  0.250000  1
  Ca  Ca7  1  0.359091  0.998775  0.250000  1
  Ca  Ca8  1  0.318725  0.188116  0.879756  1
  Ca  Ca9  1  0.183640  0.681237  0.121324  1
  Ca  Ca10  1  0.683091  0.818578  0.121628  1
  Ca  Ca11  1  0.143008  0.498621  0.750000  1
  Pr  Pr12  1  0.035584  0.188889  0.399688  1
  Pr  Pr13  1  0.536170  0.311647  0.398666  1
  Pr  Pr14  1  0.469138  0.679418  0.901178  1
  Pr  Pr15  1  0.469138  0.679418  0.598822  1
  Pr  Pr16  1  0.958187  0.815561  0.597486  1
  Pr  Pr17  1  0.958187  0.815561  0.902514  1
  Pr  Pr18  1  0.536170  0.311647  0.101334  1
  Pr  Pr19  1  0.035584  0.188889  0.100312  1
  Si  Si20  1  0.474421  0.590501  0.250000  1
  Si  Si21  1  0.024700  0.098308  0.750000  1
  Si  Si22  1  0.526559  0.407242  0.750000  1
  Si  Si23  1  0.135190  0.475511  0.539040  1
  Si  Si24  1  0.974689  0.910709  0.250000  1
  Si  Si25  1  0.749889  0.126004  0.250000  1
  Si  Si26  1  0.859626  0.525462  0.038174  1
  Si  Si27  1  0.360573  0.974469  0.037802  1
  Si  Si28  1  0.135190  0.475511  0.960960  1
  Si  Si29  1  0.638347  0.020848  0.539269  1
  Si  Si30  1  0.360573  0.974469  0.462198  1
  Si  Si31  1  0.859626  0.525462  0.461826  1
  Si  Si32  1  0.752864  0.624394  0.750000  1
  Si  Si33  1  0.248763  0.374291  0.250000  1
  Si  Si34  1  0.638347  0.020848  0.960731  1
  Au  Au35  1  0.257304  0.874323  0.750000  1
