# generated using pymatgen
data_DyEr3(Sc4Bi3)4
_symmetry_space_group_name_H-M   'P 1'
_cell_length_a   7.88647302
_cell_length_b   9.06729600
_cell_length_c   11.55127303
_cell_angle_alpha   90.00000000
_cell_angle_beta   89.99202353
_cell_angle_gamma   90.00000000
_symmetry_Int_Tables_number   1
_chemical_formula_structural   DyEr3(Sc4Bi3)4
_chemical_formula_sum   'Dy1 Er3 Sc16 Bi12'
_cell_volume   826.01980469
_cell_formula_units_Z   1
loop_
 _symmetry_equiv_pos_site_id
 _symmetry_equiv_pos_as_xyz
  1  'x, y, z'
loop_
 _atom_site_type_symbol
 _atom_site_label
 _atom_site_symmetry_multiplicity
 _atom_site_fract_x
 _atom_site_fract_y
 _atom_site_fract_z
 _atom_site_occupancy
  Dy  Dy0  1  0.315268  0.250000  0.218387  1
  Er  Er1  1  0.815143  0.250000  0.281918  1
  Er  Er2  1  0.684908  0.750000  0.781805  1
  Er  Er3  1  0.184983  0.750000  0.718126  1
  Sc  Sc4  1  0.349223  0.750000  0.220003  1
  Sc  Sc5  1  0.849179  0.750000  0.280032  1
  Sc  Sc6  1  0.650805  0.250000  0.780002  1
  Sc  Sc7  1  0.150753  0.250000  0.719999  1
  Sc  Sc8  1  0.692734  0.567804  0.061465  1
  Sc  Sc9  1  0.192800  0.932177  0.438583  1
  Sc  Sc10  1  0.307216  0.067821  0.938447  1
  Sc  Sc11  1  0.807165  0.432156  0.561471  1
  Sc  Sc12  1  0.307216  0.432179  0.938447  1
  Sc  Sc13  1  0.807165  0.067844  0.561471  1
  Sc  Sc14  1  0.692734  0.932196  0.061465  1
  Sc  Sc15  1  0.192800  0.567823  0.438583  1
  Sc  Sc16  1  0.482008  0.250000  0.489189  1
  Sc  Sc17  1  0.981770  0.250000  0.010787  1
  Sc  Sc18  1  0.518153  0.750000  0.510916  1
  Sc  Sc19  1  0.018047  0.750000  0.989063  1
  Bi  Bi20  1  0.401457  0.750000  0.965502  1
  Bi  Bi21  1  0.901502  0.750000  0.534498  1
  Bi  Bi22  1  0.598955  0.250000  0.034135  1
  Bi  Bi23  1  0.098315  0.250000  0.465704  1
  Bi  Bi24  1  0.563899  0.990579  0.327811  1
  Bi  Bi25  1  0.063208  0.509538  0.172225  1
  Bi  Bi26  1  0.436352  0.490834  0.672296  1
  Bi  Bi27  1  0.936392  0.009139  0.827671  1
  Bi  Bi28  1  0.436352  0.009166  0.672296  1
  Bi  Bi29  1  0.936392  0.490861  0.827671  1
  Bi  Bi30  1  0.563899  0.509421  0.327811  1
  Bi  Bi31  1  0.063208  0.990462  0.172225  1
