# generated using pymatgen
data_Tm9Th3Tc4
_symmetry_space_group_name_H-M   'P 1'
_cell_length_a   6.25661600
_cell_length_b   7.21551256
_cell_length_c   9.24620200
_cell_angle_alpha   90.00000000
_cell_angle_beta   90.00000000
_cell_angle_gamma   89.59353911
_symmetry_Int_Tables_number   1
_chemical_formula_structural   Tm9Th3Tc4
_chemical_formula_sum   'Tm9 Th3 Tc4'
_cell_volume   417.40643204
_cell_formula_units_Z   1
loop_
 _symmetry_equiv_pos_site_id
 _symmetry_equiv_pos_as_xyz
  1  'x, y, z'
loop_
 _atom_site_type_symbol
 _atom_site_label
 _atom_site_symmetry_multiplicity
 _atom_site_fract_x
 _atom_site_fract_y
 _atom_site_fract_z
 _atom_site_occupancy
  Tm  Tm0  1  0.874080  0.540169  0.250000  1
  Tm  Tm1  1  0.165868  0.177693  0.067712  1
  Tm  Tm2  1  0.834143  0.820638  0.937099  1
  Tm  Tm3  1  0.667540  0.326795  0.937750  1
  Tm  Tm4  1  0.834143  0.820638  0.562901  1
  Tm  Tm5  1  0.330637  0.675204  0.067250  1
  Tm  Tm6  1  0.165868  0.177693  0.432288  1
  Tm  Tm7  1  0.330637  0.675204  0.432750  1
  Tm  Tm8  1  0.667540  0.326795  0.562250  1
  Th  Th9  1  0.636567  0.045147  0.250000  1
  Th  Th10  1  0.364756  0.953237  0.750000  1
  Th  Th11  1  0.135225  0.451188  0.750000  1
  Tc  Tc12  1  0.476985  0.373902  0.250000  1
  Tc  Tc13  1  0.519155  0.624858  0.750000  1
  Tc  Tc14  1  0.978042  0.125557  0.750000  1
  Tc  Tc15  1  0.018818  0.885277  0.250000  1
