# generated using pymatgen
data_AcEr2Al7Cu2
_symmetry_space_group_name_H-M   'P 1'
_cell_length_a   9.21803671
_cell_length_b   9.21803697
_cell_length_c   9.21803736
_cell_angle_alpha   35.09147768
_cell_angle_beta   35.09147666
_cell_angle_gamma   35.09147637
_symmetry_Int_Tables_number   1
_chemical_formula_structural   AcEr2Al7Cu2
_chemical_formula_sum   'Ac1 Er2 Al7 Cu2'
_cell_volume   231.17266427
_cell_formula_units_Z   1
loop_
 _symmetry_equiv_pos_site_id
 _symmetry_equiv_pos_as_xyz
  1  'x, y, z'
loop_
 _atom_site_type_symbol
 _atom_site_label
 _atom_site_symmetry_multiplicity
 _atom_site_fract_x
 _atom_site_fract_y
 _atom_site_fract_z
 _atom_site_occupancy
  Ac  Ac0  1  0.000000  0.000000  0.000000  1
  Er  Er1  1  0.142716  0.142716  0.142716  1
  Er  Er2  1  0.857284  0.857284  0.857284  1
  Al  Al3  1  0.585079  0.585079  0.073994  1
  Al  Al4  1  0.926007  0.414920  0.414922  1
  Al  Al5  1  0.414920  0.926007  0.414922  1
  Al  Al6  1  0.500000  0.500000  0.500000  1
  Al  Al7  1  0.585080  0.073993  0.585078  1
  Al  Al8  1  0.073993  0.585080  0.585078  1
  Al  Al9  1  0.414921  0.414921  0.926006  1
  Cu  Cu10  1  0.336497  0.336497  0.336497  1
  Cu  Cu11  1  0.663504  0.663504  0.663504  1
