# generated using pymatgen
data_Li30Si7Bi
_symmetry_space_group_name_H-M   'P 1'
_cell_length_a   9.26082990
_cell_length_b   9.26082901
_cell_length_c   9.28195800
_cell_angle_alpha   109.51744474
_cell_angle_beta   109.51744278
_cell_angle_gamma   109.42495783
_symmetry_Int_Tables_number   1
_chemical_formula_structural   Li30Si7Bi
_chemical_formula_sum   'Li30 Si7 Bi1'
_cell_volume   612.44827867
_cell_formula_units_Z   1
loop_
 _symmetry_equiv_pos_site_id
 _symmetry_equiv_pos_as_xyz
  1  'x, y, z'
loop_
 _atom_site_type_symbol
 _atom_site_label
 _atom_site_symmetry_multiplicity
 _atom_site_fract_x
 _atom_site_fract_y
 _atom_site_fract_z
 _atom_site_occupancy
  Li  Li0  1  0.334618  0.803653  0.730418  1
  Li  Li1  1  0.121814  0.749292  0.873369  1
  Li  Li2  1  0.732583  0.358296  0.819938  1
  Li  Li3  1  0.625712  0.767417  0.587355  1
  Li  Li4  1  0.029500  0.912377  0.690278  1
  Li  Li5  1  0.086316  0.274968  0.115519  1
  Li  Li6  1  0.915494  0.693936  0.032690  1
  Li  Li7  1  0.274943  0.115778  0.085337  1
  Li  Li8  1  0.188653  0.413684  0.529204  1
  Li  Li9  1  0.778442  0.584506  0.617196  1
  Li  Li10  1  0.696347  0.030965  0.926765  1
  Li  Li11  1  0.532234  0.196603  0.403408  1
  Li  Li12  1  0.627479  0.378186  0.251555  1
  Li  Li13  1  0.469035  0.165382  0.895800  1
  Li  Li14  1  0.887809  0.128946  0.757109  1
  Li  Li15  1  0.972619  0.384650  0.660290  1
  Li  Li16  1  0.412032  0.527381  0.187671  1
  Li  Li17  1  0.115350  0.087968  0.275639  1
  Li  Li18  1  0.303397  0.835631  0.206805  1
  Li  Li19  1  0.750708  0.872521  0.124077  1
  Li  Li20  1  0.882877  0.470500  0.160778  1
  Li  Li21  1  0.587623  0.617123  0.777901  1
  Li  Li22  1  0.384222  0.659164  0.969558  1
  Li  Li23  1  0.806064  0.721558  0.338754  1
  Li  Li24  1  0.664369  0.967766  0.371174  1
  Li  Li25  1  0.141704  0.874288  0.461642  1
  Li  Li26  1  0.225032  0.311347  0.840551  1
  Li  Li27  1  0.371054  0.258862  0.628163  1
  Li  Li28  1  0.840836  0.225057  0.310394  1
  Li  Li29  1  0.241138  0.612191  0.369301  1
  Si  Si30  1  0.584842  0.501510  0.000998  1
  Si  Si31  1  0.500000  0.000000  0.084560  1
  Si  Si32  1  0.001337  0.085114  0.501309  1
  Si  Si33  1  0.998490  0.583332  0.499488  1
  Si  Si34  1  0.083776  0.498663  0.999971  1
  Si  Si35  1  0.414886  0.416224  0.416195  1
  Si  Si36  1  0.916668  0.915158  0.916156  1
  Bi  Bi37  1  0.500000  0.000000  0.582682  1
