# generated using pymatgen
data_Pa7Co16Re(Si5P)2
_symmetry_space_group_name_H-M   'P 1'
_cell_length_a   12.49038437
_cell_length_b   12.49520720
_cell_length_c   3.84332100
_cell_angle_alpha   90.00000000
_cell_angle_beta   90.00000000
_cell_angle_gamma   120.19328721
_symmetry_Int_Tables_number   1
_chemical_formula_structural   Pa7Co16Re(Si5P)2
_chemical_formula_sum   'Pa7 Co16 Re1 Si10 P2'
_cell_volume   518.45060526
_cell_formula_units_Z   1
loop_
 _symmetry_equiv_pos_site_id
 _symmetry_equiv_pos_as_xyz
  1  'x, y, z'
loop_
 _atom_site_type_symbol
 _atom_site_label
 _atom_site_symmetry_multiplicity
 _atom_site_fract_x
 _atom_site_fract_y
 _atom_site_fract_z
 _atom_site_occupancy
  Pa  Pa0  1  0.563420  0.000906  0.000000  1
  Pa  Pa1  1  0.001237  0.563280  0.000000  1
  Pa  Pa2  1  0.652375  0.329951  0.000000  1
  Pa  Pa3  1  0.329587  0.651969  0.000000  1
  Pa  Pa4  1  0.812516  0.811023  0.500000  1
  Pa  Pa5  1  0.171934  0.997277  0.500000  1
  Pa  Pa6  1  0.999162  0.173441  0.500000  1
  Co  Co7  1  0.198930  0.365909  0.000000  1
  Co  Co8  1  0.179067  0.813028  0.000000  1
  Co  Co9  1  0.816037  0.626830  0.000000  1
  Co  Co10  1  0.812884  0.182349  0.000000  1
  Co  Co11  1  0.366267  0.198875  0.000000  1
  Co  Co12  1  0.140493  0.494014  0.500000  1
  Co  Co13  1  0.372474  0.892148  0.500000  1
  Co  Co14  1  0.514134  0.631362  0.500000  1
  Co  Co15  1  0.632323  0.514745  0.500000  1
  Co  Co16  1  0.892083  0.373672  0.500000  1
  Co  Co17  1  0.493649  0.140692  0.500000  1
  Co  Co18  1  0.001815  0.998668  0.000000  1
  Co  Co19  1  0.720847  0.998694  0.500000  1
  Co  Co20  1  0.998876  0.723197  0.500000  1
  Co  Co21  1  0.623385  0.812423  0.000000  1
  Co  Co22  1  0.269593  0.269357  0.500000  1
  Re  Re23  1  0.436297  0.436095  0.000000  1
  Si  Si24  1  0.627787  0.627763  0.000000  1
  Si  Si25  1  0.350099  0.010663  0.000000  1
  Si  Si26  1  0.010342  0.350027  0.000000  1
  Si  Si27  1  0.468199  0.314446  0.500000  1
  Si  Si28  1  0.714457  0.187842  0.500000  1
  Si  Si29  1  0.814911  0.521982  0.500000  1
  Si  Si30  1  0.521955  0.814504  0.500000  1
  Si  Si31  1  0.187881  0.714973  0.500000  1
  Si  Si32  1  0.818273  0.994710  0.000000  1
  Si  Si33  1  0.314359  0.467849  0.500000  1
  P  P34  1  0.995032  0.818673  0.000000  1
  P  P35  1  0.177320  0.176661  0.000000  1
