# generated using pymatgen
data_Sm2ZnSi3
_symmetry_space_group_name_H-M   'P 1'
_cell_length_a   8.20595773
_cell_length_b   8.17019182
_cell_length_c   5.83096974
_cell_angle_alpha   69.47004619
_cell_angle_beta   68.81323571
_cell_angle_gamma   41.71671357
_symmetry_Int_Tables_number   1
_chemical_formula_structural   Sm2ZnSi3
_chemical_formula_sum   'Sm4 Zn2 Si6'
_cell_volume   240.48973017
_cell_formula_units_Z   2
loop_
 _symmetry_equiv_pos_site_id
 _symmetry_equiv_pos_as_xyz
  1  'x, y, z'
loop_
 _atom_site_type_symbol
 _atom_site_label
 _atom_site_symmetry_multiplicity
 _atom_site_fract_x
 _atom_site_fract_y
 _atom_site_fract_z
 _atom_site_occupancy
  Sm  Sm0  1  0.244155  0.755845  0.244155  1
  Sm  Sm1  1  0.755845  0.244155  0.755845  1
  Sm  Sm2  1  0.250000  0.250000  0.250000  1
  Sm  Sm3  1  0.750000  0.750000  0.750000  1
  Zn  Zn4  1  0.333674  0.333674  0.666326  1
  Zn  Zn5  1  0.666326  0.666326  0.333674  1
  Si  Si6  1  0.166525  0.166525  0.833475  1
  Si  Si7  1  0.833475  0.833475  0.166525  1
  Si  Si8  1  0.832387  0.333885  0.167613  1
  Si  Si9  1  0.666115  0.167613  0.333885  1
  Si  Si10  1  0.333885  0.832387  0.666115  1
  Si  Si11  1  0.167613  0.666115  0.832387  1
