# generated using pymatgen
data_Y2Th(SnRh)3
_symmetry_space_group_name_H-M   'P 1'
_cell_length_a   7.56019905
_cell_length_b   7.66750292
_cell_length_c   3.93918600
_cell_angle_alpha   90.00000000
_cell_angle_beta   90.00000000
_cell_angle_gamma   120.47064147
_symmetry_Int_Tables_number   1
_chemical_formula_structural   Y2Th(SnRh)3
_chemical_formula_sum   'Y2 Th1 Sn3 Rh3'
_cell_volume   196.80904868
_cell_formula_units_Z   1
loop_
 _symmetry_equiv_pos_site_id
 _symmetry_equiv_pos_as_xyz
  1  'x, y, z'
loop_
 _atom_site_type_symbol
 _atom_site_label
 _atom_site_symmetry_multiplicity
 _atom_site_fract_x
 _atom_site_fract_y
 _atom_site_fract_z
 _atom_site_occupancy
  Y  Y0  1  0.405727  0.406303  0.500000  1
  Y  Y1  1  0.594273  0.000576  0.500000  1
  Th  Th2  1  0.000000  0.586633  0.500000  1
  Sn  Sn3  1  0.730024  0.742064  0.000000  1
  Sn  Sn4  1  0.269976  0.012040  0.000000  1
  Sn  Sn5  1  0.000000  0.244009  0.000000  1
  Rh  Rh6  1  0.683682  0.350265  0.000000  1
  Rh  Rh7  1  0.316318  0.666584  0.000000  1
  Rh  Rh8  1  0.000000  0.991526  0.500000  1
