# generated using pymatgen
data_Dy4ZnRh
_symmetry_space_group_name_H-M   'P 1'
_cell_length_a   9.48155209
_cell_length_b   9.48155209
_cell_length_c   9.48155300
_cell_angle_alpha   60.00000030
_cell_angle_beta   60.00000030
_cell_angle_gamma   60.00000221
_symmetry_Int_Tables_number   1
_chemical_formula_structural   Dy4ZnRh
_chemical_formula_sum   'Dy16 Zn4 Rh4'
_cell_volume   602.73076377
_cell_formula_units_Z   4
loop_
 _symmetry_equiv_pos_site_id
 _symmetry_equiv_pos_as_xyz
  1  'x, y, z'
loop_
 _atom_site_type_symbol
 _atom_site_label
 _atom_site_symmetry_multiplicity
 _atom_site_fract_x
 _atom_site_fract_y
 _atom_site_fract_z
 _atom_site_occupancy
  Dy  Dy0  1  0.064168  0.435831  0.435831  1
  Dy  Dy1  1  0.435830  0.064169  0.064169  1
  Dy  Dy2  1  0.435831  0.064168  0.435831  1
  Dy  Dy3  1  0.435831  0.435831  0.064168  1
  Dy  Dy4  1  0.064169  0.435830  0.064169  1
  Dy  Dy5  1  0.064169  0.064169  0.435830  1
  Dy  Dy6  1  0.191351  0.808649  0.808649  1
  Dy  Dy7  1  0.808649  0.191351  0.191351  1
  Dy  Dy8  1  0.808649  0.191351  0.808649  1
  Dy  Dy9  1  0.808649  0.808649  0.191351  1
  Dy  Dy10  1  0.191351  0.808649  0.191351  1
  Dy  Dy11  1  0.191351  0.191351  0.808649  1
  Dy  Dy12  1  0.646527  0.646527  0.646527  1
  Dy  Dy13  1  0.646527  0.646527  0.060415  1
  Dy  Dy14  1  0.060415  0.646527  0.646527  1
  Dy  Dy15  1  0.646527  0.060415  0.646527  1
  Zn  Zn16  1  0.420333  0.420333  0.420333  1
  Zn  Zn17  1  0.420333  0.420333  0.739002  1
  Zn  Zn18  1  0.739002  0.420333  0.420333  1
  Zn  Zn19  1  0.420333  0.739002  0.420333  1
  Rh  Rh20  1  0.856718  0.856718  0.856718  1
  Rh  Rh21  1  0.856718  0.856718  0.429843  1
  Rh  Rh22  1  0.429843  0.856718  0.856718  1
  Rh  Rh23  1  0.856718  0.429843  0.856718  1
