# generated using pymatgen
data_Y20CoAg6Pd
_symmetry_space_group_name_H-M   'P 1'
_cell_length_a   9.55017500
_cell_length_b   9.55017511
_cell_length_c   9.65975000
_cell_angle_alpha   90.00000000
_cell_angle_beta   90.00000000
_cell_angle_gamma   120.00000308
_symmetry_Int_Tables_number   1
_chemical_formula_structural   Y20CoAg6Pd
_chemical_formula_sum   'Y20 Co1 Ag6 Pd1'
_cell_volume   762.99056855
_cell_formula_units_Z   1
loop_
 _symmetry_equiv_pos_site_id
 _symmetry_equiv_pos_as_xyz
  1  'x, y, z'
loop_
 _atom_site_type_symbol
 _atom_site_label
 _atom_site_symmetry_multiplicity
 _atom_site_fract_x
 _atom_site_fract_y
 _atom_site_fract_z
 _atom_site_occupancy
  Y  Y0  1  0.000000  0.000000  0.499157  1
  Y  Y1  1  0.000000  0.000000  0.000843  1
  Y  Y2  1  0.211028  0.788972  0.437425  1
  Y  Y3  1  0.211028  0.422058  0.437425  1
  Y  Y4  1  0.577942  0.788972  0.437425  1
  Y  Y5  1  0.793672  0.206328  0.555094  1
  Y  Y6  1  0.793672  0.587344  0.555094  1
  Y  Y7  1  0.412656  0.206328  0.555094  1
  Y  Y8  1  0.793672  0.206328  0.944906  1
  Y  Y9  1  0.793672  0.587344  0.944906  1
  Y  Y10  1  0.412656  0.206328  0.944906  1
  Y  Y11  1  0.211028  0.788972  0.062575  1
  Y  Y12  1  0.211028  0.422058  0.062575  1
  Y  Y13  1  0.577942  0.788972  0.062575  1
  Y  Y14  1  0.542742  0.457258  0.250000  1
  Y  Y15  1  0.542742  0.085483  0.250000  1
  Y  Y16  1  0.914517  0.457258  0.250000  1
  Y  Y17  1  0.455873  0.544127  0.750000  1
  Y  Y18  1  0.455873  0.911748  0.750000  1
  Y  Y19  1  0.088252  0.544127  0.750000  1
  Co  Co20  1  0.333333  0.666667  0.250000  1
  Ag  Ag21  1  0.883776  0.116224  0.250000  1
  Ag  Ag22  1  0.883776  0.767553  0.250000  1
  Ag  Ag23  1  0.232447  0.116224  0.250000  1
  Ag  Ag24  1  0.116018  0.883982  0.750000  1
  Ag  Ag25  1  0.116018  0.232035  0.750000  1
  Ag  Ag26  1  0.767965  0.883982  0.750000  1
  Pd  Pd27  1  0.666667  0.333333  0.750000  1
