# generated using pymatgen
data_Y3Th(GaPd2)4
_symmetry_space_group_name_H-M   'P 1'
_cell_length_a   5.65941025
_cell_length_b   7.20861900
_cell_length_c   7.42574022
_cell_angle_alpha   90.00000000
_cell_angle_beta   89.66348388
_cell_angle_gamma   90.00000000
_symmetry_Int_Tables_number   1
_chemical_formula_structural   Y3Th(GaPd2)4
_chemical_formula_sum   'Y3 Th1 Ga4 Pd8'
_cell_volume   302.93922533
_cell_formula_units_Z   1
loop_
 _symmetry_equiv_pos_site_id
 _symmetry_equiv_pos_as_xyz
  1  'x, y, z'
loop_
 _atom_site_type_symbol
 _atom_site_label
 _atom_site_symmetry_multiplicity
 _atom_site_fract_x
 _atom_site_fract_y
 _atom_site_fract_z
 _atom_site_occupancy
  Y  Y0  1  0.146296  0.750000  0.528830  1
  Y  Y1  1  0.650496  0.250000  0.968725  1
  Y  Y2  1  0.854190  0.250000  0.467953  1
  Th  Th3  1  0.352882  0.750000  0.033784  1
  Ga  Ga4  1  0.647333  0.750000  0.391547  1
  Ga  Ga5  1  0.855383  0.750000  0.878472  1
  Ga  Ga6  1  0.356707  0.250000  0.616684  1
  Ga  Ga7  1  0.143112  0.250000  0.115779  1
  Pd  Pd8  1  0.910704  0.553168  0.183234  1
  Pd  Pd9  1  0.585919  0.949263  0.684005  1
  Pd  Pd10  1  0.088094  0.051727  0.816680  1
  Pd  Pd11  1  0.412084  0.448431  0.315193  1
  Pd  Pd12  1  0.088094  0.448273  0.816680  1
  Pd  Pd13  1  0.412084  0.051569  0.315193  1
  Pd  Pd14  1  0.910704  0.946832  0.183234  1
  Pd  Pd15  1  0.585919  0.550737  0.684005  1
