# generated using pymatgen
data_Dy9Mg(Ni2Au)2
_symmetry_space_group_name_H-M   'P 1'
_cell_length_a   8.39408339
_cell_length_b   8.39408394
_cell_length_c   8.39408322
_cell_angle_alpha   126.53668635
_cell_angle_beta   126.53668946
_cell_angle_gamma   79.00783163
_symmetry_Int_Tables_number   1
_chemical_formula_structural   Dy9Mg(Ni2Au)2
_chemical_formula_sum   'Dy9 Mg1 Ni4 Au2'
_cell_volume   369.33844289
_cell_formula_units_Z   1
loop_
 _symmetry_equiv_pos_site_id
 _symmetry_equiv_pos_as_xyz
  1  'x, y, z'
loop_
 _atom_site_type_symbol
 _atom_site_label
 _atom_site_symmetry_multiplicity
 _atom_site_fract_x
 _atom_site_fract_y
 _atom_site_fract_z
 _atom_site_occupancy
  Dy  Dy0  1  0.500000  0.500000  0.000000  1
  Dy  Dy1  1  0.813705  0.285250  0.829460  1
  Dy  Dy2  1  0.186295  0.714750  0.170540  1
  Dy  Dy3  1  0.455789  0.984245  0.170540  1
  Dy  Dy4  1  0.285250  0.455789  0.471544  1
  Dy  Dy5  1  0.015755  0.186295  0.471544  1
  Dy  Dy6  1  0.544211  0.015755  0.829460  1
  Dy  Dy7  1  0.714750  0.544211  0.528456  1
  Dy  Dy8  1  0.984245  0.813705  0.528456  1
  Mg  Mg9  1  0.000000  0.000000  0.000000  1
  Ni  Ni10  1  0.131691  0.622476  0.754166  1
  Ni  Ni11  1  0.868309  0.377524  0.245834  1
  Ni  Ni12  1  0.622476  0.868309  0.490785  1
  Ni  Ni13  1  0.377524  0.131691  0.509215  1
  Au  Au14  1  0.252534  0.252534  0.000000  1
  Au  Au15  1  0.747466  0.747466  0.000000  1
