# generated using pymatgen
data_SrPr(AlAg)5
_symmetry_space_group_name_H-M   'P 1'
_cell_length_a   4.46654600
_cell_length_b   5.52323200
_cell_length_c   9.94778400
_cell_angle_alpha   90.00000000
_cell_angle_beta   90.00000000
_cell_angle_gamma   90.00000000
_symmetry_Int_Tables_number   1
_chemical_formula_structural   SrPr(AlAg)5
_chemical_formula_sum   'Sr1 Pr1 Al5 Ag5'
_cell_volume   245.40954127
_cell_formula_units_Z   1
loop_
 _symmetry_equiv_pos_site_id
 _symmetry_equiv_pos_as_xyz
  1  'x, y, z'
loop_
 _atom_site_type_symbol
 _atom_site_label
 _atom_site_symmetry_multiplicity
 _atom_site_fract_x
 _atom_site_fract_y
 _atom_site_fract_z
 _atom_site_occupancy
  Sr  Sr0  1  0.000000  0.000000  0.500000  1
  Pr  Pr1  1  0.000000  0.500000  0.000000  1
  Al  Al2  1  0.500000  0.000000  0.000000  1
  Al  Al3  1  0.500000  0.743347  0.241183  1
  Al  Al4  1  0.500000  0.256653  0.758817  1
  Al  Al5  1  0.500000  0.256653  0.241183  1
  Al  Al6  1  0.500000  0.743347  0.758817  1
  Ag  Ag7  1  0.000000  0.500000  0.318897  1
  Ag  Ag8  1  0.000000  0.000000  0.831537  1
  Ag  Ag9  1  0.000000  0.000000  0.168463  1
  Ag  Ag10  1  0.000000  0.500000  0.681103  1
  Ag  Ag11  1  0.500000  0.500000  0.500000  1
