# generated using pymatgen
data_Nd6CoRhBr6
_symmetry_space_group_name_H-M   'P 1'
_cell_length_a   10.41079585
_cell_length_b   10.41079594
_cell_length_c   10.38048272
_cell_angle_alpha   109.46059749
_cell_angle_beta   109.46059848
_cell_angle_gamma   109.61042833
_symmetry_Int_Tables_number   1
_chemical_formula_structural   Nd6CoRhBr6
_chemical_formula_sum   'Nd12 Co2 Rh2 Br12'
_cell_volume   864.82635159
_cell_formula_units_Z   2
loop_
 _symmetry_equiv_pos_site_id
 _symmetry_equiv_pos_as_xyz
  1  'x, y, z'
loop_
 _atom_site_type_symbol
 _atom_site_label
 _atom_site_symmetry_multiplicity
 _atom_site_fract_x
 _atom_site_fract_y
 _atom_site_fract_z
 _atom_site_occupancy
  Nd  Nd0  1  0.465744  0.486556  0.229082  1
  Nd  Nd1  1  0.757474  0.236664  0.270918  1
  Nd  Nd2  1  0.757418  0.020363  0.486928  1
  Nd  Nd3  1  0.229511  0.466565  0.486928  1
  Nd  Nd4  1  0.263336  0.742526  0.229082  1
  Nd  Nd5  1  0.033435  0.270489  0.013072  1
  Nd  Nd6  1  0.013444  0.034256  0.270918  1
  Nd  Nd7  1  0.479637  0.742582  0.013072  1
  Nd  Nd8  1  0.485476  0.235476  0.470950  1
  Nd  Nd9  1  0.019134  0.480866  0.750000  1
  Nd  Nd10  1  0.264524  0.014524  0.029050  1
  Nd  Nd11  1  0.230866  0.269134  0.750000  1
  Co  Co12  1  0.999665  0.249665  0.499329  1
  Co  Co13  1  0.250335  0.500335  0.000671  1
  Rh  Rh14  1  0.250335  0.249665  0.250000  1
  Rh  Rh15  1  0.499665  0.000335  0.250000  1
  Br  Br16  1  0.250067  0.755505  0.743613  1
  Br  Br17  1  0.511891  0.506453  0.756387  1
  Br  Br18  1  0.989161  0.744083  0.993995  1
  Br  Br19  1  0.744495  0.249933  0.756387  1
  Br  Br20  1  0.993547  0.988109  0.743613  1
  Br  Br21  1  0.250088  0.995166  0.506005  1
  Br  Br22  1  0.755917  0.510839  0.506005  1
  Br  Br23  1  0.504834  0.249912  0.993995  1
  Br  Br24  1  0.755954  0.744046  0.250000  1
  Br  Br25  1  0.744611  0.994611  0.989223  1
  Br  Br26  1  0.994046  0.505954  0.250000  1
  Br  Br27  1  0.505389  0.755389  0.510777  1
