# generated using pymatgen
data_TbErZr2(Al3Ir)6
_symmetry_space_group_name_H-M   'P 1'
_cell_length_a   7.53240700
_cell_length_b   7.51502554
_cell_length_c   9.36892000
_cell_angle_alpha   90.00000000
_cell_angle_beta   90.00000000
_cell_angle_gamma   119.73354497
_symmetry_Int_Tables_number   1
_chemical_formula_structural   TbErZr2(Al3Ir)6
_chemical_formula_sum   'Tb1 Er1 Zr2 Al18 Ir6'
_cell_volume   460.51546793
_cell_formula_units_Z   1
loop_
 _symmetry_equiv_pos_site_id
 _symmetry_equiv_pos_as_xyz
  1  'x, y, z'
loop_
 _atom_site_type_symbol
 _atom_site_label
 _atom_site_symmetry_multiplicity
 _atom_site_fract_x
 _atom_site_fract_y
 _atom_site_fract_z
 _atom_site_occupancy
  Tb  Tb0  1  0.329625  0.005704  0.750000  1
  Er  Er1  1  0.670561  0.994520  0.250000  1
  Zr  Zr2  1  0.995088  0.670844  0.250000  1
  Zr  Zr3  1  0.004823  0.329096  0.750000  1
  Al  Al4  1  0.125741  0.124171  0.250000  1
  Al  Al5  1  0.873625  0.875618  0.750000  1
  Al  Al6  1  0.999646  0.336690  0.074824  1
  Al  Al7  1  0.999904  0.662849  0.925718  1
  Al  Al8  1  0.999904  0.662849  0.574282  1
  Al  Al9  1  0.332437  0.998551  0.421769  1
  Al  Al10  1  0.999646  0.336690  0.425176  1
  Al  Al11  1  0.668014  0.001397  0.577294  1
  Al  Al12  1  0.668014  0.001397  0.922706  1
  Al  Al13  1  0.332437  0.998551  0.078231  1
  Al  Al14  1  0.331363  0.333710  0.555422  1
  Al  Al15  1  0.668601  0.666677  0.444029  1
  Al  Al16  1  0.668601  0.666677  0.055971  1
  Al  Al17  1  0.331363  0.333710  0.944578  1
  Al  Al18  1  0.334485  0.548076  0.250000  1
  Al  Al19  1  0.666033  0.452549  0.750000  1
  Al  Al20  1  0.554131  0.343964  0.250000  1
  Al  Al21  1  0.446065  0.655731  0.750000  1
  Ir  Ir22  1  0.672303  0.327664  0.999664  1
  Ir  Ir23  1  0.327966  0.672409  0.000754  1
  Ir  Ir24  1  0.327966  0.672409  0.499246  1
  Ir  Ir25  1  0.672303  0.327664  0.500336  1
  Ir  Ir26  1  0.999677  0.999918  0.000247  1
  Ir  Ir27  1  0.999677  0.999918  0.499753  1
