# generated using pymatgen
data_Er2HgRhAu
_symmetry_space_group_name_H-M   'P 1'
_cell_length_a   7.78376800
_cell_length_b   7.92328100
_cell_length_c   3.58606000
_cell_angle_alpha   90.00000000
_cell_angle_beta   90.00000000
_cell_angle_gamma   90.00000000
_symmetry_Int_Tables_number   1
_chemical_formula_structural   Er2HgRhAu
_chemical_formula_sum   'Er4 Hg2 Rh2 Au2'
_cell_volume   221.16301061
_cell_formula_units_Z   2
loop_
 _symmetry_equiv_pos_site_id
 _symmetry_equiv_pos_as_xyz
  1  'x, y, z'
loop_
 _atom_site_type_symbol
 _atom_site_label
 _atom_site_symmetry_multiplicity
 _atom_site_fract_x
 _atom_site_fract_y
 _atom_site_fract_z
 _atom_site_occupancy
  Er  Er0  1  0.334041  0.186182  0.500001  1
  Er  Er1  1  0.834040  0.313819  0.500001  1
  Er  Er2  1  0.173722  0.641291  0.500001  1
  Er  Er3  1  0.673721  0.858708  0.500001  1
  Hg  Hg4  1  0.999687  0.006208  0.000000  1
  Hg  Hg5  1  0.499686  0.493791  0.000000  1
  Rh  Rh6  1  0.627787  0.132824  0.000000  1
  Rh  Rh7  1  0.127788  0.367177  0.000000  1
  Au  Au8  1  0.864763  0.624505  0.000000  1
  Au  Au9  1  0.364764  0.875494  0.000000  1
