# generated using pymatgen
data_LiTb2ThPd5
_symmetry_space_group_name_H-M   'P 1'
_cell_length_a   8.33248700
_cell_length_b   8.33248829
_cell_length_c   13.15273000
_cell_angle_alpha   90.00000000
_cell_angle_beta   90.00000000
_cell_angle_gamma   127.83198934
_symmetry_Int_Tables_number   1
_chemical_formula_structural   LiTb2ThPd5
_chemical_formula_sum   'Li4 Tb8 Th4 Pd20'
_cell_volume   721.25588487
_cell_formula_units_Z   4
loop_
 _symmetry_equiv_pos_site_id
 _symmetry_equiv_pos_as_xyz
  1  'x, y, z'
loop_
 _atom_site_type_symbol
 _atom_site_label
 _atom_site_symmetry_multiplicity
 _atom_site_fract_x
 _atom_site_fract_y
 _atom_site_fract_z
 _atom_site_occupancy
  Li  Li0  1  0.720408  0.279592  0.250000  1
  Li  Li1  1  0.279592  0.720408  0.750000  1
  Li  Li2  1  0.532458  0.467542  0.250000  1
  Li  Li3  1  0.467542  0.532458  0.750000  1
  Tb  Tb4  1  0.629768  0.370232  0.462341  1
  Tb  Tb5  1  0.370232  0.629768  0.537659  1
  Tb  Tb6  1  0.629768  0.370232  0.037659  1
  Tb  Tb7  1  0.370232  0.629768  0.962341  1
  Tb  Tb8  1  0.879512  0.120488  0.948578  1
  Tb  Tb9  1  0.120488  0.879512  0.051422  1
  Tb  Tb10  1  0.879512  0.120488  0.551422  1
  Tb  Tb11  1  0.120488  0.879512  0.448578  1
  Th  Th12  1  0.931972  0.068028  0.250000  1
  Th  Th13  1  0.068028  0.931972  0.750000  1
  Th  Th14  1  0.316631  0.683369  0.250000  1
  Th  Th15  1  0.683369  0.316631  0.750000  1
  Pd  Pd16  1  0.322922  0.070157  0.250000  1
  Pd  Pd17  1  0.070157  0.322922  0.750000  1
  Pd  Pd18  1  0.677078  0.929843  0.750000  1
  Pd  Pd19  1  0.929843  0.677078  0.250000  1
  Pd  Pd20  1  0.565158  0.000117  0.394908  1
  Pd  Pd21  1  0.000117  0.565158  0.605092  1
  Pd  Pd22  1  0.565158  0.000117  0.105092  1
  Pd  Pd23  1  0.000117  0.565158  0.894908  1
  Pd  Pd24  1  0.434842  0.999883  0.605092  1
  Pd  Pd25  1  0.999883  0.434842  0.394908  1
  Pd  Pd26  1  0.434842  0.999883  0.894908  1
  Pd  Pd27  1  0.999883  0.434842  0.105092  1
  Pd  Pd28  1  0.690697  0.745771  0.393022  1
  Pd  Pd29  1  0.745771  0.690697  0.606978  1
  Pd  Pd30  1  0.690697  0.745771  0.106978  1
  Pd  Pd31  1  0.745771  0.690697  0.893022  1
  Pd  Pd32  1  0.309303  0.254229  0.606978  1
  Pd  Pd33  1  0.254229  0.309303  0.393022  1
  Pd  Pd34  1  0.309303  0.254229  0.893022  1
  Pd  Pd35  1  0.254229  0.309303  0.106978  1
