# generated using pymatgen
data_RbU(GeO3)3
_symmetry_space_group_name_H-M   'P 1'
_cell_length_a   7.33526500
_cell_length_b   7.33526539
_cell_length_c   10.76373300
_cell_angle_alpha   90.00000000
_cell_angle_beta   90.00000000
_cell_angle_gamma   120.00000273
_symmetry_Int_Tables_number   1
_chemical_formula_structural   RbU(GeO3)3
_chemical_formula_sum   'Rb2 U2 Ge6 O18'
_cell_volume   501.56263546
_cell_formula_units_Z   2
loop_
 _symmetry_equiv_pos_site_id
 _symmetry_equiv_pos_as_xyz
  1  'x, y, z'
loop_
 _atom_site_type_symbol
 _atom_site_label
 _atom_site_symmetry_multiplicity
 _atom_site_fract_x
 _atom_site_fract_y
 _atom_site_fract_z
 _atom_site_occupancy
  Rb  Rb0  1  0.666667  0.333333  0.000000  1
  Rb  Rb1  1  0.666667  0.333333  0.500000  1
  U  U2  1  0.333333  0.666667  0.000000  1
  U  U3  1  0.333333  0.666667  0.500000  1
  Ge  Ge4  1  0.068574  0.280479  0.250000  1
  Ge  Ge5  1  0.211905  0.931426  0.250000  1
  Ge  Ge6  1  0.719521  0.788095  0.250000  1
  Ge  Ge7  1  0.719521  0.931426  0.750000  1
  Ge  Ge8  1  0.211905  0.280479  0.750000  1
  Ge  Ge9  1  0.068574  0.788095  0.750000  1
  O  O10  1  0.256805  0.194326  0.250000  1
  O  O11  1  0.937521  0.743195  0.250000  1
  O  O12  1  0.805674  0.062479  0.250000  1
  O  O13  1  0.805674  0.743195  0.750000  1
  O  O14  1  0.937521  0.194326  0.750000  1
  O  O15  1  0.256805  0.062479  0.750000  1
  O  O16  1  0.092881  0.427568  0.115659  1
  O  O17  1  0.334686  0.907119  0.384341  1
  O  O18  1  0.572432  0.665314  0.384341  1
  O  O19  1  0.572432  0.665314  0.115659  1
  O  O20  1  0.334686  0.907119  0.115659  1
  O  O21  1  0.572432  0.907119  0.884341  1
  O  O22  1  0.334686  0.427568  0.884341  1
  O  O23  1  0.092881  0.665314  0.884341  1
  O  O24  1  0.334686  0.427568  0.615659  1
  O  O25  1  0.092881  0.665314  0.615659  1
  O  O26  1  0.092881  0.427568  0.384341  1
  O  O27  1  0.572432  0.907119  0.615659  1
