# generated using pymatgen
data_Al10Cr2GaRe2
_symmetry_space_group_name_H-M   'P 1'
_cell_length_a   5.14505521
_cell_length_b   5.18513118
_cell_length_c   9.05892322
_cell_angle_alpha   105.75369617
_cell_angle_beta   90.00533556
_cell_angle_gamma   100.66487234
_symmetry_Int_Tables_number   1
_chemical_formula_structural   Al10Cr2GaRe2
_chemical_formula_sum   'Al10 Cr2 Ga1 Re2'
_cell_volume   228.25256944
_cell_formula_units_Z   1
loop_
 _symmetry_equiv_pos_site_id
 _symmetry_equiv_pos_as_xyz
  1  'x, y, z'
loop_
 _atom_site_type_symbol
 _atom_site_label
 _atom_site_symmetry_multiplicity
 _atom_site_fract_x
 _atom_site_fract_y
 _atom_site_fract_z
 _atom_site_occupancy
  Al  Al0  1  0.807648  0.260090  0.632796  1
  Al  Al1  1  0.192352  0.739910  0.367204  1
  Al  Al2  1  0.145552  0.460518  0.871656  1
  Al  Al3  1  0.854448  0.539482  0.128344  1
  Al  Al4  1  0.500405  0.093256  0.871952  1
  Al  Al5  1  0.499595  0.906744  0.128048  1
  Al  Al6  1  0.573985  0.328698  0.378628  1
  Al  Al7  1  0.426015  0.671302  0.621372  1
  Al  Al8  1  0.945840  0.811731  0.671103  1
  Al  Al9  1  0.054160  0.188269  0.328897  1
  Cr  Cr10  1  0.290281  0.146398  0.597788  1
  Cr  Cr11  1  0.709719  0.853602  0.402212  1
  Ga  Ga12  1  0.000000  0.000000  0.000000  1
  Re  Re13  1  0.658122  0.604328  0.864250  1
  Re  Re14  1  0.341878  0.395672  0.135750  1
