# generated using pymatgen
data_LiLa6Al17(Re3Os4)2
_symmetry_space_group_name_H-M   'P 1'
_cell_length_a   8.93786202
_cell_length_b   8.93786412
_cell_length_c   9.78841700
_cell_angle_alpha   90.00000000
_cell_angle_beta   90.00000000
_cell_angle_gamma   119.98923844
_symmetry_Int_Tables_number   1
_chemical_formula_structural   LiLa6Al17(Re3Os4)2
_chemical_formula_sum   'Li1 La6 Al17 Re6 Os8'
_cell_volume   677.26334759
_cell_formula_units_Z   1
loop_
 _symmetry_equiv_pos_site_id
 _symmetry_equiv_pos_as_xyz
  1  'x, y, z'
loop_
 _atom_site_type_symbol
 _atom_site_label
 _atom_site_symmetry_multiplicity
 _atom_site_fract_x
 _atom_site_fract_y
 _atom_site_fract_z
 _atom_site_occupancy
  Li  Li0  1  0.000096  0.999904  0.250000  1
  La  La1  1  0.188402  0.377149  0.250000  1
  La  La2  1  0.805477  0.610680  0.750000  1
  La  La3  1  0.622851  0.811598  0.250000  1
  La  La4  1  0.389320  0.194523  0.750000  1
  La  La5  1  0.188663  0.811337  0.250000  1
  La  La6  1  0.805307  0.194693  0.750000  1
  Al  Al7  1  0.333352  0.666648  0.999441  1
  Al  Al8  1  0.666661  0.333339  0.001540  1
  Al  Al9  1  0.666661  0.333339  0.498460  1
  Al  Al10  1  0.333352  0.666648  0.500559  1
  Al  Al11  1  0.164932  0.330044  0.577521  1
  Al  Al12  1  0.836400  0.672672  0.423398  1
  Al  Al13  1  0.669956  0.835068  0.577521  1
  Al  Al14  1  0.836400  0.672672  0.076602  1
  Al  Al15  1  0.327328  0.163600  0.423398  1
  Al  Al16  1  0.164932  0.330044  0.922479  1
  Al  Al17  1  0.165082  0.834918  0.577422  1
  Al  Al18  1  0.327328  0.163600  0.076602  1
  Al  Al19  1  0.836251  0.163749  0.423476  1
  Al  Al20  1  0.669956  0.835068  0.922479  1
  Al  Al21  1  0.836251  0.163749  0.076524  1
  Al  Al22  1  0.165082  0.834918  0.922578  1
  Al  Al23  1  0.999972  0.000028  0.750000  1
  Re  Re24  1  0.571772  0.143711  0.250000  1
  Re  Re25  1  0.428347  0.856544  0.750000  1
  Re  Re26  1  0.856289  0.428228  0.250000  1
  Re  Re27  1  0.143456  0.571653  0.750000  1
  Re  Re28  1  0.571623  0.428377  0.250000  1
  Re  Re29  1  0.428489  0.571511  0.750000  1
  Os  Os30  1  0.499753  0.999515  0.000991  1
  Os  Os31  1  0.000485  0.500247  0.000991  1
  Os  Os32  1  0.499753  0.999515  0.499009  1
  Os  Os33  1  0.499777  0.500223  0.000937  1
  Os  Os34  1  0.000485  0.500247  0.499009  1
  Os  Os35  1  0.499777  0.500223  0.499063  1
  Os  Os36  1  0.999993  0.000007  0.994194  1
  Os  Os37  1  0.999993  0.000007  0.505806  1
