# generated using pymatgen
data_FePBr8
_symmetry_space_group_name_H-M   'P 1'
_cell_length_a   10.62396300
_cell_length_b   10.30052100
_cell_length_c   15.03118500
_cell_angle_alpha   90.00000000
_cell_angle_beta   90.00000000
_cell_angle_gamma   90.00000000
_symmetry_Int_Tables_number   1
_chemical_formula_structural   FePBr8
_chemical_formula_sum   'Fe4 P4 Br32'
_cell_volume   1644.89795773
_cell_formula_units_Z   4
loop_
 _symmetry_equiv_pos_site_id
 _symmetry_equiv_pos_as_xyz
  1  'x, y, z'
loop_
 _atom_site_type_symbol
 _atom_site_label
 _atom_site_symmetry_multiplicity
 _atom_site_fract_x
 _atom_site_fract_y
 _atom_site_fract_z
 _atom_site_occupancy
  Fe  Fe0  1  0.428867  0.507126  0.164053  1
  Fe  Fe1  1  0.928867  0.992874  0.164053  1
  Fe  Fe2  1  0.071133  0.007126  0.664053  1
  Fe  Fe3  1  0.571132  0.492874  0.664053  1
  P  P4  1  0.036332  0.509965  0.447976  1
  P  P5  1  0.536331  0.990036  0.447976  1
  P  P6  1  0.463669  0.009964  0.947975  1
  P  P7  1  0.963669  0.490036  0.947975  1
  Br  Br8  1  0.968995  0.045573  0.012815  1
  Br  Br9  1  0.468995  0.454427  0.012815  1
  Br  Br10  1  0.579782  0.060782  0.063521  1
  Br  Br11  1  0.079783  0.439219  0.063521  1
  Br  Br12  1  0.351492  0.722147  0.171135  1
  Br  Br13  1  0.851492  0.777853  0.171135  1
  Br  Br14  1  0.770649  0.136405  0.216319  1
  Br  Br15  1  0.270650  0.363594  0.216319  1
  Br  Br16  1  0.108615  0.015457  0.250215  1
  Br  Br17  1  0.608616  0.484543  0.250215  1
  Br  Br18  1  0.975973  0.627717  0.334300  1
  Br  Br19  1  0.475974  0.872284  0.334300  1
  Br  Br20  1  0.508411  0.194026  0.415644  1
  Br  Br21  1  0.008411  0.305974  0.415644  1
  Br  Br22  1  0.236448  0.538958  0.477490  1
  Br  Br23  1  0.736447  0.961043  0.477490  1
  Br  Br24  1  0.531005  0.545573  0.512815  1
  Br  Br25  1  0.031005  0.954427  0.512815  1
  Br  Br26  1  0.920218  0.560782  0.563521  1
  Br  Br27  1  0.420217  0.939218  0.563521  1
  Br  Br28  1  0.148507  0.222147  0.671134  1
  Br  Br29  1  0.648507  0.277854  0.671134  1
  Br  Br30  1  0.729350  0.636406  0.716319  1
  Br  Br31  1  0.229350  0.863594  0.716319  1
  Br  Br32  1  0.391385  0.515457  0.750215  1
  Br  Br33  1  0.891385  0.984544  0.750215  1
  Br  Br34  1  0.524028  0.127716  0.834301  1
  Br  Br35  1  0.024027  0.372284  0.834301  1
  Br  Br36  1  0.991590  0.694027  0.915644  1
  Br  Br37  1  0.491590  0.805974  0.915644  1
  Br  Br38  1  0.263552  0.038957  0.977491  1
  Br  Br39  1  0.763553  0.461043  0.977491  1
