# generated using pymatgen
data_Nd3SnHgPt3Pb
_symmetry_space_group_name_H-M   'P 1'
_cell_length_a   7.78857702
_cell_length_b   7.87942687
_cell_length_c   4.02048600
_cell_angle_alpha   90.00000000
_cell_angle_beta   90.00000000
_cell_angle_gamma   119.97780528
_symmetry_Int_Tables_number   1
_chemical_formula_structural   Nd3SnHgPt3Pb
_chemical_formula_sum   'Nd3 Sn1 Hg1 Pt3 Pb1'
_cell_volume   213.72681807
_cell_formula_units_Z   1
loop_
 _symmetry_equiv_pos_site_id
 _symmetry_equiv_pos_as_xyz
  1  'x, y, z'
loop_
 _atom_site_type_symbol
 _atom_site_label
 _atom_site_symmetry_multiplicity
 _atom_site_fract_x
 _atom_site_fract_y
 _atom_site_fract_z
 _atom_site_occupancy
  Nd  Nd0  1  0.604864  0.597234  0.000000  1
  Nd  Nd1  1  0.397208  0.989719  0.000000  1
  Nd  Nd2  1  0.998455  0.416928  0.000000  1
  Sn  Sn3  1  0.744142  0.001118  0.500000  1
  Hg  Hg4  1  0.000256  0.738000  0.500000  1
  Pt  Pt5  1  0.984996  0.003036  0.000000  1
  Pt  Pt6  1  0.346359  0.673978  0.500000  1
  Pt  Pt7  1  0.666873  0.321636  0.500000  1
  Pb  Pb8  1  0.256847  0.258351  0.500000  1
