# generated using pymatgen
data_V9SnSb2
_symmetry_space_group_name_H-M   'P 1'
_cell_length_a   4.96078400
_cell_length_b   4.95427100
_cell_length_c   14.78653700
_cell_angle_alpha   90.00000000
_cell_angle_beta   90.00000000
_cell_angle_gamma   90.00000000
_symmetry_Int_Tables_number   1
_chemical_formula_structural   V9SnSb2
_chemical_formula_sum   'V18 Sn2 Sb4'
_cell_volume   363.40972989
_cell_formula_units_Z   2
loop_
 _symmetry_equiv_pos_site_id
 _symmetry_equiv_pos_as_xyz
  1  'x, y, z'
loop_
 _atom_site_type_symbol
 _atom_site_label
 _atom_site_symmetry_multiplicity
 _atom_site_fract_x
 _atom_site_fract_y
 _atom_site_fract_z
 _atom_site_occupancy
  V  V0  1  0.500000  0.000000  0.248994  1
  V  V1  1  0.500000  0.000000  0.582937  1
  V  V2  1  0.500000  0.000000  0.916334  1
  V  V3  1  0.748977  0.500000  0.000000  1
  V  V4  1  0.747924  0.500000  0.332865  1
  V  V5  1  0.747924  0.500000  0.667135  1
  V  V6  1  0.000000  0.745979  0.165125  1
  V  V7  1  0.000000  0.744715  0.500000  1
  V  V8  1  0.000000  0.745979  0.834875  1
  V  V9  1  0.500000  0.000000  0.083666  1
  V  V10  1  0.500000  0.000000  0.417063  1
  V  V11  1  0.500000  0.000000  0.751006  1
  V  V12  1  0.251023  0.500000  0.000000  1
  V  V13  1  0.252076  0.500000  0.332865  1
  V  V14  1  0.252076  0.500000  0.667135  1
  V  V15  1  0.000000  0.254021  0.165125  1
  V  V16  1  0.000000  0.255285  0.500000  1
  V  V17  1  0.000000  0.254021  0.834875  1
  Sn  Sn18  1  0.000000  0.000000  0.332706  1
  Sn  Sn19  1  0.000000  0.000000  0.667294  1
  Sb  Sb20  1  0.500000  0.500000  0.166184  1
  Sb  Sb21  1  0.500000  0.500000  0.500000  1
  Sb  Sb22  1  0.500000  0.500000  0.833816  1
  Sb  Sb23  1  0.000000  0.000000  0.000000  1
