# generated using pymatgen
data_Hf12Al4Re3Ir5
_symmetry_space_group_name_H-M   'P 1'
_cell_length_a   8.53116873
_cell_length_b   8.53116921
_cell_length_c   8.53116919
_cell_angle_alpha   59.87036778
_cell_angle_beta   59.87036226
_cell_angle_gamma   59.87037340
_symmetry_Int_Tables_number   1
_chemical_formula_structural   Hf12Al4Re3Ir5
_chemical_formula_sum   'Hf12 Al4 Re3 Ir5'
_cell_volume   437.75518232
_cell_formula_units_Z   1
loop_
 _symmetry_equiv_pos_site_id
 _symmetry_equiv_pos_as_xyz
  1  'x, y, z'
loop_
 _atom_site_type_symbol
 _atom_site_label
 _atom_site_symmetry_multiplicity
 _atom_site_fract_x
 _atom_site_fract_y
 _atom_site_fract_z
 _atom_site_occupancy
  Hf  Hf0  1  0.802638  0.802638  0.197517  1
  Hf  Hf1  1  0.196519  0.196519  0.804614  1
  Hf  Hf2  1  0.802638  0.197517  0.802638  1
  Hf  Hf3  1  0.196519  0.804614  0.196519  1
  Hf  Hf4  1  0.197517  0.802638  0.802638  1
  Hf  Hf5  1  0.804614  0.196519  0.196519  1
  Hf  Hf6  1  0.444487  0.444487  0.052771  1
  Hf  Hf7  1  0.056745  0.056745  0.442859  1
  Hf  Hf8  1  0.444487  0.052771  0.444487  1
  Hf  Hf9  1  0.056745  0.442859  0.056745  1
  Hf  Hf10  1  0.052771  0.444487  0.444487  1
  Hf  Hf11  1  0.442859  0.056745  0.056745  1
  Al  Al12  1  0.119360  0.626551  0.626551  1
  Al  Al13  1  0.626551  0.119360  0.626551  1
  Al  Al14  1  0.626551  0.626551  0.119360  1
  Al  Al15  1  0.628002  0.628002  0.628002  1
  Re  Re16  1  0.753432  0.416152  0.416152  1
  Re  Re17  1  0.416152  0.753432  0.416152  1
  Re  Re18  1  0.416152  0.416152  0.753432  1
  Ir  Ir19  1  0.413659  0.413659  0.413659  1
  Ir  Ir20  1  0.485201  0.838945  0.838945  1
  Ir  Ir21  1  0.838945  0.485201  0.838945  1
  Ir  Ir22  1  0.838945  0.838945  0.485201  1
  Ir  Ir23  1  0.838515  0.838515  0.838515  1
