# generated using pymatgen
data_Ta6Si5Mo6P
_symmetry_space_group_name_H-M   'P 1'
_cell_length_a   7.68210647
_cell_length_b   7.68235806
_cell_length_c   7.68210891
_cell_angle_alpha   126.50899065
_cell_angle_beta   128.36860241
_cell_angle_gamma   77.54460732
_symmetry_Int_Tables_number   1
_chemical_formula_structural   Ta6Si5Mo6P
_chemical_formula_sum   'Ta6 Si5 Mo6 P1'
_cell_volume   277.08674229
_cell_formula_units_Z   1
loop_
 _symmetry_equiv_pos_site_id
 _symmetry_equiv_pos_as_xyz
  1  'x, y, z'
loop_
 _atom_site_type_symbol
 _atom_site_label
 _atom_site_symmetry_multiplicity
 _atom_site_fract_x
 _atom_site_fract_y
 _atom_site_fract_z
 _atom_site_occupancy
  Ta  Ta0  1  0.547817  0.091447  0.043630  1
  Ta  Ta1  1  0.449977  0.497087  0.547109  1
  Ta  Ta2  1  0.952388  0.496438  0.044048  1
  Ta  Ta3  1  0.049422  0.095050  0.545628  1
  Ta  Ta4  1  0.750764  0.901841  0.651077  1
  Ta  Ta5  1  0.249706  0.899240  0.149535  1
  Si  Si6  1  0.249519  0.496834  0.747315  1
  Si  Si7  1  0.333489  0.829780  0.496641  1
  Si  Si8  1  0.666030  0.163759  0.495832  1
  Si  Si9  1  0.833139  0.829780  0.996292  1
  Si  Si10  1  0.167926  0.163759  0.997727  1
  Mo  Mo11  1  0.504460  0.240694  0.745061  1
  Mo  Mo12  1  0.995633  0.240694  0.236234  1
  Mo  Mo13  1  0.123963  0.752791  0.620777  1
  Mo  Mo14  1  0.867279  0.496787  0.620286  1
  Mo  Mo15  1  0.632014  0.752791  0.128828  1
  Mo  Mo16  1  0.376501  0.496787  0.129509  1
  P  P17  1  0.749971  0.496640  0.246669  1
