# generated using pymatgen
data_Dy8TaTi(Si8W5)2
_symmetry_space_group_name_H-M   'P 1'
_cell_length_a   6.90314997
_cell_length_b   6.90314975
_cell_length_c   12.85315506
_cell_angle_alpha   90.03495473
_cell_angle_beta   89.96504402
_cell_angle_gamma   90.39551063
_symmetry_Int_Tables_number   1
_chemical_formula_structural   Dy8TaTi(Si8W5)2
_chemical_formula_sum   'Dy8 Ta1 Ti1 Si16 W10'
_cell_volume   612.48272264
_cell_formula_units_Z   1
loop_
 _symmetry_equiv_pos_site_id
 _symmetry_equiv_pos_as_xyz
  1  'x, y, z'
loop_
 _atom_site_type_symbol
 _atom_site_label
 _atom_site_symmetry_multiplicity
 _atom_site_fract_x
 _atom_site_fract_y
 _atom_site_fract_z
 _atom_site_occupancy
  Dy  Dy0  1  0.000033  0.664380  0.030961  1
  Dy  Dy1  1  0.999682  0.335733  0.530999  1
  Dy  Dy2  1  0.664380  0.000033  0.969039  1
  Dy  Dy3  1  0.162182  0.499701  0.781394  1
  Dy  Dy4  1  0.838709  0.501646  0.281206  1
  Dy  Dy5  1  0.499701  0.162182  0.218606  1
  Dy  Dy6  1  0.501646  0.838709  0.718794  1
  Dy  Dy7  1  0.335733  0.999682  0.469001  1
  Ta  Ta8  1  0.667668  0.667668  0.500000  1
  Ti  Ti9  1  0.331187  0.331187  0.000000  1
  Si  Si10  1  0.038689  0.710815  0.435247  1
  Si  Si11  1  0.961042  0.291152  0.934587  1
  Si  Si12  1  0.710815  0.038689  0.564753  1
  Si  Si13  1  0.210009  0.464795  0.187127  1
  Si  Si14  1  0.790643  0.534149  0.689358  1
  Si  Si15  1  0.464795  0.210009  0.812873  1
  Si  Si16  1  0.534149  0.790643  0.310642  1
  Si  Si17  1  0.291152  0.961042  0.065413  1
  Si  Si18  1  0.801214  0.874585  0.183578  1
  Si  Si19  1  0.295034  0.626097  0.567173  1
  Si  Si20  1  0.703452  0.372343  0.065844  1
  Si  Si21  1  0.626097  0.295034  0.432827  1
  Si  Si22  1  0.372343  0.703452  0.934156  1
  Si  Si23  1  0.125754  0.199954  0.315215  1
  Si  Si24  1  0.199954  0.125754  0.684785  1
  Si  Si25  1  0.874585  0.801214  0.816422  1
  W  W26  1  0.339493  0.503655  0.376518  1
  W  W27  1  0.832095  0.998574  0.374088  1
  W  W28  1  0.003420  0.166780  0.123706  1
  W  W29  1  0.998574  0.832095  0.625912  1
  W  W30  1  0.503655  0.339493  0.623482  1
  W  W31  1  0.166780  0.003420  0.876294  1
  W  W32  1  0.833743  0.165418  0.748870  1
  W  W33  1  0.165418  0.833743  0.251130  1
  W  W34  1  0.498002  0.658168  0.122878  1
  W  W35  1  0.658168  0.498002  0.877122  1
