# generated using pymatgen
data_Yb3PuTi4O12
_symmetry_space_group_name_H-M   'P 1'
_cell_length_a   5.34018700
_cell_length_b   5.51176873
_cell_length_c   7.63384700
_cell_angle_alpha   90.00000000
_cell_angle_beta   90.00000000
_cell_angle_gamma   89.85063162
_symmetry_Int_Tables_number   1
_chemical_formula_structural   Yb3PuTi4O12
_chemical_formula_sum   'Yb3 Pu1 Ti4 O12'
_cell_volume   224.69294031
_cell_formula_units_Z   1
loop_
 _symmetry_equiv_pos_site_id
 _symmetry_equiv_pos_as_xyz
  1  'x, y, z'
loop_
 _atom_site_type_symbol
 _atom_site_label
 _atom_site_symmetry_multiplicity
 _atom_site_fract_x
 _atom_site_fract_y
 _atom_site_fract_z
 _atom_site_occupancy
  Yb  Yb0  1  0.514652  0.945192  0.750000  1
  Yb  Yb1  1  0.488673  0.052412  0.250000  1
  Yb  Yb2  1  0.012116  0.557014  0.250000  1
  Pu  Pu3  1  0.990400  0.446187  0.750000  1
  Ti  Ti4  1  0.001494  0.999602  0.003254  1
  Ti  Ti5  1  0.001494  0.999602  0.496746  1
  Ti  Ti6  1  0.498907  0.500026  0.004186  1
  Ti  Ti7  1  0.498907  0.500026  0.495814  1
  O  O8  1  0.087590  0.015902  0.750000  1
  O  O9  1  0.200807  0.297429  0.043769  1
  O  O10  1  0.200807  0.297429  0.456231  1
  O  O11  1  0.295731  0.794799  0.452541  1
  O  O12  1  0.295731  0.794799  0.047459  1
  O  O13  1  0.416376  0.527807  0.750000  1
  O  O14  1  0.587837  0.473403  0.250000  1
  O  O15  1  0.701703  0.204842  0.953296  1
  O  O16  1  0.701703  0.204842  0.546704  1
  O  O17  1  0.796421  0.705714  0.543113  1
  O  O18  1  0.796421  0.705714  0.956887  1
  O  O19  1  0.912228  0.977260  0.250000  1
