# generated using pymatgen
data_Hf2Sc(AsRu)3
_symmetry_space_group_name_H-M   'P 1'
_cell_length_a   7.67608275
_cell_length_b   7.67608356
_cell_length_c   7.67608342
_cell_angle_alpha   128.22559367
_cell_angle_beta   120.31714928
_cell_angle_gamma   82.90323532
_symmetry_Int_Tables_number   1
_chemical_formula_structural   Hf2Sc(AsRu)3
_chemical_formula_sum   'Hf4 Sc2 As6 Ru6'
_cell_volume   294.59500638
_cell_formula_units_Z   2
loop_
 _symmetry_equiv_pos_site_id
 _symmetry_equiv_pos_as_xyz
  1  'x, y, z'
loop_
 _atom_site_type_symbol
 _atom_site_label
 _atom_site_symmetry_multiplicity
 _atom_site_fract_x
 _atom_site_fract_y
 _atom_site_fract_z
 _atom_site_occupancy
  Hf  Hf0  1  0.750758  0.832599  0.581841  1
  Hf  Hf1  1  0.249242  0.831084  0.081841  1
  Hf  Hf2  1  0.051934  0.258252  0.706318  1
  Hf  Hf3  1  0.948066  0.654384  0.206318  1
  Sc  Sc4  1  0.469776  0.698000  0.728223  1
  Sc  Sc5  1  0.530224  0.258447  0.228223  1
  As  As6  1  0.279111  0.277587  0.498477  1
  As  As7  1  0.720889  0.219366  0.998477  1
  As  As8  1  0.330693  0.586450  0.251479  1
  As  As9  1  0.669307  0.920785  0.255757  1
  As  As10  1  0.165028  0.920785  0.751479  1
  As  As11  1  0.834972  0.586450  0.755757  1
  Ru  Ru12  1  0.500000  0.497567  0.997567  1
  Ru  Ru13  1  0.000000  0.497567  0.497567  1
  Ru  Ru14  1  0.088062  0.251789  0.096411  1
  Ru  Ru15  1  0.911938  0.008348  0.163727  1
  Ru  Ru16  1  0.344622  0.008348  0.596411  1
  Ru  Ru17  1  0.655378  0.251789  0.663727  1
