# generated using pymatgen
data_Th8Ni3Os3Rh2
_symmetry_space_group_name_H-M   'P 1'
_cell_length_a   4.24220500
_cell_length_b   5.90417104
_cell_length_c   14.56458322
_cell_angle_alpha   90.12370580
_cell_angle_beta   90.00000000
_cell_angle_gamma   90.00000000
_symmetry_Int_Tables_number   1
_chemical_formula_structural   Th8Ni3Os3Rh2
_chemical_formula_sum   'Th8 Ni3 Os3 Rh2'
_cell_volume   364.79395314
_cell_formula_units_Z   1
loop_
 _symmetry_equiv_pos_site_id
 _symmetry_equiv_pos_as_xyz
  1  'x, y, z'
loop_
 _atom_site_type_symbol
 _atom_site_label
 _atom_site_symmetry_multiplicity
 _atom_site_fract_x
 _atom_site_fract_y
 _atom_site_fract_z
 _atom_site_occupancy
  Th  Th0  1  0.250000  0.547814  0.285964  1
  Th  Th1  1  0.750000  0.450816  0.716092  1
  Th  Th2  1  0.250000  0.953002  0.785427  1
  Th  Th3  1  0.250000  0.759447  0.538515  1
  Th  Th4  1  0.250000  0.743019  0.031728  1
  Th  Th5  1  0.750000  0.255272  0.963262  1
  Th  Th6  1  0.750000  0.052053  0.214575  1
  Th  Th7  1  0.750000  0.242596  0.464505  1
  Ni  Ni8  1  0.750000  0.765839  0.902556  1
  Ni  Ni9  1  0.250000  0.232402  0.097297  1
  Ni  Ni10  1  0.250000  0.263016  0.600418  1
  Os  Os11  1  0.250000  0.065059  0.348711  1
  Os  Os12  1  0.250000  0.446265  0.855000  1
  Os  Os13  1  0.750000  0.946577  0.649337  1
  Rh  Rh14  1  0.750000  0.555467  0.143256  1
  Rh  Rh15  1  0.750000  0.721358  0.403358  1
