# generated using pymatgen
data_SmZn2GaNi2
_symmetry_space_group_name_H-M   'P 1'
_cell_length_a   8.88098700
_cell_length_b   8.88098644
_cell_length_c   4.19211600
_cell_angle_alpha   90.00000000
_cell_angle_beta   90.00000000
_cell_angle_gamma   119.99999834
_symmetry_Int_Tables_number   1
_chemical_formula_structural   SmZn2GaNi2
_chemical_formula_sum   'Sm3 Zn6 Ga3 Ni6'
_cell_volume   286.34286895
_cell_formula_units_Z   3
loop_
 _symmetry_equiv_pos_site_id
 _symmetry_equiv_pos_as_xyz
  1  'x, y, z'
loop_
 _atom_site_type_symbol
 _atom_site_label
 _atom_site_symmetry_multiplicity
 _atom_site_fract_x
 _atom_site_fract_y
 _atom_site_fract_z
 _atom_site_occupancy
  Sm  Sm0  1  0.000000  0.000000  0.500000  1
  Sm  Sm1  1  0.333333  0.666667  0.000000  1
  Sm  Sm2  1  0.666667  0.333333  0.000000  1
  Zn  Zn3  1  0.290214  0.000000  0.000000  1
  Zn  Zn4  1  0.290214  0.290214  0.000000  1
  Zn  Zn5  1  0.000000  0.709786  0.000000  1
  Zn  Zn6  1  0.000000  0.290214  0.000000  1
  Zn  Zn7  1  0.709786  0.709786  0.000000  1
  Zn  Zn8  1  0.709786  0.000000  0.000000  1
  Ga  Ga9  1  0.500000  0.000000  0.500000  1
  Ga  Ga10  1  0.500000  0.500000  0.500000  1
  Ga  Ga11  1  0.000000  0.500000  0.500000  1
  Ni  Ni12  1  0.184169  0.368338  0.500000  1
  Ni  Ni13  1  0.815831  0.184169  0.500000  1
  Ni  Ni14  1  0.368338  0.184169  0.500000  1
  Ni  Ni15  1  0.631662  0.815831  0.500000  1
  Ni  Ni16  1  0.184169  0.815831  0.500000  1
  Ni  Ni17  1  0.815831  0.631662  0.500000  1
