# generated using pymatgen
data_Pr4Nd3Er13Si16
_symmetry_space_group_name_H-M   'P 1'
_cell_length_a   7.71417281
_cell_length_b   7.72008236
_cell_length_c   14.26713831
_cell_angle_alpha   89.99147224
_cell_angle_beta   89.85204270
_cell_angle_gamma   90.07577569
_symmetry_Int_Tables_number   1
_chemical_formula_structural   Pr4Nd3Er13Si16
_chemical_formula_sum   'Pr4 Nd3 Er13 Si16'
_cell_volume   849.66227347
_cell_formula_units_Z   1
loop_
 _symmetry_equiv_pos_site_id
 _symmetry_equiv_pos_as_xyz
  1  'x, y, z'
loop_
 _atom_site_type_symbol
 _atom_site_label
 _atom_site_symmetry_multiplicity
 _atom_site_fract_x
 _atom_site_fract_y
 _atom_site_fract_z
 _atom_site_occupancy
  Pr  Pr0  1  0.358016  0.007667  0.958322  1
  Pr  Pr1  1  0.992187  0.643175  0.540535  1
  Pr  Pr2  1  0.490330  0.858142  0.209761  1
  Pr  Pr3  1  0.509671  0.139993  0.707280  1
  Nd  Nd4  1  0.859809  0.490515  0.791637  1
  Nd  Nd5  1  0.139709  0.508586  0.292976  1
  Nd  Nd6  1  0.007473  0.358272  0.042568  1
  Er  Er7  1  0.491354  0.360638  0.124864  1
  Er  Er8  1  0.991917  0.136890  0.624241  1
  Er  Er9  1  0.861759  0.008179  0.874566  1
  Er  Er10  1  0.137435  0.993397  0.375161  1
  Er  Er11  1  0.510911  0.639850  0.622789  1
  Er  Er12  1  0.361077  0.491326  0.875309  1
  Er  Er13  1  0.639926  0.509910  0.376379  1
  Er  Er14  1  0.006384  0.861175  0.126624  1
  Er  Er15  1  0.636312  0.996076  0.456031  1
  Er  Er16  1  0.318283  0.316926  0.499769  1
  Er  Er17  1  0.184048  0.816378  0.749091  1
  Er  Er18  1  0.815309  0.182873  0.250614  1
  Er  Er19  1  0.682842  0.681395  0.000257  1
  Si  Si20  1  0.293940  0.938648  0.559982  1
  Si  Si21  1  0.710263  0.063632  0.061786  1
  Si  Si22  1  0.933599  0.287584  0.438027  1
  Si  Si23  1  0.437976  0.209722  0.313130  1
  Si  Si24  1  0.565015  0.787612  0.811598  1
  Si  Si25  1  0.211694  0.436304  0.687835  1
  Si  Si26  1  0.788564  0.564550  0.189002  1
  Si  Si27  1  0.063930  0.709933  0.938617  1
  Si  Si28  1  0.799136  0.844878  0.690953  1
  Si  Si29  1  0.202168  0.153396  0.189924  1
  Si  Si30  1  0.843767  0.801503  0.314269  1
  Si  Si31  1  0.351009  0.706968  0.437893  1
  Si  Si32  1  0.653539  0.296495  0.939793  1
  Si  Si33  1  0.701739  0.342519  0.558498  1
  Si  Si34  1  0.295594  0.652360  0.060583  1
  Si  Si35  1  0.153311  0.202531  0.809337  1
