# generated using pymatgen
data_Ac4In3Au10
_symmetry_space_group_name_H-M   'P 1'
_cell_length_a   9.12919441
_cell_length_b   9.12919505
_cell_length_c   10.62879700
_cell_angle_alpha   90.00000000
_cell_angle_beta   90.00000000
_cell_angle_gamma   109.36981703
_symmetry_Int_Tables_number   1
_chemical_formula_structural   Ac4In3Au10
_chemical_formula_sum   'Ac8 In6 Au20'
_cell_volume   835.68725416
_cell_formula_units_Z   2
loop_
 _symmetry_equiv_pos_site_id
 _symmetry_equiv_pos_as_xyz
  1  'x, y, z'
loop_
 _atom_site_type_symbol
 _atom_site_label
 _atom_site_symmetry_multiplicity
 _atom_site_fract_x
 _atom_site_fract_y
 _atom_site_fract_z
 _atom_site_occupancy
  Ac  Ac0  1  0.703480  0.296520  0.000000  1
  Ac  Ac1  1  0.203480  0.796520  0.500000  1
  Ac  Ac2  1  0.798775  0.798775  0.299363  1
  Ac  Ac3  1  0.298775  0.298775  0.200637  1
  Ac  Ac4  1  0.796520  0.203480  0.500000  1
  Ac  Ac5  1  0.296520  0.703480  0.000000  1
  Ac  Ac6  1  0.701225  0.701225  0.799363  1
  Ac  Ac7  1  0.201225  0.201225  0.700637  1
  In  In8  1  0.506834  0.006834  0.250000  1
  In  In9  1  0.993166  0.493166  0.750000  1
  In  In10  1  0.000000  0.000000  0.000000  1
  In  In11  1  0.006834  0.506834  0.250000  1
  In  In12  1  0.493166  0.993166  0.750000  1
  In  In13  1  0.500000  0.500000  0.500000  1
  Au  Au14  1  0.163707  0.429333  0.466731  1
  Au  Au15  1  0.906658  0.906658  0.593916  1
  Au  Au16  1  0.570667  0.836293  0.533269  1
  Au  Au17  1  0.900727  0.169222  0.205180  1
  Au  Au18  1  0.400727  0.669222  0.294820  1
  Au  Au19  1  0.669222  0.400727  0.294820  1
  Au  Au20  1  0.406658  0.406658  0.906084  1
  Au  Au21  1  0.929333  0.663707  0.033269  1
  Au  Au22  1  0.330778  0.599273  0.705180  1
  Au  Au23  1  0.336293  0.070667  0.966731  1
  Au  Au24  1  0.593342  0.593342  0.093916  1
  Au  Au25  1  0.663707  0.929333  0.033269  1
  Au  Au26  1  0.093342  0.093342  0.406084  1
  Au  Au27  1  0.599273  0.330778  0.705180  1
  Au  Au28  1  0.099273  0.830778  0.794820  1
  Au  Au29  1  0.070667  0.336293  0.966731  1
  Au  Au30  1  0.836293  0.570667  0.533269  1
  Au  Au31  1  0.169222  0.900727  0.205180  1
  Au  Au32  1  0.429333  0.163707  0.466731  1
  Au  Au33  1  0.830778  0.099273  0.794820  1
