# generated using pymatgen
data_Nd5Sm3(OsI4)2
_symmetry_space_group_name_H-M   'P 1'
_cell_length_a   11.12173788
_cell_length_b   11.10583128
_cell_length_c   6.41236608
_cell_angle_alpha   90.34430952
_cell_angle_beta   90.37430755
_cell_angle_gamma   89.77690694
_symmetry_Int_Tables_number   1
_chemical_formula_structural   Nd5Sm3(OsI4)2
_chemical_formula_sum   'Nd5 Sm3 Os2 I8'
_cell_volume   791.99364917
_cell_formula_units_Z   1
loop_
 _symmetry_equiv_pos_site_id
 _symmetry_equiv_pos_as_xyz
  1  'x, y, z'
loop_
 _atom_site_type_symbol
 _atom_site_label
 _atom_site_symmetry_multiplicity
 _atom_site_fract_x
 _atom_site_fract_y
 _atom_site_fract_z
 _atom_site_occupancy
  Nd  Nd0  1  0.787247  0.085303  0.998194  1
  Nd  Nd1  1  0.085538  0.787938  0.498302  1
  Nd  Nd2  1  0.083040  0.212268  0.004047  1
  Nd  Nd3  1  0.211902  0.083375  0.504123  1
  Nd  Nd4  1  0.914959  0.788568  0.995871  1
  Sm  Sm5  1  0.917522  0.206787  0.501639  1
  Sm  Sm6  1  0.206333  0.917253  0.001788  1
  Sm  Sm7  1  0.794105  0.917683  0.495882  1
  Os  Os8  1  0.000043  0.999983  0.249773  1
  Os  Os9  1  0.000004  0.999966  0.750184  1
  I  I10  1  0.634096  0.158341  0.499978  1
  I  I11  1  0.839986  0.633948  0.500654  1
  I  I12  1  0.368179  0.155090  0.999307  1
  I  I13  1  0.154941  0.368392  0.499234  1
  I  I14  1  0.631094  0.841842  0.001601  1
  I  I15  1  0.369433  0.840088  0.499664  1
  I  I16  1  0.161655  0.633062  0.000084  1
  I  I17  1  0.839923  0.370115  0.999675  1
