# generated using pymatgen
data_Y20N19
_symmetry_space_group_name_H-M   'P 1'
_cell_length_a   9.21300366
_cell_length_b   9.21300333
_cell_length_c   9.21300401
_cell_angle_alpha   106.55375658
_cell_angle_beta   106.55375371
_cell_angle_gamma   115.47837542
_symmetry_Int_Tables_number   1
_chemical_formula_structural   Y20N19
_chemical_formula_sum   'Y20 N19'
_cell_volume   596.96521371
_cell_formula_units_Z   1
loop_
 _symmetry_equiv_pos_site_id
 _symmetry_equiv_pos_as_xyz
  1  'x, y, z'
loop_
 _atom_site_type_symbol
 _atom_site_label
 _atom_site_symmetry_multiplicity
 _atom_site_fract_x
 _atom_site_fract_y
 _atom_site_fract_z
 _atom_site_occupancy
  Y  Y0  1  0.047559  0.650045  0.200521  1
  Y  Y1  1  0.395123  0.708656  0.103780  1
  Y  Y2  1  0.100084  0.798283  0.898366  1
  Y  Y3  1  0.760163  0.760163  0.000000  1
  Y  Y4  1  0.798283  0.899916  0.698199  1
  Y  Y5  1  0.449524  0.847036  0.799479  1
  Y  Y6  1  0.500000  0.000000  0.500000  1
  Y  Y7  1  0.152964  0.952441  0.602486  1
  Y  Y8  1  0.201717  0.100084  0.301801  1
  Y  Y9  1  0.847036  0.047559  0.397514  1
  Y  Y10  1  0.899916  0.201717  0.101634  1
  Y  Y11  1  0.550476  0.152964  0.200521  1
  Y  Y12  1  0.604877  0.291344  0.896220  1
  Y  Y13  1  0.239837  0.239837  0.000000  1
  Y  Y14  1  0.291344  0.395123  0.686468  1
  Y  Y15  1  0.952441  0.349955  0.799479  1
  Y  Y16  1  0.000000  0.500000  0.500000  1
  Y  Y17  1  0.650045  0.449524  0.602486  1
  Y  Y18  1  0.708656  0.604877  0.313532  1
  Y  Y19  1  0.349955  0.550476  0.397514  1
  N  N20  1  0.898382  0.699265  0.597646  1
  N  N21  1  0.550570  0.650128  0.702459  1
  N  N22  1  0.600116  0.798892  0.399008  1
  N  N23  1  0.250000  0.750000  0.500000  1
  N  N24  1  0.300735  0.898382  0.199117  1
  N  N25  1  0.947669  0.848111  0.297541  1
  N  N26  1  0.000000  0.000000  0.000000  1
  N  N27  1  0.650128  0.947669  0.099558  1
  N  N28  1  0.699265  0.101618  0.800883  1
  N  N29  1  0.349872  0.052331  0.900442  1
  N  N30  1  0.052331  0.151889  0.702459  1
  N  N31  1  0.750000  0.250000  0.500000  1
  N  N32  1  0.399884  0.201108  0.600992  1
  N  N33  1  0.449430  0.349872  0.297541  1
  N  N34  1  0.101618  0.300735  0.402354  1
  N  N35  1  0.151889  0.449430  0.099558  1
  N  N36  1  0.201108  0.600116  0.801224  1
  N  N37  1  0.798892  0.399884  0.198776  1
  N  N38  1  0.848111  0.550570  0.900442  1
