# generated using pymatgen
data_TbLu2Mg3Si2Ag
_symmetry_space_group_name_H-M   'P 1'
_cell_length_a   7.21238251
_cell_length_b   7.21238218
_cell_length_c   4.28257100
_cell_angle_alpha   90.00000000
_cell_angle_beta   90.00000000
_cell_angle_gamma   120.44141184
_symmetry_Int_Tables_number   1
_chemical_formula_structural   TbLu2Mg3Si2Ag
_chemical_formula_sum   'Tb1 Lu2 Mg3 Si2 Ag1'
_cell_volume   192.06300847
_cell_formula_units_Z   1
loop_
 _symmetry_equiv_pos_site_id
 _symmetry_equiv_pos_as_xyz
  1  'x, y, z'
loop_
 _atom_site_type_symbol
 _atom_site_label
 _atom_site_symmetry_multiplicity
 _atom_site_fract_x
 _atom_site_fract_y
 _atom_site_fract_z
 _atom_site_occupancy
  Tb  Tb0  1  0.425331  0.425331  0.000000  1
  Lu  Lu1  1  0.576429  0.001249  0.000000  1
  Lu  Lu2  1  0.001249  0.576429  0.000000  1
  Mg  Mg3  1  0.248499  0.998958  0.500000  1
  Mg  Mg4  1  0.998958  0.248499  0.500000  1
  Mg  Mg5  1  0.752421  0.752421  0.500000  1
  Si  Si6  1  0.332070  0.669895  0.500000  1
  Si  Si7  1  0.669895  0.332070  0.500000  1
  Ag  Ag8  1  0.995148  0.995148  0.000000  1
