# generated using pymatgen
data_Th4Al17ZnIr6
_symmetry_space_group_name_H-M   'P 1'
_cell_length_a   7.64690671
_cell_length_b   7.64690611
_cell_length_c   9.54831000
_cell_angle_alpha   90.00000000
_cell_angle_beta   90.00000000
_cell_angle_gamma   119.21637045
_symmetry_Int_Tables_number   1
_chemical_formula_structural   Th4Al17ZnIr6
_chemical_formula_sum   'Th4 Al17 Zn1 Ir6'
_cell_volume   487.30870062
_cell_formula_units_Z   1
loop_
 _symmetry_equiv_pos_site_id
 _symmetry_equiv_pos_as_xyz
  1  'x, y, z'
loop_
 _atom_site_type_symbol
 _atom_site_label
 _atom_site_symmetry_multiplicity
 _atom_site_fract_x
 _atom_site_fract_y
 _atom_site_fract_z
 _atom_site_occupancy
  Th  Th0  1  0.994311  0.673286  0.750000  1
  Th  Th1  1  0.005013  0.327534  0.250000  1
  Th  Th2  1  0.673286  0.994311  0.750000  1
  Th  Th3  1  0.327534  0.005013  0.250000  1
  Al  Al4  1  0.864776  0.864776  0.250000  1
  Al  Al5  1  0.006214  0.334323  0.576203  1
  Al  Al6  1  0.995337  0.663526  0.425936  1
  Al  Al7  1  0.995337  0.663526  0.074064  1
  Al  Al8  1  0.334323  0.006214  0.923797  1
  Al  Al9  1  0.006214  0.334323  0.923797  1
  Al  Al10  1  0.663526  0.995337  0.074064  1
  Al  Al11  1  0.663526  0.995337  0.425936  1
  Al  Al12  1  0.334323  0.006214  0.576203  1
  Al  Al13  1  0.336260  0.336260  0.046448  1
  Al  Al14  1  0.663786  0.663786  0.952225  1
  Al  Al15  1  0.663786  0.663786  0.547775  1
  Al  Al16  1  0.336260  0.336260  0.453552  1
  Al  Al17  1  0.339787  0.543868  0.750000  1
  Al  Al18  1  0.658900  0.453841  0.250000  1
  Al  Al19  1  0.543868  0.339787  0.750000  1
  Al  Al20  1  0.453841  0.658900  0.250000  1
  Zn  Zn21  1  0.140550  0.140550  0.750000  1
  Ir  Ir22  1  0.673211  0.327747  0.499898  1
  Ir  Ir23  1  0.327747  0.673211  0.499898  1
  Ir  Ir24  1  0.327747  0.673211  0.000102  1
  Ir  Ir25  1  0.673211  0.327747  0.000102  1
  Ir  Ir26  1  0.998664  0.998664  0.494387  1
  Ir  Ir27  1  0.998664  0.998664  0.005613  1
