# generated using pymatgen
data_Sr10YbY9Sn16
_symmetry_space_group_name_H-M   'P 1'
_cell_length_a   8.10478238
_cell_length_b   8.64929541
_cell_length_c   16.42082500
_cell_angle_alpha   90.00000000
_cell_angle_beta   90.00000000
_cell_angle_gamma   89.84232708
_symmetry_Int_Tables_number   1
_chemical_formula_structural   Sr10YbY9Sn16
_chemical_formula_sum   'Sr10 Yb1 Y9 Sn16'
_cell_volume   1151.10626190
_cell_formula_units_Z   1
loop_
 _symmetry_equiv_pos_site_id
 _symmetry_equiv_pos_as_xyz
  1  'x, y, z'
loop_
 _atom_site_type_symbol
 _atom_site_label
 _atom_site_symmetry_multiplicity
 _atom_site_fract_x
 _atom_site_fract_y
 _atom_site_fract_z
 _atom_site_occupancy
  Sr  Sr0  1  0.505135  0.680785  0.593603  1
  Sr  Sr1  1  0.004552  0.819462  0.908468  1
  Sr  Sr2  1  0.494938  0.316224  0.092286  1
  Sr  Sr3  1  0.993705  0.180971  0.407721  1
  Sr  Sr4  1  0.494938  0.316224  0.407714  1
  Sr  Sr5  1  0.993705  0.180971  0.092279  1
  Sr  Sr6  1  0.505135  0.680785  0.906397  1
  Sr  Sr7  1  0.004552  0.819462  0.591532  1
  Sr  Sr8  1  0.333050  0.987303  0.750000  1
  Sr  Sr9  1  0.166410  0.486475  0.250000  1
  Yb  Yb10  1  0.663715  0.007802  0.250000  1
  Y  Y11  1  0.674400  0.166774  0.622232  1
  Y  Y12  1  0.174148  0.332860  0.876872  1
  Y  Y13  1  0.327116  0.831952  0.122658  1
  Y  Y14  1  0.826357  0.668648  0.378089  1
  Y  Y15  1  0.327116  0.831952  0.377342  1
  Y  Y16  1  0.826357  0.668648  0.121911  1
  Y  Y17  1  0.674400  0.166774  0.877768  1
  Y  Y18  1  0.174148  0.332860  0.623128  1
  Y  Y19  1  0.836699  0.508685  0.750000  1
  Sn  Sn20  1  0.663541  0.959780  0.459121  1
  Sn  Sn21  1  0.163890  0.540986  0.038315  1
  Sn  Sn22  1  0.336796  0.041409  0.960957  1
  Sn  Sn23  1  0.836630  0.461944  0.543932  1
  Sn  Sn24  1  0.336796  0.041409  0.539043  1
  Sn  Sn25  1  0.836630  0.461944  0.956068  1
  Sn  Sn26  1  0.663541  0.959780  0.040879  1
  Sn  Sn27  1  0.163890  0.540986  0.461685  1
  Sn  Sn28  1  0.476524  0.377062  0.750000  1
  Sn  Sn29  1  0.963407  0.144074  0.750000  1
  Sn  Sn30  1  0.536070  0.637335  0.250000  1
  Sn  Sn31  1  0.026120  0.872360  0.250000  1
  Sn  Sn32  1  0.728839  0.871584  0.750000  1
  Sn  Sn33  1  0.207478  0.614416  0.750000  1
  Sn  Sn34  1  0.285504  0.110324  0.250000  1
  Sn  Sn35  1  0.773770  0.378989  0.250000  1
