# generated using pymatgen
data_CaNd4Si3
_symmetry_space_group_name_H-M   'P 1'
_cell_length_a   8.93071284
_cell_length_b   8.93071360
_cell_length_c   8.93071300
_cell_angle_alpha   128.66325106
_cell_angle_beta   128.66325476
_cell_angle_gamma   75.55301858
_symmetry_Int_Tables_number   1
_chemical_formula_structural   CaNd4Si3
_chemical_formula_sum   'Ca2 Nd8 Si6'
_cell_volume   422.54088733
_cell_formula_units_Z   2
loop_
 _symmetry_equiv_pos_site_id
 _symmetry_equiv_pos_as_xyz
  1  'x, y, z'
loop_
 _atom_site_type_symbol
 _atom_site_label
 _atom_site_symmetry_multiplicity
 _atom_site_fract_x
 _atom_site_fract_y
 _atom_site_fract_z
 _atom_site_occupancy
  Ca  Ca0  1  0.500000  0.500000  0.000000  1
  Ca  Ca1  1  0.000000  0.000000  0.000000  1
  Nd  Nd2  1  0.676674  0.176674  0.144694  1
  Nd  Nd3  1  0.531980  0.676674  0.500000  1
  Nd  Nd4  1  0.031980  0.531980  0.855306  1
  Nd  Nd5  1  0.823326  0.968020  0.500000  1
  Nd  Nd6  1  0.323326  0.823326  0.855306  1
  Nd  Nd7  1  0.176674  0.031980  0.500000  1
  Nd  Nd8  1  0.468020  0.323326  0.500000  1
  Nd  Nd9  1  0.968020  0.468020  0.144694  1
  Si  Si10  1  0.886081  0.613919  0.500000  1
  Si  Si11  1  0.613919  0.113919  0.727838  1
  Si  Si12  1  0.386081  0.886081  0.272162  1
  Si  Si13  1  0.113919  0.386081  0.500000  1
  Si  Si14  1  0.750000  0.750000  0.000000  1
  Si  Si15  1  0.250000  0.250000  0.000000  1
