# generated using pymatgen
data_YbMg2Ni7B2
_symmetry_space_group_name_H-M   'P 1'
_cell_length_a   7.41649052
_cell_length_b   7.41649143
_cell_length_c   7.41649024
_cell_angle_alpha   39.06013097
_cell_angle_beta   39.06013560
_cell_angle_gamma   39.06012429
_symmetry_Int_Tables_number   1
_chemical_formula_structural   YbMg2Ni7B2
_chemical_formula_sum   'Yb1 Mg2 Ni7 B2'
_cell_volume   145.68832931
_cell_formula_units_Z   1
loop_
 _symmetry_equiv_pos_site_id
 _symmetry_equiv_pos_as_xyz
  1  'x, y, z'
loop_
 _atom_site_type_symbol
 _atom_site_label
 _atom_site_symmetry_multiplicity
 _atom_site_fract_x
 _atom_site_fract_y
 _atom_site_fract_z
 _atom_site_occupancy
  Yb  Yb0  1  0.500000  0.500000  0.500000  1
  Mg  Mg1  1  0.647675  0.647675  0.647675  1
  Mg  Mg2  1  0.352325  0.352325  0.352325  1
  Ni  Ni3  1  0.570478  0.067815  0.067815  1
  Ni  Ni4  1  0.067815  0.067815  0.570478  1
  Ni  Ni5  1  0.067815  0.570478  0.067815  1
  Ni  Ni6  1  0.932185  0.429522  0.932185  1
  Ni  Ni7  1  0.932185  0.932185  0.429522  1
  Ni  Ni8  1  0.429522  0.932185  0.932185  1
  Ni  Ni9  1  0.000000  0.000000  0.000000  1
  B  B10  1  0.833154  0.833154  0.833154  1
  B  B11  1  0.166846  0.166846  0.166846  1
