# generated using pymatgen
data_MgMn3Be2(B2Rh5)2
_symmetry_space_group_name_H-M   'P 1'
_cell_length_a   9.16068567
_cell_length_b   2.88146000
_cell_length_c   9.16068567
_cell_angle_alpha   90.00000000
_cell_angle_beta   89.93078737
_cell_angle_gamma   90.00000000
_symmetry_Int_Tables_number   1
_chemical_formula_structural   MgMn3Be2(B2Rh5)2
_chemical_formula_sum   'Mg1 Mn3 Be2 B4 Rh10'
_cell_volume   241.80665054
_cell_formula_units_Z   1
loop_
 _symmetry_equiv_pos_site_id
 _symmetry_equiv_pos_as_xyz
  1  'x, y, z'
loop_
 _atom_site_type_symbol
 _atom_site_label
 _atom_site_symmetry_multiplicity
 _atom_site_fract_x
 _atom_site_fract_y
 _atom_site_fract_z
 _atom_site_occupancy
  Mg  Mg0  1  0.675486  0.000000  0.824514  1
  Mn  Mn1  1  0.322635  0.000000  0.177365  1
  Mn  Mn2  1  0.822695  0.000000  0.324214  1
  Mn  Mn3  1  0.175786  0.000000  0.677305  1
  Be  Be4  1  0.999952  0.000000  0.999636  1
  Be  Be5  1  0.500364  0.000000  0.500048  1
  B  B6  1  0.631016  0.000000  0.130655  1
  B  B7  1  0.131692  0.000000  0.368309  1
  B  B8  1  0.870914  0.000000  0.629086  1
  B  B9  1  0.369346  0.000000  0.868984  1
  Rh  Rh10  1  0.497434  0.500001  0.002566  1
  Rh  Rh11  1  0.794896  0.500001  0.071849  1
  Rh  Rh12  1  0.068463  0.500001  0.206005  1
  Rh  Rh13  1  0.567626  0.500001  0.293891  1
  Rh  Rh14  1  0.293995  0.500001  0.431537  1
  Rh  Rh15  1  0.000796  0.500001  0.499204  1
  Rh  Rh16  1  0.707697  0.500001  0.565052  1
  Rh  Rh17  1  0.428151  0.500001  0.705103  1
  Rh  Rh18  1  0.934947  0.500001  0.792302  1
  Rh  Rh19  1  0.206109  0.500001  0.932373  1
