# generated using pymatgen
data_NdSm5(RuBr3)2
_symmetry_space_group_name_H-M   'P 1'
_cell_length_a   4.18375800
_cell_length_b   8.91618470
_cell_length_c   12.07680617
_cell_angle_alpha   86.89633027
_cell_angle_beta   90.00000000
_cell_angle_gamma   90.00000000
_symmetry_Int_Tables_number   1
_chemical_formula_structural   NdSm5(RuBr3)2
_chemical_formula_sum   'Nd1 Sm5 Ru2 Br6'
_cell_volume   449.84222601
_cell_formula_units_Z   1
loop_
 _symmetry_equiv_pos_site_id
 _symmetry_equiv_pos_as_xyz
  1  'x, y, z'
loop_
 _atom_site_type_symbol
 _atom_site_label
 _atom_site_symmetry_multiplicity
 _atom_site_fract_x
 _atom_site_fract_y
 _atom_site_fract_z
 _atom_site_occupancy
  Nd  Nd0  1  0.750000  0.120820  0.160853  1
  Sm  Sm1  1  0.250000  0.318481  0.379399  1
  Sm  Sm2  1  0.750000  0.682177  0.621516  1
  Sm  Sm3  1  0.250000  0.898052  0.386410  1
  Sm  Sm4  1  0.750000  0.101518  0.614681  1
  Sm  Sm5  1  0.250000  0.878433  0.837736  1
  Ru  Ru6  1  0.250000  0.890635  0.620049  1
  Ru  Ru7  1  0.750000  0.109549  0.380500  1
  Br  Br8  1  0.250000  0.397603  0.627024  1
  Br  Br9  1  0.750000  0.602815  0.373246  1
  Br  Br10  1  0.250000  0.880361  0.114868  1
  Br  Br11  1  0.750000  0.114260  0.883122  1
  Br  Br12  1  0.250000  0.359735  0.126486  1
  Br  Br13  1  0.750000  0.645560  0.874112  1
