# generated using pymatgen
data_Er29Se32
_symmetry_space_group_name_H-M   'P 1'
_cell_length_a   14.10165747
_cell_length_b   14.10165713
_cell_length_c   14.10165700
_cell_angle_alpha   131.84886751
_cell_angle_beta   131.84886629
_cell_angle_gamma   70.46783176
_symmetry_Int_Tables_number   1
_chemical_formula_structural   Er29Se32
_chemical_formula_sum   'Er29 Se32'
_cell_volume   1524.69541625
_cell_formula_units_Z   1
loop_
 _symmetry_equiv_pos_site_id
 _symmetry_equiv_pos_as_xyz
  1  'x, y, z'
loop_
 _atom_site_type_symbol
 _atom_site_label
 _atom_site_symmetry_multiplicity
 _atom_site_fract_x
 _atom_site_fract_y
 _atom_site_fract_z
 _atom_site_occupancy
  Er  Er0  1  0.124986  0.874793  0.749807  1
  Er  Er1  1  0.374929  0.623255  0.248325  1
  Er  Er2  1  0.625071  0.376745  0.751675  1
  Er  Er3  1  0.875014  0.125207  0.250193  1
  Er  Er4  1  0.749253  0.749253  0.498504  1
  Er  Er5  1  0.000000  0.500000  0.000000  1
  Er  Er6  1  0.250747  0.250747  0.501496  1
  Er  Er7  1  0.500000  0.000000  0.000000  1
  Er  Er8  1  0.874793  0.124986  0.749807  1
  Er  Er9  1  0.125207  0.875014  0.250193  1
  Er  Er10  1  0.376745  0.625071  0.751675  1
  Er  Er11  1  0.623255  0.374929  0.248325  1
  Er  Er12  1  0.625071  0.873396  0.248325  1
  Er  Er13  1  0.875014  0.624821  0.749807  1
  Er  Er14  1  0.124986  0.375179  0.250193  1
  Er  Er15  1  0.374929  0.126604  0.751675  1
  Er  Er16  1  0.000000  0.000000  0.500000  1
  Er  Er17  1  0.250747  0.749253  0.000000  1
  Er  Er18  1  0.500000  0.500000  0.500000  1
  Er  Er19  1  0.749253  0.250747  0.000000  1
  Er  Er20  1  0.126604  0.374929  0.751675  1
  Er  Er21  1  0.375179  0.124986  0.250193  1
  Er  Er22  1  0.624821  0.875014  0.749807  1
  Er  Er23  1  0.873396  0.625071  0.248325  1
  Er  Er24  1  0.500000  0.000000  0.500000  1
  Er  Er25  1  0.751222  0.751222  0.000000  1
  Er  Er26  1  0.000000  0.500000  0.500000  1
  Er  Er27  1  0.248778  0.248778  0.000000  1
  Er  Er28  1  0.000000  0.000000  0.000000  1
  Se  Se29  1  0.874914  0.874914  0.499674  1
  Se  Se30  1  0.125086  0.624760  0.000000  1
  Se  Se31  1  0.375240  0.375240  0.500326  1
  Se  Se32  1  0.624760  0.125086  0.000000  1
  Se  Se33  1  0.125086  0.125086  0.500326  1
  Se  Se34  1  0.375240  0.874914  0.000000  1
  Se  Se35  1  0.624760  0.624760  0.499674  1
  Se  Se36  1  0.874914  0.375240  0.000000  1
  Se  Se37  1  0.749136  0.000000  0.749136  1
  Se  Se38  1  0.001648  0.749760  0.251888  1
  Se  Se39  1  0.252519  0.500000  0.752519  1
  Se  Se40  1  0.502128  0.250240  0.251888  1
  Se  Se41  1  0.374018  0.874018  0.500000  1
  Se  Se42  1  0.625315  0.625315  0.000000  1
  Se  Se43  1  0.874018  0.374018  0.500000  1
  Se  Se44  1  0.124719  0.124719  0.000000  1
  Se  Se45  1  0.500000  0.252519  0.752519  1
  Se  Se46  1  0.749760  0.001648  0.251888  1
  Se  Se47  1  0.000000  0.749136  0.749136  1
  Se  Se48  1  0.250240  0.502128  0.251888  1
  Se  Se49  1  0.250864  0.000000  0.250864  1
  Se  Se50  1  0.497872  0.749760  0.748112  1
  Se  Se51  1  0.747481  0.500000  0.247481  1
  Se  Se52  1  0.998352  0.250240  0.748112  1
  Se  Se53  1  0.625982  0.125982  0.500000  1
  Se  Se54  1  0.875281  0.875281  0.000000  1
  Se  Se55  1  0.125982  0.625982  0.500000  1
  Se  Se56  1  0.374685  0.374685  0.000000  1
  Se  Se57  1  0.500000  0.747481  0.247481  1
  Se  Se58  1  0.749760  0.497872  0.748112  1
  Se  Se59  1  0.000000  0.250864  0.250864  1
  Se  Se60  1  0.250240  0.998352  0.748112  1
