# generated using pymatgen
data_Nd10Ga2I15
_symmetry_space_group_name_H-M   'P 1'
_cell_length_a   10.09819991
_cell_length_b   10.83042775
_cell_length_c   11.92501500
_cell_angle_alpha   90.82181718
_cell_angle_beta   114.75687446
_cell_angle_gamma   110.73818081
_symmetry_Int_Tables_number   1
_chemical_formula_structural   Nd10Ga2I15
_chemical_formula_sum   'Nd10 Ga2 I15'
_cell_volume   1087.11284542
_cell_formula_units_Z   1
loop_
 _symmetry_equiv_pos_site_id
 _symmetry_equiv_pos_as_xyz
  1  'x, y, z'
loop_
 _atom_site_type_symbol
 _atom_site_label
 _atom_site_symmetry_multiplicity
 _atom_site_fract_x
 _atom_site_fract_y
 _atom_site_fract_z
 _atom_site_occupancy
  Nd  Nd0  1  0.803444  0.414493  0.279252  1
  Nd  Nd1  1  0.196556  0.585507  0.720748  1
  Nd  Nd2  1  0.676830  0.742794  0.821346  1
  Nd  Nd3  1  0.323170  0.257206  0.178654  1
  Nd  Nd4  1  0.526883  0.697314  0.100347  1
  Nd  Nd5  1  0.473117  0.302686  0.899653  1
  Nd  Nd6  1  0.586425  0.037561  0.330087  1
  Nd  Nd7  1  0.413575  0.962439  0.669913  1
  Nd  Nd8  1  0.735368  0.079271  0.051613  1
  Nd  Nd9  1  0.264632  0.920729  0.948387  1
  Ga  Ga10  1  0.468344  0.824131  0.881231  1
  Ga  Ga11  1  0.531656  0.175869  0.118769  1
  I  I12  1  0.000000  0.000000  0.000000  1
  I  I13  1  0.638834  0.882307  0.583470  1
  I  I14  1  0.361166  0.117693  0.416530  1
  I  I15  1  0.886720  0.298741  0.530575  1
  I  I16  1  0.113280  0.701259  0.469425  1
  I  I17  1  0.290096  0.760429  0.180585  1
  I  I18  1  0.709904  0.239571  0.819415  1
  I  I19  1  0.060287  0.346683  0.229456  1
  I  I20  1  0.164212  0.058717  0.701870  1
  I  I21  1  0.835788  0.941283  0.298130  1
  I  I22  1  0.229789  0.409799  0.942629  1
  I  I23  1  0.770211  0.590201  0.057371  1
  I  I24  1  0.407090  0.461485  0.654534  1
  I  I25  1  0.592910  0.538515  0.345466  1
  I  I26  1  0.939713  0.653317  0.770544  1
