# generated using pymatgen
data_Pr4Al24Ir2Pt7
_symmetry_space_group_name_H-M   'P 1'
_cell_length_a   7.53713042
_cell_length_b   7.56487023
_cell_length_c   13.40497712
_cell_angle_alpha   84.68425204
_cell_angle_beta   100.79521384
_cell_angle_gamma   119.49550197
_symmetry_Int_Tables_number   1
_chemical_formula_structural   Pr4Al24Ir2Pt7
_chemical_formula_sum   'Pr4 Al24 Ir2 Pt7'
_cell_volume   653.48410068
_cell_formula_units_Z   1
loop_
 _symmetry_equiv_pos_site_id
 _symmetry_equiv_pos_as_xyz
  1  'x, y, z'
loop_
 _atom_site_type_symbol
 _atom_site_label
 _atom_site_symmetry_multiplicity
 _atom_site_fract_x
 _atom_site_fract_y
 _atom_site_fract_z
 _atom_site_occupancy
  Pr  Pr0  1  0.732071  0.998125  0.190295  1
  Pr  Pr1  1  0.267863  0.002179  0.809731  1
  Pr  Pr2  1  0.061679  0.668405  0.191073  1
  Pr  Pr3  1  0.937846  0.331536  0.809101  1
  Al  Al4  1  0.807052  0.867382  0.818128  1
  Al  Al5  1  0.193565  0.131840  0.181761  1
  Al  Al6  1  0.983908  0.669246  0.948302  1
  Al  Al7  1  0.021960  0.334214  0.051526  1
  Al  Al8  1  0.399015  0.663202  0.819138  1
  Al  Al9  1  0.599271  0.335506  0.183032  1
  Al  Al10  1  0.879003  0.665249  0.669824  1
  Al  Al11  1  0.120962  0.334591  0.329510  1
  Al  Al12  1  0.603377  0.461912  0.816539  1
  Al  Al13  1  0.397454  0.540823  0.181094  1
  Al  Al14  1  0.231679  0.341794  0.666496  1
  Al  Al15  1  0.768485  0.658148  0.333508  1
  Al  Al16  1  0.854181  0.333927  0.557412  1
  Al  Al17  1  0.186284  0.999857  0.557660  1
  Al  Al18  1  0.814472  0.000079  0.442409  1
  Al  Al19  1  0.348241  0.997706  0.051361  1
  Al  Al20  1  0.648392  0.996530  0.948911  1
  Al  Al21  1  0.555819  0.990770  0.670048  1
  Al  Al22  1  0.444458  0.008999  0.330378  1
  Al  Al23  1  0.522361  0.669517  0.558993  1
  Al  Al24  1  0.477559  0.330588  0.440776  1
  Al  Al25  1  0.680079  0.670133  0.038517  1
  Al  Al26  1  0.316609  0.333122  0.961500  1
  Al  Al27  1  0.145933  0.665191  0.442969  1
  Ir  Ir28  1  0.329203  0.670087  0.999976  1
  Ir  Ir29  1  0.999653  0.000184  0.999999  1
  Pt  Pt30  1  0.546874  0.327501  0.634213  1
  Pt  Pt31  1  0.452926  0.672168  0.365113  1
  Pt  Pt32  1  0.884882  0.005716  0.635513  1
  Pt  Pt33  1  0.115499  0.994349  0.364522  1
  Pt  Pt34  1  0.671067  0.329803  0.000067  1
  Pt  Pt35  1  0.205935  0.667395  0.636392  1
  Pt  Pt36  1  0.794382  0.332223  0.364217  1
