# generated using pymatgen
data_Dy20Ir8Os3Ru
_symmetry_space_group_name_H-M   'P 1'
_cell_length_a   10.84403200
_cell_length_b   10.84403200
_cell_length_c   6.41570500
_cell_angle_alpha   90.00000000
_cell_angle_beta   90.00000000
_cell_angle_gamma   90.00000000
_symmetry_Int_Tables_number   1
_chemical_formula_structural   Dy20Ir8Os3Ru
_chemical_formula_sum   'Dy20 Ir8 Os3 Ru1'
_cell_volume   754.44219065
_cell_formula_units_Z   1
loop_
 _symmetry_equiv_pos_site_id
 _symmetry_equiv_pos_as_xyz
  1  'x, y, z'
loop_
 _atom_site_type_symbol
 _atom_site_label
 _atom_site_symmetry_multiplicity
 _atom_site_fract_x
 _atom_site_fract_y
 _atom_site_fract_z
 _atom_site_occupancy
  Dy  Dy0  1  0.293753  0.086702  0.378527  1
  Dy  Dy1  1  0.293727  0.913248  0.878306  1
  Dy  Dy2  1  0.706273  0.086752  0.878306  1
  Dy  Dy3  1  0.706247  0.913298  0.378527  1
  Dy  Dy4  1  0.586752  0.793727  0.878306  1
  Dy  Dy5  1  0.586702  0.206247  0.378527  1
  Dy  Dy6  1  0.413298  0.793753  0.378527  1
  Dy  Dy7  1  0.413248  0.206273  0.878306  1
  Dy  Dy8  1  0.206503  0.413195  0.621705  1
  Dy  Dy9  1  0.206411  0.586865  0.121103  1
  Dy  Dy10  1  0.793589  0.413135  0.121103  1
  Dy  Dy11  1  0.793497  0.586805  0.621705  1
  Dy  Dy12  1  0.913135  0.706411  0.121103  1
  Dy  Dy13  1  0.913195  0.293497  0.621705  1
  Dy  Dy14  1  0.086805  0.706503  0.621705  1
  Dy  Dy15  1  0.086865  0.293589  0.121103  1
  Dy  Dy16  1  0.000000  0.000000  0.500008  1
  Dy  Dy17  1  0.000000  0.000000  0.000095  1
  Dy  Dy18  1  0.500000  0.500000  0.000095  1
  Dy  Dy19  1  0.500000  0.500000  0.500008  1
  Ir  Ir20  1  0.847980  0.152589  0.250172  1
  Ir  Ir21  1  0.847889  0.847494  0.750064  1
  Ir  Ir22  1  0.152111  0.152506  0.750064  1
  Ir  Ir23  1  0.152020  0.847411  0.250172  1
  Ir  Ir24  1  0.652506  0.347889  0.750064  1
  Ir  Ir25  1  0.652589  0.652020  0.250172  1
  Ir  Ir26  1  0.347411  0.347980  0.250172  1
  Ir  Ir27  1  0.347494  0.652111  0.750064  1
  Os  Os28  1  0.500000  0.000000  0.123883  1
  Os  Os29  1  0.500000  0.000000  0.623621  1
  Os  Os30  1  0.000000  0.500000  0.875853  1
  Ru  Ru31  1  0.000000  0.500000  0.376930  1
