# generated using pymatgen
data_Y4LuAg2B4Rh13
_symmetry_space_group_name_H-M   'P 1'
_cell_length_a   4.21268800
_cell_length_b   4.21268800
_cell_length_c   21.02930600
_cell_angle_alpha   90.00000000
_cell_angle_beta   90.00000000
_cell_angle_gamma   90.00000000
_symmetry_Int_Tables_number   1
_chemical_formula_structural   Y4LuAg2B4Rh13
_chemical_formula_sum   'Y4 Lu1 Ag2 B4 Rh13'
_cell_volume   373.20162986
_cell_formula_units_Z   1
loop_
 _symmetry_equiv_pos_site_id
 _symmetry_equiv_pos_as_xyz
  1  'x, y, z'
loop_
 _atom_site_type_symbol
 _atom_site_label
 _atom_site_symmetry_multiplicity
 _atom_site_fract_x
 _atom_site_fract_y
 _atom_site_fract_z
 _atom_site_occupancy
  Y  Y0  1  0.000000  0.000000  0.892136  1
  Y  Y1  1  0.000000  0.000000  0.107864  1
  Y  Y2  1  0.000000  0.000000  0.301903  1
  Y  Y3  1  0.000000  0.000000  0.698097  1
  Lu  Lu4  1  0.000000  0.000000  0.500000  1
  Ag  Ag5  1  0.500000  0.000000  0.000000  1
  Ag  Ag6  1  0.000000  0.500000  0.000000  1
  B  B7  1  0.500000  0.500000  0.194009  1
  B  B8  1  0.500000  0.500000  0.398793  1
  B  B9  1  0.500000  0.500000  0.601207  1
  B  B10  1  0.500000  0.500000  0.805991  1
  Rh  Rh11  1  0.500000  0.500000  0.903410  1
  Rh  Rh12  1  0.500000  0.500000  0.096590  1
  Rh  Rh13  1  0.500000  0.500000  0.299419  1
  Rh  Rh14  1  0.500000  0.500000  0.500000  1
  Rh  Rh15  1  0.500000  0.500000  0.700581  1
  Rh  Rh16  1  0.500000  0.000000  0.202413  1
  Rh  Rh17  1  0.500000  0.000000  0.402332  1
  Rh  Rh18  1  0.500000  0.000000  0.597668  1
  Rh  Rh19  1  0.500000  0.000000  0.797587  1
  Rh  Rh20  1  0.000000  0.500000  0.202413  1
  Rh  Rh21  1  0.000000  0.500000  0.402332  1
  Rh  Rh22  1  0.000000  0.500000  0.597668  1
  Rh  Rh23  1  0.000000  0.500000  0.797587  1
