# generated using pymatgen
data_Nb6GaPt3N2
_symmetry_space_group_name_H-M   'P 1'
_cell_length_a   7.07703304
_cell_length_b   7.07244600
_cell_length_c   7.05791174
_cell_angle_alpha   90.00000000
_cell_angle_beta   89.52942699
_cell_angle_gamma   90.00000000
_symmetry_Int_Tables_number   1
_chemical_formula_structural   Nb6GaPt3N2
_chemical_formula_sum   'Nb12 Ga2 Pt6 N4'
_cell_volume   353.25021803
_cell_formula_units_Z   2
loop_
 _symmetry_equiv_pos_site_id
 _symmetry_equiv_pos_as_xyz
  1  'x, y, z'
loop_
 _atom_site_type_symbol
 _atom_site_label
 _atom_site_symmetry_multiplicity
 _atom_site_fract_x
 _atom_site_fract_y
 _atom_site_fract_z
 _atom_site_occupancy
  Nb  Nb0  1  0.788486  0.955731  0.374027  1
  Nb  Nb1  1  0.702428  0.044241  0.875644  1
  Nb  Nb2  1  0.211514  0.455731  0.125973  1
  Nb  Nb3  1  0.297572  0.544241  0.624356  1
  Nb  Nb4  1  0.953665  0.379821  0.794495  1
  Nb  Nb5  1  0.046335  0.879821  0.705505  1
  Nb  Nb6  1  0.456507  0.128058  0.205737  1
  Nb  Nb7  1  0.543493  0.628058  0.294263  1
  Nb  Nb8  1  0.377754  0.790914  0.948689  1
  Nb  Nb9  1  0.870588  0.703046  0.039660  1
  Nb  Nb10  1  0.129412  0.203046  0.460340  1
  Nb  Nb11  1  0.622246  0.290914  0.551311  1
  Ga  Ga12  1  0.934339  0.566618  0.427332  1
  Ga  Ga13  1  0.065661  0.066618  0.072668  1
  Pt  Pt14  1  0.173758  0.814509  0.311101  1
  Pt  Pt15  1  0.304175  0.180631  0.826123  1
  Pt  Pt16  1  0.826242  0.314509  0.188899  1
  Pt  Pt17  1  0.695825  0.680631  0.673877  1
  Pt  Pt18  1  0.565426  0.435311  0.936731  1
  Pt  Pt19  1  0.434574  0.935311  0.563269  1
  N  N20  1  0.873341  0.126523  0.626511  1
  N  N21  1  0.620550  0.874597  0.123621  1
  N  N22  1  0.126659  0.626523  0.873489  1
  N  N23  1  0.379450  0.374597  0.376379  1
