# generated using pymatgen
data_Ca7Nd5(SiRh)8
_symmetry_space_group_name_H-M   'P 1'
_cell_length_a   5.77053925
_cell_length_b   7.83297216
_cell_length_c   13.31997628
_cell_angle_alpha   89.89494485
_cell_angle_beta   90.09050112
_cell_angle_gamma   90.01122718
_symmetry_Int_Tables_number   1
_chemical_formula_structural   Ca7Nd5(SiRh)8
_chemical_formula_sum   'Ca7 Nd5 Si8 Rh8'
_cell_volume   602.06745751
_cell_formula_units_Z   1
loop_
 _symmetry_equiv_pos_site_id
 _symmetry_equiv_pos_as_xyz
  1  'x, y, z'
loop_
 _atom_site_type_symbol
 _atom_site_label
 _atom_site_symmetry_multiplicity
 _atom_site_fract_x
 _atom_site_fract_y
 _atom_site_fract_z
 _atom_site_occupancy
  Ca  Ca0  1  0.130125  0.392741  0.099839  1
  Ca  Ca1  1  0.865428  0.603628  0.896587  1
  Ca  Ca2  1  0.868152  0.609083  0.600547  1
  Ca  Ca3  1  0.864602  0.892844  0.399714  1
  Ca  Ca4  1  0.131051  0.391553  0.401184  1
  Ca  Ca5  1  0.133379  0.107063  0.600481  1
  Ca  Ca6  1  0.139530  0.110380  0.896432  1
  Nd  Nd7  1  0.635538  0.248875  0.250990  1
  Nd  Nd8  1  0.359805  0.755708  0.750507  1
  Nd  Nd9  1  0.359799  0.744626  0.253481  1
  Nd  Nd10  1  0.642218  0.255267  0.748474  1
  Nd  Nd11  1  0.867372  0.889999  0.098654  1
  Si  Si12  1  0.148606  0.100139  0.250605  1
  Si  Si13  1  0.848949  0.900030  0.750181  1
  Si  Si14  1  0.848282  0.603101  0.250170  1
  Si  Si15  1  0.154917  0.401314  0.749049  1
  Si  Si16  1  0.600875  0.250593  0.999937  1
  Si  Si17  1  0.395796  0.747695  0.000140  1
  Si  Si18  1  0.403228  0.750064  0.500630  1
  Si  Si19  1  0.597129  0.249167  0.500128  1
  Rh  Rh20  1  0.371968  0.025047  0.090304  1
  Rh  Rh21  1  0.632676  0.972827  0.911690  1
  Rh  Rh22  1  0.628954  0.974515  0.589614  1
  Rh  Rh23  1  0.630035  0.525297  0.410739  1
  Rh  Rh24  1  0.367925  0.025922  0.411255  1
  Rh  Rh25  1  0.372415  0.473412  0.588734  1
  Rh  Rh26  1  0.371447  0.472516  0.910726  1
  Rh  Rh27  1  0.629795  0.526593  0.089203  1
