# generated using pymatgen
data_YbSb12PdRu3
_symmetry_space_group_name_H-M   'P 1'
_cell_length_a   8.15777323
_cell_length_b   8.15777354
_cell_length_c   8.15777257
_cell_angle_alpha   109.43426695
_cell_angle_beta   109.43426480
_cell_angle_gamma   109.43427735
_symmetry_Int_Tables_number   1
_chemical_formula_structural   YbSb12PdRu3
_chemical_formula_sum   'Yb1 Sb12 Pd1 Ru3'
_cell_volume   418.49059632
_cell_formula_units_Z   1
loop_
 _symmetry_equiv_pos_site_id
 _symmetry_equiv_pos_as_xyz
  1  'x, y, z'
loop_
 _atom_site_type_symbol
 _atom_site_label
 _atom_site_symmetry_multiplicity
 _atom_site_fract_x
 _atom_site_fract_y
 _atom_site_fract_z
 _atom_site_occupancy
  Yb  Yb0  1  0.000000  0.000000  0.000000  1
  Sb  Sb1  1  0.661592  0.849680  0.502640  1
  Sb  Sb2  1  0.338408  0.150320  0.497360  1
  Sb  Sb3  1  0.841253  0.179444  0.337332  1
  Sb  Sb4  1  0.820556  0.662668  0.158747  1
  Sb  Sb5  1  0.849680  0.502640  0.661592  1
  Sb  Sb6  1  0.179444  0.337332  0.841253  1
  Sb  Sb7  1  0.158747  0.820556  0.662668  1
  Sb  Sb8  1  0.502640  0.661592  0.849680  1
  Sb  Sb9  1  0.497360  0.338408  0.150320  1
  Sb  Sb10  1  0.150320  0.497360  0.338408  1
  Sb  Sb11  1  0.337332  0.841253  0.179444  1
  Sb  Sb12  1  0.662668  0.158747  0.820556  1
  Pd  Pd13  1  0.500000  0.500000  0.500000  1
  Ru  Ru14  1  0.000000  0.000000  0.500000  1
  Ru  Ru15  1  0.500000  0.000000  0.000000  1
  Ru  Ru16  1  0.000000  0.500000  0.000000  1
