# generated using pymatgen
data_LaTbEr4(SbO7)2
_symmetry_space_group_name_H-M   'P 1'
_cell_length_a   6.47494915
_cell_length_b   6.47494876
_cell_length_c   7.56438714
_cell_angle_alpha   89.95429247
_cell_angle_beta   90.04570488
_cell_angle_gamma   109.05402239
_symmetry_Int_Tables_number   1
_chemical_formula_structural   LaTbEr4(SbO7)2
_chemical_formula_sum   'La1 Tb1 Er4 Sb2 O14'
_cell_volume   299.76097351
_cell_formula_units_Z   1
loop_
 _symmetry_equiv_pos_site_id
 _symmetry_equiv_pos_as_xyz
  1  'x, y, z'
loop_
 _atom_site_type_symbol
 _atom_site_label
 _atom_site_symmetry_multiplicity
 _atom_site_fract_x
 _atom_site_fract_y
 _atom_site_fract_z
 _atom_site_occupancy
  La  La0  1  0.500000  0.500000  0.500000  1
  Tb  Tb1  1  0.500000  0.500000  0.000000  1
  Er  Er2  1  0.530757  0.001017  0.753216  1
  Er  Er3  1  0.001017  0.530757  0.246784  1
  Er  Er4  1  0.469243  0.998983  0.246784  1
  Er  Er5  1  0.998983  0.469243  0.753216  1
  Sb  Sb6  1  0.000000  0.000000  0.500000  1
  Sb  Sb7  1  0.000000  0.000000  0.000000  1
  O  O8  1  0.678056  0.934486  0.469455  1
  O  O9  1  0.934486  0.678056  0.530545  1
  O  O10  1  0.677780  0.928826  0.029888  1
  O  O11  1  0.928826  0.677780  0.970112  1
  O  O12  1  0.321944  0.065514  0.530545  1
  O  O13  1  0.065514  0.321944  0.469455  1
  O  O14  1  0.322220  0.071174  0.970112  1
  O  O15  1  0.071174  0.322220  0.029888  1
  O  O16  1  0.929714  0.070286  0.749971  1
  O  O17  1  0.070286  0.929714  0.250029  1
  O  O18  1  0.364229  0.635771  0.760024  1
  O  O19  1  0.635771  0.364229  0.239976  1
  O  O20  1  0.642002  0.357998  0.758668  1
  O  O21  1  0.357998  0.642002  0.241332  1
