# generated using pymatgen
data_La2Sm3Sn3(BRh6)2
_symmetry_space_group_name_H-M   'P 1'
_cell_length_a   5.90539200
_cell_length_b   5.90539021
_cell_length_c   13.75770400
_cell_angle_alpha   90.00000000
_cell_angle_beta   90.00000000
_cell_angle_gamma   119.99999883
_symmetry_Int_Tables_number   1
_chemical_formula_structural   La2Sm3Sn3(BRh6)2
_chemical_formula_sum   'La2 Sm3 Sn3 B2 Rh12'
_cell_volume   415.50277544
_cell_formula_units_Z   1
loop_
 _symmetry_equiv_pos_site_id
 _symmetry_equiv_pos_as_xyz
  1  'x, y, z'
loop_
 _atom_site_type_symbol
 _atom_site_label
 _atom_site_symmetry_multiplicity
 _atom_site_fract_x
 _atom_site_fract_y
 _atom_site_fract_z
 _atom_site_occupancy
  La  La0  1  0.000000  0.000000  0.749997  1
  La  La1  1  0.333333  0.666667  0.101601  1
  Sm  Sm2  1  0.333333  0.666667  0.407660  1
  Sm  Sm3  1  0.666667  0.333333  0.912725  1
  Sm  Sm4  1  0.666667  0.333333  0.585398  1
  Sn  Sn5  1  0.000000  0.000000  0.250326  1
  Sn  Sn6  1  0.333333  0.666667  0.749549  1
  Sn  Sn7  1  0.666667  0.333333  0.250038  1
  B  B8  1  0.000000  0.000000  0.497061  1
  B  B9  1  0.000000  0.000000  0.001326  1
  Rh  Rh10  1  0.337221  0.168611  0.405448  1
  Rh  Rh11  1  0.831389  0.168611  0.405448  1
  Rh  Rh12  1  0.831389  0.662779  0.405448  1
  Rh  Rh13  1  0.172122  0.344243  0.915760  1
  Rh  Rh14  1  0.656498  0.828248  0.583510  1
  Rh  Rh15  1  0.655757  0.827878  0.915760  1
  Rh  Rh16  1  0.337047  0.168524  0.093388  1
  Rh  Rh17  1  0.171752  0.343502  0.583510  1
  Rh  Rh18  1  0.171752  0.828248  0.583510  1
  Rh  Rh19  1  0.831476  0.168524  0.093388  1
  Rh  Rh20  1  0.831476  0.662953  0.093388  1
  Rh  Rh21  1  0.172122  0.827878  0.915760  1
