# generated using pymatgen
data_Tb3TlPd3PtF28
_symmetry_space_group_name_H-M   'P 1'
_cell_length_a   5.51606914
_cell_length_b   8.87569660
_cell_length_c   11.98624446
_cell_angle_alpha   62.51871581
_cell_angle_beta   90.14428632
_cell_angle_gamma   90.06250082
_symmetry_Int_Tables_number   1
_chemical_formula_structural   Tb3TlPd3PtF28
_chemical_formula_sum   'Tb3 Tl1 Pd3 Pt1 F28'
_cell_volume   520.61496316
_cell_formula_units_Z   1
loop_
 _symmetry_equiv_pos_site_id
 _symmetry_equiv_pos_as_xyz
  1  'x, y, z'
loop_
 _atom_site_type_symbol
 _atom_site_label
 _atom_site_symmetry_multiplicity
 _atom_site_fract_x
 _atom_site_fract_y
 _atom_site_fract_z
 _atom_site_occupancy
  Tb  Tb0  1  0.737771  0.186302  0.736181  1
  Tb  Tb1  1  0.760762  0.187892  0.235455  1
  Tb  Tb2  1  0.237993  0.812666  0.765789  1
  Tl  Tl3  1  0.264521  0.813982  0.262379  1
  Pd  Pd4  1  0.759981  0.728038  0.044443  1
  Pd  Pd5  1  0.241630  0.272661  0.956817  1
  Pd  Pd6  1  0.258530  0.275025  0.456278  1
  Pt  Pt7  1  0.740504  0.726944  0.541957  1
  F  F8  1  0.927086  0.693688  0.416246  1
  F  F9  1  0.065786  0.299135  0.582817  1
  F  F10  1  0.434149  0.293391  0.085248  1
  F  F11  1  0.571400  0.704953  0.915699  1
  F  F12  1  0.456362  0.722755  0.129916  1
  F  F13  1  0.534931  0.276197  0.865818  1
  F  F14  1  0.965638  0.276404  0.364821  1
  F  F15  1  0.039131  0.727736  0.632029  1
  F  F16  1  0.937653  0.740831  0.182192  1
  F  F17  1  0.054642  0.258564  0.823588  1
  F  F18  1  0.445589  0.256141  0.324822  1
  F  F19  1  0.555299  0.748361  0.674787  1
  F  F20  1  0.774232  0.480742  0.140679  1
  F  F21  1  0.226322  0.520389  0.860963  1
  F  F22  1  0.282472  0.522915  0.353604  1
  F  F23  1  0.727430  0.478634  0.642899  1
  F  F24  1  0.942077  0.277143  0.041931  1
  F  F25  1  0.062325  0.722576  0.961658  1
  F  F26  1  0.431063  0.715934  0.463475  1
  F  F27  1  0.558225  0.280894  0.541317  1
  F  F28  1  0.743189  0.975621  0.447599  1
  F  F29  1  0.253901  0.028490  0.549474  1
  F  F30  1  0.245016  0.026804  0.043566  1
  F  F31  1  0.756957  0.974482  0.952324  1
  F  F32  1  0.595224  0.964797  0.230487  1
  F  F33  1  0.409083  0.031864  0.769418  1
  F  F34  1  0.093664  0.029118  0.271326  1
  F  F35  1  0.909463  0.967932  0.731994  1
