# generated using pymatgen
data_Ti12Al3Si5(PtN)4
_symmetry_space_group_name_H-M   'P 1'
_cell_length_a   8.09871844
_cell_length_b   8.09190846
_cell_length_c   8.10000200
_cell_angle_alpha   59.96690807
_cell_angle_beta   59.99475709
_cell_angle_gamma   59.99773597
_symmetry_Int_Tables_number   1
_chemical_formula_structural   Ti12Al3Si5(PtN)4
_chemical_formula_sum   'Ti12 Al3 Si5 Pt4 N4'
_cell_volume   375.23559483
_cell_formula_units_Z   1
loop_
 _symmetry_equiv_pos_site_id
 _symmetry_equiv_pos_as_xyz
  1  'x, y, z'
loop_
 _atom_site_type_symbol
 _atom_site_label
 _atom_site_symmetry_multiplicity
 _atom_site_fract_x
 _atom_site_fract_y
 _atom_site_fract_z
 _atom_site_occupancy
  Ti  Ti0  1  0.818491  0.819055  0.181227  1
  Ti  Ti1  1  0.065564  0.431638  0.430413  1
  Ti  Ti2  1  0.431129  0.065761  0.072729  1
  Ti  Ti3  1  0.068467  0.068430  0.431551  1
  Ti  Ti4  1  0.065564  0.431638  0.072385  1
  Ti  Ti5  1  0.431129  0.065761  0.430381  1
  Ti  Ti6  1  0.181239  0.819103  0.181376  1
  Ti  Ti7  1  0.181239  0.819103  0.818281  1
  Ti  Ti8  1  0.820168  0.176377  0.183509  1
  Ti  Ti9  1  0.820168  0.176377  0.819947  1
  Ti  Ti10  1  0.429335  0.429733  0.070466  1
  Ti  Ti11  1  0.182972  0.176124  0.820452  1
  Al  Al12  1  0.414140  0.414131  0.416190  1
  Al  Al13  1  0.414140  0.414131  0.755537  1
  Al  Al14  1  0.835564  0.493658  0.835390  1
  Si  Si15  1  0.409574  0.763635  0.413395  1
  Si  Si16  1  0.840521  0.836380  0.483132  1
  Si  Si17  1  0.486618  0.835377  0.839003  1
  Si  Si18  1  0.840521  0.836380  0.839969  1
  Si  Si19  1  0.760534  0.410890  0.414287  1
  Pt  Pt20  1  0.631129  0.115592  0.626639  1
  Pt  Pt21  1  0.625093  0.630894  0.124300  1
  Pt  Pt22  1  0.120677  0.634299  0.622512  1
  Pt  Pt23  1  0.625093  0.630894  0.619713  1
  N  N24  1  0.124959  0.626287  0.124377  1
  N  N25  1  0.125441  0.126243  0.623994  1
  N  N26  1  0.625088  0.125865  0.124523  1
  N  N27  1  0.125441  0.126243  0.124322  1
