# generated using pymatgen
data_Dy4Er3Tm(ReC2)4
_symmetry_space_group_name_H-M   'P 1'
_cell_length_a   5.08715100
_cell_length_b   6.56983813
_cell_length_c   9.81634420
_cell_angle_alpha   89.97691989
_cell_angle_beta   90.00000000
_cell_angle_gamma   90.00000000
_symmetry_Int_Tables_number   1
_chemical_formula_structural   Dy4Er3Tm(ReC2)4
_chemical_formula_sum   'Dy4 Er3 Tm1 Re4 C8'
_cell_volume   328.07945983
_cell_formula_units_Z   1
loop_
 _symmetry_equiv_pos_site_id
 _symmetry_equiv_pos_as_xyz
  1  'x, y, z'
loop_
 _atom_site_type_symbol
 _atom_site_label
 _atom_site_symmetry_multiplicity
 _atom_site_fract_x
 _atom_site_fract_y
 _atom_site_fract_z
 _atom_site_occupancy
  Dy  Dy0  1  0.250000  0.466907  0.215730  1
  Dy  Dy1  1  0.250000  0.966718  0.284470  1
  Dy  Dy2  1  0.750000  0.533294  0.784190  1
  Dy  Dy3  1  0.750000  0.033066  0.715514  1
  Er  Er4  1  0.250000  0.822112  0.942752  1
  Er  Er5  1  0.250000  0.322305  0.557153  1
  Er  Er6  1  0.750000  0.177807  0.057313  1
  Tm  Tm7  1  0.750000  0.677065  0.442436  1
  Re  Re8  1  0.250000  0.279082  0.866847  1
  Re  Re9  1  0.250000  0.779102  0.632915  1
  Re  Re10  1  0.750000  0.720964  0.133329  1
  Re  Re11  1  0.750000  0.221001  0.366939  1
  C  C12  1  0.250000  0.046614  0.740496  1
  C  C13  1  0.250000  0.546647  0.759420  1
  C  C14  1  0.750000  0.953099  0.259900  1
  C  C15  1  0.750000  0.453683  0.240808  1
  C  C16  1  0.250000  0.673725  0.449510  1
  C  C17  1  0.250000  0.173825  0.050307  1
  C  C18  1  0.750000  0.326852  0.550184  1
  C  C19  1  0.750000  0.826132  0.949789  1
