# generated using pymatgen
data_K2V5TcTe6
_symmetry_space_group_name_H-M   'P 1'
_cell_length_a   9.67122910
_cell_length_b   9.74790061
_cell_length_c   4.51914100
_cell_angle_alpha   90.00000000
_cell_angle_beta   90.00000000
_cell_angle_gamma   118.93189701
_symmetry_Int_Tables_number   1
_chemical_formula_structural   K2V5TcTe6
_chemical_formula_sum   'K2 V5 Tc1 Te6'
_cell_volume   372.86674744
_cell_formula_units_Z   1
loop_
 _symmetry_equiv_pos_site_id
 _symmetry_equiv_pos_as_xyz
  1  'x, y, z'
loop_
 _atom_site_type_symbol
 _atom_site_label
 _atom_site_symmetry_multiplicity
 _atom_site_fract_x
 _atom_site_fract_y
 _atom_site_fract_z
 _atom_site_occupancy
  K  K0  1  0.333843  0.666258  0.250000  1
  K  K1  1  0.666438  0.332998  0.750000  1
  V  V2  1  0.022521  0.868169  0.250000  1
  V  V3  1  0.844196  0.968859  0.250000  1
  V  V4  1  0.162417  0.035422  0.750000  1
  V  V5  1  0.979793  0.139518  0.750000  1
  V  V6  1  0.845212  0.812252  0.750000  1
  Tc  Tc7  1  0.135714  0.164611  0.250000  1
  Te  Te8  1  0.352143  0.057110  0.250000  1
  Te  Te9  1  0.937875  0.292228  0.250000  1
  Te  Te10  1  0.702227  0.643389  0.250000  1
  Te  Te11  1  0.298014  0.356233  0.750000  1
  Te  Te12  1  0.062688  0.714803  0.750000  1
  Te  Te13  1  0.656920  0.948148  0.750000  1
