# generated using pymatgen
data_La4Ga8Ge2IrRh5
_symmetry_space_group_name_H-M   'P 1'
_cell_length_a   8.72477000
_cell_length_b   8.72843749
_cell_length_c   8.72843621
_cell_angle_alpha   140.81232810
_cell_angle_beta   107.68317322
_cell_angle_gamma   85.48389153
_symmetry_Int_Tables_number   1
_chemical_formula_structural   La4Ga8Ge2IrRh5
_chemical_formula_sum   'La4 Ga8 Ge2 Ir1 Rh5'
_cell_volume   386.36285715
_cell_formula_units_Z   1
loop_
 _symmetry_equiv_pos_site_id
 _symmetry_equiv_pos_as_xyz
  1  'x, y, z'
loop_
 _atom_site_type_symbol
 _atom_site_label
 _atom_site_symmetry_multiplicity
 _atom_site_fract_x
 _atom_site_fract_y
 _atom_site_fract_z
 _atom_site_occupancy
  La  La0  1  0.363837  0.133184  0.230652  1
  La  La1  1  0.639073  0.866061  0.773014  1
  La  La2  1  0.092655  0.365639  0.727016  1
  La  La3  1  0.902630  0.633729  0.268902  1
  Ga  Ga4  1  0.001040  0.250780  0.249780  1
  Ga  Ga5  1  0.001040  0.751260  0.750260  1
  Ga  Ga6  1  0.715447  0.966274  0.251110  1
  Ga  Ga7  1  0.285427  0.535215  0.249959  1
  Ga  Ga8  1  0.285427  0.035469  0.750213  1
  Ga  Ga9  1  0.715447  0.464337  0.749174  1
  Ga  Ga10  1  0.566345  0.403842  0.162503  1
  Ga  Ga11  1  0.241255  0.903712  0.337544  1
  Ge  Ge12  1  0.754457  0.093627  0.660831  1
  Ge  Ge13  1  0.432798  0.593725  0.839073  1
  Ir  Ir14  1  0.957798  0.857019  0.100780  1
  Rh  Rh15  1  0.500588  0.750437  0.249490  1
  Rh  Rh16  1  0.756843  0.357288  0.399556  1
  Rh  Rh17  1  0.247903  0.643572  0.604330  1
  Rh  Rh18  1  0.039397  0.143734  0.895664  1
  Rh  Rh19  1  0.500588  0.251098  0.750150  1
