# generated using pymatgen
data_Tb7Sn23Ir5Ru
_symmetry_space_group_name_H-M   'P 1'
_cell_length_a   9.89241384
_cell_length_b   9.89241447
_cell_length_c   10.12203800
_cell_angle_alpha   90.08080269
_cell_angle_beta   89.91919151
_cell_angle_gamma   119.96974540
_symmetry_Int_Tables_number   1
_chemical_formula_structural   Tb7Sn23Ir5Ru
_chemical_formula_sum   'Tb7 Sn23 Ir5 Ru1'
_cell_volume   858.09410774
_cell_formula_units_Z   1
loop_
 _symmetry_equiv_pos_site_id
 _symmetry_equiv_pos_as_xyz
  1  'x, y, z'
loop_
 _atom_site_type_symbol
 _atom_site_label
 _atom_site_symmetry_multiplicity
 _atom_site_fract_x
 _atom_site_fract_y
 _atom_site_fract_z
 _atom_site_occupancy
  Tb  Tb0  1  0.998373  0.001627  0.001776  1
  Tb  Tb1  1  0.480528  0.519472  0.306814  1
  Tb  Tb2  1  0.519768  0.480232  0.693489  1
  Tb  Tb3  1  0.480731  0.960913  0.306626  1
  Tb  Tb4  1  0.519864  0.039955  0.693797  1
  Tb  Tb5  1  0.039087  0.519269  0.306626  1
  Tb  Tb6  1  0.960045  0.480136  0.693797  1
  Sn  Sn7  1  0.352706  0.999837  0.999905  1
  Sn  Sn8  1  0.650890  0.001754  0.001229  1
  Sn  Sn9  1  0.998246  0.349110  0.001229  1
  Sn  Sn10  1  0.000163  0.647294  0.999905  1
  Sn  Sn11  1  0.647535  0.647527  0.999904  1
  Sn  Sn12  1  0.352473  0.352465  0.999904  1
  Sn  Sn13  1  0.333243  0.666757  0.824894  1
  Sn  Sn14  1  0.667886  0.332114  0.176923  1
  Sn  Sn15  1  0.999847  0.000153  0.501184  1
  Sn  Sn16  1  0.778546  0.221454  0.455230  1
  Sn  Sn17  1  0.221793  0.778207  0.543820  1
  Sn  Sn18  1  0.778070  0.556167  0.456116  1
  Sn  Sn19  1  0.221866  0.443342  0.543426  1
  Sn  Sn20  1  0.443833  0.221930  0.456116  1
  Sn  Sn21  1  0.556658  0.778134  0.543426  1
  Sn  Sn22  1  0.333102  0.666898  0.119640  1
  Sn  Sn23  1  0.666523  0.333477  0.879588  1
  Sn  Sn24  1  0.117802  0.882198  0.283713  1
  Sn  Sn25  1  0.881520  0.118480  0.716101  1
  Sn  Sn26  1  0.116369  0.235208  0.280943  1
  Sn  Sn27  1  0.881899  0.763931  0.716262  1
  Sn  Sn28  1  0.764792  0.883631  0.280943  1
  Sn  Sn29  1  0.236069  0.118101  0.716262  1
  Ir  Ir30  1  0.168772  0.831228  0.801583  1
  Ir  Ir31  1  0.830931  0.662692  0.198490  1
  Ir  Ir32  1  0.168867  0.338028  0.801578  1
  Ir  Ir33  1  0.337308  0.169069  0.198490  1
  Ir  Ir34  1  0.661972  0.831133  0.801578  1
  Ru  Ru35  1  0.831925  0.168075  0.198697  1
