# generated using pymatgen
data_Al4Sb2O9
_symmetry_space_group_name_H-M   'P 1'
_cell_length_a   5.74413500
_cell_length_b   7.84264200
_cell_length_c   8.06490600
_cell_angle_alpha   90.00000000
_cell_angle_beta   90.00000000
_cell_angle_gamma   90.00000000
_symmetry_Int_Tables_number   1
_chemical_formula_structural   Al4Sb2O9
_chemical_formula_sum   'Al8 Sb4 O18'
_cell_volume   363.31751825
_cell_formula_units_Z   2
loop_
 _symmetry_equiv_pos_site_id
 _symmetry_equiv_pos_as_xyz
  1  'x, y, z'
loop_
 _atom_site_type_symbol
 _atom_site_label
 _atom_site_symmetry_multiplicity
 _atom_site_fract_x
 _atom_site_fract_y
 _atom_site_fract_z
 _atom_site_occupancy
  Al  Al0  1  0.500000  0.149821  0.840691  1
  Al  Al1  1  0.500000  0.850179  0.159309  1
  Al  Al2  1  0.500000  0.649821  0.659309  1
  Al  Al3  1  0.500000  0.350179  0.340691  1
  Al  Al4  1  0.261529  0.000000  0.500000  1
  Al  Al5  1  0.738471  0.500000  0.000000  1
  Al  Al6  1  0.738471  0.000000  0.500000  1
  Al  Al7  1  0.261529  0.500000  0.000000  1
  Sb  Sb8  1  0.000000  0.315010  0.671625  1
  Sb  Sb9  1  0.000000  0.684990  0.328375  1
  Sb  Sb10  1  0.000000  0.815010  0.828375  1
  Sb  Sb11  1  0.000000  0.184990  0.171625  1
  O  O12  1  0.000000  0.358238  0.928256  1
  O  O13  1  0.000000  0.641762  0.071744  1
  O  O14  1  0.000000  0.858238  0.571744  1
  O  O15  1  0.000000  0.141762  0.428256  1
  O  O16  1  0.500000  0.365499  0.910078  1
  O  O17  1  0.500000  0.634501  0.089922  1
  O  O18  1  0.500000  0.865499  0.589922  1
  O  O19  1  0.500000  0.134501  0.410078  1
  O  O20  1  0.248656  0.867414  0.295005  1
  O  O21  1  0.248656  0.132586  0.704995  1
  O  O22  1  0.751344  0.367414  0.204995  1
  O  O23  1  0.751344  0.632586  0.795005  1
  O  O24  1  0.500000  0.000000  0.000000  1
  O  O25  1  0.500000  0.500000  0.500000  1
  O  O26  1  0.248656  0.367414  0.204995  1
  O  O27  1  0.248656  0.632586  0.795005  1
  O  O28  1  0.751344  0.867414  0.295005  1
  O  O29  1  0.751344  0.132586  0.704995  1
