# generated using pymatgen
data_Tb8Hf12Si15Ni
_symmetry_space_group_name_H-M   'P 1'
_cell_length_a   7.26407323
_cell_length_b   7.29842295
_cell_length_c   13.39370764
_cell_angle_alpha   90.19788999
_cell_angle_beta   89.89398986
_cell_angle_gamma   90.12157344
_symmetry_Int_Tables_number   1
_chemical_formula_structural   Tb8Hf12Si15Ni
_chemical_formula_sum   'Tb8 Hf12 Si15 Ni1'
_cell_volume   710.07749884
_cell_formula_units_Z   1
loop_
 _symmetry_equiv_pos_site_id
 _symmetry_equiv_pos_as_xyz
  1  'x, y, z'
loop_
 _atom_site_type_symbol
 _atom_site_label
 _atom_site_symmetry_multiplicity
 _atom_site_fract_x
 _atom_site_fract_y
 _atom_site_fract_z
 _atom_site_occupancy
  Tb  Tb0  1  0.997086  0.347264  0.215594  1
  Tb  Tb1  1  0.005267  0.654443  0.714222  1
  Tb  Tb2  1  0.160348  0.491225  0.461753  1
  Tb  Tb3  1  0.503746  0.844481  0.034937  1
  Tb  Tb4  1  0.843469  0.503196  0.965630  1
  Tb  Tb5  1  0.495868  0.154213  0.536944  1
  Tb  Tb6  1  0.343934  0.997024  0.785440  1
  Tb  Tb7  1  0.657203  0.002916  0.284519  1
  Hf  Hf8  1  0.174947  0.176573  0.999451  1
  Hf  Hf9  1  0.825910  0.823256  0.499622  1
  Hf  Hf10  1  0.324307  0.676521  0.250518  1
  Hf  Hf11  1  0.675372  0.324449  0.750069  1
  Hf  Hf12  1  0.153666  0.005783  0.374093  1
  Hf  Hf13  1  0.850587  0.004391  0.874877  1
  Hf  Hf14  1  0.504042  0.648942  0.624382  1
  Hf  Hf15  1  0.351550  0.496030  0.874873  1
  Hf  Hf16  1  0.493640  0.349333  0.129238  1
  Hf  Hf17  1  0.640509  0.499204  0.376208  1
  Hf  Hf18  1  0.996899  0.147989  0.625976  1
  Hf  Hf19  1  0.001546  0.850699  0.124610  1
  Si  Si20  1  0.638345  0.704987  0.817824  1
  Si  Si21  1  0.203956  0.860712  0.565948  1
  Si  Si22  1  0.137898  0.796179  0.932968  1
  Si  Si23  1  0.795908  0.138634  0.067018  1
  Si  Si24  1  0.859981  0.199966  0.435444  1
  Si  Si25  1  0.295811  0.362015  0.683620  1
  Si  Si26  1  0.704615  0.640173  0.182747  1
  Si  Si27  1  0.291040  0.051806  0.185640  1
  Si  Si28  1  0.706310  0.949903  0.685660  1
  Si  Si29  1  0.449817  0.794432  0.435796  1
  Si  Si30  1  0.205771  0.550526  0.063358  1
  Si  Si31  1  0.548604  0.206160  0.936338  1
  Si  Si32  1  0.795494  0.449702  0.564708  1
  Si  Si33  1  0.048795  0.295622  0.814717  1
  Si  Si34  1  0.949872  0.707657  0.314110  1
  Ni  Ni35  1  0.367887  0.293597  0.311150  1
