# generated using pymatgen
data_LaSiGeRh3
_symmetry_space_group_name_H-M   'P 1'
_cell_length_a   5.70084919
_cell_length_b   6.79298010
_cell_length_c   6.79297966
_cell_angle_alpha   65.70899152
_cell_angle_beta   65.25414758
_cell_angle_gamma   65.25415274
_symmetry_Int_Tables_number   1
_chemical_formula_structural   LaSiGeRh3
_chemical_formula_sum   'La2 Si2 Ge2 Rh6'
_cell_volume   207.88549320
_cell_formula_units_Z   2
loop_
 _symmetry_equiv_pos_site_id
 _symmetry_equiv_pos_as_xyz
  1  'x, y, z'
loop_
 _atom_site_type_symbol
 _atom_site_label
 _atom_site_symmetry_multiplicity
 _atom_site_fract_x
 _atom_site_fract_y
 _atom_site_fract_z
 _atom_site_occupancy
  La  La0  1  0.540789  0.751154  0.751154  1
  La  La1  1  0.459211  0.248846  0.248846  1
  Si  Si2  1  0.119979  0.081399  0.081399  1
  Si  Si3  1  0.880021  0.918601  0.918601  1
  Ge  Ge4  1  0.218901  0.579225  0.579225  1
  Ge  Ge5  1  0.781099  0.420775  0.420775  1
  Rh  Rh6  1  0.500000  0.207378  0.792622  1
  Rh  Rh7  1  0.000000  0.728607  0.271393  1
  Rh  Rh8  1  0.500000  0.792622  0.207378  1
  Rh  Rh9  1  0.000000  0.271393  0.728607  1
  Rh  Rh10  1  0.000000  0.500000  0.000000  1
  Rh  Rh11  1  0.000000  0.000000  0.500000  1
