# generated using pymatgen
data_La16Yb4Ir7Ru5
_symmetry_space_group_name_H-M   'P 1'
_cell_length_a   11.28232626
_cell_length_b   11.28230330
_cell_length_c   6.60474848
_cell_angle_alpha   90.07158447
_cell_angle_beta   90.07083541
_cell_angle_gamma   90.04901394
_symmetry_Int_Tables_number   1
_chemical_formula_structural   La16Yb4Ir7Ru5
_chemical_formula_sum   'La16 Yb4 Ir7 Ru5'
_cell_volume   840.72096563
_cell_formula_units_Z   1
loop_
 _symmetry_equiv_pos_site_id
 _symmetry_equiv_pos_as_xyz
  1  'x, y, z'
loop_
 _atom_site_type_symbol
 _atom_site_label
 _atom_site_symmetry_multiplicity
 _atom_site_fract_x
 _atom_site_fract_y
 _atom_site_fract_z
 _atom_site_occupancy
  La  La0  1  0.290618  0.088737  0.387481  1
  La  La1  1  0.290382  0.911407  0.887629  1
  La  La2  1  0.710773  0.089561  0.890082  1
  La  La3  1  0.709854  0.911912  0.387574  1
  La  La4  1  0.588612  0.790700  0.887303  1
  La  La5  1  0.590265  0.209666  0.386513  1
  La  La6  1  0.411346  0.790547  0.387652  1
  La  La7  1  0.411357  0.209499  0.886937  1
  La  La8  1  0.209297  0.411401  0.612698  1
  La  La9  1  0.209454  0.588660  0.112353  1
  La  La10  1  0.790347  0.409736  0.113490  1
  La  La11  1  0.790497  0.588630  0.613080  1
  La  La12  1  0.911269  0.709384  0.112529  1
  La  La13  1  0.910432  0.289226  0.609910  1
  La  La14  1  0.088596  0.709619  0.612349  1
  La  La15  1  0.088094  0.290152  0.112412  1
  Yb  Yb16  1  0.999734  0.000375  0.499306  1
  Yb  Yb17  1  0.999627  0.000267  0.000698  1
  Yb  Yb18  1  0.500057  0.500010  0.000063  1
  Yb  Yb19  1  0.499989  0.499940  0.499939  1
  Ir  Ir20  1  0.845198  0.844628  0.750034  1
  Ir  Ir21  1  0.155374  0.154802  0.749967  1
  Ir  Ir22  1  0.155005  0.844995  0.250005  1
  Ir  Ir23  1  0.654185  0.345813  0.750000  1
  Ir  Ir24  1  0.654883  0.654902  0.250163  1
  Ir  Ir25  1  0.345094  0.345116  0.249838  1
  Ir  Ir26  1  0.345337  0.654668  0.750005  1
  Ru  Ru27  1  0.844451  0.155547  0.249998  1
  Ru  Ru28  1  0.499802  0.999890  0.116329  1
  Ru  Ru29  1  0.499706  0.999727  0.616802  1
  Ru  Ru30  1  0.000267  0.500292  0.883201  1
  Ru  Ru31  1  0.000098  0.500193  0.383662  1
