# generated using pymatgen
data_Pu3U(TcB4)4
_symmetry_space_group_name_H-M   'P 1'
_cell_length_a   3.59176300
_cell_length_b   5.96652681
_cell_length_c   11.55204557
_cell_angle_alpha   89.94031615
_cell_angle_beta   90.00000000
_cell_angle_gamma   90.00000000
_symmetry_Int_Tables_number   1
_chemical_formula_structural   Pu3U(TcB4)4
_chemical_formula_sum   'Pu3 U1 Tc4 B16'
_cell_volume   247.56424808
_cell_formula_units_Z   1
loop_
 _symmetry_equiv_pos_site_id
 _symmetry_equiv_pos_as_xyz
  1  'x, y, z'
loop_
 _atom_site_type_symbol
 _atom_site_label
 _atom_site_symmetry_multiplicity
 _atom_site_fract_x
 _atom_site_fract_y
 _atom_site_fract_z
 _atom_site_occupancy
  Pu  Pu0  1  0.000000  0.372641  0.650646  1
  Pu  Pu1  1  0.000000  0.126372  0.149734  1
  Pu  Pu2  1  0.000000  0.872888  0.849903  1
  U  U3  1  0.000000  0.627058  0.349598  1
  Tc  Tc4  1  0.000000  0.635385  0.093130  1
  Tc  Tc5  1  0.000000  0.364827  0.909906  1
  Tc  Tc6  1  0.000000  0.137918  0.406992  1
  Tc  Tc7  1  0.000000  0.861990  0.588939  1
  B  B8  1  0.500000  0.787229  0.187708  1
  B  B9  1  0.500000  0.212052  0.813886  1
  B  B10  1  0.500000  0.290487  0.313681  1
  B  B11  1  0.500000  0.713392  0.686471  1
  B  B12  1  0.500000  0.864147  0.031960  1
  B  B13  1  0.500000  0.134593  0.968720  1
  B  B14  1  0.500000  0.366297  0.467431  1
  B  B15  1  0.500000  0.634594  0.530703  1
  B  B16  1  0.500000  0.886102  0.452838  1
  B  B17  1  0.500000  0.113708  0.546686  1
  B  B18  1  0.500000  0.386107  0.046940  1
  B  B19  1  0.500000  0.613992  0.953238  1
  B  B20  1  0.500000  0.972385  0.307957  1
  B  B21  1  0.500000  0.024798  0.691878  1
  B  B22  1  0.500000  0.475781  0.193082  1
  B  B23  1  0.500000  0.525256  0.807973  1
