# generated using pymatgen
data_DyHo5(SnIr)6
_symmetry_space_group_name_H-M   'P 1'
_cell_length_a   7.50920409
_cell_length_b   7.46766442
_cell_length_c   7.91582900
_cell_angle_alpha   90.00000000
_cell_angle_beta   90.00000000
_cell_angle_gamma   120.21428273
_symmetry_Int_Tables_number   1
_chemical_formula_structural   DyHo5(SnIr)6
_chemical_formula_sum   'Dy1 Ho5 Sn6 Ir6'
_cell_volume   383.58704289
_cell_formula_units_Z   1
loop_
 _symmetry_equiv_pos_site_id
 _symmetry_equiv_pos_as_xyz
  1  'x, y, z'
loop_
 _atom_site_type_symbol
 _atom_site_label
 _atom_site_symmetry_multiplicity
 _atom_site_fract_x
 _atom_site_fract_y
 _atom_site_fract_z
 _atom_site_occupancy
  Dy  Dy0  1  0.402134  0.998119  0.750000  1
  Ho  Ho1  1  0.406084  0.001633  0.250000  1
  Ho  Ho2  1  0.596072  0.595138  0.750000  1
  Ho  Ho3  1  0.594979  0.596471  0.250000  1
  Ho  Ho4  1  0.996777  0.402880  0.250000  1
  Ho  Ho5  1  0.004490  0.406255  0.750000  1
  Sn  Sn6  1  0.260067  0.261344  0.498899  1
  Sn  Sn7  1  0.260067  0.261344  0.001101  1
  Sn  Sn8  1  0.742777  0.000284  0.997823  1
  Sn  Sn9  1  0.998000  0.738361  0.499060  1
  Sn  Sn10  1  0.742777  0.000284  0.502177  1
  Sn  Sn11  1  0.998000  0.738361  0.000940  1
  Ir  Ir12  1  0.664047  0.329670  0.503374  1
  Ir  Ir13  1  0.664047  0.329670  0.996626  1
  Ir  Ir14  1  0.334010  0.670177  0.001512  1
  Ir  Ir15  1  0.334010  0.670177  0.498488  1
  Ir  Ir16  1  0.002466  0.999893  0.750000  1
  Ir  Ir17  1  0.999197  0.999940  0.250000  1
