# generated using pymatgen
data_Ho2Er6B24OsRu3
_symmetry_space_group_name_H-M   'P 1'
_cell_length_a   3.63447500
_cell_length_b   9.10551626
_cell_length_c   11.48070000
_cell_angle_alpha   90.04135557
_cell_angle_beta   90.00000000
_cell_angle_gamma   90.00000000
_symmetry_Int_Tables_number   1
_chemical_formula_structural   Ho2Er6B24OsRu3
_chemical_formula_sum   'Ho2 Er6 B24 Os1 Ru3'
_cell_volume   379.93956034
_cell_formula_units_Z   1
loop_
 _symmetry_equiv_pos_site_id
 _symmetry_equiv_pos_as_xyz
  1  'x, y, z'
loop_
 _atom_site_type_symbol
 _atom_site_label
 _atom_site_symmetry_multiplicity
 _atom_site_fract_x
 _atom_site_fract_y
 _atom_site_fract_z
 _atom_site_occupancy
  Ho  Ho0  1  0.000000  0.322565  0.414044  1
  Ho  Ho1  1  0.000000  0.678024  0.586354  1
  Er  Er2  1  0.000000  0.822113  0.085750  1
  Er  Er3  1  0.000000  0.177609  0.914085  1
  Er  Er4  1  0.000000  0.943805  0.372174  1
  Er  Er5  1  0.000000  0.056464  0.627051  1
  Er  Er6  1  0.000000  0.443682  0.127627  1
  Er  Er7  1  0.000000  0.555595  0.872882  1
  B  B8  1  0.500000  0.554226  0.433228  1
  B  B9  1  0.500000  0.445987  0.566820  1
  B  B10  1  0.500000  0.053969  0.066622  1
  B  B11  1  0.500000  0.946253  0.933536  1
  B  B12  1  0.500000  0.748398  0.419894  1
  B  B13  1  0.500000  0.251885  0.579989  1
  B  B14  1  0.500000  0.248169  0.079881  1
  B  B15  1  0.500000  0.751642  0.920140  1
  B  B16  1  0.500000  0.791602  0.265915  1
  B  B17  1  0.500000  0.208330  0.733908  1
  B  B18  1  0.500000  0.291458  0.233754  1
  B  B19  1  0.500000  0.708274  0.766331  1
  B  B20  1  0.500000  0.631777  0.184868  1
  B  B21  1  0.500000  0.367983  0.815199  1
  B  B22  1  0.500000  0.131627  0.314885  1
  B  B23  1  0.500000  0.868512  0.685180  1
  B  B24  1  0.500000  0.982808  0.212846  1
  B  B25  1  0.500000  0.017459  0.787052  1
  B  B26  1  0.500000  0.483119  0.286936  1
  B  B27  1  0.500000  0.516847  0.713180  1
  B  B28  1  0.500000  0.607349  0.029866  1
  B  B29  1  0.500000  0.392157  0.970366  1
  B  B30  1  0.500000  0.107354  0.470128  1
  B  B31  1  0.500000  0.893071  0.529438  1
  Os  Os32  1  0.000000  0.862285  0.821343  1
  Ru  Ru33  1  0.000000  0.638039  0.320992  1
  Ru  Ru34  1  0.000000  0.361937  0.679141  1
  Ru  Ru35  1  0.000000  0.137628  0.178596  1
