# generated using pymatgen
data_H7PtF12
_symmetry_space_group_name_H-M   'P 1'
_cell_length_a   7.94685611
_cell_length_b   7.94685581
_cell_length_c   5.21728462
_cell_angle_alpha   75.55568781
_cell_angle_beta   75.55568366
_cell_angle_gamma   48.67289381
_symmetry_Int_Tables_number   1
_chemical_formula_structural   H7PtF12
_chemical_formula_sum   'H7 Pt1 F12'
_cell_volume   237.97452818
_cell_formula_units_Z   1
loop_
 _symmetry_equiv_pos_site_id
 _symmetry_equiv_pos_as_xyz
  1  'x, y, z'
loop_
 _atom_site_type_symbol
 _atom_site_label
 _atom_site_symmetry_multiplicity
 _atom_site_fract_x
 _atom_site_fract_y
 _atom_site_fract_z
 _atom_site_occupancy
  H  H0  1  0.809429  0.828556  0.813359  1
  H  H1  1  0.171444  0.190571  0.186641  1
  H  H2  1  0.717036  0.739108  0.593332  1
  H  H3  1  0.260892  0.282964  0.406668  1
  H  H4  1  0.631748  0.637120  0.373775  1
  H  H5  1  0.362880  0.368252  0.626225  1
  H  H6  1  0.501035  0.498965  0.500000  1
  Pt  Pt7  1  0.001180  0.998820  0.000000  1
  F  F8  1  0.919398  0.916008  0.754701  1
  F  F9  1  0.083992  0.080602  0.245299  1
  F  F10  1  0.569160  0.566695  0.322955  1
  F  F11  1  0.433305  0.430840  0.677045  1
  F  F12  1  0.711763  0.723473  0.405441  1
  F  F13  1  0.276527  0.288237  0.594559  1
  F  F14  1  0.874714  0.284409  0.789798  1
  F  F15  1  0.715591  0.125286  0.210202  1
  F  F16  1  0.127503  0.713596  0.210634  1
  F  F17  1  0.286404  0.872497  0.789366  1
  F  F18  1  0.731075  0.765078  0.827732  1
  F  F19  1  0.234922  0.268925  0.172268  1
