# generated using pymatgen
data_Zr2Co2SiAs
_symmetry_space_group_name_H-M   'P 1'
_cell_length_a   3.83500400
_cell_length_b   6.50292900
_cell_length_c   7.26415100
_cell_angle_alpha   90.00000000
_cell_angle_beta   90.00000000
_cell_angle_gamma   90.00000000
_symmetry_Int_Tables_number   1
_chemical_formula_structural   Zr2Co2SiAs
_chemical_formula_sum   'Zr4 Co4 Si2 As2'
_cell_volume   181.15890914
_cell_formula_units_Z   2
loop_
 _symmetry_equiv_pos_site_id
 _symmetry_equiv_pos_as_xyz
  1  'x, y, z'
loop_
 _atom_site_type_symbol
 _atom_site_label
 _atom_site_symmetry_multiplicity
 _atom_site_fract_x
 _atom_site_fract_y
 _atom_site_fract_z
 _atom_site_occupancy
  Zr  Zr0  1  0.250000  0.013001  0.311792  1
  Zr  Zr1  1  0.250000  0.513001  0.188208  1
  Zr  Zr2  1  0.750000  0.982115  0.687716  1
  Zr  Zr3  1  0.750000  0.482115  0.812284  1
  Co  Co4  1  0.250000  0.145353  0.943140  1
  Co  Co5  1  0.250000  0.645353  0.556860  1
  Co  Co6  1  0.750000  0.862474  0.069841  1
  Co  Co7  1  0.750000  0.362474  0.430159  1
  Si  Si8  1  0.750000  0.722260  0.388991  1
  Si  Si9  1  0.750000  0.222260  0.111009  1
  As  As10  1  0.250000  0.274796  0.610879  1
  As  As11  1  0.250000  0.774796  0.889121  1
