# generated using pymatgen
data_Tb3Yb5(LuRu2)2
_symmetry_space_group_name_H-M   'P 1'
_cell_length_a   6.28258872
_cell_length_b   7.36483948
_cell_length_c   8.52212767
_cell_angle_alpha   96.52303382
_cell_angle_beta   112.01293759
_cell_angle_gamma   90.22528369
_symmetry_Int_Tables_number   1
_chemical_formula_structural   Tb3Yb5(LuRu2)2
_chemical_formula_sum   'Tb3 Yb5 Lu2 Ru4'
_cell_volume   362.74474183
_cell_formula_units_Z   1
loop_
 _symmetry_equiv_pos_site_id
 _symmetry_equiv_pos_as_xyz
  1  'x, y, z'
loop_
 _atom_site_type_symbol
 _atom_site_label
 _atom_site_symmetry_multiplicity
 _atom_site_fract_x
 _atom_site_fract_y
 _atom_site_fract_z
 _atom_site_occupancy
  Tb  Tb0  1  0.531180  0.082680  0.826774  1
  Tb  Tb1  1  0.468749  0.914850  0.168449  1
  Tb  Tb2  1  0.699405  0.419051  0.168522  1
  Yb  Yb3  1  0.293282  0.579114  0.821282  1
  Yb  Yb4  1  0.305663  0.314617  0.430829  1
  Yb  Yb5  1  0.694094  0.683784  0.568082  1
  Yb  Yb6  1  0.872895  0.183857  0.570581  1
  Yb  Yb7  1  0.124957  0.816753  0.430316  1
  Lu  Lu8  1  0.077030  0.251069  0.999854  1
  Lu  Lu9  1  0.928619  0.749163  0.998842  1
  Ru  Ru10  1  0.315949  0.577449  0.214379  1
  Ru  Ru11  1  0.690630  0.422070  0.801682  1
  Ru  Ru12  1  0.112211  0.930287  0.799590  1
  Ru  Ru13  1  0.885334  0.075256  0.200818  1
