# generated using pymatgen
data_PrNd(NbSe2)6
_symmetry_space_group_name_H-M   'P 1'
_cell_length_a   6.10823500
_cell_length_b   6.10823553
_cell_length_c   14.99851400
_cell_angle_alpha   90.00000000
_cell_angle_beta   90.00000000
_cell_angle_gamma   120.00000257
_symmetry_Int_Tables_number   1
_chemical_formula_structural   PrNd(NbSe2)6
_chemical_formula_sum   'Pr1 Nd1 Nb6 Se12'
_cell_volume   484.63007835
_cell_formula_units_Z   1
loop_
 _symmetry_equiv_pos_site_id
 _symmetry_equiv_pos_as_xyz
  1  'x, y, z'
loop_
 _atom_site_type_symbol
 _atom_site_label
 _atom_site_symmetry_multiplicity
 _atom_site_fract_x
 _atom_site_fract_y
 _atom_site_fract_z
 _atom_site_occupancy
  Pr  Pr0  1  0.333333  0.666667  0.250000  1
  Nd  Nd1  1  0.666667  0.333333  0.750000  1
  Nb  Nb2  1  0.333333  0.666667  0.002004  1
  Nb  Nb3  1  0.000000  0.000000  0.999857  1
  Nb  Nb4  1  0.666667  0.333333  0.997775  1
  Nb  Nb5  1  0.333333  0.666667  0.497996  1
  Nb  Nb6  1  0.000000  0.000000  0.500143  1
  Nb  Nb7  1  0.666667  0.333333  0.502225  1
  Se  Se8  1  0.675058  0.665159  0.388728  1
  Se  Se9  1  0.665189  0.674159  0.611695  1
  Se  Se10  1  0.008970  0.674159  0.888305  1
  Se  Se11  1  0.665189  0.991030  0.888305  1
  Se  Se12  1  0.675058  0.009899  0.111272  1
  Se  Se13  1  0.334841  0.009899  0.388728  1
  Se  Se14  1  0.008970  0.334811  0.611695  1
  Se  Se15  1  0.325841  0.991030  0.611695  1
  Se  Se16  1  0.990101  0.665159  0.111272  1
  Se  Se17  1  0.325841  0.334811  0.888305  1
  Se  Se18  1  0.990101  0.324942  0.388728  1
  Se  Se19  1  0.334841  0.324942  0.111272  1
