# generated using pymatgen
data_Yb2DyCoSn6
_symmetry_space_group_name_H-M   'P 1'
_cell_length_a   8.33049045
_cell_length_b   8.33049039
_cell_length_c   13.26595400
_cell_angle_alpha   90.00000000
_cell_angle_beta   90.00000000
_cell_angle_gamma   147.37088432
_symmetry_Int_Tables_number   1
_chemical_formula_structural   Yb2DyCoSn6
_chemical_formula_sum   'Yb4 Dy2 Co2 Sn12'
_cell_volume   496.39632664
_cell_formula_units_Z   2
loop_
 _symmetry_equiv_pos_site_id
 _symmetry_equiv_pos_as_xyz
  1  'x, y, z'
loop_
 _atom_site_type_symbol
 _atom_site_label
 _atom_site_symmetry_multiplicity
 _atom_site_fract_x
 _atom_site_fract_y
 _atom_site_fract_z
 _atom_site_occupancy
  Yb  Yb0  1  0.901412  0.098588  0.097409  1
  Yb  Yb1  1  0.098588  0.901412  0.597409  1
  Yb  Yb2  1  0.098588  0.901412  0.902591  1
  Yb  Yb3  1  0.901412  0.098588  0.402591  1
  Dy  Dy4  1  0.901592  0.098408  0.750000  1
  Dy  Dy5  1  0.098408  0.901592  0.250000  1
  Co  Co6  1  0.294611  0.705389  0.250000  1
  Co  Co7  1  0.705389  0.294611  0.750000  1
  Sn  Sn8  1  0.755737  0.244263  0.570326  1
  Sn  Sn9  1  0.426070  0.573930  0.577456  1
  Sn  Sn10  1  0.573930  0.426070  0.422544  1
  Sn  Sn11  1  0.731620  0.268380  0.250000  1
  Sn  Sn12  1  0.268380  0.731620  0.750000  1
  Sn  Sn13  1  0.244263  0.755737  0.070326  1
  Sn  Sn14  1  0.244263  0.755737  0.429674  1
  Sn  Sn15  1  0.573930  0.426070  0.077456  1
  Sn  Sn16  1  0.453706  0.546294  0.250000  1
  Sn  Sn17  1  0.546294  0.453706  0.750000  1
  Sn  Sn18  1  0.755737  0.244263  0.929674  1
  Sn  Sn19  1  0.426070  0.573930  0.922544  1
