# generated using pymatgen
data_Ac12PdRu3
_symmetry_space_group_name_H-M   'P 1'
_cell_length_a   6.85777500
_cell_length_b   7.86757195
_cell_length_c   10.47076800
_cell_angle_alpha   90.00000000
_cell_angle_beta   90.00000000
_cell_angle_gamma   90.20620510
_symmetry_Int_Tables_number   1
_chemical_formula_structural   Ac12PdRu3
_chemical_formula_sum   'Ac12 Pd1 Ru3'
_cell_volume   564.93655844
_cell_formula_units_Z   1
loop_
 _symmetry_equiv_pos_site_id
 _symmetry_equiv_pos_as_xyz
  1  'x, y, z'
loop_
 _atom_site_type_symbol
 _atom_site_label
 _atom_site_symmetry_multiplicity
 _atom_site_fract_x
 _atom_site_fract_y
 _atom_site_fract_z
 _atom_site_occupancy
  Ac  Ac0  1  0.337186  0.668558  0.067613  1
  Ac  Ac1  1  0.169935  0.182065  0.433893  1
  Ac  Ac2  1  0.673838  0.325201  0.572750  1
  Ac  Ac3  1  0.826646  0.827083  0.926905  1
  Ac  Ac4  1  0.673838  0.325201  0.927250  1
  Ac  Ac5  1  0.826646  0.827083  0.573095  1
  Ac  Ac6  1  0.337186  0.668558  0.432387  1
  Ac  Ac7  1  0.169935  0.182065  0.066107  1
  Ac  Ac8  1  0.837443  0.534168  0.250000  1
  Ac  Ac9  1  0.644738  0.049061  0.250000  1
  Ac  Ac10  1  0.160862  0.456328  0.750000  1
  Ac  Ac11  1  0.338465  0.955129  0.750000  1
  Pd  Pd12  1  0.067642  0.880798  0.250000  1
  Ru  Ru13  1  0.433723  0.378629  0.250000  1
  Ru  Ru14  1  0.944751  0.118592  0.750000  1
  Ru  Ru15  1  0.557166  0.621483  0.750000  1
