# generated using pymatgen
data_ErTm3Hf2Pt2F28
_symmetry_space_group_name_H-M   'P 1'
_cell_length_a   5.58507402
_cell_length_b   8.86406212
_cell_length_c   11.96665827
_cell_angle_alpha   62.71084731
_cell_angle_beta   90.00825448
_cell_angle_gamma   89.99920791
_symmetry_Int_Tables_number   1
_chemical_formula_structural   ErTm3Hf2Pt2F28
_chemical_formula_sum   'Er1 Tm3 Hf2 Pt2 F28'
_cell_volume   526.49198702
_cell_formula_units_Z   1
loop_
 _symmetry_equiv_pos_site_id
 _symmetry_equiv_pos_as_xyz
  1  'x, y, z'
loop_
 _atom_site_type_symbol
 _atom_site_label
 _atom_site_symmetry_multiplicity
 _atom_site_fract_x
 _atom_site_fract_y
 _atom_site_fract_z
 _atom_site_occupancy
  Er  Er0  1  0.741633  0.814616  0.262918  1
  Tm  Tm1  1  0.759084  0.816237  0.767548  1
  Tm  Tm2  1  0.259132  0.184131  0.732601  1
  Tm  Tm3  1  0.241389  0.185871  0.237138  1
  Hf  Hf4  1  0.756878  0.273983  0.956776  1
  Hf  Hf5  1  0.256655  0.726625  0.543646  1
  Pt  Pt6  1  0.240846  0.727611  0.043894  1
  Pt  Pt7  1  0.740257  0.271651  0.455701  1
  F  F8  1  0.436444  0.703290  0.916157  1
  F  F9  1  0.936728  0.296422  0.583121  1
  F  F10  1  0.537069  0.288776  0.082592  1
  F  F11  1  0.038154  0.710864  0.417765  1
  F  F12  1  0.441393  0.275720  0.543210  1
  F  F13  1  0.941030  0.723944  0.956829  1
  F  F14  1  0.554229  0.722875  0.450132  1
  F  F15  1  0.054141  0.276740  0.051102  1
  F  F16  1  0.772007  0.527690  0.860946  1
  F  F17  1  0.271601  0.472664  0.639112  1
  F  F18  1  0.224267  0.478360  0.143972  1
  F  F19  1  0.723280  0.520607  0.355909  1
  F  F20  1  0.759041  0.021266  0.057118  1
  F  F21  1  0.258907  0.979257  0.442133  1
  F  F22  1  0.247348  0.976681  0.948726  1
  F  F23  1  0.747131  0.022577  0.551180  1
  F  F24  1  0.981033  0.732442  0.649244  1
  F  F25  1  0.481633  0.267707  0.850981  1
  F  F26  1  0.030236  0.274703  0.361471  1
  F  F27  1  0.531193  0.724644  0.137548  1
  F  F28  1  0.053268  0.745313  0.177018  1
  F  F29  1  0.551064  0.253902  0.322934  1
  F  F30  1  0.969711  0.252114  0.827793  1
  F  F31  1  0.469145  0.748216  0.672713  1
  F  F32  1  0.420804  0.972809  0.233553  1
  F  F33  1  0.922880  0.029389  0.266385  1
  F  F34  1  0.575193  0.027838  0.765842  1
  F  F35  1  0.075196  0.972462  0.734291  1
