# generated using pymatgen
data_Zr4In5Hg3
_symmetry_space_group_name_H-M   'P 1'
_cell_length_a   14.07677109
_cell_length_b   4.42826366
_cell_length_c   4.41335600
_cell_angle_alpha   89.99999844
_cell_angle_beta   99.01369190
_cell_angle_gamma   99.04961853
_symmetry_Int_Tables_number   1
_chemical_formula_structural   Zr4In5Hg3
_chemical_formula_sum   'Zr4 In5 Hg3'
_cell_volume   268.24429392
_cell_formula_units_Z   1
loop_
 _symmetry_equiv_pos_site_id
 _symmetry_equiv_pos_as_xyz
  1  'x, y, z'
loop_
 _atom_site_type_symbol
 _atom_site_label
 _atom_site_symmetry_multiplicity
 _atom_site_fract_x
 _atom_site_fract_y
 _atom_site_fract_z
 _atom_site_occupancy
  Zr  Zr0  1  0.592485  0.796241  0.046172  1
  Zr  Zr1  1  0.909887  0.954943  0.204940  1
  Zr  Zr2  1  0.089649  0.044823  0.794788  1
  Zr  Zr3  1  0.407370  0.203686  0.953769  1
  In  In4  1  0.424781  0.712390  0.462215  1
  In  In5  1  0.573973  0.286988  0.537002  1
  In  In6  1  0.750268  0.875133  0.625196  1
  In  In7  1  0.927288  0.463643  0.713680  1
  In  In8  1  0.247209  0.623604  0.873743  1
  Hg  Hg9  1  0.753940  0.376970  0.126928  1
  Hg  Hg10  1  0.073742  0.536871  0.286883  1
  Hg  Hg11  1  0.249409  0.124705  0.374687  1
