# generated using pymatgen
data_SmTh(BeCo12)2
_symmetry_space_group_name_H-M   'P 1'
_cell_length_a   7.85745866
_cell_length_b   7.85745841
_cell_length_c   7.85745900
_cell_angle_alpha   60.00000171
_cell_angle_beta   60.00000278
_cell_angle_gamma   60.00000079
_symmetry_Int_Tables_number   1
_chemical_formula_structural   SmTh(BeCo12)2
_chemical_formula_sum   'Sm1 Th1 Be2 Co24'
_cell_volume   343.02939600
_cell_formula_units_Z   1
loop_
 _symmetry_equiv_pos_site_id
 _symmetry_equiv_pos_as_xyz
  1  'x, y, z'
loop_
 _atom_site_type_symbol
 _atom_site_label
 _atom_site_symmetry_multiplicity
 _atom_site_fract_x
 _atom_site_fract_y
 _atom_site_fract_z
 _atom_site_occupancy
  Sm  Sm0  1  0.750000  0.750000  0.750000  1
  Th  Th1  1  0.250000  0.250000  0.250000  1
  Be  Be2  1  0.000000  0.000000  0.000000  1
  Be  Be3  1  0.500000  0.500000  0.500000  1
  Co  Co4  1  0.293774  0.059341  0.940282  1
  Co  Co5  1  0.706603  0.940282  0.059341  1
  Co  Co6  1  0.059341  0.293774  0.706603  1
  Co  Co7  1  0.940282  0.706603  0.293774  1
  Co  Co8  1  0.940282  0.293774  0.059341  1
  Co  Co9  1  0.206226  0.440659  0.793397  1
  Co  Co10  1  0.059341  0.706603  0.940282  1
  Co  Co11  1  0.793397  0.559718  0.206226  1
  Co  Co12  1  0.706603  0.059341  0.293774  1
  Co  Co13  1  0.440659  0.206226  0.559718  1
  Co  Co14  1  0.293774  0.940282  0.706603  1
  Co  Co15  1  0.559718  0.793397  0.440659  1
  Co  Co16  1  0.059341  0.940282  0.293774  1
  Co  Co17  1  0.559718  0.206226  0.793397  1
  Co  Co18  1  0.940282  0.059341  0.706603  1
  Co  Co19  1  0.440659  0.793397  0.206226  1
  Co  Co20  1  0.706603  0.293774  0.940282  1
  Co  Co21  1  0.206226  0.559718  0.440659  1
  Co  Co22  1  0.293774  0.706603  0.059341  1
  Co  Co23  1  0.793397  0.440659  0.559718  1
  Co  Co24  1  0.793397  0.206226  0.440659  1
  Co  Co25  1  0.206226  0.793397  0.559718  1
  Co  Co26  1  0.559718  0.440659  0.206226  1
  Co  Co27  1  0.440659  0.559718  0.793397  1
