# generated using pymatgen
data_Ba6Cd(IrO6)2
_symmetry_space_group_name_H-M   'P 1'
_cell_length_a   9.34858261
_cell_length_b   9.34858309
_cell_length_c   7.33690692
_cell_angle_alpha   67.57887747
_cell_angle_beta   67.57887512
_cell_angle_gamma   36.80903373
_symmetry_Int_Tables_number   1
_chemical_formula_structural   Ba6Cd(IrO6)2
_chemical_formula_sum   'Ba6 Cd1 Ir2 O12'
_cell_volume   351.77950373
_cell_formula_units_Z   1
loop_
 _symmetry_equiv_pos_site_id
 _symmetry_equiv_pos_as_xyz
  1  'x, y, z'
loop_
 _atom_site_type_symbol
 _atom_site_label
 _atom_site_symmetry_multiplicity
 _atom_site_fract_x
 _atom_site_fract_y
 _atom_site_fract_z
 _atom_site_occupancy
  Ba  Ba0  1  0.211326  0.211326  0.708029  1
  Ba  Ba1  1  0.884572  0.884572  0.711530  1
  Ba  Ba2  1  0.547681  0.547681  0.714723  1
  Ba  Ba3  1  0.788674  0.788674  0.291971  1
  Ba  Ba4  1  0.452319  0.452319  0.285277  1
  Ba  Ba5  1  0.115428  0.115428  0.288470  1
  Cd  Cd6  1  0.000000  0.000000  0.000000  1
  Ir  Ir7  1  0.673014  0.673014  0.000223  1
  Ir  Ir8  1  0.326986  0.326986  0.999777  1
  O  O9  1  0.278842  0.278842  0.306100  1
  O  O10  1  0.944454  0.944454  0.329997  1
  O  O11  1  0.619377  0.619377  0.305981  1
  O  O12  1  0.721158  0.721158  0.693900  1
  O  O13  1  0.380623  0.380623  0.694019  1
  O  O14  1  0.055546  0.055546  0.670003  1
  O  O15  1  0.000000  0.500000  0.000000  1
  O  O16  1  0.632787  0.179233  0.001667  1
  O  O17  1  0.367213  0.820767  0.998333  1
  O  O18  1  0.500000  0.000000  0.000000  1
  O  O19  1  0.179233  0.632787  0.001667  1
  O  O20  1  0.820767  0.367213  0.998333  1
