# generated using pymatgen
data_Ca2CeDy(NiB4)4
_symmetry_space_group_name_H-M   'P 1'
_cell_length_a   6.86155895
_cell_length_b   6.86069454
_cell_length_c   6.86087268
_cell_angle_alpha   112.79639750
_cell_angle_beta   112.81667959
_cell_angle_gamma   102.98319806
_symmetry_Int_Tables_number   1
_chemical_formula_structural   Ca2CeDy(NiB4)4
_chemical_formula_sum   'Ca2 Ce1 Dy1 Ni4 B16'
_cell_volume   246.29198247
_cell_formula_units_Z   1
loop_
 _symmetry_equiv_pos_site_id
 _symmetry_equiv_pos_as_xyz
  1  'x, y, z'
loop_
 _atom_site_type_symbol
 _atom_site_label
 _atom_site_symmetry_multiplicity
 _atom_site_fract_x
 _atom_site_fract_y
 _atom_site_fract_z
 _atom_site_occupancy
  Ca  Ca0  1  0.796924  0.796936  0.999963  1
  Ca  Ca1  1  0.203056  0.203041  0.999982  1
  Ce  Ce2  1  0.249702  0.749892  0.499846  1
  Dy  Dy3  1  0.750040  0.249985  0.500056  1
  Ni  Ni4  1  0.272136  0.499831  0.772510  1
  Ni  Ni5  1  0.727332  0.499760  0.227531  1
  Ni  Ni6  1  0.500223  0.727922  0.227643  1
  Ni  Ni7  1  0.500314  0.272631  0.772301  1
  B  B8  1  0.276261  0.111401  0.389579  1
  B  B9  1  0.721860  0.886695  0.610424  1
  B  B10  1  0.276232  0.886665  0.164801  1
  B  B11  1  0.721879  0.111446  0.835164  1
  B  B12  1  0.113402  0.723630  0.835080  1
  B  B13  1  0.888514  0.278206  0.164884  1
  B  B14  1  0.113399  0.278282  0.389752  1
  B  B15  1  0.888505  0.723574  0.610242  1
  B  B16  1  0.111683  0.112831  0.528382  1
  B  B17  1  0.584533  0.583324  0.471828  1
  B  B18  1  0.111630  0.583295  0.998813  1
  B  B19  1  0.584484  0.112760  0.001157  1
  B  B20  1  0.887209  0.888577  0.471823  1
  B  B21  1  0.416776  0.415409  0.528306  1
  B  B22  1  0.887156  0.415417  0.998628  1
  B  B23  1  0.416747  0.888490  0.001303  1
