# generated using pymatgen
data_Y4Co16Si7P5W4
_symmetry_space_group_name_H-M   'P 1'
_cell_length_a   3.73279000
_cell_length_b   10.53259203
_cell_length_c   12.04954504
_cell_angle_alpha   89.99081344
_cell_angle_beta   90.00000000
_cell_angle_gamma   90.00000000
_symmetry_Int_Tables_number   1
_chemical_formula_structural   Y4Co16Si7P5W4
_chemical_formula_sum   'Y4 Co16 Si7 P5 W4'
_cell_volume   473.73935500
_cell_formula_units_Z   1
loop_
 _symmetry_equiv_pos_site_id
 _symmetry_equiv_pos_as_xyz
  1  'x, y, z'
loop_
 _atom_site_type_symbol
 _atom_site_label
 _atom_site_symmetry_multiplicity
 _atom_site_fract_x
 _atom_site_fract_y
 _atom_site_fract_z
 _atom_site_occupancy
  Y  Y0  1  0.250000  0.923056  0.202788  1
  Y  Y1  1  0.750000  0.080405  0.796537  1
  Y  Y2  1  0.750000  0.422852  0.296794  1
  Y  Y3  1  0.250000  0.577516  0.703114  1
  Co  Co4  1  0.250000  0.094350  0.986066  1
  Co  Co5  1  0.750000  0.910248  0.010875  1
  Co  Co6  1  0.750000  0.590598  0.511595  1
  Co  Co7  1  0.250000  0.408236  0.490927  1
  Co  Co8  1  0.250000  0.283098  0.677069  1
  Co  Co9  1  0.750000  0.714297  0.327880  1
  Co  Co10  1  0.750000  0.785830  0.828110  1
  Co  Co11  1  0.250000  0.214724  0.170878  1
  Co  Co12  1  0.250000  0.616035  0.201877  1
  Co  Co13  1  0.750000  0.382104  0.798622  1
  Co  Co14  1  0.750000  0.117061  0.297936  1
  Co  Co15  1  0.250000  0.883561  0.702319  1
  Co  Co16  1  0.250000  0.034406  0.433079  1
  Co  Co17  1  0.750000  0.965297  0.566536  1
  Co  Co18  1  0.750000  0.533288  0.065518  1
  Co  Co19  1  0.250000  0.462650  0.931725  1
  Si  Si20  1  0.250000  0.078878  0.615981  1
  Si  Si21  1  0.750000  0.920124  0.383392  1
  Si  Si22  1  0.750000  0.580345  0.883335  1
  Si  Si23  1  0.250000  0.420054  0.116108  1
  Si  Si24  1  0.250000  0.231929  0.360864  1
  Si  Si25  1  0.750000  0.768207  0.639339  1
  Si  Si26  1  0.750000  0.731528  0.138619  1
  P  P27  1  0.250000  0.268915  0.862269  1
  P  P28  1  0.250000  0.903526  0.891673  1
  P  P29  1  0.750000  0.097508  0.108132  1
  P  P30  1  0.750000  0.403034  0.608511  1
  P  P31  1  0.250000  0.596728  0.392382  1
  W  W32  1  0.250000  0.796996  0.491762  1
  W  W33  1  0.750000  0.203223  0.509054  1
  W  W34  1  0.750000  0.295789  0.007497  1
  W  W35  1  0.250000  0.703605  0.990836  1
