# generated using pymatgen
data_YEr19(CoBi2)4
_symmetry_space_group_name_H-M   'P 1'
_cell_length_a   7.91755261
_cell_length_b   8.81896300
_cell_length_c   12.28807701
_cell_angle_alpha   90.00000000
_cell_angle_beta   89.97477372
_cell_angle_gamma   90.00000000
_symmetry_Int_Tables_number   1
_chemical_formula_structural   YEr19(CoBi2)4
_chemical_formula_sum   'Y1 Er19 Co4 Bi8'
_cell_volume   858.01002204
_cell_formula_units_Z   1
loop_
 _symmetry_equiv_pos_site_id
 _symmetry_equiv_pos_as_xyz
  1  'x, y, z'
loop_
 _atom_site_type_symbol
 _atom_site_label
 _atom_site_symmetry_multiplicity
 _atom_site_fract_x
 _atom_site_fract_y
 _atom_site_fract_z
 _atom_site_occupancy
  Y  Y0  1  0.346173  0.750000  0.700805  1
  Er  Er1  1  0.653269  0.250000  0.300571  1
  Er  Er2  1  0.846821  0.250000  0.800691  1
  Er  Er3  1  0.153354  0.750000  0.199443  1
  Er  Er4  1  0.884912  0.750000  0.811209  1
  Er  Er5  1  0.114636  0.250000  0.188870  1
  Er  Er6  1  0.385373  0.250000  0.688852  1
  Er  Er7  1  0.614725  0.750000  0.310878  1
  Er  Er8  1  0.675341  0.537675  0.562539  1
  Er  Er9  1  0.324962  0.461978  0.436994  1
  Er  Er10  1  0.175017  0.462015  0.937195  1
  Er  Er11  1  0.324962  0.038022  0.436994  1
  Er  Er12  1  0.825048  0.538077  0.062938  1
  Er  Er13  1  0.675341  0.962325  0.562539  1
  Er  Er14  1  0.825048  0.961923  0.062938  1
  Er  Er15  1  0.175017  0.037985  0.937195  1
  Er  Er16  1  0.052076  0.750000  0.497701  1
  Er  Er17  1  0.947280  0.250000  0.501822  1
  Er  Er18  1  0.552803  0.250000  0.002110  1
  Er  Er19  1  0.447413  0.750000  0.998464  1
  Co  Co20  1  0.065936  0.750000  0.991697  1
  Co  Co21  1  0.934199  0.250000  0.008255  1
  Co  Co22  1  0.565801  0.250000  0.508218  1
  Co  Co23  1  0.434656  0.750000  0.490687  1
  Bi  Bi24  1  0.572195  0.509237  0.827040  1
  Bi  Bi25  1  0.428174  0.490222  0.173376  1
  Bi  Bi26  1  0.071243  0.490031  0.673154  1
  Bi  Bi27  1  0.428174  0.009778  0.173376  1
  Bi  Bi28  1  0.928304  0.509586  0.326628  1
  Bi  Bi29  1  0.572195  0.990763  0.827040  1
  Bi  Bi30  1  0.928304  0.990414  0.326628  1
  Bi  Bi31  1  0.071243  0.009969  0.673154  1
