# generated using pymatgen
data_Li2Tb16InAgRh4
_symmetry_space_group_name_H-M   'P 1'
_cell_length_a   9.66626048
_cell_length_b   9.66793833
_cell_length_c   9.68236500
_cell_angle_alpha   59.95062898
_cell_angle_beta   59.94487545
_cell_angle_gamma   59.86671611
_symmetry_Int_Tables_number   1
_chemical_formula_structural   Li2Tb16InAgRh4
_chemical_formula_sum   'Li2 Tb16 In1 Ag1 Rh4'
_cell_volume   638.67028372
_cell_formula_units_Z   1
loop_
 _symmetry_equiv_pos_site_id
 _symmetry_equiv_pos_as_xyz
  1  'x, y, z'
loop_
 _atom_site_type_symbol
 _atom_site_label
 _atom_site_symmetry_multiplicity
 _atom_site_fract_x
 _atom_site_fract_y
 _atom_site_fract_z
 _atom_site_occupancy
  Li  Li0  1  0.427150  0.430333  0.423605  1
  Li  Li1  1  0.427150  0.430333  0.718911  1
  Tb  Tb2  1  0.809503  0.807771  0.191363  1
  Tb  Tb3  1  0.811744  0.188311  0.810158  1
  Tb  Tb4  1  0.182722  0.183824  0.816727  1
  Tb  Tb5  1  0.653339  0.042711  0.651975  1
  Tb  Tb6  1  0.070908  0.058856  0.435118  1
  Tb  Tb7  1  0.437640  0.436273  0.063043  1
  Tb  Tb8  1  0.650990  0.650116  0.649022  1
  Tb  Tb9  1  0.811744  0.188311  0.189787  1
  Tb  Tb10  1  0.185208  0.813659  0.813558  1
  Tb  Tb11  1  0.041794  0.653145  0.652531  1
  Tb  Tb12  1  0.437061  0.060355  0.065572  1
  Tb  Tb13  1  0.437061  0.060355  0.437013  1
  Tb  Tb14  1  0.065286  0.434480  0.064605  1
  Tb  Tb15  1  0.650990  0.650116  0.049873  1
  Tb  Tb16  1  0.185208  0.813659  0.187576  1
  Tb  Tb17  1  0.065286  0.434480  0.435629  1
  In  In18  1  0.743895  0.417543  0.419281  1
  Ag  Ag19  1  0.414038  0.751170  0.417396  1
  Rh  Rh20  1  0.854934  0.426332  0.859367  1
  Rh  Rh21  1  0.855088  0.856554  0.860773  1
  Rh  Rh22  1  0.855088  0.856554  0.427586  1
  Rh  Rh23  1  0.426176  0.854761  0.859532  1
