# generated using pymatgen
data_Tb2Dy6CdNi2Ag
_symmetry_space_group_name_H-M   'P 1'
_cell_length_a   9.50410254
_cell_length_b   9.50410168
_cell_length_c   9.48868200
_cell_angle_alpha   60.05365484
_cell_angle_beta   60.05365783
_cell_angle_gamma   60.10067404
_symmetry_Int_Tables_number   1
_chemical_formula_structural   Tb2Dy6CdNi2Ag
_chemical_formula_sum   'Tb4 Dy12 Cd2 Ni4 Ag2'
_cell_volume   607.00840178
_cell_formula_units_Z   2
loop_
 _symmetry_equiv_pos_site_id
 _symmetry_equiv_pos_as_xyz
  1  'x, y, z'
loop_
 _atom_site_type_symbol
 _atom_site_label
 _atom_site_symmetry_multiplicity
 _atom_site_fract_x
 _atom_site_fract_y
 _atom_site_fract_z
 _atom_site_occupancy
  Tb  Tb0  1  0.599113  0.599113  0.598201  1
  Tb  Tb1  1  0.599113  0.599113  0.203575  1
  Tb  Tb2  1  0.601021  0.200147  0.599416  1
  Tb  Tb3  1  0.200147  0.601021  0.599416  1
  Dy  Dy4  1  0.061430  0.438602  0.439229  1
  Dy  Dy5  1  0.438602  0.061430  0.060739  1
  Dy  Dy6  1  0.438602  0.061430  0.439229  1
  Dy  Dy7  1  0.061430  0.438602  0.060739  1
  Dy  Dy8  1  0.439162  0.439162  0.060838  1
  Dy  Dy9  1  0.061309  0.061309  0.438691  1
  Dy  Dy10  1  0.182611  0.814142  0.814819  1
  Dy  Dy11  1  0.814142  0.182611  0.188427  1
  Dy  Dy12  1  0.814142  0.182611  0.814819  1
  Dy  Dy13  1  0.182611  0.814142  0.188427  1
  Dy  Dy14  1  0.813744  0.813744  0.186256  1
  Dy  Dy15  1  0.185441  0.185441  0.814559  1
  Cd  Cd16  1  0.831523  0.509240  0.829618  1
  Cd  Cd17  1  0.509240  0.831523  0.829618  1
  Ni  Ni18  1  0.392726  0.392726  0.392874  1
  Ni  Ni19  1  0.392726  0.392726  0.821674  1
  Ni  Ni20  1  0.391817  0.823110  0.392537  1
  Ni  Ni21  1  0.823110  0.391817  0.392537  1
  Ag  Ag22  1  0.833118  0.833118  0.831831  1
  Ag  Ag23  1  0.833118  0.833118  0.501933  1
