# generated using pymatgen
data_Li2Tm2Ni10P7
_symmetry_space_group_name_H-M   'P 1'
_cell_length_a   9.12738669
_cell_length_b   9.04309231
_cell_length_c   3.67915300
_cell_angle_alpha   90.00000000
_cell_angle_beta   90.00000000
_cell_angle_gamma   119.89084480
_symmetry_Int_Tables_number   1
_chemical_formula_structural   Li2Tm2Ni10P7
_chemical_formula_sum   'Li2 Tm2 Ni10 P7'
_cell_volume   263.28040299
_cell_formula_units_Z   1
loop_
 _symmetry_equiv_pos_site_id
 _symmetry_equiv_pos_as_xyz
  1  'x, y, z'
loop_
 _atom_site_type_symbol
 _atom_site_label
 _atom_site_symmetry_multiplicity
 _atom_site_fract_x
 _atom_site_fract_y
 _atom_site_fract_z
 _atom_site_occupancy
  Li  Li0  1  0.216131  0.102388  0.500001  1
  Li  Li1  1  0.891611  0.108599  0.500001  1
  Tm  Tm2  1  0.336942  0.664800  0.000000  1
  Tm  Tm3  1  0.665830  0.334350  0.500001  1
  Ni  Ni4  1  0.430014  0.060343  0.000000  1
  Ni  Ni5  1  0.153460  0.274313  0.000000  1
  Ni  Ni6  1  0.941375  0.374581  0.000000  1
  Ni  Ni7  1  0.632331  0.571089  0.000000  1
  Ni  Ni8  1  0.125723  0.839356  0.000000  1
  Ni  Ni9  1  0.717612  0.878571  0.000000  1
  Ni  Ni10  1  0.386727  0.436126  0.500001  1
  Ni  Ni11  1  0.047447  0.611194  0.500001  1
  Ni  Ni12  1  0.887637  0.793475  0.500001  1
  Ni  Ni13  1  0.562985  0.955598  0.500001  1
  P  P14  1  0.993232  0.987812  0.000000  1
  P  P15  1  0.699971  0.114736  0.000000  1
  P  P16  1  0.413178  0.302201  0.000000  1
  P  P17  1  0.886922  0.592053  0.000000  1
  P  P18  1  0.119015  0.407343  0.500001  1
  P  P19  1  0.599844  0.713168  0.500001  1
  P  P20  1  0.292013  0.877904  0.500001  1
