# generated using pymatgen
data_Sr8Yb3Er9Sn16
_symmetry_space_group_name_H-M   'P 1'
_cell_length_a   8.04476900
_cell_length_b   8.54659741
_cell_length_c   16.24487600
_cell_angle_alpha   90.00000000
_cell_angle_beta   90.00000000
_cell_angle_gamma   89.88107892
_symmetry_Int_Tables_number   1
_chemical_formula_structural   Sr8Yb3Er9Sn16
_chemical_formula_sum   'Sr8 Yb3 Er9 Sn16'
_cell_volume   1116.92057225
_cell_formula_units_Z   1
loop_
 _symmetry_equiv_pos_site_id
 _symmetry_equiv_pos_as_xyz
  1  'x, y, z'
loop_
 _atom_site_type_symbol
 _atom_site_label
 _atom_site_symmetry_multiplicity
 _atom_site_fract_x
 _atom_site_fract_y
 _atom_site_fract_z
 _atom_site_occupancy
  Sr  Sr0  1  0.504627  0.680752  0.594466  1
  Sr  Sr1  1  0.005638  0.822063  0.907252  1
  Sr  Sr2  1  0.493455  0.319085  0.093082  1
  Sr  Sr3  1  0.993986  0.181130  0.407067  1
  Sr  Sr4  1  0.493455  0.319085  0.406918  1
  Sr  Sr5  1  0.993986  0.181130  0.092933  1
  Sr  Sr6  1  0.504627  0.680752  0.905534  1
  Sr  Sr7  1  0.005638  0.822063  0.592748  1
  Yb  Yb8  1  0.337839  0.992156  0.750000  1
  Yb  Yb9  1  0.162025  0.491767  0.250000  1
  Yb  Yb10  1  0.662070  0.007412  0.250000  1
  Er  Er11  1  0.674699  0.164488  0.623293  1
  Er  Er12  1  0.175233  0.332831  0.876327  1
  Er  Er13  1  0.325894  0.831763  0.122525  1
  Er  Er14  1  0.826317  0.666979  0.377650  1
  Er  Er15  1  0.325894  0.831763  0.377475  1
  Er  Er16  1  0.826317  0.666979  0.122350  1
  Er  Er17  1  0.674699  0.164488  0.876707  1
  Er  Er18  1  0.175233  0.332831  0.623673  1
  Er  Er19  1  0.839703  0.506021  0.750000  1
  Sn  Sn20  1  0.663242  0.958577  0.459048  1
  Sn  Sn21  1  0.162671  0.540567  0.040061  1
  Sn  Sn22  1  0.337675  0.041981  0.958512  1
  Sn  Sn23  1  0.836379  0.460581  0.544422  1
  Sn  Sn24  1  0.337675  0.041981  0.541488  1
  Sn  Sn25  1  0.836379  0.460581  0.955578  1
  Sn  Sn26  1  0.663242  0.958577  0.040952  1
  Sn  Sn27  1  0.162671  0.540567  0.459939  1
  Sn  Sn28  1  0.477018  0.373293  0.750000  1
  Sn  Sn29  1  0.971118  0.136361  0.750000  1
  Sn  Sn30  1  0.527835  0.630456  0.250000  1
  Sn  Sn31  1  0.027615  0.869010  0.250000  1
  Sn  Sn32  1  0.721030  0.872354  0.750000  1
  Sn  Sn33  1  0.210055  0.620591  0.750000  1
  Sn  Sn34  1  0.282010  0.116694  0.250000  1
  Sn  Sn35  1  0.782053  0.382293  0.250000  1
