# generated using pymatgen
data_Tb11YCo4NiSn
_symmetry_space_group_name_H-M   'P 1'
_cell_length_a   8.35861327
_cell_length_b   8.36112555
_cell_length_c   8.36112562
_cell_angle_alpha   110.73482078
_cell_angle_beta   110.46239716
_cell_angle_gamma   107.25098888
_symmetry_Int_Tables_number   1
_chemical_formula_structural   Tb11YCo4NiSn
_chemical_formula_sum   'Tb11 Y1 Co4 Ni1 Sn1'
_cell_volume   449.24918073
_cell_formula_units_Z   1
loop_
 _symmetry_equiv_pos_site_id
 _symmetry_equiv_pos_as_xyz
  1  'x, y, z'
loop_
 _atom_site_type_symbol
 _atom_site_label
 _atom_site_symmetry_multiplicity
 _atom_site_fract_x
 _atom_site_fract_y
 _atom_site_fract_z
 _atom_site_occupancy
  Tb  Tb0  1  0.599459  0.794237  0.805222  1
  Tb  Tb1  1  0.010971  0.205931  0.805041  1
  Tb  Tb2  1  0.987775  0.792152  0.195623  1
  Tb  Tb3  1  0.185973  0.294649  0.480545  1
  Tb  Tb4  1  0.813956  0.704036  0.518012  1
  Tb  Tb5  1  0.185973  0.705430  0.891324  1
  Tb  Tb6  1  0.813956  0.295943  0.109920  1
  Tb  Tb7  1  0.314467  0.620521  0.306409  1
  Tb  Tb8  1  0.684981  0.378534  0.693865  1
  Tb  Tb9  1  0.314467  0.008058  0.693947  1
  Tb  Tb10  1  0.684981  0.991115  0.306447  1
  Y  Y11  1  0.407383  0.210941  0.196442  1
  Co  Co12  1  0.375780  0.999382  0.376397  1
  Co  Co13  1  0.619208  0.999335  0.619873  1
  Co  Co14  1  0.111775  0.611523  0.500252  1
  Co  Co15  1  0.885129  0.387363  0.497767  1
  Ni  Ni16  1  0.004583  0.001345  0.003238  1
  Sn  Sn17  1  0.499183  0.499506  0.999678  1
