# generated using pymatgen
data_KRb3(GaI4)4
_symmetry_space_group_name_H-M   'P 1'
_cell_length_a   8.30662099
_cell_length_b   8.73533115
_cell_length_c   16.82932230
_cell_angle_alpha   85.28352295
_cell_angle_beta   90.05962150
_cell_angle_gamma   90.05668663
_symmetry_Int_Tables_number   1
_chemical_formula_structural   KRb3(GaI4)4
_chemical_formula_sum   'K1 Rb3 Ga4 I16'
_cell_volume   1217.01763314
_cell_formula_units_Z   1
loop_
 _symmetry_equiv_pos_site_id
 _symmetry_equiv_pos_as_xyz
  1  'x, y, z'
loop_
 _atom_site_type_symbol
 _atom_site_label
 _atom_site_symmetry_multiplicity
 _atom_site_fract_x
 _atom_site_fract_y
 _atom_site_fract_z
 _atom_site_occupancy
  K  K0  1  0.997737  0.257187  0.139652  1
  Rb  Rb1  1  0.502790  0.257788  0.640282  1
  Rb  Rb2  1  0.002753  0.742156  0.859762  1
  Rb  Rb3  1  0.497166  0.742216  0.359666  1
  Ga  Ga4  1  0.357531  0.244464  0.360778  1
  Ga  Ga5  1  0.857983  0.755856  0.139191  1
  Ga  Ga6  1  0.642241  0.755527  0.639091  1
  Ga  Ga7  1  0.142220  0.244280  0.860984  1
  I  I8  1  0.862466  0.143129  0.908434  1
  I  I9  1  0.362548  0.856785  0.591719  1
  I  I10  1  0.136854  0.860286  0.092076  1
  I  I11  1  0.637247  0.143315  0.408201  1
  I  I12  1  0.388596  0.408862  0.225626  1
  I  I13  1  0.891622  0.588093  0.273095  1
  I  I14  1  0.608774  0.590129  0.773784  1
  I  I15  1  0.108930  0.409848  0.726343  1
  I  I16  1  0.659590  0.979225  0.158583  1
  I  I17  1  0.155282  0.024311  0.340549  1
  I  I18  1  0.343954  0.023920  0.841226  1
  I  I19  1  0.844057  0.976358  0.658777  1
  I  I20  1  0.241252  0.417355  0.465504  1
  I  I21  1  0.742852  0.580266  0.035247  1
  I  I22  1  0.758823  0.582667  0.534469  1
  I  I23  1  0.256731  0.415977  0.966963  1
