# generated using pymatgen
data_Yb6Sm3DySn8
_symmetry_space_group_name_H-M   'P 1'
_cell_length_a   7.90944800
_cell_length_b   8.48146298
_cell_length_c   16.20032367
_cell_angle_alpha   89.90399518
_cell_angle_beta   90.00000000
_cell_angle_gamma   90.00000000
_symmetry_Int_Tables_number   1
_chemical_formula_structural   Yb6Sm3DySn8
_chemical_formula_sum   'Yb12 Sm6 Dy2 Sn16'
_cell_volume   1086.77597250
_cell_formula_units_Z   2
loop_
 _symmetry_equiv_pos_site_id
 _symmetry_equiv_pos_as_xyz
  1  'x, y, z'
loop_
 _atom_site_type_symbol
 _atom_site_label
 _atom_site_symmetry_multiplicity
 _atom_site_fract_x
 _atom_site_fract_y
 _atom_site_fract_z
 _atom_site_occupancy
  Yb  Yb0  1  0.507110  0.688814  0.593764  1
  Yb  Yb1  1  0.007110  0.811186  0.906236  1
  Yb  Yb2  1  0.493236  0.310868  0.092490  1
  Yb  Yb3  1  0.993236  0.189132  0.407510  1
  Yb  Yb4  1  0.492187  0.310750  0.406821  1
  Yb  Yb5  1  0.992187  0.189250  0.093179  1
  Yb  Yb6  1  0.507161  0.689120  0.906207  1
  Yb  Yb7  1  0.007161  0.810880  0.593793  1
  Yb  Yb8  1  0.839642  0.511310  0.750278  1
  Yb  Yb9  1  0.339642  0.988690  0.749722  1
  Yb  Yb10  1  0.159407  0.488623  0.250442  1
  Yb  Yb11  1  0.659407  0.011377  0.249558  1
  Sm  Sm12  1  0.674960  0.166689  0.622366  1
  Sm  Sm13  1  0.174960  0.333311  0.877634  1
  Sm  Sm14  1  0.325184  0.833969  0.121296  1
  Sm  Sm15  1  0.825184  0.666031  0.378704  1
  Sm  Sm16  1  0.324183  0.833528  0.378753  1
  Sm  Sm17  1  0.824183  0.666472  0.121247  1
  Dy  Dy18  1  0.675894  0.165997  0.876626  1
  Dy  Dy19  1  0.175894  0.334003  0.623374  1
  Sn  Sn20  1  0.667548  0.966775  0.458841  1
  Sn  Sn21  1  0.167548  0.533225  0.041159  1
  Sn  Sn22  1  0.335475  0.034727  0.957005  1
  Sn  Sn23  1  0.835475  0.465273  0.542995  1
  Sn  Sn24  1  0.327570  0.035997  0.542330  1
  Sn  Sn25  1  0.827570  0.464003  0.957670  1
  Sn  Sn26  1  0.670695  0.967490  0.039471  1
  Sn  Sn27  1  0.170695  0.532510  0.460529  1
  Sn  Sn28  1  0.474546  0.378793  0.749523  1
  Sn  Sn29  1  0.974546  0.121207  0.750477  1
  Sn  Sn30  1  0.525274  0.619158  0.250044  1
  Sn  Sn31  1  0.025274  0.880842  0.249956  1
  Sn  Sn32  1  0.720767  0.871139  0.751009  1
  Sn  Sn33  1  0.220767  0.628861  0.748991  1
  Sn  Sn34  1  0.279161  0.130540  0.249941  1
  Sn  Sn35  1  0.779161  0.369460  0.250059  1
