# generated using pymatgen
data_Ca8AgP5
_symmetry_space_group_name_H-M   'P 1'
_cell_length_a   7.64776837
_cell_length_b   7.64777004
_cell_length_c   7.64776947
_cell_angle_alpha   109.12581072
_cell_angle_beta   109.12581602
_cell_angle_gamma   110.16427447
_symmetry_Int_Tables_number   1
_chemical_formula_structural   Ca8AgP5
_chemical_formula_sum   'Ca8 Ag1 P5'
_cell_volume   344.29813630
_cell_formula_units_Z   1
loop_
 _symmetry_equiv_pos_site_id
 _symmetry_equiv_pos_as_xyz
  1  'x, y, z'
loop_
 _atom_site_type_symbol
 _atom_site_label
 _atom_site_symmetry_multiplicity
 _atom_site_fract_x
 _atom_site_fract_y
 _atom_site_fract_z
 _atom_site_occupancy
  Ca  Ca0  1  0.737744  0.362310  0.238556  1
  Ca  Ca1  1  0.972721  0.733955  0.089991  1
  Ca  Ca2  1  0.643966  0.882730  0.910009  1
  Ca  Ca3  1  0.123753  0.499187  0.761444  1
  Ca  Ca4  1  0.637690  0.876247  0.375435  1
  Ca  Ca5  1  0.500813  0.262256  0.624565  1
  Ca  Ca6  1  0.266045  0.356034  0.238765  1
  Ca  Ca7  1  0.117270  0.027279  0.761235  1
  Ag  Ag8  1  0.250000  0.750000  0.500000  1
  P  P9  1  0.744336  0.633410  0.616684  1
  P  P10  1  0.366590  0.983275  0.110926  1
  P  P11  1  0.016725  0.127651  0.383316  1
  P  P12  1  0.500000  0.500000  0.000000  1
  P  P13  1  0.872349  0.255664  0.889074  1
