# generated using pymatgen
data_Ho12Th4Mg3Co4Hg
_symmetry_space_group_name_H-M   'P 1'
_cell_length_a   9.59416236
_cell_length_b   9.59416169
_cell_length_c   9.59416200
_cell_angle_alpha   60.00196659
_cell_angle_beta   60.00197272
_cell_angle_gamma   60.00196991
_symmetry_Int_Tables_number   1
_chemical_formula_structural   Ho12Th4Mg3Co4Hg
_chemical_formula_sum   'Ho12 Th4 Mg3 Co4 Hg1'
_cell_volume   624.49007588
_cell_formula_units_Z   1
loop_
 _symmetry_equiv_pos_site_id
 _symmetry_equiv_pos_as_xyz
  1  'x, y, z'
loop_
 _atom_site_type_symbol
 _atom_site_label
 _atom_site_symmetry_multiplicity
 _atom_site_fract_x
 _atom_site_fract_y
 _atom_site_fract_z
 _atom_site_occupancy
  Ho  Ho0  1  0.813753  0.186921  0.186921  1
  Ho  Ho1  1  0.186124  0.813996  0.813996  1
  Ho  Ho2  1  0.186921  0.813753  0.186921  1
  Ho  Ho3  1  0.813996  0.186124  0.813996  1
  Ho  Ho4  1  0.186921  0.186921  0.813753  1
  Ho  Ho5  1  0.813996  0.813996  0.186124  1
  Ho  Ho6  1  0.935249  0.564435  0.564435  1
  Ho  Ho7  1  0.563497  0.936279  0.936279  1
  Ho  Ho8  1  0.564435  0.935249  0.564435  1
  Ho  Ho9  1  0.936279  0.563497  0.936279  1
  Ho  Ho10  1  0.564435  0.564435  0.935249  1
  Ho  Ho11  1  0.936279  0.936279  0.563497  1
  Th  Th12  1  0.344020  0.344020  0.344020  1
  Th  Th13  1  0.345790  0.345790  0.962942  1
  Th  Th14  1  0.345790  0.962942  0.345790  1
  Th  Th15  1  0.962942  0.345790  0.345790  1
  Mg  Mg16  1  0.579287  0.579287  0.261841  1
  Mg  Mg17  1  0.579287  0.261841  0.579287  1
  Mg  Mg18  1  0.261841  0.579287  0.579287  1
  Co  Co19  1  0.144480  0.144480  0.144480  1
  Co  Co20  1  0.143620  0.143620  0.564950  1
  Co  Co21  1  0.143620  0.564950  0.143620  1
  Co  Co22  1  0.564950  0.143620  0.143620  1
  Hg  Hg23  1  0.582488  0.582488  0.582488  1
