# generated using pymatgen
data_Nd2Mn2(Re5C)3
_symmetry_space_group_name_H-M   'P 1'
_cell_length_a   7.00356939
_cell_length_b   7.00357108
_cell_length_c   7.00611519
_cell_angle_alpha   82.54187179
_cell_angle_beta   82.54187086
_cell_angle_gamma   82.94282686
_symmetry_Int_Tables_number   1
_chemical_formula_structural   Nd2Mn2(Re5C)3
_chemical_formula_sum   'Nd2 Mn2 Re15 C3'
_cell_volume   335.89008034
_cell_formula_units_Z   1
loop_
 _symmetry_equiv_pos_site_id
 _symmetry_equiv_pos_as_xyz
  1  'x, y, z'
loop_
 _atom_site_type_symbol
 _atom_site_label
 _atom_site_symmetry_multiplicity
 _atom_site_fract_x
 _atom_site_fract_y
 _atom_site_fract_z
 _atom_site_occupancy
  Nd  Nd0  1  0.648554  0.648554  0.648103  1
  Nd  Nd1  1  0.351446  0.351446  0.351897  1
  Mn  Mn2  1  0.500000  0.000000  0.000000  1
  Mn  Mn3  1  0.000000  0.500000  0.000000  1
  Re  Re4  1  0.000000  0.000000  0.500000  1
  Re  Re5  1  0.721320  0.278680  0.000000  1
  Re  Re6  1  0.000444  0.719248  0.275729  1
  Re  Re7  1  0.280752  0.999556  0.724271  1
  Re  Re8  1  0.999556  0.280752  0.724271  1
  Re  Re9  1  0.719248  0.000444  0.275729  1
  Re  Re10  1  0.278680  0.721320  0.000000  1
  Re  Re11  1  0.350161  0.861769  0.343406  1
  Re  Re12  1  0.344045  0.344045  0.865756  1
  Re  Re13  1  0.861769  0.350161  0.343406  1
  Re  Re14  1  0.649839  0.138231  0.656594  1
  Re  Re15  1  0.655955  0.655955  0.134244  1
  Re  Re16  1  0.138231  0.649839  0.656594  1
  Re  Re17  1  0.900148  0.900148  0.902956  1
  Re  Re18  1  0.099852  0.099852  0.097044  1
  C  C19  1  0.500000  0.500000  0.000000  1
  C  C20  1  0.000000  0.500000  0.500000  1
  C  C21  1  0.500000  0.000000  0.500000  1
