# generated using pymatgen
data_Tm3Lu9Co5Sb
_symmetry_space_group_name_H-M   'P 1'
_cell_length_a   8.12120990
_cell_length_b   8.11857398
_cell_length_c   8.12120911
_cell_angle_alpha   110.90125779
_cell_angle_beta   111.07655622
_cell_angle_gamma   106.48919253
_symmetry_Int_Tables_number   1
_chemical_formula_structural   Tm3Lu9Co5Sb
_chemical_formula_sum   'Tm3 Lu9 Co5 Sb1'
_cell_volume   411.29218120
_cell_formula_units_Z   1
loop_
 _symmetry_equiv_pos_site_id
 _symmetry_equiv_pos_as_xyz
  1  'x, y, z'
loop_
 _atom_site_type_symbol
 _atom_site_label
 _atom_site_symmetry_multiplicity
 _atom_site_fract_x
 _atom_site_fract_y
 _atom_site_fract_z
 _atom_site_occupancy
  Tm  Tm0  1  0.786913  0.591901  0.804987  1
  Tm  Tm1  1  0.212874  0.018196  0.805323  1
  Tm  Tm2  1  0.786744  0.981978  0.195234  1
  Lu  Lu3  1  0.285307  0.183587  0.468393  1
  Lu  Lu4  1  0.713451  0.816009  0.529956  1
  Lu  Lu5  1  0.286053  0.816009  0.102557  1
  Lu  Lu6  1  0.715194  0.183587  0.898282  1
  Lu  Lu7  1  0.621218  0.313779  0.308109  1
  Lu  Lu8  1  0.378033  0.686151  0.691157  1
  Lu  Lu9  1  0.005670  0.313779  0.692560  1
  Lu  Lu10  1  0.994994  0.686151  0.308119  1
  Lu  Lu11  1  0.212917  0.408136  0.195219  1
  Co  Co12  1  0.000233  0.371489  0.371256  1
  Co  Co13  1  0.999725  0.627006  0.627281  1
  Co  Co14  1  0.387259  0.886652  0.499394  1
  Co  Co15  1  0.613170  0.113780  0.500609  1
  Co  Co16  1  0.000538  0.001611  0.001074  1
  Sb  Sb17  1  0.499711  0.500199  0.000489  1
