# generated using pymatgen
data_Tb3Dy(Co5P3)4
_symmetry_space_group_name_H-M   'P 1'
_cell_length_a   3.65674300
_cell_length_b   10.28943111
_cell_length_c   11.75007712
_cell_angle_alpha   89.98359595
_cell_angle_beta   90.00000000
_cell_angle_gamma   90.00000000
_symmetry_Int_Tables_number   1
_chemical_formula_structural   Tb3Dy(Co5P3)4
_chemical_formula_sum   'Tb3 Dy1 Co20 P12'
_cell_volume   442.10609433
_cell_formula_units_Z   1
loop_
 _symmetry_equiv_pos_site_id
 _symmetry_equiv_pos_as_xyz
  1  'x, y, z'
loop_
 _atom_site_type_symbol
 _atom_site_label
 _atom_site_symmetry_multiplicity
 _atom_site_fract_x
 _atom_site_fract_y
 _atom_site_fract_z
 _atom_site_occupancy
  Tb  Tb0  1  0.250000  0.917002  0.202622  1
  Tb  Tb1  1  0.750000  0.417045  0.297384  1
  Tb  Tb2  1  0.750000  0.082939  0.797342  1
  Dy  Dy3  1  0.250000  0.582989  0.702632  1
  Co  Co4  1  0.250000  0.715641  0.990778  1
  Co  Co5  1  0.250000  0.784326  0.490868  1
  Co  Co6  1  0.750000  0.284381  0.009170  1
  Co  Co7  1  0.750000  0.215737  0.509351  1
  Co  Co8  1  0.250000  0.406730  0.488488  1
  Co  Co9  1  0.250000  0.093444  0.988345  1
  Co  Co10  1  0.750000  0.593454  0.512108  1
  Co  Co11  1  0.750000  0.906528  0.011595  1
  Co  Co12  1  0.250000  0.221258  0.176394  1
  Co  Co13  1  0.250000  0.278904  0.676453  1
  Co  Co14  1  0.750000  0.778524  0.823469  1
  Co  Co15  1  0.750000  0.721131  0.323666  1
  Co  Co16  1  0.250000  0.882243  0.698320  1
  Co  Co17  1  0.250000  0.617476  0.198229  1
  Co  Co18  1  0.750000  0.117475  0.301760  1
  Co  Co19  1  0.750000  0.382889  0.801577  1
  Co  Co20  1  0.250000  0.467871  0.931674  1
  Co  Co21  1  0.250000  0.032249  0.432063  1
  Co  Co22  1  0.750000  0.532312  0.067725  1
  Co  Co23  1  0.750000  0.967491  0.568041  1
  P  P24  1  0.250000  0.418580  0.111627  1
  P  P25  1  0.250000  0.081426  0.611809  1
  P  P26  1  0.750000  0.581419  0.887783  1
  P  P27  1  0.750000  0.918552  0.388257  1
  P  P28  1  0.250000  0.271382  0.870204  1
  P  P29  1  0.250000  0.228727  0.370236  1
  P  P30  1  0.750000  0.728676  0.129840  1
  P  P31  1  0.750000  0.770839  0.630046  1
  P  P32  1  0.250000  0.602318  0.391610  1
  P  P33  1  0.250000  0.897626  0.891584  1
  P  P34  1  0.750000  0.398070  0.608549  1
  P  P35  1  0.750000  0.102347  0.108400  1
