# generated using pymatgen
data_Er3Fe7(NiP3)2
_symmetry_space_group_name_H-M   'P 1'
_cell_length_a   3.70540300
_cell_length_b   10.58190400
_cell_length_c   12.03234800
_cell_angle_alpha   90.00000000
_cell_angle_beta   90.00000000
_cell_angle_gamma   90.00000000
_symmetry_Int_Tables_number   1
_chemical_formula_structural   Er3Fe7(NiP3)2
_chemical_formula_sum   'Er6 Fe14 Ni4 P12'
_cell_volume   471.79099809
_cell_formula_units_Z   2
loop_
 _symmetry_equiv_pos_site_id
 _symmetry_equiv_pos_as_xyz
  1  'x, y, z'
loop_
 _atom_site_type_symbol
 _atom_site_label
 _atom_site_symmetry_multiplicity
 _atom_site_fract_x
 _atom_site_fract_y
 _atom_site_fract_z
 _atom_site_occupancy
  Er  Er0  1  0.000000  0.500000  0.523811  1
  Er  Er1  1  0.500000  0.000000  0.476189  1
  Er  Er2  1  0.500000  0.819618  0.204825  1
  Er  Er3  1  0.500000  0.180382  0.204825  1
  Er  Er4  1  0.000000  0.680382  0.795175  1
  Er  Er5  1  0.000000  0.319618  0.795175  1
  Fe  Fe6  1  0.000000  0.500000  0.989586  1
  Fe  Fe7  1  0.500000  0.000000  0.010414  1
  Fe  Fe8  1  0.500000  0.333254  0.996227  1
  Fe  Fe9  1  0.500000  0.666746  0.996227  1
  Fe  Fe10  1  0.000000  0.166746  0.003773  1
  Fe  Fe11  1  0.000000  0.833254  0.003773  1
  Fe  Fe12  1  0.500000  0.299982  0.428796  1
  Fe  Fe13  1  0.500000  0.700018  0.428796  1
  Fe  Fe14  1  0.000000  0.200018  0.571204  1
  Fe  Fe15  1  0.000000  0.799982  0.571204  1
  Fe  Fe16  1  0.500000  0.882401  0.712515  1
  Fe  Fe17  1  0.500000  0.117599  0.712515  1
  Fe  Fe18  1  0.000000  0.617599  0.287485  1
  Fe  Fe19  1  0.000000  0.382401  0.287485  1
  Ni  Ni20  1  0.500000  0.500000  0.155483  1
  Ni  Ni21  1  0.000000  0.000000  0.844517  1
  Ni  Ni22  1  0.500000  0.500000  0.700521  1
  Ni  Ni23  1  0.000000  0.000000  0.299479  1
  P  P24  1  0.500000  0.500000  0.886853  1
  P  P25  1  0.000000  0.000000  0.113147  1
  P  P26  1  0.500000  0.500000  0.344804  1
  P  P27  1  0.000000  0.000000  0.655196  1
  P  P28  1  0.500000  0.304641  0.614948  1
  P  P29  1  0.500000  0.695359  0.614948  1
  P  P30  1  0.000000  0.195359  0.385052  1
  P  P31  1  0.000000  0.804641  0.385052  1
  P  P32  1  0.500000  0.842181  0.895593  1
  P  P33  1  0.500000  0.157819  0.895593  1
  P  P34  1  0.000000  0.657819  0.104407  1
  P  P35  1  0.000000  0.342181  0.104407  1
