# generated using pymatgen
data_Tb3NdGa18(PtRh2)2
_symmetry_space_group_name_H-M   'P 1'
_cell_length_a   7.64364261
_cell_length_b   7.64457810
_cell_length_c   9.53436700
_cell_angle_alpha   90.00000000
_cell_angle_beta   90.00000000
_cell_angle_gamma   119.89852389
_symmetry_Int_Tables_number   1
_chemical_formula_structural   Tb3NdGa18(PtRh2)2
_chemical_formula_sum   'Tb3 Nd1 Ga18 Pt2 Rh4'
_cell_volume   482.96934691
_cell_formula_units_Z   1
loop_
 _symmetry_equiv_pos_site_id
 _symmetry_equiv_pos_as_xyz
  1  'x, y, z'
loop_
 _atom_site_type_symbol
 _atom_site_label
 _atom_site_symmetry_multiplicity
 _atom_site_fract_x
 _atom_site_fract_y
 _atom_site_fract_z
 _atom_site_occupancy
  Tb  Tb0  1  0.003446  0.328605  0.750000  1
  Tb  Tb1  1  0.671327  0.996421  0.250000  1
  Tb  Tb2  1  0.328659  0.003550  0.750000  1
  Nd  Nd3  1  0.996366  0.671490  0.250000  1
  Ga  Ga4  1  0.134510  0.135441  0.250000  1
  Ga  Ga5  1  0.865785  0.865947  0.750000  1
  Ga  Ga6  1  0.998709  0.337000  0.079343  1
  Ga  Ga7  1  0.001153  0.661308  0.918808  1
  Ga  Ga8  1  0.001153  0.661308  0.581192  1
  Ga  Ga9  1  0.340289  0.000325  0.420641  1
  Ga  Ga10  1  0.998709  0.337000  0.420657  1
  Ga  Ga11  1  0.661395  0.001197  0.580080  1
  Ga  Ga12  1  0.661395  0.001197  0.919920  1
  Ga  Ga13  1  0.340289  0.000325  0.079359  1
  Ga  Ga14  1  0.337292  0.337254  0.566754  1
  Ga  Ga15  1  0.661308  0.662716  0.434230  1
  Ga  Ga16  1  0.661308  0.662716  0.065770  1
  Ga  Ga17  1  0.337292  0.337254  0.933246  1
  Ga  Ga18  1  0.337321  0.547916  0.250000  1
  Ga  Ga19  1  0.663570  0.451723  0.750000  1
  Ga  Ga20  1  0.546571  0.335198  0.250000  1
  Ga  Ga21  1  0.451908  0.663714  0.750000  1
  Pt  Pt22  1  0.000261  0.000564  0.999210  1
  Pt  Pt23  1  0.000261  0.000564  0.500790  1
  Rh  Rh24  1  0.670615  0.328789  0.999321  1
  Rh  Rh25  1  0.329247  0.670845  0.999340  1
  Rh  Rh26  1  0.329247  0.670845  0.500660  1
  Rh  Rh27  1  0.670615  0.328789  0.500679  1
