# generated using pymatgen
data_PrHo9(Si2Hg)2
_symmetry_space_group_name_H-M   'P 1'
_cell_length_a   7.51551321
_cell_length_b   7.51551316
_cell_length_c   8.90272400
_cell_angle_alpha   114.99221844
_cell_angle_beta   114.99222666
_cell_angle_gamma   90.22822282
_symmetry_Int_Tables_number   1
_chemical_formula_structural   PrHo9(Si2Hg)2
_chemical_formula_sum   'Pr1 Ho9 Si4 Hg2'
_cell_volume   402.77085666
_cell_formula_units_Z   1
loop_
 _symmetry_equiv_pos_site_id
 _symmetry_equiv_pos_as_xyz
  1  'x, y, z'
loop_
 _atom_site_type_symbol
 _atom_site_label
 _atom_site_symmetry_multiplicity
 _atom_site_fract_x
 _atom_site_fract_y
 _atom_site_fract_z
 _atom_site_occupancy
  Pr  Pr0  1  0.528877  0.028877  0.711910  1
  Ho  Ho1  1  0.501297  0.500514  0.002138  1
  Ho  Ho2  1  0.000514  0.001297  0.002138  1
  Ho  Ho3  1  0.966813  0.813159  0.279903  1
  Ho  Ho4  1  0.313159  0.466813  0.279903  1
  Ho  Ho5  1  0.811672  0.311672  0.278971  1
  Ho  Ho6  1  0.467199  0.967199  0.277860  1
  Ho  Ho7  1  0.032182  0.189584  0.721219  1
  Ho  Ho8  1  0.689584  0.532182  0.721219  1
  Ho  Ho9  1  0.186111  0.686111  0.721919  1
  Si  Si10  1  0.624753  0.874044  0.003233  1
  Si  Si11  1  0.374044  0.124753  0.003233  1
  Si  Si12  1  0.880499  0.380499  0.003512  1
  Si  Si13  1  0.124762  0.624762  0.001601  1
  Hg  Hg14  1  0.754199  0.744338  0.495621  1
  Hg  Hg15  1  0.244338  0.254199  0.495621  1
