# generated using pymatgen
data_Zr5Fe10Co6(P4W)3
_symmetry_space_group_name_H-M   'P 1'
_cell_length_a   11.93148800
_cell_length_b   11.92127988
_cell_length_c   3.65530200
_cell_angle_alpha   90.00000000
_cell_angle_beta   90.00000000
_cell_angle_gamma   120.11031111
_symmetry_Int_Tables_number   1
_chemical_formula_structural   Zr5Fe10Co6(P4W)3
_chemical_formula_sum   'Zr5 Fe10 Co6 P12 W3'
_cell_volume   449.76697881
_cell_formula_units_Z   1
loop_
 _symmetry_equiv_pos_site_id
 _symmetry_equiv_pos_as_xyz
  1  'x, y, z'
loop_
 _atom_site_type_symbol
 _atom_site_label
 _atom_site_symmetry_multiplicity
 _atom_site_fract_x
 _atom_site_fract_y
 _atom_site_fract_z
 _atom_site_occupancy
  Zr  Zr0  1  0.666733  0.333356  0.000000  1
  Zr  Zr1  1  0.332900  0.665729  0.000000  1
  Zr  Zr2  1  0.815194  0.815340  0.500000  1
  Zr  Zr3  1  0.185472  0.000976  0.500000  1
  Zr  Zr4  1  0.001036  0.186244  0.500000  1
  Fe  Fe5  1  0.195934  0.373426  0.000000  1
  Fe  Fe6  1  0.125222  0.481607  0.500000  1
  Fe  Fe7  1  0.354858  0.872189  0.500000  1
  Fe  Fe8  1  0.516766  0.644457  0.500000  1
  Fe  Fe9  1  0.645248  0.518090  0.500000  1
  Fe  Fe10  1  0.871842  0.355351  0.500000  1
  Fe  Fe11  1  0.482559  0.127018  0.500000  1
  Fe  Fe12  1  0.720193  0.000052  0.500000  1
  Fe  Fe13  1  0.999909  0.720287  0.500000  1
  Fe  Fe14  1  0.281245  0.278725  0.500000  1
  Co  Co15  1  0.177915  0.805671  0.000000  1
  Co  Co16  1  0.821936  0.627773  0.000000  1
  Co  Co17  1  0.805842  0.178500  0.000000  1
  Co  Co18  1  0.373104  0.194024  0.000000  1
  Co  Co19  1  0.000178  0.000148  0.000000  1
  Co  Co20  1  0.627782  0.821881  0.000000  1
  P  P21  1  0.641477  0.641414  0.000000  1
  P  P22  1  0.358462  0.999983  0.000000  1
  P  P23  1  0.001641  0.358725  0.000000  1
  P  P24  1  0.483013  0.313762  0.500000  1
  P  P25  1  0.686495  0.168994  0.500000  1
  P  P26  1  0.830600  0.517648  0.500000  1
  P  P27  1  0.517290  0.830553  0.500000  1
  P  P28  1  0.168720  0.686104  0.500000  1
  P  P29  1  0.823369  0.000572  0.000000  1
  P  P30  1  0.000234  0.823150  0.000000  1
  P  P31  1  0.310985  0.480510  0.500000  1
  P  P32  1  0.177282  0.178336  0.000000  1
  W  W33  1  0.440992  0.441393  0.000000  1
  W  W34  1  0.557846  0.999733  0.000000  1
  W  W35  1  0.999724  0.558281  0.000000  1
