# generated using pymatgen
data_Ho2MgCuNi
_symmetry_space_group_name_H-M   'P 1'
_cell_length_a   7.47321558
_cell_length_b   7.47321558
_cell_length_c   3.62450200
_cell_angle_alpha   90.00000000
_cell_angle_beta   90.00000000
_cell_angle_gamma   88.94357426
_symmetry_Int_Tables_number   1
_chemical_formula_structural   Ho2MgCuNi
_chemical_formula_sum   'Ho4 Mg2 Cu2 Ni2'
_cell_volume   202.39022719
_cell_formula_units_Z   2
loop_
 _symmetry_equiv_pos_site_id
 _symmetry_equiv_pos_as_xyz
  1  'x, y, z'
loop_
 _atom_site_type_symbol
 _atom_site_label
 _atom_site_symmetry_multiplicity
 _atom_site_fract_x
 _atom_site_fract_y
 _atom_site_fract_z
 _atom_site_occupancy
  Ho  Ho0  1  0.664400  0.164400  0.500000  1
  Ho  Ho1  1  0.335600  0.835600  0.500000  1
  Ho  Ho2  1  0.181766  0.318234  0.500000  1
  Ho  Ho3  1  0.818234  0.681766  0.500000  1
  Mg  Mg4  1  0.000000  0.000000  0.000000  1
  Mg  Mg5  1  0.500000  0.500000  0.000000  1
  Cu  Cu6  1  0.120485  0.620485  0.000000  1
  Cu  Cu7  1  0.879515  0.379515  0.000000  1
  Ni  Ni8  1  0.620071  0.879929  0.000000  1
  Ni  Ni9  1  0.379929  0.120071  0.000000  1
