# generated using pymatgen
data_Y7Er4ScPb10
_symmetry_space_group_name_H-M   'P 1'
_cell_length_a   11.65311920
_cell_length_b   11.65226294
_cell_length_c   11.66141018
_cell_angle_alpha   147.02980899
_cell_angle_beta   132.32735817
_cell_angle_gamma   59.10055032
_symmetry_Int_Tables_number   1
_chemical_formula_structural   Y7Er4ScPb10
_chemical_formula_sum   'Y7 Er4 Sc1 Pb10'
_cell_volume   631.85679354
_cell_formula_units_Z   1
loop_
 _symmetry_equiv_pos_site_id
 _symmetry_equiv_pos_as_xyz
  1  'x, y, z'
loop_
 _atom_site_type_symbol
 _atom_site_label
 _atom_site_symmetry_multiplicity
 _atom_site_fract_x
 _atom_site_fract_y
 _atom_site_fract_z
 _atom_site_occupancy
  Y  Y0  1  0.696606  0.947432  0.249708  1
  Y  Y1  1  0.251752  0.636654  0.611763  1
  Y  Y2  1  0.680275  0.941179  0.738794  1
  Y  Y3  1  0.024566  0.139875  0.888034  1
  Y  Y4  1  0.974474  0.859952  0.112639  1
  Y  Y5  1  0.797567  0.559446  0.239333  1
  Y  Y6  1  0.203693  0.441827  0.762410  1
  Er  Er7  1  0.302011  0.051957  0.749913  1
  Er  Er8  1  0.319761  0.058661  0.260581  1
  Er  Er9  1  0.303617  0.553667  0.249921  1
  Er  Er10  1  0.748453  0.362519  0.388267  1
  Sc  Sc11  1  0.695835  0.446072  0.749589  1
  Pb  Pb12  1  0.484150  0.565220  0.896455  1
  Pb  Pb13  1  0.598908  0.783644  0.796271  1
  Pb  Pb14  1  0.667170  0.086937  0.601884  1
  Pb  Pb15  1  0.000773  0.750523  0.750936  1
  Pb  Pb16  1  0.986584  0.302447  0.702338  1
  Pb  Pb17  1  0.519605  0.421843  0.092105  1
  Pb  Pb18  1  0.007899  0.702164  0.297397  1
  Pb  Pb19  1  0.403860  0.209976  0.202255  1
  Pb  Pb20  1  0.331979  0.928446  0.409148  1
  Pb  Pb21  1  0.000463  0.249563  0.250262  1
