# generated using pymatgen
data_V9Si4RhW2
_symmetry_space_group_name_H-M   'P 1'
_cell_length_a   4.70183300
_cell_length_b   4.75030139
_cell_length_c   9.58962810
_cell_angle_alpha   89.94795308
_cell_angle_beta   90.00000000
_cell_angle_gamma   90.00000000
_symmetry_Int_Tables_number   1
_chemical_formula_structural   V9Si4RhW2
_chemical_formula_sum   'V9 Si4 Rh1 W2'
_cell_volume   214.18544278
_cell_formula_units_Z   1
loop_
 _symmetry_equiv_pos_site_id
 _symmetry_equiv_pos_as_xyz
  1  'x, y, z'
loop_
 _atom_site_type_symbol
 _atom_site_label
 _atom_site_symmetry_multiplicity
 _atom_site_fract_x
 _atom_site_fract_y
 _atom_site_fract_z
 _atom_site_occupancy
  V  V0  1  0.500000  0.245585  0.499448  1
  V  V1  1  0.745398  0.000737  0.251400  1
  V  V2  1  0.752091  0.000655  0.748776  1
  V  V3  1  0.000000  0.498164  0.124766  1
  V  V4  1  0.000000  0.499483  0.625204  1
  V  V5  1  0.500000  0.749458  0.000197  1
  V  V6  1  0.500000  0.755432  0.499552  1
  V  V7  1  0.254602  0.000737  0.251400  1
  V  V8  1  0.247909  0.000655  0.748776  1
  Si  Si9  1  0.500000  0.504028  0.247178  1
  Si  Si10  1  0.500000  0.502626  0.742328  1
  Si  Si11  1  0.000000  0.992572  0.004742  1
  Si  Si12  1  0.000000  0.999664  0.506120  1
  Rh  Rh13  1  0.000000  0.500324  0.374856  1
  W  W14  1  0.000000  0.499182  0.874621  1
  W  W15  1  0.500000  0.250696  0.000638  1
