# generated using pymatgen
data_NaNiRhF6
_symmetry_space_group_name_H-M   'P 1'
_cell_length_a   5.34320300
_cell_length_b   5.34330198
_cell_length_c   9.81630600
_cell_angle_alpha   89.99992377
_cell_angle_beta   89.99949655
_cell_angle_gamma   120.00165681
_symmetry_Int_Tables_number   1
_chemical_formula_structural   NaNiRhF6
_chemical_formula_sum   'Na2 Ni2 Rh2 F12'
_cell_volume   242.70731318
_cell_formula_units_Z   2
loop_
 _symmetry_equiv_pos_site_id
 _symmetry_equiv_pos_as_xyz
  1  'x, y, z'
loop_
 _atom_site_type_symbol
 _atom_site_label
 _atom_site_symmetry_multiplicity
 _atom_site_fract_x
 _atom_site_fract_y
 _atom_site_fract_z
 _atom_site_occupancy
  Na  Na0  1  0.999997  0.999990  0.250001  1
  Na  Na1  1  0.999995  0.999990  0.750000  1
  Ni  Ni2  1  0.666596  0.333224  0.999939  1
  Ni  Ni3  1  0.333411  0.666786  0.500050  1
  Rh  Rh4  1  0.333300  0.666777  0.000020  1
  Rh  Rh5  1  0.666778  0.333374  0.499992  1
  F  F6  1  0.003207  0.357417  0.109367  1
  F  F7  1  0.642569  0.645769  0.109368  1
  F  F8  1  0.354210  0.996752  0.109361  1
  F  F9  1  0.645777  0.003212  0.390634  1
  F  F10  1  0.357420  0.354219  0.390634  1
  F  F11  1  0.996778  0.642557  0.390639  1
  F  F12  1  0.357421  0.003191  0.609363  1
  F  F13  1  0.996787  0.354225  0.609353  1
  F  F14  1  0.645765  0.642561  0.609359  1
  F  F15  1  0.354223  0.357410  0.890635  1
  F  F16  1  0.003203  0.645756  0.890646  1
  F  F17  1  0.642562  0.996786  0.890643  1
