# generated using pymatgen
data_ZrSc7
_symmetry_space_group_name_H-M   'P 1'
_cell_length_a   5.73068111
_cell_length_b   6.12943593
_cell_length_c   8.76289483
_cell_angle_alpha   120.78233630
_cell_angle_beta   49.16690652
_cell_angle_gamma   117.89907723
_symmetry_Int_Tables_number   1
_chemical_formula_structural   ZrSc7
_chemical_formula_sum   'Zr1 Sc7'
_cell_volume   195.82859613
_cell_formula_units_Z   1
loop_
 _symmetry_equiv_pos_site_id
 _symmetry_equiv_pos_as_xyz
  1  'x, y, z'
loop_
 _atom_site_type_symbol
 _atom_site_label
 _atom_site_symmetry_multiplicity
 _atom_site_fract_x
 _atom_site_fract_y
 _atom_site_fract_z
 _atom_site_occupancy
  Zr  Zr0  1  0.527705  0.020816  0.927868  1
  Sc  Sc1  1  0.236736  0.514691  0.300550  1
  Sc  Sc2  1  0.778787  0.028416  0.174830  1
  Sc  Sc3  1  0.016525  0.019459  0.430498  1
  Sc  Sc4  1  0.483542  0.523126  0.557234  1
  Sc  Sc5  1  0.725321  0.517056  0.805499  1
  Sc  Sc6  1  0.983116  0.526728  0.052824  1
  Sc  Sc7  1  0.265293  0.012744  0.684436  1
