# generated using pymatgen
data_Y12Er4AlCd3Pd4
_symmetry_space_group_name_H-M   'P 1'
_cell_length_a   9.67836322
_cell_length_b   9.67836376
_cell_length_c   9.67836407
_cell_angle_alpha   60.14159089
_cell_angle_beta   60.14159096
_cell_angle_gamma   60.14158821
_symmetry_Int_Tables_number   1
_chemical_formula_structural   Y12Er4AlCd3Pd4
_chemical_formula_sum   'Y12 Er4 Al1 Cd3 Pd4'
_cell_volume   643.10443994
_cell_formula_units_Z   1
loop_
 _symmetry_equiv_pos_site_id
 _symmetry_equiv_pos_as_xyz
  1  'x, y, z'
loop_
 _atom_site_type_symbol
 _atom_site_label
 _atom_site_symmetry_multiplicity
 _atom_site_fract_x
 _atom_site_fract_y
 _atom_site_fract_z
 _atom_site_occupancy
  Y  Y0  1  0.810504  0.189968  0.189968  1
  Y  Y1  1  0.192914  0.808060  0.808060  1
  Y  Y2  1  0.189968  0.810504  0.189968  1
  Y  Y3  1  0.808060  0.192914  0.808060  1
  Y  Y4  1  0.189968  0.189968  0.810504  1
  Y  Y5  1  0.808060  0.808060  0.192914  1
  Y  Y6  1  0.932736  0.566328  0.566328  1
  Y  Y7  1  0.563854  0.936109  0.936109  1
  Y  Y8  1  0.566328  0.932736  0.566328  1
  Y  Y9  1  0.936109  0.563854  0.936109  1
  Y  Y10  1  0.566328  0.566328  0.932736  1
  Y  Y11  1  0.936109  0.936109  0.563854  1
  Er  Er12  1  0.351619  0.351619  0.351619  1
  Er  Er13  1  0.357326  0.357326  0.934406  1
  Er  Er14  1  0.357326  0.934406  0.357326  1
  Er  Er15  1  0.934406  0.357326  0.357326  1
  Al  Al16  1  0.581866  0.581866  0.581866  1
  Cd  Cd17  1  0.581036  0.581036  0.255527  1
  Cd  Cd18  1  0.581036  0.255527  0.581036  1
  Cd  Cd19  1  0.255527  0.581036  0.581036  1
  Pd  Pd20  1  0.147625  0.147625  0.147625  1
  Pd  Pd21  1  0.144194  0.144194  0.562901  1
  Pd  Pd22  1  0.144194  0.562901  0.144194  1
  Pd  Pd23  1  0.562901  0.144194  0.144194  1
