# generated using pymatgen
data_Pr8Dy7Y5Si16
_symmetry_space_group_name_H-M   'P 1'
_cell_length_a   7.55603400
_cell_length_b   7.82905400
_cell_length_c   14.88528600
_cell_angle_alpha   90.00228486
_cell_angle_beta   89.99963325
_cell_angle_gamma   90.00045436
_symmetry_Int_Tables_number   1
_chemical_formula_structural   Pr8Dy7Y5Si16
_chemical_formula_sum   'Pr8 Dy7 Y5 Si16'
_cell_volume   880.56288280
_cell_formula_units_Z   1
loop_
 _symmetry_equiv_pos_site_id
 _symmetry_equiv_pos_as_xyz
  1  'x, y, z'
loop_
 _atom_site_type_symbol
 _atom_site_label
 _atom_site_symmetry_multiplicity
 _atom_site_fract_x
 _atom_site_fract_y
 _atom_site_fract_z
 _atom_site_occupancy
  Pr  Pr0  1  0.974680  0.819951  0.098060  1
  Pr  Pr1  1  0.474678  0.680056  0.401945  1
  Pr  Pr2  1  0.525317  0.319882  0.901920  1
  Pr  Pr3  1  0.025373  0.180051  0.598075  1
  Pr  Pr4  1  0.025368  0.180084  0.901923  1
  Pr  Pr5  1  0.525313  0.319848  0.598082  1
  Pr  Pr6  1  0.474676  0.680069  0.098063  1
  Pr  Pr7  1  0.974679  0.819937  0.401934  1
  Dy  Dy8  1  0.350893  0.010667  0.749991  1
  Dy  Dy9  1  0.818662  0.321383  0.123129  1
  Dy  Dy10  1  0.318658  0.178610  0.376869  1
  Dy  Dy11  1  0.318647  0.178618  0.123120  1
  Dy  Dy12  1  0.818651  0.321375  0.376882  1
  Dy  Dy13  1  0.181382  0.678691  0.876832  1
  Dy  Dy14  1  0.681287  0.821394  0.623168  1
  Y  Y15  1  0.649081  0.989419  0.249997  1
  Y  Y16  1  0.149073  0.510579  0.250004  1
  Y  Y17  1  0.850901  0.489316  0.750004  1
  Y  Y18  1  0.681291  0.821441  0.876871  1
  Y  Y19  1  0.181386  0.678649  0.623126  1
  Si  Si20  1  0.767283  0.620102  0.249993  1
  Si  Si21  1  0.267267  0.879902  0.250008  1
  Si  Si22  1  0.732694  0.120127  0.749971  1
  Si  Si23  1  0.232764  0.379790  0.750030  1
  Si  Si24  1  0.023990  0.110778  0.250004  1
  Si  Si25  1  0.523988  0.389208  0.249997  1
  Si  Si26  1  0.476004  0.610764  0.749979  1
  Si  Si27  1  0.976067  0.889295  0.750021  1
  Si  Si28  1  0.857187  0.530702  0.960089  1
  Si  Si29  1  0.357185  0.969306  0.539934  1
  Si  Si30  1  0.642836  0.030826  0.039969  1
  Si  Si31  1  0.142838  0.469173  0.460030  1
  Si  Si32  1  0.142843  0.469205  0.039937  1
  Si  Si33  1  0.642842  0.030794  0.460065  1
  Si  Si34  1  0.357108  0.969221  0.960067  1
  Si  Si35  1  0.857108  0.530787  0.539912  1
