# generated using pymatgen
data_Pr16Mg3HgOs4
_symmetry_space_group_name_H-M   'P 1'
_cell_length_a   10.06369547
_cell_length_b   10.06369659
_cell_length_c   10.06369701
_cell_angle_alpha   59.98521120
_cell_angle_beta   59.98520725
_cell_angle_gamma   59.98520570
_symmetry_Int_Tables_number   1
_chemical_formula_structural   Pr16Mg3HgOs4
_chemical_formula_sum   'Pr16 Mg3 Hg1 Os4'
_cell_volume   720.46334279
_cell_formula_units_Z   1
loop_
 _symmetry_equiv_pos_site_id
 _symmetry_equiv_pos_as_xyz
  1  'x, y, z'
loop_
 _atom_site_type_symbol
 _atom_site_label
 _atom_site_symmetry_multiplicity
 _atom_site_fract_x
 _atom_site_fract_y
 _atom_site_fract_z
 _atom_site_occupancy
  Pr  Pr0  1  0.342815  0.342815  0.342815  1
  Pr  Pr1  1  0.344113  0.344113  0.965586  1
  Pr  Pr2  1  0.344113  0.965586  0.344113  1
  Pr  Pr3  1  0.965586  0.344113  0.344113  1
  Pr  Pr4  1  0.809606  0.189194  0.189194  1
  Pr  Pr5  1  0.193877  0.809669  0.809669  1
  Pr  Pr6  1  0.189194  0.809606  0.189194  1
  Pr  Pr7  1  0.809669  0.193877  0.809669  1
  Pr  Pr8  1  0.189194  0.189194  0.809606  1
  Pr  Pr9  1  0.809669  0.809669  0.193877  1
  Pr  Pr10  1  0.934810  0.561217  0.561217  1
  Pr  Pr11  1  0.560456  0.941637  0.941637  1
  Pr  Pr12  1  0.561217  0.934810  0.561217  1
  Pr  Pr13  1  0.941637  0.560456  0.941637  1
  Pr  Pr14  1  0.561217  0.561217  0.934810  1
  Pr  Pr15  1  0.941637  0.941637  0.560456  1
  Mg  Mg16  1  0.578097  0.578097  0.268984  1
  Mg  Mg17  1  0.578097  0.268984  0.578097  1
  Mg  Mg18  1  0.268984  0.578097  0.578097  1
  Hg  Hg19  1  0.581336  0.581336  0.581336  1
  Os  Os20  1  0.137378  0.137378  0.137378  1
  Os  Os21  1  0.135987  0.135987  0.585326  1
  Os  Os22  1  0.135987  0.585326  0.135987  1
  Os  Os23  1  0.585326  0.135987  0.135987  1
