# generated using pymatgen
data_Pr8Nd2Si5Rh
_symmetry_space_group_name_H-M   'P 1'
_cell_length_a   7.70252099
_cell_length_b   7.70252138
_cell_length_c   9.10403035
_cell_angle_alpha   115.02591200
_cell_angle_beta   115.02591843
_cell_angle_gamma   90.00000660
_symmetry_Int_Tables_number   1
_chemical_formula_structural   Pr8Nd2Si5Rh
_chemical_formula_sum   'Pr8 Nd2 Si5 Rh1'
_cell_volume   432.81162601
_cell_formula_units_Z   1
loop_
 _symmetry_equiv_pos_site_id
 _symmetry_equiv_pos_as_xyz
  1  'x, y, z'
loop_
 _atom_site_type_symbol
 _atom_site_label
 _atom_site_symmetry_multiplicity
 _atom_site_fract_x
 _atom_site_fract_y
 _atom_site_fract_z
 _atom_site_occupancy
  Pr  Pr0  1  0.952721  0.809519  0.286519  1
  Pr  Pr1  1  0.333797  0.477000  0.286519  1
  Pr  Pr2  1  0.809519  0.333797  0.286519  1
  Pr  Pr3  1  0.477000  0.952721  0.286519  1
  Pr  Pr4  1  0.023000  0.166203  0.713481  1
  Pr  Pr5  1  0.690481  0.547279  0.713481  1
  Pr  Pr6  1  0.166203  0.690481  0.713481  1
  Pr  Pr7  1  0.547279  0.023000  0.713481  1
  Nd  Nd8  1  0.472001  0.472001  0.944002  1
  Nd  Nd9  1  0.027999  0.027999  0.055998  1
  Si  Si10  1  0.250000  0.250000  0.500000  1
  Si  Si11  1  0.614604  0.885396  0.000000  1
  Si  Si12  1  0.385396  0.114604  0.000000  1
  Si  Si13  1  0.885396  0.385396  0.000000  1
  Si  Si14  1  0.114604  0.614604  0.000000  1
  Rh  Rh15  1  0.750000  0.750000  0.500000  1
