# generated using pymatgen
data_La4Hg2Pd3Rh
_symmetry_space_group_name_H-M   'P 1'
_cell_length_a   7.89189120
_cell_length_b   7.89189177
_cell_length_c   3.97056100
_cell_angle_alpha   90.00000000
_cell_angle_beta   90.00000000
_cell_angle_gamma   90.28949618
_symmetry_Int_Tables_number   1
_chemical_formula_structural   La4Hg2Pd3Rh
_chemical_formula_sum   'La4 Hg2 Pd3 Rh1'
_cell_volume   247.29112964
_cell_formula_units_Z   1
loop_
 _symmetry_equiv_pos_site_id
 _symmetry_equiv_pos_as_xyz
  1  'x, y, z'
loop_
 _atom_site_type_symbol
 _atom_site_label
 _atom_site_symmetry_multiplicity
 _atom_site_fract_x
 _atom_site_fract_y
 _atom_site_fract_z
 _atom_site_occupancy
  La  La0  1  0.165084  0.324491  0.500000  1
  La  La1  1  0.683863  0.183863  0.500000  1
  La  La2  1  0.824491  0.665084  0.500000  1
  La  La3  1  0.327556  0.827556  0.500000  1
  Hg  Hg4  1  0.000257  0.998995  0.000000  1
  Hg  Hg5  1  0.498995  0.500257  0.000000  1
  Pd  Pd6  1  0.129682  0.629682  0.000000  1
  Pd  Pd7  1  0.629027  0.872621  0.000000  1
  Pd  Pd8  1  0.372621  0.129027  0.000000  1
  Rh  Rh9  1  0.868426  0.368426  0.000000  1
