# generated using pymatgen
data_YTc3As4Rh3
_symmetry_space_group_name_H-M   'P 1'
_cell_length_a   7.19335610
_cell_length_b   7.19171261
_cell_length_c   3.91760200
_cell_angle_alpha   90.00000000
_cell_angle_beta   90.00000000
_cell_angle_gamma   119.99243863
_symmetry_Int_Tables_number   1
_chemical_formula_structural   YTc3As4Rh3
_chemical_formula_sum   'Y1 Tc3 As4 Rh3'
_cell_volume   175.52861022
_cell_formula_units_Z   1
loop_
 _symmetry_equiv_pos_site_id
 _symmetry_equiv_pos_as_xyz
  1  'x, y, z'
loop_
 _atom_site_type_symbol
 _atom_site_label
 _atom_site_symmetry_multiplicity
 _atom_site_fract_x
 _atom_site_fract_y
 _atom_site_fract_z
 _atom_site_occupancy
  Y  Y0  1  0.999975  0.999987  0.000000  1
  Tc  Tc1  1  0.536204  0.072361  0.000000  1
  Tc  Tc2  1  0.536204  0.463843  0.000000  1
  Tc  Tc3  1  0.927615  0.463808  0.000000  1
  As  As4  1  0.808129  0.616346  0.500000  1
  As  As5  1  0.333344  0.666673  0.000000  1
  As  As6  1  0.383676  0.191837  0.500000  1
  As  As7  1  0.808129  0.191783  0.500000  1
  Rh  Rh8  1  0.606114  0.803058  0.500000  1
  Rh  Rh9  1  0.196971  0.393969  0.500000  1
  Rh  Rh10  1  0.196971  0.803002  0.500000  1
