# generated using pymatgen
data_Na2Co10Re2P7
_symmetry_space_group_name_H-M   'P 1'
_cell_length_a   3.64265000
_cell_length_b   9.01355339
_cell_length_c   9.04061269
_cell_angle_alpha   120.73662743
_cell_angle_beta   90.00000000
_cell_angle_gamma   90.00000000
_symmetry_Int_Tables_number   1
_chemical_formula_structural   Na2Co10Re2P7
_chemical_formula_sum   'Na2 Co10 Re2 P7'
_cell_volume   255.13510659
_cell_formula_units_Z   1
loop_
 _symmetry_equiv_pos_site_id
 _symmetry_equiv_pos_as_xyz
  1  'x, y, z'
loop_
 _atom_site_type_symbol
 _atom_site_label
 _atom_site_symmetry_multiplicity
 _atom_site_fract_x
 _atom_site_fract_y
 _atom_site_fract_z
 _atom_site_occupancy
  Na  Na0  1  0.000000  0.666610  0.334726  1
  Na  Na1  1  0.500000  0.334927  0.667778  1
  Co  Co2  1  0.000000  0.566117  0.941316  1
  Co  Co3  1  0.000000  0.374667  0.430950  1
  Co  Co4  1  0.000000  0.057490  0.624813  1
  Co  Co5  1  0.500000  0.098554  0.865503  1
  Co  Co6  1  0.000000  0.879301  0.161619  1
  Co  Co7  1  0.000000  0.275700  0.113853  1
  Co  Co8  1  0.000000  0.846781  0.725252  1
  Co  Co9  1  0.500000  0.951454  0.390638  1
  Co  Co10  1  0.500000  0.432465  0.046357  1
  Co  Co11  1  0.500000  0.614128  0.564954  1
  Re  Re12  1  0.500000  0.782962  0.910200  1
  Re  Re13  1  0.500000  0.119406  0.218173  1
  P  P14  1  0.000000  0.000966  0.000435  1
  P  P15  1  0.500000  0.705707  0.121214  1
  P  P16  1  0.500000  0.409325  0.288167  1
  P  P17  1  0.500000  0.882466  0.592969  1
  P  P18  1  0.000000  0.588247  0.702696  1
  P  P19  1  0.000000  0.118233  0.415521  1
  P  P20  1  0.000000  0.294491  0.882866  1
