# generated using pymatgen
data_Rb4Na2ScAlP4
_symmetry_space_group_name_H-M   'P 1'
_cell_length_a   9.12285762
_cell_length_b   9.12287800
_cell_length_c   9.12285718
_cell_angle_alpha   136.06244717
_cell_angle_beta   62.09083888
_cell_angle_gamma   138.41495380
_symmetry_Int_Tables_number   1
_chemical_formula_structural   Rb4Na2ScAlP4
_chemical_formula_sum   'Rb4 Na2 Sc1 Al1 P4'
_cell_volume   345.55033630
_cell_formula_units_Z   1
loop_
 _symmetry_equiv_pos_site_id
 _symmetry_equiv_pos_as_xyz
  1  'x, y, z'
loop_
 _atom_site_type_symbol
 _atom_site_label
 _atom_site_symmetry_multiplicity
 _atom_site_fract_x
 _atom_site_fract_y
 _atom_site_fract_z
 _atom_site_occupancy
  Rb  Rb0  1  0.326591  0.767897  0.089428  1
  Rb  Rb1  1  0.173412  0.262830  0.441291  1
  Rb  Rb2  1  0.821529  0.732102  0.558692  1
  Rb  Rb3  1  0.678460  0.237170  0.910582  1
  Na  Na4  1  0.750000  0.250001  0.500000  1
  Na  Na5  1  0.250002  0.750000  0.500001  1
  Sc  Sc6  1  0.250004  0.250001  0.000003  1
  Al  Al7  1  0.750000  0.750000  0.000000  1
  P  P8  1  0.898914  0.190172  0.114798  1
  P  P9  1  0.601087  0.715880  0.291253  1
  P  P10  1  0.424626  0.309828  0.708744  1
  P  P11  1  0.075374  0.784118  0.885206  1
