# generated using pymatgen
data_Tm5Zr3Co13(NiP4)3
_symmetry_space_group_name_H-M   'P 1'
_cell_length_a   12.27624756
_cell_length_b   12.28327474
_cell_length_c   3.72297800
_cell_angle_alpha   90.00000000
_cell_angle_beta   90.00000000
_cell_angle_gamma   120.05485234
_symmetry_Int_Tables_number   1
_chemical_formula_structural   Tm5Zr3Co13(NiP4)3
_chemical_formula_sum   'Tm5 Zr3 Co13 Ni3 P12'
_cell_volume   485.91532109
_cell_formula_units_Z   1
loop_
 _symmetry_equiv_pos_site_id
 _symmetry_equiv_pos_as_xyz
  1  'x, y, z'
loop_
 _atom_site_type_symbol
 _atom_site_label
 _atom_site_symmetry_multiplicity
 _atom_site_fract_x
 _atom_site_fract_y
 _atom_site_fract_z
 _atom_site_occupancy
  Tm  Tm0  1  0.180296  0.181650  0.500000  1
  Tm  Tm1  1  0.818063  0.999326  0.500000  1
  Tm  Tm2  1  0.000996  0.817577  0.500000  1
  Tm  Tm3  1  0.333386  0.666812  0.000000  1
  Tm  Tm4  1  0.667582  0.334569  0.000000  1
  Zr  Zr5  1  0.557672  0.557131  0.000000  1
  Zr  Zr6  1  0.442190  0.999694  0.000000  1
  Zr  Zr7  1  0.999657  0.441675  0.000000  1
  Co  Co8  1  0.723111  0.722668  0.500000  1
  Co  Co9  1  0.276061  0.998291  0.500000  1
  Co  Co10  1  0.999424  0.277437  0.500000  1
  Co  Co11  1  0.176591  0.372675  0.000000  1
  Co  Co12  1  0.627762  0.803663  0.000000  1
  Co  Co13  1  0.194712  0.821764  0.000000  1
  Co  Co14  1  0.807441  0.628438  0.000000  1
  Co  Co15  1  0.818400  0.192147  0.000000  1
  Co  Co16  1  0.373371  0.181548  0.000000  1
  Co  Co17  1  0.353621  0.478772  0.500000  1
  Co  Co18  1  0.522537  0.875206  0.500000  1
  Co  Co19  1  0.126106  0.645146  0.500000  1
  Co  Co20  1  0.875978  0.520963  0.500000  1
  Ni  Ni21  1  0.644803  0.126589  0.500000  1
  Ni  Ni22  1  0.481379  0.356273  0.500000  1
  Ni  Ni23  1  0.000104  0.000319  0.000000  1
  P  P24  1  0.822928  0.822294  0.000000  1
  P  P25  1  0.178493  0.000329  0.000000  1
  P  P26  1  0.998911  0.177949  0.000000  1
  P  P27  1  0.171920  0.479622  0.500000  1
  P  P28  1  0.520310  0.691574  0.500000  1
  P  P29  1  0.307305  0.827671  0.500000  1
  P  P30  1  0.697561  0.524803  0.500000  1
  P  P31  1  0.829585  0.308492  0.500000  1
  P  P32  1  0.475146  0.170640  0.500000  1
  P  P33  1  0.345599  0.350103  0.000000  1
  P  P34  1  0.649473  0.995235  0.000000  1
  P  P35  1  0.001527  0.650954  0.000000  1
