# generated using pymatgen
data_Yb3U(MnB4)4
_symmetry_space_group_name_H-M   'P 1'
_cell_length_a   3.37571400
_cell_length_b   5.89103300
_cell_length_c   11.41584300
_cell_angle_alpha   89.99953446
_cell_angle_beta   90.00000000
_cell_angle_gamma   90.00000000
_symmetry_Int_Tables_number   1
_chemical_formula_structural   Yb3U(MnB4)4
_chemical_formula_sum   'Yb3 U1 Mn4 B16'
_cell_volume   227.02050623
_cell_formula_units_Z   1
loop_
 _symmetry_equiv_pos_site_id
 _symmetry_equiv_pos_as_xyz
  1  'x, y, z'
loop_
 _atom_site_type_symbol
 _atom_site_label
 _atom_site_symmetry_multiplicity
 _atom_site_fract_x
 _atom_site_fract_y
 _atom_site_fract_z
 _atom_site_occupancy
  Yb  Yb0  1  0.500000  0.626978  0.847541  1
  Yb  Yb1  1  0.500000  0.125121  0.650308  1
  Yb  Yb2  1  0.500000  0.875572  0.350904  1
  U  U3  1  0.500000  0.374130  0.152180  1
  Mn  Mn4  1  0.500000  0.376256  0.414295  1
  Mn  Mn5  1  0.500000  0.625873  0.580452  1
  Mn  Mn6  1  0.500000  0.129978  0.918420  1
  Mn  Mn7  1  0.500000  0.874093  0.087212  1
  B  B8  1  0.000000  0.111655  0.047920  1
  B  B9  1  0.000000  0.886342  0.954063  1
  B  B10  1  0.000000  0.385353  0.545544  1
  B  B11  1  0.000000  0.611534  0.452825  1
  B  B12  1  0.000000  0.137573  0.466836  1
  B  B13  1  0.000000  0.862209  0.531851  1
  B  B14  1  0.000000  0.362030  0.968161  1
  B  B15  1  0.000000  0.637555  0.034060  1
  B  B16  1  0.000000  0.025453  0.191280  1
  B  B17  1  0.000000  0.975493  0.809232  1
  B  B18  1  0.000000  0.475196  0.689962  1
  B  B19  1  0.000000  0.522492  0.309176  1
  B  B20  1  0.000000  0.219980  0.316131  1
  B  B21  1  0.000000  0.780507  0.682611  1
  B  B22  1  0.000000  0.279627  0.815481  1
  B  B23  1  0.000000  0.719000  0.183556  1
