# generated using pymatgen
data_Y2Tm18NiHg6Os
_symmetry_space_group_name_H-M   'P 1'
_cell_length_a   9.52069506
_cell_length_b   9.52069469
_cell_length_c   9.43437100
_cell_angle_alpha   90.00000000
_cell_angle_beta   90.00000000
_cell_angle_gamma   119.97494720
_symmetry_Int_Tables_number   1
_chemical_formula_structural   Y2Tm18NiHg6Os
_chemical_formula_sum   'Y2 Tm18 Ni1 Hg6 Os1'
_cell_volume   740.78206243
_cell_formula_units_Z   1
loop_
 _symmetry_equiv_pos_site_id
 _symmetry_equiv_pos_as_xyz
  1  'x, y, z'
loop_
 _atom_site_type_symbol
 _atom_site_label
 _atom_site_symmetry_multiplicity
 _atom_site_fract_x
 _atom_site_fract_y
 _atom_site_fract_z
 _atom_site_occupancy
  Y  Y0  1  0.539677  0.079517  0.250000  1
  Y  Y1  1  0.920482  0.460323  0.250000  1
  Tm  Tm2  1  0.000355  0.999644  0.499904  1
  Tm  Tm3  1  0.000355  0.999644  0.000096  1
  Tm  Tm4  1  0.538194  0.461806  0.250000  1
  Tm  Tm5  1  0.456963  0.543036  0.750000  1
  Tm  Tm6  1  0.457077  0.914961  0.750000  1
  Tm  Tm7  1  0.085039  0.542923  0.750000  1
  Tm  Tm8  1  0.209664  0.790336  0.441474  1
  Tm  Tm9  1  0.209874  0.418275  0.441570  1
  Tm  Tm10  1  0.581725  0.790126  0.441570  1
  Tm  Tm11  1  0.790341  0.209660  0.565220  1
  Tm  Tm12  1  0.789271  0.580065  0.564410  1
  Tm  Tm13  1  0.419935  0.210729  0.564410  1
  Tm  Tm14  1  0.790341  0.209660  0.934780  1
  Tm  Tm15  1  0.789271  0.580065  0.935590  1
  Tm  Tm16  1  0.419935  0.210729  0.935590  1
  Tm  Tm17  1  0.209664  0.790336  0.058526  1
  Tm  Tm18  1  0.209874  0.418275  0.058430  1
  Tm  Tm19  1  0.581725  0.790126  0.058430  1
  Ni  Ni20  1  0.666831  0.333169  0.750000  1
  Hg  Hg21  1  0.882028  0.117972  0.250000  1
  Hg  Hg22  1  0.879619  0.762342  0.250000  1
  Hg  Hg23  1  0.237658  0.120381  0.250000  1
  Hg  Hg24  1  0.119586  0.880414  0.750000  1
  Hg  Hg25  1  0.119753  0.239365  0.750000  1
  Hg  Hg26  1  0.760635  0.880247  0.750000  1
  Os  Os27  1  0.334126  0.665874  0.250000  1
