# generated using pymatgen
data_Ho10In8Ir3Rh
_symmetry_space_group_name_H-M   'P 1'
_cell_length_a   3.63446100
_cell_length_b   8.01613419
_cell_length_c   18.23614179
_cell_angle_alpha   89.89178597
_cell_angle_beta   90.00000000
_cell_angle_gamma   90.00000000
_symmetry_Int_Tables_number   1
_chemical_formula_structural   Ho10In8Ir3Rh
_chemical_formula_sum   'Ho10 In8 Ir3 Rh1'
_cell_volume   531.29677216
_cell_formula_units_Z   1
loop_
 _symmetry_equiv_pos_site_id
 _symmetry_equiv_pos_as_xyz
  1  'x, y, z'
loop_
 _atom_site_type_symbol
 _atom_site_label
 _atom_site_symmetry_multiplicity
 _atom_site_fract_x
 _atom_site_fract_y
 _atom_site_fract_z
 _atom_site_occupancy
  Ho  Ho0  1  0.000000  0.114716  0.411700  1
  Ho  Ho1  1  0.000000  0.884945  0.589968  1
  Ho  Ho2  1  0.000000  0.384297  0.909952  1
  Ho  Ho3  1  0.000000  0.614012  0.089278  1
  Ho  Ho4  1  0.000000  0.240230  0.222079  1
  Ho  Ho5  1  0.000000  0.757749  0.777675  1
  Ho  Ho6  1  0.000000  0.257367  0.722457  1
  Ho  Ho7  1  0.000000  0.747317  0.278602  1
  Ho  Ho8  1  0.000000  0.998696  0.999333  1
  Ho  Ho9  1  0.000000  0.499766  0.500440  1
  In  In10  1  0.500000  0.427076  0.350594  1
  In  In11  1  0.500000  0.570639  0.648749  1
  In  In12  1  0.500000  0.070899  0.851214  1
  In  In13  1  0.500000  0.927441  0.148498  1
  In  In14  1  0.500000  0.292397  0.066752  1
  In  In15  1  0.500000  0.706395  0.932259  1
  In  In16  1  0.500000  0.206950  0.567879  1
  In  In17  1  0.500000  0.792269  0.432897  1
  Ir  Ir18  1  0.500000  0.019788  0.304272  1
  Ir  Ir19  1  0.500000  0.983241  0.696252  1
  Ir  Ir20  1  0.500000  0.483753  0.803791  1
  Rh  Rh21  1  0.500000  0.520058  0.195364  1
