# generated using pymatgen
data_Tb6Fe5P12Ir13
_symmetry_space_group_name_H-M   'P 1'
_cell_length_a   3.90143900
_cell_length_b   11.20466600
_cell_length_c   12.61227700
_cell_angle_alpha   90.00000000
_cell_angle_beta   90.00000000
_cell_angle_gamma   90.00000000
_symmetry_Int_Tables_number   1
_chemical_formula_structural   Tb6Fe5P12Ir13
_chemical_formula_sum   'Tb6 Fe5 P12 Ir13'
_cell_volume   551.33712424
_cell_formula_units_Z   1
loop_
 _symmetry_equiv_pos_site_id
 _symmetry_equiv_pos_as_xyz
  1  'x, y, z'
loop_
 _atom_site_type_symbol
 _atom_site_label
 _atom_site_symmetry_multiplicity
 _atom_site_fract_x
 _atom_site_fract_y
 _atom_site_fract_z
 _atom_site_occupancy
  Tb  Tb0  1  0.000000  0.500000  0.517639  1
  Tb  Tb1  1  0.500000  0.000000  0.479866  1
  Tb  Tb2  1  0.500000  0.816591  0.197338  1
  Tb  Tb3  1  0.500000  0.183409  0.197338  1
  Tb  Tb4  1  0.000000  0.673851  0.802446  1
  Tb  Tb5  1  0.000000  0.326149  0.802446  1
  Fe  Fe6  1  0.500000  0.500000  0.157730  1
  Fe  Fe7  1  0.000000  0.500000  0.989444  1
  Fe  Fe8  1  0.500000  0.000000  0.000072  1
  Fe  Fe9  1  0.500000  0.338381  0.998899  1
  Fe  Fe10  1  0.500000  0.661619  0.998899  1
  P  P11  1  0.500000  0.500000  0.895547  1
  P  P12  1  0.000000  0.000000  0.112172  1
  P  P13  1  0.500000  0.500000  0.338095  1
  P  P14  1  0.000000  0.000000  0.651368  1
  P  P15  1  0.500000  0.314625  0.621631  1
  P  P16  1  0.500000  0.685375  0.621631  1
  P  P17  1  0.000000  0.186573  0.378228  1
  P  P18  1  0.000000  0.813427  0.378228  1
  P  P19  1  0.500000  0.833366  0.901282  1
  P  P20  1  0.500000  0.166634  0.901282  1
  P  P21  1  0.000000  0.648676  0.098198  1
  P  P22  1  0.000000  0.351324  0.098198  1
  Ir  Ir23  1  0.000000  0.000000  0.836803  1
  Ir  Ir24  1  0.500000  0.500000  0.703569  1
  Ir  Ir25  1  0.000000  0.000000  0.296396  1
  Ir  Ir26  1  0.000000  0.167531  0.005713  1
  Ir  Ir27  1  0.000000  0.832469  0.005713  1
  Ir  Ir28  1  0.500000  0.289835  0.429956  1
  Ir  Ir29  1  0.500000  0.710165  0.429956  1
  Ir  Ir30  1  0.000000  0.206414  0.574644  1
  Ir  Ir31  1  0.000000  0.793586  0.574644  1
  Ir  Ir32  1  0.500000  0.871856  0.719699  1
  Ir  Ir33  1  0.500000  0.128144  0.719699  1
  Ir  Ir34  1  0.000000  0.626789  0.282618  1
  Ir  Ir35  1  0.000000  0.373211  0.282618  1
