# generated using pymatgen
data_Sc6Zn17SbPt6
_symmetry_space_group_name_H-M   'P 1'
_cell_length_a   8.89753172
_cell_length_b   8.89753134
_cell_length_c   8.89753300
_cell_angle_alpha   60.00000500
_cell_angle_beta   60.00000640
_cell_angle_gamma   59.99999857
_symmetry_Int_Tables_number   1
_chemical_formula_structural   Sc6Zn17SbPt6
_chemical_formula_sum   'Sc6 Zn17 Sb1 Pt6'
_cell_volume   498.07381919
_cell_formula_units_Z   1
loop_
 _symmetry_equiv_pos_site_id
 _symmetry_equiv_pos_as_xyz
  1  'x, y, z'
loop_
 _atom_site_type_symbol
 _atom_site_label
 _atom_site_symmetry_multiplicity
 _atom_site_fract_x
 _atom_site_fract_y
 _atom_site_fract_z
 _atom_site_occupancy
  Sc  Sc0  1  0.731152  0.268848  0.268848  1
  Sc  Sc1  1  0.268848  0.731152  0.731152  1
  Sc  Sc2  1  0.268848  0.731152  0.268848  1
  Sc  Sc3  1  0.731152  0.268848  0.731152  1
  Sc  Sc4  1  0.268848  0.268848  0.731152  1
  Sc  Sc5  1  0.731152  0.731152  0.268848  1
  Zn  Zn6  1  0.125947  0.125947  0.125947  1
  Zn  Zn7  1  0.874053  0.874053  0.874053  1
  Zn  Zn8  1  0.125947  0.125947  0.622160  1
  Zn  Zn9  1  0.125947  0.622160  0.125947  1
  Zn  Zn10  1  0.874053  0.874053  0.377840  1
  Zn  Zn11  1  0.874053  0.377840  0.874053  1
  Zn  Zn12  1  0.622160  0.125947  0.125947  1
  Zn  Zn13  1  0.377840  0.874053  0.874053  1
  Zn  Zn14  1  0.345055  0.345055  0.345055  1
  Zn  Zn15  1  0.654945  0.654945  0.654945  1
  Zn  Zn16  1  0.345055  0.345055  0.964836  1
  Zn  Zn17  1  0.345055  0.964836  0.345055  1
  Zn  Zn18  1  0.654945  0.654945  0.035164  1
  Zn  Zn19  1  0.654945  0.035164  0.654945  1
  Zn  Zn20  1  0.964836  0.345055  0.345055  1
  Zn  Zn21  1  0.035164  0.654945  0.654945  1
  Zn  Zn22  1  0.000000  0.000000  0.000000  1
  Sb  Sb23  1  0.500000  0.500000  0.500000  1
  Pt  Pt24  1  0.500000  0.000000  0.000000  1
  Pt  Pt25  1  0.000000  0.500000  0.500000  1
  Pt  Pt26  1  0.000000  0.500000  0.000000  1
  Pt  Pt27  1  0.500000  0.000000  0.500000  1
  Pt  Pt28  1  0.000000  0.000000  0.500000  1
  Pt  Pt29  1  0.500000  0.500000  0.000000  1
