# generated using pymatgen
data_BaTmSi4N7
_symmetry_space_group_name_H-M   'P 1'
_cell_length_a   6.07131400
_cell_length_b   6.07131423
_cell_length_c   9.88859100
_cell_angle_alpha   90.00000000
_cell_angle_beta   90.00000000
_cell_angle_gamma   119.99998786
_symmetry_Int_Tables_number   1
_chemical_formula_structural   BaTmSi4N7
_chemical_formula_sum   'Ba2 Tm2 Si8 N14'
_cell_volume   315.66796087
_cell_formula_units_Z   2
loop_
 _symmetry_equiv_pos_site_id
 _symmetry_equiv_pos_as_xyz
  1  'x, y, z'
loop_
 _atom_site_type_symbol
 _atom_site_label
 _atom_site_symmetry_multiplicity
 _atom_site_fract_x
 _atom_site_fract_y
 _atom_site_fract_z
 _atom_site_occupancy
  Ba  Ba0  1  0.666667  0.333333  0.576306  1
  Ba  Ba1  1  0.333333  0.666667  0.076306  1
  Tm  Tm2  1  0.666667  0.333333  0.949832  1
  Tm  Tm3  1  0.333333  0.666667  0.449832  1
  Si  Si4  1  0.174340  0.348679  0.760097  1
  Si  Si5  1  0.825660  0.174340  0.260097  1
  Si  Si6  1  0.348679  0.174340  0.260097  1
  Si  Si7  1  0.651321  0.825660  0.760097  1
  Si  Si8  1  0.174340  0.825660  0.760097  1
  Si  Si9  1  0.825660  0.651321  0.260097  1
  Si  Si10  1  0.000000  0.000000  0.028045  1
  Si  Si11  1  0.000000  0.000000  0.528045  1
  N  N12  1  0.000000  0.000000  0.836564  1
  N  N13  1  0.000000  0.000000  0.336564  1
  N  N14  1  0.846263  0.692525  0.086658  1
  N  N15  1  0.153737  0.846263  0.586658  1
  N  N16  1  0.692525  0.846263  0.586658  1
  N  N17  1  0.307475  0.153737  0.086658  1
  N  N18  1  0.846263  0.153737  0.086658  1
  N  N19  1  0.153737  0.307475  0.586658  1
  N  N20  1  0.488596  0.511404  0.813937  1
  N  N21  1  0.977193  0.488596  0.313937  1
  N  N22  1  0.511404  0.022807  0.313937  1
  N  N23  1  0.488596  0.977193  0.813937  1
  N  N24  1  0.511404  0.488596  0.313937  1
  N  N25  1  0.022807  0.511404  0.813937  1
