# generated using pymatgen
data_ErU3As6Ru7
_symmetry_space_group_name_H-M   'P 1'
_cell_length_a   7.14972476
_cell_length_b   7.22715095
_cell_length_c   7.22715077
_cell_angle_alpha   109.68722370
_cell_angle_beta   109.25434933
_cell_angle_gamma   109.25433909
_symmetry_Int_Tables_number   1
_chemical_formula_structural   ErU3As6Ru7
_chemical_formula_sum   'Er1 U3 As6 Ru7'
_cell_volume   288.24188406
_cell_formula_units_Z   1
loop_
 _symmetry_equiv_pos_site_id
 _symmetry_equiv_pos_as_xyz
  1  'x, y, z'
loop_
 _atom_site_type_symbol
 _atom_site_label
 _atom_site_symmetry_multiplicity
 _atom_site_fract_x
 _atom_site_fract_y
 _atom_site_fract_z
 _atom_site_occupancy
  Er  Er0  1  0.500000  0.000000  0.000000  1
  U  U1  1  0.000000  0.000000  0.500000  1
  U  U2  1  0.000000  0.500000  0.000000  1
  U  U3  1  0.500000  0.500000  0.500000  1
  As  As4  1  0.311791  0.000000  0.307486  1
  As  As5  1  0.995695  0.307486  0.307486  1
  As  As6  1  0.004305  0.692514  0.692514  1
  As  As7  1  0.311791  0.307486  0.000000  1
  As  As8  1  0.688209  0.692514  0.000000  1
  As  As9  1  0.688209  0.000000  0.692514  1
  Ru  Ru10  1  0.753074  0.506149  0.253074  1
  Ru  Ru11  1  0.500000  0.746926  0.253074  1
  Ru  Ru12  1  0.500000  0.253074  0.746926  1
  Ru  Ru13  1  0.753074  0.253074  0.506149  1
  Ru  Ru14  1  0.246926  0.746926  0.493851  1
  Ru  Ru15  1  0.246926  0.493851  0.746926  1
  Ru  Ru16  1  0.000000  0.000000  0.000000  1
