# generated using pymatgen
data_Tm5(SiBi)2
_symmetry_space_group_name_H-M   'P 1'
_cell_length_a   8.53905038
_cell_length_b   8.53905054
_cell_length_c   7.81992900
_cell_angle_alpha   90.00000000
_cell_angle_beta   90.00000000
_cell_angle_gamma   125.62045862
_symmetry_Int_Tables_number   1
_chemical_formula_structural   Tm5(SiBi)2
_chemical_formula_sum   'Tm10 Si4 Bi4'
_cell_volume   463.50590737
_cell_formula_units_Z   2
loop_
 _symmetry_equiv_pos_site_id
 _symmetry_equiv_pos_as_xyz
  1  'x, y, z'
loop_
 _atom_site_type_symbol
 _atom_site_label
 _atom_site_symmetry_multiplicity
 _atom_site_fract_x
 _atom_site_fract_y
 _atom_site_fract_z
 _atom_site_occupancy
  Tm  Tm0  1  0.543597  0.785808  0.164481  1
  Tm  Tm1  1  0.285808  0.043597  0.335519  1
  Tm  Tm2  1  0.214192  0.456403  0.835519  1
  Tm  Tm3  1  0.956403  0.714192  0.664481  1
  Tm  Tm4  1  0.714192  0.956403  0.664481  1
  Tm  Tm5  1  0.456403  0.214192  0.835519  1
  Tm  Tm6  1  0.785808  0.543597  0.164481  1
  Tm  Tm7  1  0.043597  0.285808  0.335519  1
  Tm  Tm8  1  0.500000  0.500000  0.500000  1
  Tm  Tm9  1  0.000000  0.000000  0.000000  1
  Si  Si10  1  0.633944  0.633944  0.867218  1
  Si  Si11  1  0.133944  0.133944  0.632782  1
  Si  Si12  1  0.866056  0.866056  0.367218  1
  Si  Si13  1  0.366056  0.366056  0.132782  1
  Bi  Bi14  1  0.292389  0.707611  0.500000  1
  Bi  Bi15  1  0.207611  0.792389  0.000000  1
  Bi  Bi16  1  0.707611  0.292389  0.500000  1
  Bi  Bi17  1  0.792389  0.207611  0.000000  1
