# generated using pymatgen
data_Tm12AlCo5
_symmetry_space_group_name_H-M   'P 1'
_cell_length_a   8.11469677
_cell_length_b   8.11469701
_cell_length_c   8.11469618
_cell_angle_alpha   111.05949612
_cell_angle_beta   110.84697679
_cell_angle_gamma   106.54626387
_symmetry_Int_Tables_number   1
_chemical_formula_structural   Tm12AlCo5
_chemical_formula_sum   'Tm12 Al1 Co5'
_cell_volume   410.53409005
_cell_formula_units_Z   1
loop_
 _symmetry_equiv_pos_site_id
 _symmetry_equiv_pos_as_xyz
  1  'x, y, z'
loop_
 _atom_site_type_symbol
 _atom_site_label
 _atom_site_symmetry_multiplicity
 _atom_site_fract_x
 _atom_site_fract_y
 _atom_site_fract_z
 _atom_site_occupancy
  Tm  Tm0  1  0.289048  0.186405  0.475453  1
  Tm  Tm1  1  0.710952  0.813595  0.524547  1
  Tm  Tm2  1  0.289048  0.813595  0.102643  1
  Tm  Tm3  1  0.710952  0.186405  0.897357  1
  Tm  Tm4  1  0.618929  0.315721  0.303207  1
  Tm  Tm5  1  0.381071  0.684279  0.696793  1
  Tm  Tm6  1  0.012514  0.315721  0.696793  1
  Tm  Tm7  1  0.987486  0.684279  0.303207  1
  Tm  Tm8  1  0.215457  0.407035  0.191579  1
  Tm  Tm9  1  0.784543  0.592965  0.808421  1
  Tm  Tm10  1  0.215457  0.023879  0.808421  1
  Tm  Tm11  1  0.784543  0.976121  0.191579  1
  Al  Al12  1  0.500000  0.500000  0.000000  1
  Co  Co13  1  0.000000  0.375056  0.375056  1
  Co  Co14  1  0.000000  0.624944  0.624944  1
  Co  Co15  1  0.386271  0.886271  0.500000  1
  Co  Co16  1  0.613729  0.113729  0.500000  1
  Co  Co17  1  0.000000  0.000000  0.000000  1
