# generated using pymatgen
data_Yb2Dy3Sn3Cl
_symmetry_space_group_name_H-M   'P 1'
_cell_length_a   9.05490399
_cell_length_b   9.04755174
_cell_length_c   6.83179200
_cell_angle_alpha   90.00000000
_cell_angle_beta   90.00000000
_cell_angle_gamma   119.97315393
_symmetry_Int_Tables_number   1
_chemical_formula_structural   Yb2Dy3Sn3Cl
_chemical_formula_sum   'Yb4 Dy6 Sn6 Cl2'
_cell_volume   484.83907491
_cell_formula_units_Z   2
loop_
 _symmetry_equiv_pos_site_id
 _symmetry_equiv_pos_as_xyz
  1  'x, y, z'
loop_
 _atom_site_type_symbol
 _atom_site_label
 _atom_site_symmetry_multiplicity
 _atom_site_fract_x
 _atom_site_fract_y
 _atom_site_fract_z
 _atom_site_occupancy
  Yb  Yb0  1  0.253115  0.252622  0.750000  1
  Yb  Yb1  1  0.000000  0.747091  0.750000  1
  Yb  Yb2  1  0.746885  0.999507  0.750000  1
  Yb  Yb3  1  0.000000  0.255297  0.250000  1
  Dy  Dy4  1  0.333063  0.666128  0.502611  1
  Dy  Dy5  1  0.742906  0.742732  0.250000  1
  Dy  Dy6  1  0.666937  0.333064  0.502611  1
  Dy  Dy7  1  0.257094  0.999826  0.250000  1
  Dy  Dy8  1  0.333063  0.666128  0.997389  1
  Dy  Dy9  1  0.666937  0.333064  0.997389  1
  Sn  Sn10  1  0.601418  0.996385  0.250000  1
  Sn  Sn11  1  0.000000  0.397606  0.750000  1
  Sn  Sn12  1  0.395384  0.999959  0.750000  1
  Sn  Sn13  1  0.604616  0.604575  0.750000  1
  Sn  Sn14  1  0.000000  0.609622  0.250000  1
  Sn  Sn15  1  0.398582  0.394967  0.250000  1
  Cl  Cl16  1  0.000000  0.000714  0.002980  1
  Cl  Cl17  1  0.000000  0.000714  0.497020  1
