# generated using pymatgen
data_TbSm2Er3Ta2O14
_symmetry_space_group_name_H-M   'P 1'
_cell_length_a   6.46499254
_cell_length_b   6.47146185
_cell_length_c   7.55280700
_cell_angle_alpha   90.00000000
_cell_angle_beta   90.00000000
_cell_angle_gamma   109.32318521
_symmetry_Int_Tables_number   1
_chemical_formula_structural   TbSm2Er3Ta2O14
_chemical_formula_sum   'Tb1 Sm2 Er3 Ta2 O14'
_cell_volume   298.19313272
_cell_formula_units_Z   1
loop_
 _symmetry_equiv_pos_site_id
 _symmetry_equiv_pos_as_xyz
  1  'x, y, z'
loop_
 _atom_site_type_symbol
 _atom_site_label
 _atom_site_symmetry_multiplicity
 _atom_site_fract_x
 _atom_site_fract_y
 _atom_site_fract_z
 _atom_site_occupancy
  Tb  Tb0  1  0.999769  0.465816  0.750000  1
  Sm  Sm1  1  0.503741  0.503258  0.499339  1
  Sm  Sm2  1  0.503741  0.503258  0.000661  1
  Er  Er3  1  0.533230  0.001487  0.750000  1
  Er  Er4  1  0.001215  0.534005  0.250000  1
  Er  Er5  1  0.466473  0.998967  0.250000  1
  Ta  Ta6  1  0.000331  0.000509  0.499214  1
  Ta  Ta7  1  0.000331  0.000509  0.000786  1
  O  O8  1  0.678211  0.931367  0.466616  1
  O  O9  1  0.925332  0.676694  0.529183  1
  O  O10  1  0.678211  0.931367  0.033384  1
  O  O11  1  0.925332  0.676694  0.970817  1
  O  O12  1  0.320229  0.067052  0.534159  1
  O  O13  1  0.070334  0.320572  0.464693  1
  O  O14  1  0.320229  0.067052  0.965841  1
  O  O15  1  0.070334  0.320572  0.035307  1
  O  O16  1  0.933491  0.064402  0.750000  1
  O  O17  1  0.068507  0.933982  0.250000  1
  O  O18  1  0.369851  0.637446  0.750000  1
  O  O19  1  0.634633  0.364485  0.250000  1
  O  O20  1  0.638408  0.357532  0.750000  1
  O  O21  1  0.358066  0.642973  0.250000  1
