# generated using pymatgen
data_Eu3Dy2Zr3(P3Ir4)4
_symmetry_space_group_name_H-M   'P 1'
_cell_length_a   12.94718503
_cell_length_b   12.94456425
_cell_length_c   4.01633500
_cell_angle_alpha   90.00006534
_cell_angle_beta   90.00002312
_cell_angle_gamma   119.99866378
_symmetry_Int_Tables_number   1
_chemical_formula_structural   Eu3Dy2Zr3(P3Ir4)4
_chemical_formula_sum   'Eu3 Dy2 Zr3 P12 Ir16'
_cell_volume   582.94717096
_cell_formula_units_Z   1
loop_
 _symmetry_equiv_pos_site_id
 _symmetry_equiv_pos_as_xyz
  1  'x, y, z'
loop_
 _atom_site_type_symbol
 _atom_site_label
 _atom_site_symmetry_multiplicity
 _atom_site_fract_x
 _atom_site_fract_y
 _atom_site_fract_z
 _atom_site_occupancy
  Eu  Eu0  1  0.000017  0.816610  0.000000  1
  Eu  Eu1  1  0.183433  0.183429  0.000000  1
  Eu  Eu2  1  0.816596  0.000013  0.999999  1
  Dy  Dy3  1  0.333340  0.666662  0.500000  1
  Dy  Dy4  1  0.666663  0.333330  0.500000  1
  Zr  Zr5  1  0.000011  0.450463  0.500001  1
  Zr  Zr6  1  0.549574  0.549551  0.500000  1
  Zr  Zr7  1  0.450442  0.999989  0.500000  1
  P  P8  1  0.999984  0.648882  0.500000  1
  P  P9  1  0.351122  0.351139  0.500000  1
  P  P10  1  0.648865  0.000002  0.500000  1
  P  P11  1  0.517610  0.687488  0.000000  1
  P  P12  1  0.312513  0.830121  0.000000  1
  P  P13  1  0.169877  0.482415  0.000000  1
  P  P14  1  0.482399  0.169866  0.000000  1
  P  P15  1  0.687492  0.517604  0.000000  1
  P  P16  1  0.830122  0.312527  0.000000  1
  P  P17  1  0.999982  0.179060  0.500000  1
  P  P18  1  0.820880  0.820881  0.500000  1
  P  P19  1  0.179086  0.999985  0.500000  1
  Ir  Ir20  1  0.506370  0.864033  0.000000  1
  Ir  Ir21  1  0.135967  0.642361  0.000000  1
  Ir  Ir22  1  0.357633  0.493618  0.000000  1
  Ir  Ir23  1  0.493659  0.357657  0.000000  1
  Ir  Ir24  1  0.864040  0.506419  0.000000  1
  Ir  Ir25  1  0.642343  0.135956  0.000000  1
  Ir  Ir26  1  0.999978  0.281737  0.000000  1
  Ir  Ir27  1  0.718278  0.718271  0.000000  1
  Ir  Ir28  1  0.281745  0.999974  0.000000  1
  Ir  Ir29  1  0.624636  0.803414  0.500000  1
  Ir  Ir30  1  0.196540  0.821209  0.500000  1
  Ir  Ir31  1  0.178779  0.375382  0.500000  1
  Ir  Ir32  1  0.375375  0.178780  0.500000  1
  Ir  Ir33  1  0.803444  0.624657  0.500000  1
  Ir  Ir34  1  0.821217  0.196580  0.500000  1
  Ir  Ir35  1  0.999986  0.999938  0.500000  1
