# generated using pymatgen
data_Sc4Zn5Tc3
_symmetry_space_group_name_H-M   'P 1'
_cell_length_a   5.22784100
_cell_length_b   5.22784115
_cell_length_c   8.60794400
_cell_angle_alpha   90.00000000
_cell_angle_beta   90.00000000
_cell_angle_gamma   120.00000536
_symmetry_Int_Tables_number   1
_chemical_formula_structural   Sc4Zn5Tc3
_chemical_formula_sum   'Sc4 Zn5 Tc3'
_cell_volume   203.73929298
_cell_formula_units_Z   1
loop_
 _symmetry_equiv_pos_site_id
 _symmetry_equiv_pos_as_xyz
  1  'x, y, z'
loop_
 _atom_site_type_symbol
 _atom_site_label
 _atom_site_symmetry_multiplicity
 _atom_site_fract_x
 _atom_site_fract_y
 _atom_site_fract_z
 _atom_site_occupancy
  Sc  Sc0  1  0.333333  0.666667  0.438950  1
  Sc  Sc1  1  0.666667  0.333333  0.573974  1
  Sc  Sc2  1  0.666667  0.333333  0.926026  1
  Sc  Sc3  1  0.333333  0.666667  0.061050  1
  Zn  Zn4  1  0.000000  0.000000  0.494117  1
  Zn  Zn5  1  0.000000  0.000000  0.005883  1
  Zn  Zn6  1  0.828512  0.171488  0.250000  1
  Zn  Zn7  1  0.828512  0.657025  0.250000  1
  Zn  Zn8  1  0.342975  0.171488  0.250000  1
  Tc  Tc9  1  0.170597  0.829403  0.750000  1
  Tc  Tc10  1  0.170597  0.341194  0.750000  1
  Tc  Tc11  1  0.658806  0.829403  0.750000  1
