# generated using pymatgen
data_Tb16In4RuRh3
_symmetry_space_group_name_H-M   'P 1'
_cell_length_a   9.70843445
_cell_length_b   9.70824050
_cell_length_c   9.70843400
_cell_angle_alpha   59.99934067
_cell_angle_beta   60.00000155
_cell_angle_gamma   59.99933819
_symmetry_Int_Tables_number   1
_chemical_formula_structural   Tb16In4RuRh3
_chemical_formula_sum   'Tb16 In4 Ru1 Rh3'
_cell_volume   647.02279728
_cell_formula_units_Z   1
loop_
 _symmetry_equiv_pos_site_id
 _symmetry_equiv_pos_as_xyz
  1  'x, y, z'
loop_
 _atom_site_type_symbol
 _atom_site_label
 _atom_site_symmetry_multiplicity
 _atom_site_fract_x
 _atom_site_fract_y
 _atom_site_fract_z
 _atom_site_occupancy
  Tb  Tb0  1  0.810831  0.810683  0.189243  1
  Tb  Tb1  1  0.810962  0.191181  0.810962  1
  Tb  Tb2  1  0.186895  0.191181  0.810962  1
  Tb  Tb3  1  0.650188  0.049435  0.650188  1
  Tb  Tb4  1  0.062596  0.062333  0.437536  1
  Tb  Tb5  1  0.439842  0.437267  0.061446  1
  Tb  Tb6  1  0.651024  0.649394  0.651024  1
  Tb  Tb7  1  0.810962  0.191181  0.186895  1
  Tb  Tb8  1  0.189243  0.810683  0.810831  1
  Tb  Tb9  1  0.048557  0.649394  0.651024  1
  Tb  Tb10  1  0.437536  0.062333  0.062596  1
  Tb  Tb11  1  0.437536  0.062333  0.437536  1
  Tb  Tb12  1  0.061446  0.437267  0.061446  1
  Tb  Tb13  1  0.651024  0.649394  0.048557  1
  Tb  Tb14  1  0.189243  0.810683  0.189243  1
  Tb  Tb15  1  0.061446  0.437267  0.439842  1
  In  In16  1  0.417607  0.417253  0.417607  1
  In  In17  1  0.417607  0.417253  0.747532  1
  In  In18  1  0.417838  0.746484  0.417838  1
  In  In19  1  0.747532  0.417253  0.417607  1
  Ru  Ru20  1  0.857849  0.426454  0.857849  1
  Rh  Rh21  1  0.857793  0.857764  0.857793  1
  Rh  Rh22  1  0.857793  0.857764  0.426651  1
  Rh  Rh23  1  0.426651  0.857764  0.857793  1
