# generated using pymatgen
data_Hf8Al14SiOs7
_symmetry_space_group_name_H-M   'P 1'
_cell_length_a   8.85344903
_cell_length_b   8.85344952
_cell_length_c   8.85344800
_cell_angle_alpha   120.24449019
_cell_angle_beta   119.74339951
_cell_angle_gamma   90.01103159
_symmetry_Int_Tables_number   1
_chemical_formula_structural   Hf8Al14SiOs7
_chemical_formula_sum   'Hf8 Al14 Si1 Os7'
_cell_volume   490.74041442
_cell_formula_units_Z   1
loop_
 _symmetry_equiv_pos_site_id
 _symmetry_equiv_pos_as_xyz
  1  'x, y, z'
loop_
 _atom_site_type_symbol
 _atom_site_label
 _atom_site_symmetry_multiplicity
 _atom_site_fract_x
 _atom_site_fract_y
 _atom_site_fract_z
 _atom_site_occupancy
  Hf  Hf0  1  0.803772  0.292892  0.082106  1
  Hf  Hf1  1  0.210786  0.292892  0.489120  1
  Hf  Hf2  1  0.200890  0.700890  0.500000  1
  Hf  Hf3  1  0.210786  0.721666  0.917894  1
  Hf  Hf4  1  0.803772  0.721666  0.510880  1
  Hf  Hf5  1  0.781122  0.281122  0.500000  1
  Hf  Hf6  1  0.379189  0.119402  0.740213  1
  Hf  Hf7  1  0.379189  0.638976  0.259787  1
  Al  Al8  1  0.163661  0.332801  0.169140  1
  Al  Al9  1  0.163661  0.994521  0.830860  1
  Al  Al10  1  0.155301  0.340078  0.815222  1
  Al  Al11  1  0.524856  0.340078  0.184778  1
  Al  Al12  1  0.837255  0.660879  0.823624  1
  Al  Al13  1  0.837255  0.013632  0.176376  1
  Al  Al14  1  0.835145  0.662335  0.172809  1
  Al  Al15  1  0.489525  0.662335  0.827191  1
  Al  Al16  1  0.378548  0.121195  0.257352  1
  Al  Al17  1  0.863845  0.121195  0.742648  1
  Al  Al18  1  0.619566  0.873429  0.253861  1
  Al  Al19  1  0.619566  0.365705  0.746139  1
  Al  Al20  1  0.621449  0.879696  0.741754  1
  Al  Al21  1  0.137940  0.879696  0.258246  1
  Si  Si22  1  0.991116  0.491116  0.500000  1
  Os  Os23  1  0.994966  0.997029  0.498920  1
  Os  Os24  1  0.498109  0.997029  0.002063  1
  Os  Os25  1  0.498622  0.498622  0.000000  1
  Os  Os26  1  0.498109  0.496046  0.501080  1
  Os  Os27  1  0.994966  0.496046  0.997937  1
  Os  Os28  1  0.999632  0.999632  0.000000  1
  Os  Os29  1  0.507395  0.007395  0.500000  1
