# generated using pymatgen
data_Er10Bi4RuRh
_symmetry_space_group_name_H-M   'P 1'
_cell_length_a   7.92791980
_cell_length_b   8.96854200
_cell_length_c   12.37516549
_cell_angle_alpha   90.00000000
_cell_angle_beta   89.81926139
_cell_angle_gamma   90.00000000
_symmetry_Int_Tables_number   1
_chemical_formula_structural   Er10Bi4RuRh
_chemical_formula_sum   'Er20 Bi8 Ru2 Rh2'
_cell_volume   879.89317474
_cell_formula_units_Z   2
loop_
 _symmetry_equiv_pos_site_id
 _symmetry_equiv_pos_as_xyz
  1  'x, y, z'
loop_
 _atom_site_type_symbol
 _atom_site_label
 _atom_site_symmetry_multiplicity
 _atom_site_fract_x
 _atom_site_fract_y
 _atom_site_fract_z
 _atom_site_occupancy
  Er  Er0  1  0.659628  0.750000  0.706246  1
  Er  Er1  1  0.340372  0.250000  0.293754  1
  Er  Er2  1  0.164046  0.250000  0.790745  1
  Er  Er3  1  0.835954  0.750000  0.209255  1
  Er  Er4  1  0.127518  0.750000  0.809881  1
  Er  Er5  1  0.872482  0.250000  0.190119  1
  Er  Er6  1  0.624508  0.250000  0.691127  1
  Er  Er7  1  0.375492  0.750000  0.308873  1
  Er  Er8  1  0.550644  0.750000  0.997879  1
  Er  Er9  1  0.449356  0.250000  0.002121  1
  Er  Er10  1  0.055551  0.250000  0.503369  1
  Er  Er11  1  0.944449  0.750000  0.496631  1
  Er  Er12  1  0.825268  0.455930  0.932743  1
  Er  Er13  1  0.174732  0.544070  0.067257  1
  Er  Er14  1  0.326425  0.542846  0.565190  1
  Er  Er15  1  0.174732  0.955930  0.067257  1
  Er  Er16  1  0.673575  0.457154  0.434810  1
  Er  Er17  1  0.825268  0.044070  0.932743  1
  Er  Er18  1  0.673575  0.042846  0.434810  1
  Er  Er19  1  0.326425  0.957154  0.565190  1
  Bi  Bi20  1  0.934211  0.007265  0.672976  1
  Bi  Bi21  1  0.065789  0.992735  0.327024  1
  Bi  Bi22  1  0.434417  0.992080  0.827498  1
  Bi  Bi23  1  0.065789  0.507265  0.327024  1
  Bi  Bi24  1  0.565583  0.007920  0.172502  1
  Bi  Bi25  1  0.934211  0.492735  0.672976  1
  Bi  Bi26  1  0.565583  0.492080  0.172502  1
  Bi  Bi27  1  0.434417  0.507920  0.827498  1
  Ru  Ru28  1  0.424767  0.250000  0.510706  1
  Ru  Ru29  1  0.575233  0.750000  0.489294  1
  Rh  Rh30  1  0.927276  0.750000  0.991140  1
  Rh  Rh31  1  0.072724  0.250000  0.008860  1
