# generated using pymatgen
data_Ba2Ni3MoP4
_symmetry_space_group_name_H-M   'P 1'
_cell_length_a   5.58898092
_cell_length_b   6.82490806
_cell_length_c   5.59202780
_cell_angle_alpha   65.65237680
_cell_angle_beta   90.01945912
_cell_angle_gamma   90.01123843
_symmetry_Int_Tables_number   1
_chemical_formula_structural   Ba2Ni3MoP4
_chemical_formula_sum   'Ba2 Ni3 Mo1 P4'
_cell_volume   194.33281656
_cell_formula_units_Z   1
loop_
 _symmetry_equiv_pos_site_id
 _symmetry_equiv_pos_as_xyz
  1  'x, y, z'
loop_
 _atom_site_type_symbol
 _atom_site_label
 _atom_site_symmetry_multiplicity
 _atom_site_fract_x
 _atom_site_fract_y
 _atom_site_fract_z
 _atom_site_occupancy
  Ba  Ba0  1  0.992406  0.000071  0.000113  1
  Ba  Ba1  1  0.507770  0.000050  0.499826  1
  Ni  Ni2  1  0.249616  0.498696  0.000703  1
  Ni  Ni3  1  0.750425  0.500898  0.999417  1
  Ni  Ni4  1  0.749676  0.500884  0.499656  1
  Mo  Mo5  1  0.250099  0.499522  0.500221  1
  P  P6  1  0.503545  0.691046  0.148647  1
  P  P7  1  0.996611  0.690911  0.658638  1
  P  P8  1  0.995302  0.309150  0.341435  1
  P  P9  1  0.504549  0.308770  0.851346  1
