# generated using pymatgen
data_Ba2Cd21Rh
_symmetry_space_group_name_H-M   'P 1'
_cell_length_a   9.45643410
_cell_length_b   9.49557430
_cell_length_c   9.49557400
_cell_angle_alpha   99.48092634
_cell_angle_beta   100.08113059
_cell_angle_gamma   131.58232149
_symmetry_Int_Tables_number   1
_chemical_formula_structural   Ba2Cd21Rh
_chemical_formula_sum   'Ba2 Cd21 Rh1'
_cell_volume   580.46715822
_cell_formula_units_Z   1
loop_
 _symmetry_equiv_pos_site_id
 _symmetry_equiv_pos_as_xyz
  1  'x, y, z'
loop_
 _atom_site_type_symbol
 _atom_site_label
 _atom_site_symmetry_multiplicity
 _atom_site_fract_x
 _atom_site_fract_y
 _atom_site_fract_z
 _atom_site_occupancy
  Ba  Ba0  1  0.748106  0.249231  0.498874  1
  Ba  Ba1  1  0.501894  0.500769  0.001126  1
  Cd  Cd2  1  0.922137  0.008843  0.329817  1
  Cd  Cd3  1  0.681156  0.612589  0.681003  1
  Cd  Cd4  1  0.275205  0.760460  0.514744  1
  Cd  Cd5  1  0.974795  0.989540  0.985256  1
  Cd  Cd6  1  0.125000  0.875000  0.250000  1
  Cd  Cd7  1  0.125000  0.375000  0.250000  1
  Cd  Cd8  1  0.125000  0.875000  0.750000  1
  Cd  Cd9  1  0.922137  0.592322  0.913295  1
  Cd  Cd10  1  0.849020  0.431822  0.175848  1
  Cd  Cd11  1  0.267049  0.676541  0.825578  1
  Cd  Cd12  1  0.681156  0.000153  0.068567  1
  Cd  Cd13  1  0.400980  0.076829  0.082801  1
  Cd  Cd14  1  0.982951  0.308528  0.909493  1
  Cd  Cd15  1  0.568844  0.137411  0.818997  1
  Cd  Cd16  1  0.327863  0.741157  0.170183  1
  Cd  Cd17  1  0.327863  0.157678  0.586705  1
  Cd  Cd18  1  0.400980  0.318178  0.324152  1
  Cd  Cd19  1  0.982951  0.073459  0.674422  1
  Cd  Cd20  1  0.568844  0.749847  0.431433  1
  Cd  Cd21  1  0.849020  0.673171  0.417199  1
  Cd  Cd22  1  0.267049  0.441472  0.590507  1
  Rh  Rh23  1  0.625000  0.875000  0.750000  1
