# generated using pymatgen
data_Y3Mn2Al6Ni7
_symmetry_space_group_name_H-M   'P 1'
_cell_length_a   9.02987072
_cell_length_b   9.02987055
_cell_length_c   3.97632200
_cell_angle_alpha   90.00000000
_cell_angle_beta   90.00000000
_cell_angle_gamma   120.76936615
_symmetry_Int_Tables_number   1
_chemical_formula_structural   Y3Mn2Al6Ni7
_chemical_formula_sum   'Y3 Mn2 Al6 Ni7'
_cell_volume   278.58377958
_cell_formula_units_Z   1
loop_
 _symmetry_equiv_pos_site_id
 _symmetry_equiv_pos_as_xyz
  1  'x, y, z'
loop_
 _atom_site_type_symbol
 _atom_site_label
 _atom_site_symmetry_multiplicity
 _atom_site_fract_x
 _atom_site_fract_y
 _atom_site_fract_z
 _atom_site_occupancy
  Y  Y0  1  0.000000  0.000000  0.000000  1
  Y  Y1  1  0.331332  0.668668  0.500000  1
  Y  Y2  1  0.668668  0.331332  0.500000  1
  Mn  Mn3  1  0.500000  0.000000  0.000000  1
  Mn  Mn4  1  0.000000  0.500000  0.000000  1
  Al  Al5  1  0.324022  0.324022  0.500000  1
  Al  Al6  1  0.695470  0.996725  0.500000  1
  Al  Al7  1  0.675978  0.675978  0.500000  1
  Al  Al8  1  0.003275  0.304530  0.500000  1
  Al  Al9  1  0.996725  0.695470  0.500000  1
  Al  Al10  1  0.304530  0.003275  0.500000  1
  Ni  Ni11  1  0.182087  0.362491  0.000000  1
  Ni  Ni12  1  0.817913  0.637509  0.000000  1
  Ni  Ni13  1  0.179435  0.820565  0.000000  1
  Ni  Ni14  1  0.637509  0.817913  0.000000  1
  Ni  Ni15  1  0.362491  0.182087  0.000000  1
  Ni  Ni16  1  0.820565  0.179435  0.000000  1
  Ni  Ni17  1  0.500000  0.500000  0.000000  1
