# generated using pymatgen
data_Cs5U18O54
_symmetry_space_group_name_H-M   'P 1'
_cell_length_a   8.09570800
_cell_length_b   8.09570768
_cell_length_c   25.03485300
_cell_angle_alpha   90.00000000
_cell_angle_beta   90.00000000
_cell_angle_gamma   119.99999313
_symmetry_Int_Tables_number   1
_chemical_formula_structural   Cs5U18O54
_chemical_formula_sum   'Cs5 U18 O54'
_cell_volume   1420.97147950
_cell_formula_units_Z   1
loop_
 _symmetry_equiv_pos_site_id
 _symmetry_equiv_pos_as_xyz
  1  'x, y, z'
loop_
 _atom_site_type_symbol
 _atom_site_label
 _atom_site_symmetry_multiplicity
 _atom_site_fract_x
 _atom_site_fract_y
 _atom_site_fract_z
 _atom_site_occupancy
  Cs  Cs0  1  0.000000  0.000000  0.500000  1
  Cs  Cs1  1  0.000000  0.000000  0.146638  1
  Cs  Cs2  1  0.000000  0.000000  0.327856  1
  Cs  Cs3  1  0.000000  0.000000  0.672144  1
  Cs  Cs4  1  0.000000  0.000000  0.853362  1
  U  U5  1  0.000000  0.500000  0.916893  1
  U  U6  1  0.000000  0.500000  0.583407  1
  U  U7  1  0.000000  0.500000  0.249798  1
  U  U8  1  0.000000  0.500000  0.750202  1
  U  U9  1  0.000000  0.500000  0.083107  1
  U  U10  1  0.000000  0.500000  0.416593  1
  U  U11  1  0.500000  0.500000  0.249798  1
  U  U12  1  0.500000  0.500000  0.916893  1
  U  U13  1  0.500000  0.500000  0.583407  1
  U  U14  1  0.500000  0.500000  0.416593  1
  U  U15  1  0.500000  0.500000  0.083107  1
  U  U16  1  0.500000  0.500000  0.750202  1
  U  U17  1  0.500000  0.000000  0.083107  1
  U  U18  1  0.500000  0.000000  0.416593  1
  U  U19  1  0.500000  0.000000  0.750202  1
  U  U20  1  0.500000  0.000000  0.249798  1
  U  U21  1  0.500000  0.000000  0.583407  1
  U  U22  1  0.500000  0.000000  0.916893  1
  O  O23  1  0.000000  0.500000  0.666733  1
  O  O24  1  0.000000  0.500000  0.333267  1
  O  O25  1  0.000000  0.500000  0.000000  1
  O  O26  1  0.000000  0.500000  0.166567  1
  O  O27  1  0.000000  0.500000  0.833433  1
  O  O28  1  0.000000  0.500000  0.500000  1
  O  O29  1  0.209209  0.790791  0.084643  1
  O  O30  1  0.207832  0.792168  0.749704  1
  O  O31  1  0.207441  0.792559  0.416717  1
  O  O32  1  0.209209  0.790791  0.915357  1
  O  O33  1  0.207441  0.792559  0.583283  1
  O  O34  1  0.207832  0.792168  0.250296  1
  O  O35  1  0.207832  0.415664  0.250296  1
  O  O36  1  0.207441  0.414883  0.583283  1
  O  O37  1  0.209209  0.418418  0.915357  1
  O  O38  1  0.207441  0.414883  0.416717  1
  O  O39  1  0.209209  0.418418  0.084643  1
  O  O40  1  0.207832  0.415664  0.749704  1
  O  O41  1  0.585117  0.792559  0.416717  1
  O  O42  1  0.584336  0.792168  0.749704  1
  O  O43  1  0.581582  0.790791  0.084643  1
  O  O44  1  0.585117  0.792559  0.583283  1
  O  O45  1  0.584336  0.792168  0.250296  1
  O  O46  1  0.581582  0.790791  0.915357  1
  O  O47  1  0.500000  0.500000  0.666733  1
  O  O48  1  0.500000  0.500000  0.833433  1
  O  O49  1  0.500000  0.500000  0.166567  1
  O  O50  1  0.500000  0.500000  0.333267  1
  O  O51  1  0.500000  0.500000  0.000000  1
  O  O52  1  0.500000  0.500000  0.500000  1
  O  O53  1  0.418418  0.209209  0.084643  1
  O  O54  1  0.414883  0.207441  0.416717  1
  O  O55  1  0.415664  0.207832  0.749704  1
  O  O56  1  0.414883  0.207441  0.583283  1
  O  O57  1  0.415664  0.207832  0.250296  1
  O  O58  1  0.418418  0.209209  0.915357  1
  O  O59  1  0.790791  0.581582  0.915357  1
  O  O60  1  0.792168  0.584336  0.250296  1
  O  O61  1  0.792559  0.585117  0.583283  1
  O  O62  1  0.500000  0.000000  0.666733  1
  O  O63  1  0.500000  0.000000  0.000000  1
  O  O64  1  0.500000  0.000000  0.833433  1
  O  O65  1  0.500000  0.000000  0.166567  1
  O  O66  1  0.500000  0.000000  0.333267  1
  O  O67  1  0.500000  0.000000  0.500000  1
  O  O68  1  0.792168  0.584336  0.749704  1
  O  O69  1  0.792559  0.585117  0.416717  1
  O  O70  1  0.790791  0.581582  0.084643  1
  O  O71  1  0.792168  0.207832  0.749704  1
  O  O72  1  0.790791  0.209209  0.084643  1
  O  O73  1  0.792559  0.207441  0.416717  1
  O  O74  1  0.792168  0.207832  0.250296  1
  O  O75  1  0.790791  0.209209  0.915357  1
  O  O76  1  0.792559  0.207441  0.583283  1
