# generated using pymatgen
data_Zr10Pb6C
_symmetry_space_group_name_H-M   'P 1'
_cell_length_a   8.64260200
_cell_length_b   8.64260210
_cell_length_c   5.89372000
_cell_angle_alpha   90.00000000
_cell_angle_beta   90.00000000
_cell_angle_gamma   119.99999962
_symmetry_Int_Tables_number   1
_chemical_formula_structural   Zr10Pb6C
_chemical_formula_sum   'Zr10 Pb6 C1'
_cell_volume   381.24939686
_cell_formula_units_Z   1
loop_
 _symmetry_equiv_pos_site_id
 _symmetry_equiv_pos_as_xyz
  1  'x, y, z'
loop_
 _atom_site_type_symbol
 _atom_site_label
 _atom_site_symmetry_multiplicity
 _atom_site_fract_x
 _atom_site_fract_y
 _atom_site_fract_z
 _atom_site_occupancy
  Zr  Zr0  1  0.000000  0.773910  0.265037  1
  Zr  Zr1  1  0.226090  0.226090  0.265037  1
  Zr  Zr2  1  0.773910  0.000000  0.265037  1
  Zr  Zr3  1  0.000000  0.226090  0.734963  1
  Zr  Zr4  1  0.773910  0.773910  0.734963  1
  Zr  Zr5  1  0.226090  0.000000  0.734963  1
  Zr  Zr6  1  0.333333  0.666667  0.000000  1
  Zr  Zr7  1  0.666667  0.333333  0.000000  1
  Zr  Zr8  1  0.666667  0.333333  0.500000  1
  Zr  Zr9  1  0.333333  0.666667  0.500000  1
  Pb  Pb10  1  0.000000  0.397685  0.245683  1
  Pb  Pb11  1  0.602315  0.602315  0.245683  1
  Pb  Pb12  1  0.397685  0.000000  0.245683  1
  Pb  Pb13  1  0.000000  0.602315  0.754317  1
  Pb  Pb14  1  0.397685  0.397685  0.754317  1
  Pb  Pb15  1  0.602315  0.000000  0.754317  1
  C  C16  1  0.000000  0.000000  0.500000  1
