# generated using pymatgen
data_Ac3Bi4Pd3
_symmetry_space_group_name_H-M   'P 1'
_cell_length_a   9.08945583
_cell_length_b   9.08945648
_cell_length_c   9.08945600
_cell_angle_alpha   109.47122179
_cell_angle_beta   109.47122325
_cell_angle_gamma   109.47121972
_symmetry_Int_Tables_number   1
_chemical_formula_structural   Ac3Bi4Pd3
_chemical_formula_sum   'Ac6 Bi8 Pd6'
_cell_volume   578.08511090
_cell_formula_units_Z   2
loop_
 _symmetry_equiv_pos_site_id
 _symmetry_equiv_pos_as_xyz
  1  'x, y, z'
loop_
 _atom_site_type_symbol
 _atom_site_label
 _atom_site_symmetry_multiplicity
 _atom_site_fract_x
 _atom_site_fract_y
 _atom_site_fract_z
 _atom_site_occupancy
  Ac  Ac0  1  0.625000  0.375000  0.250000  1
  Ac  Ac1  1  0.250000  0.625000  0.375000  1
  Ac  Ac2  1  0.750000  0.875000  0.125000  1
  Ac  Ac3  1  0.875000  0.125000  0.750000  1
  Ac  Ac4  1  0.375000  0.250000  0.625000  1
  Ac  Ac5  1  0.125000  0.750000  0.875000  1
  Bi  Bi6  1  0.500000  0.000000  0.835052  1
  Bi  Bi7  1  0.164948  0.164948  0.164948  1
  Bi  Bi8  1  0.000000  0.835052  0.500000  1
  Bi  Bi9  1  0.500000  0.000000  0.335052  1
  Bi  Bi10  1  0.335052  0.500000  0.000000  1
  Bi  Bi11  1  0.835052  0.500000  0.000000  1
  Bi  Bi12  1  0.664948  0.664948  0.664948  1
  Bi  Bi13  1  0.000000  0.335052  0.500000  1
  Pd  Pd14  1  0.875000  0.250000  0.125000  1
  Pd  Pd15  1  0.250000  0.125000  0.875000  1
  Pd  Pd16  1  0.125000  0.875000  0.250000  1
  Pd  Pd17  1  0.625000  0.750000  0.375000  1
  Pd  Pd18  1  0.750000  0.375000  0.625000  1
  Pd  Pd19  1  0.375000  0.625000  0.750000  1
