# generated using pymatgen
data_Pr8Ho12Si15Ir
_symmetry_space_group_name_H-M   'P 1'
_cell_length_a   7.48365764
_cell_length_b   7.79936541
_cell_length_c   14.89151500
_cell_angle_alpha   90.00000000
_cell_angle_beta   90.00000000
_cell_angle_gamma   90.41536865
_symmetry_Int_Tables_number   1
_chemical_formula_structural   Pr8Ho12Si15Ir
_chemical_formula_sum   'Pr8 Ho12 Si15 Ir1'
_cell_volume   869.16183916
_cell_formula_units_Z   1
loop_
 _symmetry_equiv_pos_site_id
 _symmetry_equiv_pos_as_xyz
  1  'x, y, z'
loop_
 _atom_site_type_symbol
 _atom_site_label
 _atom_site_symmetry_multiplicity
 _atom_site_fract_x
 _atom_site_fract_y
 _atom_site_fract_z
 _atom_site_occupancy
  Pr  Pr0  1  0.019888  0.179600  0.401812  1
  Pr  Pr1  1  0.519100  0.323132  0.402223  1
  Pr  Pr2  1  0.476442  0.680556  0.903150  1
  Pr  Pr3  1  0.476442  0.680556  0.596850  1
  Pr  Pr4  1  0.981186  0.822040  0.597260  1
  Pr  Pr5  1  0.981186  0.822040  0.902740  1
  Pr  Pr6  1  0.519100  0.323132  0.097777  1
  Pr  Pr7  1  0.019888  0.179600  0.098188  1
  Ho  Ho8  1  0.320110  0.174982  0.624682  1
  Ho  Ho9  1  0.677518  0.820698  0.376936  1
  Ho  Ho10  1  0.641364  0.980279  0.750000  1
  Ho  Ho11  1  0.176175  0.678866  0.376397  1
  Ho  Ho12  1  0.826802  0.320698  0.876635  1
  Ho  Ho13  1  0.826802  0.320698  0.623365  1
  Ho  Ho14  1  0.843047  0.490544  0.250000  1
  Ho  Ho15  1  0.343798  0.012060  0.250000  1
  Ho  Ho16  1  0.320110  0.174982  0.875318  1
  Ho  Ho17  1  0.176175  0.678866  0.123603  1
  Ho  Ho18  1  0.677518  0.820698  0.123064  1
  Ho  Ho19  1  0.165495  0.522908  0.750000  1
  Si  Si20  1  0.468534  0.614868  0.250000  1
  Si  Si21  1  0.026893  0.105478  0.750000  1
  Si  Si22  1  0.535972  0.385483  0.750000  1
  Si  Si23  1  0.149083  0.467087  0.538127  1
  Si  Si24  1  0.969676  0.887207  0.250000  1
  Si  Si25  1  0.725268  0.120692  0.250000  1
  Si  Si26  1  0.853480  0.529924  0.039932  1
  Si  Si27  1  0.354450  0.969459  0.039931  1
  Si  Si28  1  0.149083  0.467087  0.961873  1
  Si  Si29  1  0.648380  0.035614  0.537429  1
  Si  Si30  1  0.354450  0.969459  0.460069  1
  Si  Si31  1  0.853480  0.529924  0.460068  1
  Si  Si32  1  0.773504  0.613684  0.750000  1
  Si  Si33  1  0.226630  0.381169  0.250000  1
  Si  Si34  1  0.648380  0.035614  0.962571  1
  Ir  Ir35  1  0.274590  0.880312  0.750000  1
