# generated using pymatgen
data_TbDy9(Sn3P)2
_symmetry_space_group_name_H-M   'P 1'
_cell_length_a   9.08246403
_cell_length_b   9.08246373
_cell_length_c   6.70327700
_cell_angle_alpha   90.00000000
_cell_angle_beta   90.00000000
_cell_angle_gamma   119.98997334
_symmetry_Int_Tables_number   1
_chemical_formula_structural   TbDy9(Sn3P)2
_chemical_formula_sum   'Tb1 Dy9 Sn6 P2'
_cell_volume   478.92667547
_cell_formula_units_Z   1
loop_
 _symmetry_equiv_pos_site_id
 _symmetry_equiv_pos_as_xyz
  1  'x, y, z'
loop_
 _atom_site_type_symbol
 _atom_site_label
 _atom_site_symmetry_multiplicity
 _atom_site_fract_x
 _atom_site_fract_y
 _atom_site_fract_z
 _atom_site_occupancy
  Tb  Tb0  1  0.758457  0.758457  0.750000  1
  Dy  Dy1  1  0.666654  0.333313  0.000008  1
  Dy  Dy2  1  0.333313  0.666654  0.000008  1
  Dy  Dy3  1  0.333313  0.666654  0.499992  1
  Dy  Dy4  1  0.666654  0.333313  0.499992  1
  Dy  Dy5  1  0.241376  0.000024  0.750000  1
  Dy  Dy6  1  0.000024  0.241376  0.750000  1
  Dy  Dy7  1  0.241355  0.241355  0.250000  1
  Dy  Dy8  1  0.758648  0.000008  0.250000  1
  Dy  Dy9  1  0.000008  0.758648  0.250000  1
  Sn  Sn10  1  0.398450  0.398450  0.750000  1
  Sn  Sn11  1  0.601444  0.000067  0.750000  1
  Sn  Sn12  1  0.000067  0.601444  0.750000  1
  Sn  Sn13  1  0.601488  0.601488  0.250000  1
  Sn  Sn14  1  0.398512  0.999992  0.250000  1
  Sn  Sn15  1  0.999992  0.398512  0.250000  1
  P  P16  1  0.000122  0.000122  0.000118  1
  P  P17  1  0.000122  0.000122  0.499882  1
