# generated using pymatgen
data_Mg2Ti(PPd)3
_symmetry_space_group_name_H-M   'P 1'
_cell_length_a   6.66629634
_cell_length_b   6.66629624
_cell_length_c   3.56450300
_cell_angle_alpha   90.00000000
_cell_angle_beta   90.00000000
_cell_angle_gamma   119.52609710
_symmetry_Int_Tables_number   1
_chemical_formula_structural   Mg2Ti(PPd)3
_chemical_formula_sum   'Mg2 Ti1 P3 Pd3'
_cell_volume   137.83293638
_cell_formula_units_Z   1
loop_
 _symmetry_equiv_pos_site_id
 _symmetry_equiv_pos_as_xyz
  1  'x, y, z'
loop_
 _atom_site_type_symbol
 _atom_site_label
 _atom_site_symmetry_multiplicity
 _atom_site_fract_x
 _atom_site_fract_y
 _atom_site_fract_z
 _atom_site_occupancy
  Mg  Mg0  1  0.595533  0.991664  0.000000  1
  Mg  Mg1  1  0.991664  0.595533  0.000000  1
  Ti  Ti2  1  0.399252  0.399252  0.000000  1
  P  P3  1  0.339072  0.639803  0.500000  1
  P  P4  1  0.639803  0.339072  0.500000  1
  P  P5  1  0.026408  0.026408  0.000000  1
  Pd  Pd6  1  0.266197  0.973737  0.500000  1
  Pd  Pd7  1  0.973737  0.266197  0.500000  1
  Pd  Pd8  1  0.768333  0.768333  0.500000  1
