# generated using pymatgen
data_Hf3Sc5TiNb11Si15P
_symmetry_space_group_name_H-M   'P 1'
_cell_length_a   6.68235903
_cell_length_b   6.86970316
_cell_length_c   13.12579700
_cell_angle_alpha   90.02422874
_cell_angle_beta   90.00581330
_cell_angle_gamma   90.07912254
_symmetry_Int_Tables_number   1
_chemical_formula_structural   Hf3Sc5TiNb11Si15P
_chemical_formula_sum   'Hf3 Sc5 Ti1 Nb11 Si15 P1'
_cell_volume   602.54988237
_cell_formula_units_Z   1
loop_
 _symmetry_equiv_pos_site_id
 _symmetry_equiv_pos_as_xyz
  1  'x, y, z'
loop_
 _atom_site_type_symbol
 _atom_site_label
 _atom_site_symmetry_multiplicity
 _atom_site_fract_x
 _atom_site_fract_y
 _atom_site_fract_z
 _atom_site_occupancy
  Hf  Hf0  1  0.499971  0.677274  0.594758  1
  Hf  Hf1  1  0.000200  0.825479  0.903706  1
  Hf  Hf2  1  0.499592  0.325409  0.095464  1
  Sc  Sc3  1  0.998091  0.173683  0.405612  1
  Sc  Sc4  1  0.500677  0.323226  0.406542  1
  Sc  Sc5  1  0.001905  0.172684  0.093958  1
  Sc  Sc6  1  0.499689  0.673308  0.905847  1
  Sc  Sc7  1  0.997026  0.823340  0.594192  1
  Ti  Ti8  1  0.663028  0.166590  0.622505  1
  Nb  Nb9  1  0.165062  0.328033  0.875316  1
  Nb  Nb10  1  0.336752  0.828091  0.124262  1
  Nb  Nb11  1  0.832678  0.675564  0.377197  1
  Nb  Nb12  1  0.340756  0.829013  0.377463  1
  Nb  Nb13  1  0.835676  0.672489  0.124177  1
  Nb  Nb14  1  0.664493  0.171594  0.874748  1
  Nb  Nb15  1  0.166114  0.331645  0.624395  1
  Nb  Nb16  1  0.838081  0.495648  0.750197  1
  Nb  Nb17  1  0.339057  0.003923  0.748548  1
  Nb  Nb18  1  0.162096  0.506127  0.250187  1
  Nb  Nb19  1  0.661435  0.996068  0.250806  1
  Si  Si20  1  0.169179  0.534263  0.038741  1
  Si  Si21  1  0.330645  0.033571  0.960396  1
  Si  Si22  1  0.828364  0.463014  0.540552  1
  Si  Si23  1  0.324773  0.035801  0.541023  1
  Si  Si24  1  0.830163  0.465400  0.960704  1
  Si  Si25  1  0.670573  0.966305  0.039139  1
  Si  Si26  1  0.169274  0.534751  0.460401  1
  Si  Si27  1  0.463706  0.385337  0.747946  1
  Si  Si28  1  0.959418  0.113954  0.747252  1
  Si  Si29  1  0.538655  0.612236  0.250315  1
  Si  Si30  1  0.039918  0.886363  0.250869  1
  Si  Si31  1  0.705586  0.862137  0.748818  1
  Si  Si32  1  0.206766  0.638947  0.750145  1
  Si  Si33  1  0.293534  0.139675  0.250765  1
  Si  Si34  1  0.796045  0.361760  0.250476  1
  P  P35  1  0.671025  0.967302  0.462579  1
