# generated using pymatgen
data_LuIn4Ni(BIr2)4
_symmetry_space_group_name_H-M   'P 1'
_cell_length_a   5.55267230
_cell_length_b   5.60474053
_cell_length_c   10.44262549
_cell_angle_alpha   90.09428698
_cell_angle_beta   89.95241441
_cell_angle_gamma   120.31066803
_symmetry_Int_Tables_number   1
_chemical_formula_structural   LuIn4Ni(BIr2)4
_chemical_formula_sum   'Lu1 In4 Ni1 B4 Ir8'
_cell_volume   280.56223607
_cell_formula_units_Z   1
loop_
 _symmetry_equiv_pos_site_id
 _symmetry_equiv_pos_as_xyz
  1  'x, y, z'
loop_
 _atom_site_type_symbol
 _atom_site_label
 _atom_site_symmetry_multiplicity
 _atom_site_fract_x
 _atom_site_fract_y
 _atom_site_fract_z
 _atom_site_occupancy
  Lu  Lu0  1  0.000000  0.002057  0.912907  1
  In  In1  1  0.666421  0.332608  0.505869  1
  In  In2  1  0.000000  0.000790  0.623376  1
  In  In3  1  0.000000  0.999398  0.326173  1
  In  In4  1  0.333579  0.666188  0.505869  1
  Ni  Ni5  1  0.000000  0.502320  0.278597  1
  B  B6  1  0.673180  0.337141  0.155776  1
  B  B7  1  0.334015  0.665479  0.863911  1
  B  B8  1  0.665985  0.331464  0.863911  1
  B  B9  1  0.326820  0.663962  0.155776  1
  Ir  Ir10  1  0.465511  0.997962  0.734335  1
  Ir  Ir11  1  0.503546  0.000922  0.282683  1
  Ir  Ir12  1  0.000000  0.498128  0.013903  1
  Ir  Ir13  1  0.534489  0.532450  0.734335  1
  Ir  Ir14  1  0.000000  0.464302  0.733468  1
  Ir  Ir15  1  0.505334  0.506393  0.013215  1
  Ir  Ir16  1  0.494666  0.001059  0.013215  1
  Ir  Ir17  1  0.496454  0.497375  0.282683  1
