# generated using pymatgen
data_Sc11FeIrRu2
_symmetry_space_group_name_H-M   'P 1'
_cell_length_a   9.43109624
_cell_length_b   9.45175369
_cell_length_c   9.45175352
_cell_angle_alpha   59.85545974
_cell_angle_beta   60.07227510
_cell_angle_gamma   60.07226851
_symmetry_Int_Tables_number   1
_chemical_formula_structural   Sc11FeIrRu2
_chemical_formula_sum   'Sc22 Fe2 Ir2 Ru4'
_cell_volume   595.75518886
_cell_formula_units_Z   2
loop_
 _symmetry_equiv_pos_site_id
 _symmetry_equiv_pos_as_xyz
  1  'x, y, z'
loop_
 _atom_site_type_symbol
 _atom_site_label
 _atom_site_symmetry_multiplicity
 _atom_site_fract_x
 _atom_site_fract_y
 _atom_site_fract_z
 _atom_site_occupancy
  Sc  Sc0  1  0.807099  0.807099  0.192901  1
  Sc  Sc1  1  0.192901  0.807099  0.192901  1
  Sc  Sc2  1  0.807925  0.192075  0.192075  1
  Sc  Sc3  1  0.192901  0.192901  0.807099  1
  Sc  Sc4  1  0.807099  0.192901  0.807099  1
  Sc  Sc5  1  0.192075  0.807925  0.807925  1
  Sc  Sc6  1  0.614758  0.614285  0.156199  1
  Sc  Sc7  1  0.614758  0.156199  0.614285  1
  Sc  Sc8  1  0.156199  0.614758  0.614758  1
  Sc  Sc9  1  0.614285  0.614758  0.614758  1
  Sc  Sc10  1  0.385242  0.385715  0.843801  1
  Sc  Sc11  1  0.385242  0.843801  0.385715  1
  Sc  Sc12  1  0.843801  0.385242  0.385242  1
  Sc  Sc13  1  0.385715  0.385242  0.385242  1
  Sc  Sc14  1  0.841624  0.844018  0.472735  1
  Sc  Sc15  1  0.841624  0.472735  0.844018  1
  Sc  Sc16  1  0.472735  0.841624  0.841624  1
  Sc  Sc17  1  0.844018  0.841624  0.841624  1
  Sc  Sc18  1  0.158376  0.155982  0.527265  1
  Sc  Sc19  1  0.158376  0.527265  0.155982  1
  Sc  Sc20  1  0.527265  0.158376  0.158376  1
  Sc  Sc21  1  0.155982  0.158376  0.158376  1
  Fe  Fe22  1  0.000000  0.000000  0.000000  1
  Fe  Fe23  1  0.500000  0.500000  0.500000  1
  Ir  Ir24  1  0.000000  0.500000  0.500000  1
  Ir  Ir25  1  0.500000  0.000000  0.000000  1
  Ru  Ru26  1  0.000000  0.000000  0.500000  1
  Ru  Ru27  1  0.500000  0.000000  0.500000  1
  Ru  Ru28  1  0.500000  0.500000  0.000000  1
  Ru  Ru29  1  0.000000  0.500000  0.000000  1
