# generated using pymatgen
data_ErSi4BiP2Pd20Pb
_symmetry_space_group_name_H-M   'P 1'
_cell_length_a   8.70445190
_cell_length_b   8.72104533
_cell_length_c   8.72104600
_cell_angle_alpha   59.87416139
_cell_angle_beta   60.06292826
_cell_angle_gamma   60.06292649
_symmetry_Int_Tables_number   1
_chemical_formula_structural   ErSi4BiP2Pd20Pb
_chemical_formula_sum   'Er1 Si4 Bi1 P2 Pd20 Pb1'
_cell_volume   468.12352609
_cell_formula_units_Z   1
loop_
 _symmetry_equiv_pos_site_id
 _symmetry_equiv_pos_as_xyz
  1  'x, y, z'
loop_
 _atom_site_type_symbol
 _atom_site_label
 _atom_site_symmetry_multiplicity
 _atom_site_fract_x
 _atom_site_fract_y
 _atom_site_fract_z
 _atom_site_occupancy
  Er  Er0  1  0.000000  0.000000  0.000000  1
  Si  Si1  1  0.268416  0.731584  0.268416  1
  Si  Si2  1  0.731584  0.268416  0.731584  1
  Si  Si3  1  0.268416  0.268416  0.731584  1
  Si  Si4  1  0.731584  0.731584  0.268416  1
  Bi  Bi5  1  0.250000  0.250000  0.250000  1
  P  P6  1  0.733212  0.266788  0.266788  1
  P  P7  1  0.266788  0.733212  0.733212  1
  Pd  Pd8  1  0.343648  0.999953  0.999953  1
  Pd  Pd9  1  0.656446  0.999953  0.999953  1
  Pd  Pd10  1  0.999953  0.343648  0.656446  1
  Pd  Pd11  1  0.999953  0.656446  0.343648  1
  Pd  Pd12  1  0.999879  0.342193  0.000547  1
  Pd  Pd13  1  0.657381  0.000547  0.342193  1
  Pd  Pd14  1  0.000547  0.657381  0.999879  1
  Pd  Pd15  1  0.342193  0.999879  0.657381  1
  Pd  Pd16  1  0.999879  0.000547  0.342193  1
  Pd  Pd17  1  0.000547  0.999879  0.657381  1
  Pd  Pd18  1  0.657381  0.342193  0.000547  1
  Pd  Pd19  1  0.342193  0.657381  0.999879  1
  Pd  Pd20  1  0.385541  0.382357  0.382357  1
  Pd  Pd21  1  0.614788  0.616461  0.616461  1
  Pd  Pd22  1  0.382357  0.385541  0.849746  1
  Pd  Pd23  1  0.382357  0.849746  0.385541  1
  Pd  Pd24  1  0.616461  0.614788  0.152288  1
  Pd  Pd25  1  0.616461  0.152288  0.614788  1
  Pd  Pd26  1  0.849746  0.382357  0.382357  1
  Pd  Pd27  1  0.152288  0.616461  0.616461  1
  Pb  Pb28  1  0.750000  0.750000  0.750000  1
