# generated using pymatgen
data_Er3Tm2Bi3
_symmetry_space_group_name_H-M   'P 1'
_cell_length_a   8.18914200
_cell_length_b   9.44584200
_cell_length_c   11.94190800
_cell_angle_alpha   90.00000000
_cell_angle_beta   90.00000000
_cell_angle_gamma   90.00000000
_symmetry_Int_Tables_number   1
_chemical_formula_structural   Er3Tm2Bi3
_chemical_formula_sum   'Er12 Tm8 Bi12'
_cell_volume   923.74648706
_cell_formula_units_Z   4
loop_
 _symmetry_equiv_pos_site_id
 _symmetry_equiv_pos_as_xyz
  1  'x, y, z'
loop_
 _atom_site_type_symbol
 _atom_site_label
 _atom_site_symmetry_multiplicity
 _atom_site_fract_x
 _atom_site_fract_y
 _atom_site_fract_z
 _atom_site_occupancy
  Er  Er0  1  0.026167  0.250000  0.511147  1
  Er  Er1  1  0.973833  0.750000  0.488853  1
  Er  Er2  1  0.473833  0.750000  0.011147  1
  Er  Er3  1  0.526167  0.250000  0.988853  1
  Er  Er4  1  0.355524  0.250000  0.283211  1
  Er  Er5  1  0.644476  0.750000  0.716789  1
  Er  Er6  1  0.144476  0.750000  0.783211  1
  Er  Er7  1  0.855524  0.250000  0.216789  1
  Er  Er8  1  0.187845  0.250000  0.781408  1
  Er  Er9  1  0.812155  0.750000  0.218592  1
  Er  Er10  1  0.312155  0.750000  0.281408  1
  Er  Er11  1  0.687845  0.250000  0.718592  1
  Tm  Tm12  1  0.193620  0.065533  0.060226  1
  Tm  Tm13  1  0.806380  0.934467  0.939774  1
  Tm  Tm14  1  0.306380  0.934467  0.560226  1
  Tm  Tm15  1  0.806380  0.565533  0.939774  1
  Tm  Tm16  1  0.693620  0.065533  0.439774  1
  Tm  Tm17  1  0.193620  0.434467  0.060226  1
  Tm  Tm18  1  0.693620  0.434467  0.439774  1
  Tm  Tm19  1  0.306380  0.565533  0.560226  1
  Bi  Bi20  1  0.407883  0.250000  0.542582  1
  Bi  Bi21  1  0.592117  0.750000  0.457418  1
  Bi  Bi22  1  0.092117  0.750000  0.042582  1
  Bi  Bi23  1  0.907883  0.250000  0.957418  1
  Bi  Bi24  1  0.066859  0.003621  0.325962  1
  Bi  Bi25  1  0.933141  0.996379  0.674038  1
  Bi  Bi26  1  0.433141  0.996379  0.825962  1
  Bi  Bi27  1  0.933141  0.503621  0.674038  1
  Bi  Bi28  1  0.566859  0.003621  0.174038  1
  Bi  Bi29  1  0.066859  0.496379  0.325962  1
  Bi  Bi30  1  0.566859  0.496379  0.174038  1
  Bi  Bi31  1  0.433141  0.503621  0.825962  1
