# generated using pymatgen
data_HoThBIr6
_symmetry_space_group_name_H-M   'P 1'
_cell_length_a   5.89893872
_cell_length_b   5.89893885
_cell_length_c   5.89893800
_cell_angle_alpha   60.00000475
_cell_angle_beta   60.00000406
_cell_angle_gamma   60.00001311
_symmetry_Int_Tables_number   1
_chemical_formula_structural   HoThBIr6
_chemical_formula_sum   'Ho1 Th1 B1 Ir6'
_cell_volume   145.14653899
_cell_formula_units_Z   1
loop_
 _symmetry_equiv_pos_site_id
 _symmetry_equiv_pos_as_xyz
  1  'x, y, z'
loop_
 _atom_site_type_symbol
 _atom_site_label
 _atom_site_symmetry_multiplicity
 _atom_site_fract_x
 _atom_site_fract_y
 _atom_site_fract_z
 _atom_site_occupancy
  Ho  Ho0  1  0.750000  0.750000  0.750000  1
  Th  Th1  1  0.250000  0.250000  0.250000  1
  B  B2  1  0.000000  0.000000  0.000000  1
  Ir  Ir3  1  0.742508  0.742508  0.257492  1
  Ir  Ir4  1  0.257492  0.742508  0.257492  1
  Ir  Ir5  1  0.742508  0.257492  0.257492  1
  Ir  Ir6  1  0.257492  0.257492  0.742508  1
  Ir  Ir7  1  0.742508  0.257492  0.742508  1
  Ir  Ir8  1  0.257492  0.742508  0.742508  1
