# generated using pymatgen
data_TePRu
_symmetry_space_group_name_H-M   'P 1'
_cell_length_a   6.19845500
_cell_length_b   6.28210864
_cell_length_c   6.29077688
_cell_angle_alpha   67.76440047
_cell_angle_beta   90.00000000
_cell_angle_gamma   90.00000000
_symmetry_Int_Tables_number   1
_chemical_formula_structural   TePRu
_chemical_formula_sum   'Te4 P4 Ru4'
_cell_volume   226.74266475
_cell_formula_units_Z   4
loop_
 _symmetry_equiv_pos_site_id
 _symmetry_equiv_pos_as_xyz
  1  'x, y, z'
loop_
 _atom_site_type_symbol
 _atom_site_label
 _atom_site_symmetry_multiplicity
 _atom_site_fract_x
 _atom_site_fract_y
 _atom_site_fract_z
 _atom_site_occupancy
  Te  Te0  1  0.621614  0.840891  0.361651  1
  Te  Te1  1  0.121614  0.159109  0.138349  1
  Te  Te2  1  0.378386  0.159109  0.638349  1
  Te  Te3  1  0.878386  0.840891  0.861651  1
  P  P4  1  0.357972  0.642008  0.169436  1
  P  P5  1  0.857972  0.357992  0.330564  1
  P  P6  1  0.642028  0.357992  0.830564  1
  P  P7  1  0.142028  0.642008  0.669436  1
  Ru  Ru8  1  0.017433  0.706403  0.297935  1
  Ru  Ru9  1  0.517433  0.293597  0.202065  1
  Ru  Ru10  1  0.982567  0.293597  0.702065  1
  Ru  Ru11  1  0.482567  0.706403  0.797935  1
