# generated using pymatgen
data_Ti10Pb6S
_symmetry_space_group_name_H-M   'P 1'
_cell_length_a   8.26162900
_cell_length_b   8.26162824
_cell_length_c   5.58409200
_cell_angle_alpha   90.00000000
_cell_angle_beta   90.00000000
_cell_angle_gamma   119.99999905
_symmetry_Int_Tables_number   1
_chemical_formula_structural   Ti10Pb6S
_chemical_formula_sum   'Ti10 Pb6 S1'
_cell_volume   330.07644837
_cell_formula_units_Z   1
loop_
 _symmetry_equiv_pos_site_id
 _symmetry_equiv_pos_as_xyz
  1  'x, y, z'
loop_
 _atom_site_type_symbol
 _atom_site_label
 _atom_site_symmetry_multiplicity
 _atom_site_fract_x
 _atom_site_fract_y
 _atom_site_fract_z
 _atom_site_occupancy
  Ti  Ti0  1  0.666667  0.333333  0.500000  1
  Ti  Ti1  1  0.333333  0.666667  0.500000  1
  Ti  Ti2  1  0.333333  0.666667  0.000000  1
  Ti  Ti3  1  0.666667  0.333333  0.000000  1
  Ti  Ti4  1  0.754883  0.754883  0.246241  1
  Ti  Ti5  1  0.245117  0.000000  0.246241  1
  Ti  Ti6  1  0.000000  0.245117  0.246241  1
  Ti  Ti7  1  0.245117  0.245117  0.753759  1
  Ti  Ti8  1  0.754883  0.000000  0.753759  1
  Ti  Ti9  1  0.000000  0.754883  0.753759  1
  Pb  Pb10  1  0.392584  0.392584  0.248120  1
  Pb  Pb11  1  0.607416  0.000000  0.248120  1
  Pb  Pb12  1  0.000000  0.607416  0.248120  1
  Pb  Pb13  1  0.607416  0.607416  0.751880  1
  Pb  Pb14  1  0.392584  0.000000  0.751880  1
  Pb  Pb15  1  0.000000  0.392584  0.751880  1
  S  S16  1  0.000000  0.000000  0.500000  1
