# generated using pymatgen
data_Ac2PaCo2Sn7
_symmetry_space_group_name_H-M   'P 1'
_cell_length_a   13.86457280
_cell_length_b   13.86457341
_cell_length_c   4.66309600
_cell_angle_alpha   90.00000000
_cell_angle_beta   90.00000000
_cell_angle_gamma   160.27870482
_symmetry_Int_Tables_number   1
_chemical_formula_structural   Ac2PaCo2Sn7
_chemical_formula_sum   'Ac2 Pa1 Co2 Sn7'
_cell_volume   302.47574464
_cell_formula_units_Z   1
loop_
 _symmetry_equiv_pos_site_id
 _symmetry_equiv_pos_as_xyz
  1  'x, y, z'
loop_
 _atom_site_type_symbol
 _atom_site_label
 _atom_site_symmetry_multiplicity
 _atom_site_fract_x
 _atom_site_fract_y
 _atom_site_fract_z
 _atom_site_occupancy
  Ac  Ac0  1  0.182910  0.817090  0.000000  1
  Ac  Ac1  1  0.817090  0.182910  0.000000  1
  Pa  Pa2  1  0.500000  0.500000  0.500000  1
  Co  Co3  1  0.622367  0.377633  0.500000  1
  Co  Co4  1  0.377633  0.622367  0.500000  1
  Sn  Sn5  1  0.717237  0.282763  0.500000  1
  Sn  Sn6  1  0.282763  0.717237  0.500000  1
  Sn  Sn7  1  0.584887  0.415113  0.000000  1
  Sn  Sn8  1  0.000000  0.000000  0.000000  1
  Sn  Sn9  1  0.415113  0.584887  0.000000  1
  Sn  Sn10  1  0.915218  0.084782  0.500000  1
  Sn  Sn11  1  0.084782  0.915218  0.500000  1
