# generated using pymatgen
data_Na4NdBi3(PSe3)8
_symmetry_space_group_name_H-M   'P 1'
_cell_length_a   11.97991468
_cell_length_b   7.67026141
_cell_length_c   12.38194745
_cell_angle_alpha   90.28829128
_cell_angle_beta   108.86492913
_cell_angle_gamma   90.34752586
_symmetry_Int_Tables_number   1
_chemical_formula_structural   Na4NdBi3(PSe3)8
_chemical_formula_sum   'Na4 Nd1 Bi3 P8 Se24'
_cell_volume   1076.59967648
_cell_formula_units_Z   1
loop_
 _symmetry_equiv_pos_site_id
 _symmetry_equiv_pos_as_xyz
  1  'x, y, z'
loop_
 _atom_site_type_symbol
 _atom_site_label
 _atom_site_symmetry_multiplicity
 _atom_site_fract_x
 _atom_site_fract_y
 _atom_site_fract_z
 _atom_site_occupancy
  Na  Na0  1  0.404222  0.608461  0.117457  1
  Na  Na1  1  0.594184  0.107990  0.379397  1
  Na  Na2  1  0.404953  0.895449  0.622661  1
  Na  Na3  1  0.587790  0.391475  0.879122  1
  Nd  Nd4  1  0.109910  0.123444  0.837817  1
  Bi  Bi5  1  0.872029  0.861595  0.172288  1
  Bi  Bi6  1  0.135107  0.366114  0.335068  1
  Bi  Bi7  1  0.876192  0.638483  0.668015  1
  P  P8  1  0.243760  0.096384  0.168287  1
  P  P9  1  0.753735  0.380906  0.201693  1
  P  P10  1  0.246229  0.883403  0.296723  1
  P  P11  1  0.756262  0.597219  0.328963  1
  P  P12  1  0.242252  0.394892  0.673436  1
  P  P13  1  0.753525  0.120708  0.702422  1
  P  P14  1  0.246109  0.614842  0.797790  1
  P  P15  1  0.757738  0.905752  0.829075  1
  Se  Se16  1  0.315936  0.990504  0.039612  1
  Se  Se17  1  0.821219  0.507835  0.072886  1
  Se  Se18  1  0.059083  0.188688  0.098253  1
  Se  Se19  1  0.574642  0.275133  0.132747  1
  Se  Se20  1  0.118046  0.690943  0.187731  1
  Se  Se21  1  0.653105  0.810793  0.220646  1
  Se  Se22  1  0.347756  0.312304  0.278269  1
  Se  Se23  1  0.882143  0.194391  0.312029  1
  Se  Se24  1  0.424702  0.780947  0.365511  1
  Se  Se25  1  0.942303  0.694093  0.393389  1
  Se  Se26  1  0.177253  0.009865  0.425407  1
  Se  Se27  1  0.684545  0.490451  0.457437  1
  Se  Se28  1  0.314571  0.506670  0.543371  1
  Se  Se29  1  0.830458  0.996093  0.578680  1
  Se  Se30  1  0.056302  0.305521  0.607032  1
  Se  Se31  1  0.575467  0.220621  0.630462  1
  Se  Se32  1  0.120589  0.806515  0.686841  1
  Se  Se33  1  0.657048  0.687821  0.721538  1
  Se  Se34  1  0.344814  0.186765  0.782009  1
  Se  Se35  1  0.880464  0.313283  0.814733  1
  Se  Se36  1  0.424938  0.722362  0.866047  1
  Se  Se37  1  0.946933  0.815579  0.890386  1
  Se  Se38  1  0.176783  0.494573  0.926658  1
  Se  Se39  1  0.686903  0.011127  0.958111  1
