# generated using pymatgen
data_Mn4Al6SO12
_symmetry_space_group_name_H-M   'P 1'
_cell_length_a   7.58437026
_cell_length_b   7.58437007
_cell_length_c   7.58437000
_cell_angle_alpha   109.47121776
_cell_angle_beta   109.47121728
_cell_angle_gamma   109.47122825
_symmetry_Int_Tables_number   1
_chemical_formula_structural   Mn4Al6SO12
_chemical_formula_sum   'Mn4 Al6 S1 O12'
_cell_volume   335.84327463
_cell_formula_units_Z   1
loop_
 _symmetry_equiv_pos_site_id
 _symmetry_equiv_pos_as_xyz
  1  'x, y, z'
loop_
 _atom_site_type_symbol
 _atom_site_label
 _atom_site_symmetry_multiplicity
 _atom_site_fract_x
 _atom_site_fract_y
 _atom_site_fract_z
 _atom_site_occupancy
  Mn  Mn0  1  0.000000  0.334066  0.000000  1
  Mn  Mn1  1  0.334066  0.000000  0.000000  1
  Mn  Mn2  1  0.665934  0.665934  0.665934  1
  Mn  Mn3  1  0.000000  0.000000  0.334066  1
  Al  Al4  1  0.250000  0.500000  0.750000  1
  Al  Al5  1  0.750000  0.500000  0.250000  1
  Al  Al6  1  0.250000  0.750000  0.500000  1
  Al  Al7  1  0.750000  0.250000  0.500000  1
  Al  Al8  1  0.500000  0.250000  0.750000  1
  Al  Al9  1  0.500000  0.750000  0.250000  1
  S  S10  1  0.000000  0.000000  0.000000  1
  O  O11  1  0.000000  0.541405  0.265096  1
  O  O12  1  0.458595  0.458595  0.723691  1
  O  O13  1  0.000000  0.265096  0.541405  1
  O  O14  1  0.265096  0.000000  0.541405  1
  O  O15  1  0.734904  0.276309  0.734904  1
  O  O16  1  0.276309  0.734904  0.734904  1
  O  O17  1  0.734904  0.734904  0.276309  1
  O  O18  1  0.541405  0.265096  0.000000  1
  O  O19  1  0.265096  0.541405  0.000000  1
  O  O20  1  0.458595  0.723691  0.458595  1
  O  O21  1  0.541405  0.000000  0.265096  1
  O  O22  1  0.723691  0.458595  0.458595  1
