# generated using pymatgen
data_MnZn(AgO2)2
_symmetry_space_group_name_H-M   'P 1'
_cell_length_a   3.03212572
_cell_length_b   12.58493531
_cell_length_c   5.39897342
_cell_angle_alpha   85.27959716
_cell_angle_beta   90.00615247
_cell_angle_gamma   96.41124175
_symmetry_Int_Tables_number   1
_chemical_formula_structural   MnZn(AgO2)2
_chemical_formula_sum   'Mn2 Zn2 Ag4 O8'
_cell_volume   204.02855760
_cell_formula_units_Z   2
loop_
 _symmetry_equiv_pos_site_id
 _symmetry_equiv_pos_as_xyz
  1  'x, y, z'
loop_
 _atom_site_type_symbol
 _atom_site_label
 _atom_site_symmetry_multiplicity
 _atom_site_fract_x
 _atom_site_fract_y
 _atom_site_fract_z
 _atom_site_occupancy
  Mn  Mn0  1  0.125645  0.250177  0.626519  1
  Mn  Mn1  1  0.874368  0.749828  0.373503  1
  Zn  Zn2  1  0.374650  0.750545  0.875282  1
  Zn  Zn3  1  0.625340  0.249451  0.124725  1
  Ag  Ag4  1  0.250577  0.497391  0.260472  1
  Ag  Ag5  1  0.999996  0.000001  0.999991  1
  Ag  Ag6  1  0.749433  0.502609  0.739483  1
  Ag  Ag7  1  0.500027  0.999998  0.499997  1
  O  O8  1  0.838306  0.670956  0.700476  1
  O  O9  1  0.587451  0.168214  0.502088  1
  O  O10  1  0.335948  0.667266  0.248989  1
  O  O11  1  0.088869  0.169520  0.949731  1
  O  O12  1  0.911130  0.830483  0.050276  1
  O  O13  1  0.664043  0.332736  0.751021  1
  O  O14  1  0.412537  0.831781  0.497921  1
  O  O15  1  0.161684  0.329046  0.299525  1
