# generated using pymatgen
data_AcEu4Si3H
_symmetry_space_group_name_H-M   'P 1'
_cell_length_a   9.37007821
_cell_length_b   9.37007835
_cell_length_c   9.37556622
_cell_angle_alpha   129.46757324
_cell_angle_beta   129.46757604
_cell_angle_gamma   74.21504557
_symmetry_Int_Tables_number   1
_chemical_formula_structural   AcEu4Si3H
_chemical_formula_sum   'Ac2 Eu8 Si6 H2'
_cell_volume   478.38310245
_cell_formula_units_Z   2
loop_
 _symmetry_equiv_pos_site_id
 _symmetry_equiv_pos_as_xyz
  1  'x, y, z'
loop_
 _atom_site_type_symbol
 _atom_site_label
 _atom_site_symmetry_multiplicity
 _atom_site_fract_x
 _atom_site_fract_y
 _atom_site_fract_z
 _atom_site_occupancy
  Ac  Ac0  1  0.531275  0.031275  0.859206  1
  Ac  Ac1  1  0.172069  0.672069  0.140794  1
  Eu  Eu2  1  0.512815  0.512815  0.000000  1
  Eu  Eu3  1  0.012815  0.012815  0.000000  1
  Eu  Eu4  1  0.024963  0.182153  0.500000  1
  Eu  Eu5  1  0.682153  0.524963  0.500000  1
  Eu  Eu6  1  0.479443  0.979443  0.168821  1
  Eu  Eu7  1  0.810622  0.310622  0.831179  1
  Eu  Eu8  1  0.975947  0.816210  0.500000  1
  Eu  Eu9  1  0.316210  0.475947  0.500000  1
  Si  Si10  1  0.244585  0.244585  0.000000  1
  Si  Si11  1  0.744585  0.744585  0.000000  1
  Si  Si12  1  0.890143  0.390143  0.281338  1
  Si  Si13  1  0.108804  0.608804  0.718662  1
  Si  Si14  1  0.387293  0.108899  0.500000  1
  Si  Si15  1  0.608899  0.887293  0.500000  1
  H  H16  1  0.245713  0.745713  0.500000  1
  H  H17  1  0.751666  0.251666  0.500000  1
