# generated using pymatgen
data_Na2Zr2CuTe6Au
_symmetry_space_group_name_H-M   'P 1'
_cell_length_a   14.74388400
_cell_length_b   4.10889500
_cell_length_c   11.19579800
_cell_angle_alpha   90.00000000
_cell_angle_beta   90.00000000
_cell_angle_gamma   90.00000000
_symmetry_Int_Tables_number   1
_chemical_formula_structural   Na2Zr2CuTe6Au
_chemical_formula_sum   'Na4 Zr4 Cu2 Te12 Au2'
_cell_volume   678.25343632
_cell_formula_units_Z   2
loop_
 _symmetry_equiv_pos_site_id
 _symmetry_equiv_pos_as_xyz
  1  'x, y, z'
loop_
 _atom_site_type_symbol
 _atom_site_label
 _atom_site_symmetry_multiplicity
 _atom_site_fract_x
 _atom_site_fract_y
 _atom_site_fract_z
 _atom_site_occupancy
  Na  Na0  1  0.226459  0.250000  0.052062  1
  Na  Na1  1  0.726459  0.250000  0.447937  1
  Na  Na2  1  0.271353  0.750000  0.555908  1
  Na  Na3  1  0.771353  0.750000  0.944093  1
  Zr  Zr4  1  0.508994  0.250000  0.186634  1
  Zr  Zr5  1  0.008993  0.250000  0.313366  1
  Zr  Zr6  1  0.989387  0.750000  0.680861  1
  Zr  Zr7  1  0.489387  0.750000  0.819140  1
  Cu  Cu8  1  0.493819  0.250000  0.594201  1
  Cu  Cu9  1  0.993819  0.250000  0.905798  1
  Te  Te10  1  0.397846  0.750000  0.061986  1
  Te  Te11  1  0.882746  0.250000  0.119816  1
  Te  Te12  1  0.646471  0.750000  0.235870  1
  Te  Te13  1  0.146471  0.750000  0.264129  1
  Te  Te14  1  0.382746  0.250000  0.380184  1
  Te  Te15  1  0.897846  0.750000  0.438014  1
  Te  Te16  1  0.100494  0.250000  0.559049  1
  Te  Te17  1  0.611349  0.750000  0.624158  1
  Te  Te18  1  0.859867  0.250000  0.750339  1
  Te  Te19  1  0.359867  0.250000  0.749662  1
  Te  Te20  1  0.111349  0.750000  0.875842  1
  Te  Te21  1  0.600494  0.250000  0.940951  1
  Au  Au22  1  0.011214  0.750000  0.093472  1
  Au  Au23  1  0.511214  0.750000  0.406529  1
