# generated using pymatgen
data_Tb10Pr6Cd4Ru3Pt
_symmetry_space_group_name_H-M   'P 1'
_cell_length_a   9.76296927
_cell_length_b   9.84114431
_cell_length_c   9.84114300
_cell_angle_alpha   60.00000103
_cell_angle_beta   59.73476627
_cell_angle_gamma   59.73476634
_symmetry_Int_Tables_number   1
_chemical_formula_structural   Tb10Pr6Cd4Ru3Pt
_chemical_formula_sum   'Tb10 Pr6 Cd4 Ru3 Pt1'
_cell_volume   665.89430107
_cell_formula_units_Z   1
loop_
 _symmetry_equiv_pos_site_id
 _symmetry_equiv_pos_as_xyz
  1  'x, y, z'
loop_
 _atom_site_type_symbol
 _atom_site_label
 _atom_site_symmetry_multiplicity
 _atom_site_fract_x
 _atom_site_fract_y
 _atom_site_fract_z
 _atom_site_occupancy
  Tb  Tb0  1  0.342470  0.348368  0.348368  1
  Tb  Tb1  1  0.342470  0.348368  0.960795  1
  Tb  Tb2  1  0.342470  0.960795  0.348368  1
  Tb  Tb3  1  0.968566  0.343811  0.343811  1
  Tb  Tb4  1  0.816396  0.188094  0.188094  1
  Tb  Tb5  1  0.187234  0.813046  0.813046  1
  Tb  Tb6  1  0.187234  0.813046  0.186675  1
  Tb  Tb7  1  0.816396  0.188094  0.807416  1
  Tb  Tb8  1  0.187234  0.186675  0.813046  1
  Tb  Tb9  1  0.816396  0.807416  0.188094  1
  Pr  Pr10  1  0.937878  0.560975  0.560975  1
  Pr  Pr11  1  0.557216  0.940036  0.940036  1
  Pr  Pr12  1  0.557216  0.940036  0.562713  1
  Pr  Pr13  1  0.937878  0.560975  0.940170  1
  Pr  Pr14  1  0.557216  0.562713  0.940036  1
  Pr  Pr15  1  0.937878  0.940170  0.560975  1
  Cd  Cd16  1  0.579311  0.578518  0.578518  1
  Cd  Cd17  1  0.579311  0.578518  0.263654  1
  Cd  Cd18  1  0.579311  0.263654  0.578518  1
  Cd  Cd19  1  0.262686  0.579104  0.579104  1
  Ru  Ru20  1  0.143271  0.137993  0.137993  1
  Ru  Ru21  1  0.143271  0.137993  0.580743  1
  Ru  Ru22  1  0.143271  0.580743  0.137993  1
  Pt  Pt23  1  0.577418  0.140861  0.140861  1
