# generated using pymatgen
data_Ba8Ta3SbO18
_symmetry_space_group_name_H-M   'P 1'
_cell_length_a   6.17340200
_cell_length_b   6.17340203
_cell_length_c   16.71405900
_cell_angle_alpha   90.00000000
_cell_angle_beta   90.00000000
_cell_angle_gamma   119.99999053
_symmetry_Int_Tables_number   1
_chemical_formula_structural   Ba8Ta3SbO18
_chemical_formula_sum   'Ba8 Ta3 Sb1 O18'
_cell_volume   551.64758729
_cell_formula_units_Z   1
loop_
 _symmetry_equiv_pos_site_id
 _symmetry_equiv_pos_as_xyz
  1  'x, y, z'
loop_
 _atom_site_type_symbol
 _atom_site_label
 _atom_site_symmetry_multiplicity
 _atom_site_fract_x
 _atom_site_fract_y
 _atom_site_fract_z
 _atom_site_occupancy
  Ba  Ba0  1  0.000000  0.000000  0.749018  1
  Ba  Ba1  1  0.000000  0.000000  0.257222  1
  Ba  Ba2  1  0.666667  0.333333  0.633115  1
  Ba  Ba3  1  0.333333  0.666667  0.136741  1
  Ba  Ba4  1  0.333333  0.666667  0.372434  1
  Ba  Ba5  1  0.666667  0.333333  0.864479  1
  Ba  Ba6  1  0.000000  0.000000  0.499620  1
  Ba  Ba7  1  0.000000  0.000000  0.998756  1
  Ta  Ta8  1  0.333333  0.666667  0.840401  1
  Ta  Ta9  1  0.333333  0.666667  0.659674  1
  Ta  Ta10  1  0.666667  0.333333  0.156258  1
  Sb  Sb11  1  0.666667  0.333333  0.336299  1
  O  O12  1  0.528512  0.952832  0.750058  1
  O  O13  1  0.047168  0.575680  0.750058  1
  O  O14  1  0.424320  0.471488  0.750058  1
  O  O15  1  0.475142  0.047706  0.250009  1
  O  O16  1  0.952294  0.427435  0.250009  1
  O  O17  1  0.572565  0.524858  0.250009  1
  O  O18  1  0.107584  0.358062  0.608283  1
  O  O19  1  0.641938  0.749522  0.608283  1
  O  O20  1  0.250478  0.892416  0.608283  1
  O  O21  1  0.895919  0.639990  0.106453  1
  O  O22  1  0.360010  0.255929  0.106453  1
  O  O23  1  0.744071  0.104081  0.106453  1
  O  O24  1  0.889281  0.648721  0.391875  1
  O  O25  1  0.351279  0.240560  0.391875  1
  O  O26  1  0.759440  0.110719  0.391875  1
  O  O27  1  0.106692  0.358441  0.891984  1
  O  O28  1  0.641559  0.748251  0.891984  1
  O  O29  1  0.251749  0.893308  0.891984  1
