# generated using pymatgen
data_V12Si9Ge
_symmetry_space_group_name_H-M   'P 1'
_cell_length_a   4.84369250
_cell_length_b   7.52065978
_cell_length_c   9.15517232
_cell_angle_alpha   65.57813357
_cell_angle_beta   74.66077677
_cell_angle_gamma   89.99999208
_symmetry_Int_Tables_number   1
_chemical_formula_structural   V12Si9Ge
_chemical_formula_sum   'V12 Si9 Ge1'
_cell_volume   290.56460043
_cell_formula_units_Z   1
loop_
 _symmetry_equiv_pos_site_id
 _symmetry_equiv_pos_as_xyz
  1  'x, y, z'
loop_
 _atom_site_type_symbol
 _atom_site_label
 _atom_site_symmetry_multiplicity
 _atom_site_fract_x
 _atom_site_fract_y
 _atom_site_fract_z
 _atom_site_occupancy
  V  V0  1  0.357000  0.740998  0.286000  1
  V  V1  1  0.642512  0.262071  0.714977  1
  V  V2  1  0.140604  0.030320  0.718792  1
  V  V3  1  0.859107  0.968537  0.281786  1
  V  V4  1  0.064658  0.319057  0.870684  1
  V  V5  1  0.935288  0.681367  0.129425  1
  V  V6  1  0.941924  0.686790  0.619804  1
  V  V7  1  0.559061  0.312827  0.378351  1
  V  V8  1  0.062588  0.312827  0.378351  1
  V  V9  1  0.438272  0.686790  0.619804  1
  V  V10  1  0.436001  0.188606  0.127998  1
  V  V11  1  0.562451  0.810602  0.875096  1
  Si  Si12  1  0.436079  0.524503  0.127841  1
  Si  Si13  1  0.563807  0.476395  0.872387  1
  Si  Si14  1  0.064233  0.655036  0.871535  1
  Si  Si15  1  0.935897  0.345339  0.128206  1
  Si  Si16  1  0.249796  0.000439  0.000066  1
  Si  Si17  1  0.750138  0.000439  0.000066  1
  Si  Si18  1  0.213577  0.415082  0.572847  1
  Si  Si19  1  0.786314  0.583133  0.427371  1
  Si  Si20  1  0.287851  0.987518  0.424298  1
  Ge  Ge21  1  0.712841  0.011320  0.574318  1
