# generated using pymatgen
data_Zr3Pa(Ni2Au)2
_symmetry_space_group_name_H-M   'P 1'
_cell_length_a   7.03414800
_cell_length_b   7.03414834
_cell_length_c   3.37608500
_cell_angle_alpha   90.00000000
_cell_angle_beta   90.00000000
_cell_angle_gamma   89.59315137
_symmetry_Int_Tables_number   1
_chemical_formula_structural   Zr3Pa(Ni2Au)2
_chemical_formula_sum   'Zr3 Pa1 Ni4 Au2'
_cell_volume   167.04191014
_cell_formula_units_Z   1
loop_
 _symmetry_equiv_pos_site_id
 _symmetry_equiv_pos_as_xyz
  1  'x, y, z'
loop_
 _atom_site_type_symbol
 _atom_site_label
 _atom_site_symmetry_multiplicity
 _atom_site_fract_x
 _atom_site_fract_y
 _atom_site_fract_z
 _atom_site_occupancy
  Zr  Zr0  1  0.324474  0.830762  0.500000  1
  Zr  Zr1  1  0.669238  0.175526  0.500000  1
  Zr  Zr2  1  0.177894  0.322106  0.500000  1
  Pa  Pa3  1  0.826814  0.673186  0.500000  1
  Ni  Ni4  1  0.121277  0.625158  0.000000  1
  Ni  Ni5  1  0.630110  0.869890  0.000000  1
  Ni  Ni6  1  0.874842  0.378723  0.000000  1
  Ni  Ni7  1  0.379971  0.120029  0.000000  1
  Au  Au8  1  0.491982  0.496602  0.000000  1
  Au  Au9  1  0.003398  0.008018  0.000000  1
