# generated using pymatgen
data_LaNd3IrAu3
_symmetry_space_group_name_H-M   'P 1'
_cell_length_a   4.78430500
_cell_length_b   5.83179228
_cell_length_c   7.49614082
_cell_angle_alpha   87.24818888
_cell_angle_beta   90.00000000
_cell_angle_gamma   90.00000000
_symmetry_Int_Tables_number   1
_chemical_formula_structural   LaNd3IrAu3
_chemical_formula_sum   'La1 Nd3 Ir1 Au3'
_cell_volume   208.90919429
_cell_formula_units_Z   1
loop_
 _symmetry_equiv_pos_site_id
 _symmetry_equiv_pos_as_xyz
  1  'x, y, z'
loop_
 _atom_site_type_symbol
 _atom_site_label
 _atom_site_symmetry_multiplicity
 _atom_site_fract_x
 _atom_site_fract_y
 _atom_site_fract_z
 _atom_site_occupancy
  La  La0  1  0.250000  0.370297  0.677356  1
  Nd  Nd1  1  0.250000  0.134658  0.192337  1
  Nd  Nd2  1  0.750000  0.655657  0.324170  1
  Nd  Nd3  1  0.750000  0.856041  0.803104  1
  Ir  Ir4  1  0.250000  0.834253  0.538777  1
  Au  Au5  1  0.250000  0.649955  0.041863  1
  Au  Au6  1  0.750000  0.152314  0.454088  1
  Au  Au7  1  0.750000  0.346823  0.968305  1
