# generated using pymatgen
data_Ce3Er(CoB10)2
_symmetry_space_group_name_H-M   'P 1'
_cell_length_a   4.15410700
_cell_length_b   5.57877026
_cell_length_c   11.12994051
_cell_angle_alpha   90.12394668
_cell_angle_beta   90.00000000
_cell_angle_gamma   90.00000000
_symmetry_Int_Tables_number   1
_chemical_formula_structural   Ce3Er(CoB10)2
_chemical_formula_sum   'Ce3 Er1 Co2 B20'
_cell_volume   257.93363756
_cell_formula_units_Z   1
loop_
 _symmetry_equiv_pos_site_id
 _symmetry_equiv_pos_as_xyz
  1  'x, y, z'
loop_
 _atom_site_type_symbol
 _atom_site_label
 _atom_site_symmetry_multiplicity
 _atom_site_fract_x
 _atom_site_fract_y
 _atom_site_fract_z
 _atom_site_occupancy
  Ce  Ce0  1  0.500000  0.697075  0.135075  1
  Ce  Ce1  1  0.500000  0.804290  0.634840  1
  Ce  Ce2  1  0.500000  0.196647  0.364573  1
  Er  Er3  1  0.500000  0.302705  0.866669  1
  Co  Co4  1  0.000000  0.500289  0.500523  1
  Co  Co5  1  0.000000  0.999289  0.999296  1
  B  B6  1  0.000000  0.127057  0.541099  1
  B  B7  1  0.000000  0.873297  0.460421  1
  B  B8  1  0.000000  0.626295  0.959320  1
  B  B9  1  0.000000  0.371373  0.038258  1
  B  B10  1  0.000000  0.155766  0.698717  1
  B  B11  1  0.000000  0.845775  0.302441  1
  B  B12  1  0.300406  0.199375  0.111967  1
  B  B13  1  0.300659  0.796894  0.886972  1
  B  B14  1  0.699358  0.700270  0.387145  1
  B  B15  1  0.699184  0.299765  0.614671  1
  B  B16  1  0.699341  0.796894  0.886972  1
  B  B17  1  0.699594  0.199375  0.111967  1
  B  B18  1  0.300816  0.299765  0.614671  1
  B  B19  1  0.300642  0.700270  0.387145  1
  B  B20  1  0.000000  0.032580  0.186533  1
  B  B21  1  0.000000  0.969402  0.814052  1
  B  B22  1  0.000000  0.532979  0.312443  1
  B  B23  1  0.000000  0.468955  0.686682  1
  B  B24  1  0.000000  0.345957  0.196019  1
  B  B25  1  0.000000  0.657658  0.801528  1
