# generated using pymatgen
data_La13Pr3Cd4Co3Pd
_symmetry_space_group_name_H-M   'P 1'
_cell_length_a   10.00426238
_cell_length_b   10.01131308
_cell_length_c   9.99856500
_cell_angle_alpha   60.04211703
_cell_angle_beta   60.01884027
_cell_angle_gamma   60.13277720
_symmetry_Int_Tables_number   1
_chemical_formula_structural   La13Pr3Cd4Co3Pd
_chemical_formula_sum   'La13 Pr3 Cd4 Co3 Pd1'
_cell_volume   709.14163293
_cell_formula_units_Z   1
loop_
 _symmetry_equiv_pos_site_id
 _symmetry_equiv_pos_as_xyz
  1  'x, y, z'
loop_
 _atom_site_type_symbol
 _atom_site_label
 _atom_site_symmetry_multiplicity
 _atom_site_fract_x
 _atom_site_fract_y
 _atom_site_fract_z
 _atom_site_occupancy
  La  La0  1  0.677549  0.707140  0.307655  1
  La  La1  1  0.164146  0.147197  0.540070  1
  La  La2  1  0.309762  0.691187  0.688986  1
  La  La3  1  0.164146  0.147197  0.148587  1
  La  La4  1  0.535773  0.153804  0.155212  1
  La  La5  1  0.309762  0.691187  0.310064  1
  La  La6  1  0.311191  0.311132  0.688838  1
  La  La7  1  0.676819  0.308544  0.705253  1
  La  La8  1  0.939840  0.559995  0.561352  1
  La  La9  1  0.563590  0.562437  0.936986  1
  La  La10  1  0.163435  0.540923  0.147821  1
  La  La11  1  0.676819  0.308544  0.309383  1
  La  La12  1  0.939840  0.559995  0.938813  1
  Pr  Pr13  1  0.936474  0.938930  0.562298  1
  Pr  Pr14  1  0.564339  0.937553  0.563814  1
  Pr  Pr15  1  0.564339  0.937553  0.934293  1
  Cd  Cd16  1  0.240430  0.919951  0.919809  1
  Cd  Cd17  1  0.920547  0.921193  0.920362  1
  Cd  Cd18  1  0.920547  0.921193  0.237897  1
  Cd  Cd19  1  0.920963  0.237198  0.920919  1
  Co  Co20  1  0.359841  0.358156  0.922224  1
  Co  Co21  1  0.359468  0.921853  0.359339  1
  Co  Co22  1  0.359841  0.358156  0.359779  1
  Pd  Pd23  1  0.920536  0.358980  0.360242  1
