# generated using pymatgen
data_Pr8Ho9Er3Si16
_symmetry_space_group_name_H-M   'P 1'
_cell_length_a   7.51726300
_cell_length_b   7.79650100
_cell_length_c   14.80519300
_cell_angle_alpha   90.00000000
_cell_angle_beta   90.00000000
_cell_angle_gamma   89.99664763
_symmetry_Int_Tables_number   1
_chemical_formula_structural   Pr8Ho9Er3Si16
_chemical_formula_sum   'Pr8 Ho9 Er3 Si16'
_cell_volume   867.70791016
_cell_formula_units_Z   1
loop_
 _symmetry_equiv_pos_site_id
 _symmetry_equiv_pos_as_xyz
  1  'x, y, z'
loop_
 _atom_site_type_symbol
 _atom_site_label
 _atom_site_symmetry_multiplicity
 _atom_site_fract_x
 _atom_site_fract_y
 _atom_site_fract_z
 _atom_site_occupancy
  Pr  Pr0  1  0.975909  0.820866  0.097931  1
  Pr  Pr1  1  0.475904  0.679143  0.402069  1
  Pr  Pr2  1  0.524105  0.320855  0.902081  1
  Pr  Pr3  1  0.024060  0.179164  0.597919  1
  Pr  Pr4  1  0.024060  0.179164  0.902081  1
  Pr  Pr5  1  0.524105  0.320855  0.597919  1
  Pr  Pr6  1  0.475904  0.679143  0.097931  1
  Pr  Pr7  1  0.975909  0.820866  0.402069  1
  Ho  Ho8  1  0.350222  0.010376  0.750000  1
  Ho  Ho9  1  0.680924  0.821749  0.876720  1
  Ho  Ho10  1  0.180869  0.678222  0.623284  1
  Ho  Ho11  1  0.819106  0.321759  0.123283  1
  Ho  Ho12  1  0.319096  0.178236  0.376716  1
  Ho  Ho13  1  0.319096  0.178236  0.123284  1
  Ho  Ho14  1  0.819106  0.321759  0.376717  1
  Ho  Ho15  1  0.180869  0.678222  0.876716  1
  Ho  Ho16  1  0.680924  0.821749  0.623280  1
  Er  Er17  1  0.649810  0.989592  0.250000  1
  Er  Er18  1  0.149821  0.510399  0.250000  1
  Er  Er19  1  0.850243  0.489593  0.750000  1
  Si  Si20  1  0.769030  0.620651  0.250000  1
  Si  Si21  1  0.269014  0.879342  0.250000  1
  Si  Si22  1  0.731102  0.120669  0.750000  1
  Si  Si23  1  0.230956  0.379473  0.750000  1
  Si  Si24  1  0.024044  0.112047  0.250000  1
  Si  Si25  1  0.524037  0.387947  0.250000  1
  Si  Si26  1  0.475940  0.612020  0.750000  1
  Si  Si27  1  0.975837  0.887922  0.750000  1
  Si  Si28  1  0.855974  0.531095  0.959979  1
  Si  Si29  1  0.355976  0.968893  0.539980  1
  Si  Si30  1  0.644023  0.031091  0.040029  1
  Si  Si31  1  0.144027  0.468911  0.459976  1
  Si  Si32  1  0.144027  0.468911  0.040024  1
  Si  Si33  1  0.644023  0.031091  0.459971  1
  Si  Si34  1  0.355976  0.968893  0.960020  1
  Si  Si35  1  0.855974  0.531095  0.540021  1
