# generated using pymatgen
data_KSrCu17Si8Ni
_symmetry_space_group_name_H-M   'P 1'
_cell_length_a   8.21243807
_cell_length_b   8.21243807
_cell_length_c   8.16246573
_cell_angle_alpha   120.48789434
_cell_angle_beta   120.48789633
_cell_angle_gamma   89.51080332
_symmetry_Int_Tables_number   1
_chemical_formula_structural   KSrCu17Si8Ni
_chemical_formula_sum   'K1 Sr1 Cu17 Si8 Ni1'
_cell_volume   385.16136688
_cell_formula_units_Z   1
loop_
 _symmetry_equiv_pos_site_id
 _symmetry_equiv_pos_as_xyz
  1  'x, y, z'
loop_
 _atom_site_type_symbol
 _atom_site_label
 _atom_site_symmetry_multiplicity
 _atom_site_fract_x
 _atom_site_fract_y
 _atom_site_fract_z
 _atom_site_occupancy
  K  K0  1  0.250000  0.250000  0.000000  1
  Sr  Sr1  1  0.750000  0.750000  0.000000  1
  Cu  Cu2  1  0.934083  0.204016  0.138484  1
  Cu  Cu3  1  0.202929  0.067153  0.270501  1
  Cu  Cu4  1  0.796653  0.932428  0.729499  1
  Cu  Cu5  1  0.432847  0.297071  0.729499  1
  Cu  Cu6  1  0.065531  0.795599  0.861516  1
  Cu  Cu7  1  0.806920  0.058786  0.499706  1
  Cu  Cu8  1  0.559081  0.307214  0.500294  1
  Cu  Cu9  1  0.192786  0.940919  0.499706  1
  Cu  Cu10  1  0.441214  0.693080  0.500294  1
  Cu  Cu11  1  0.942487  0.442761  0.752149  1
  Cu  Cu12  1  0.690611  0.190338  0.247851  1
  Cu  Cu13  1  0.057239  0.557513  0.247851  1
  Cu  Cu14  1  0.704401  0.434469  0.138484  1
  Cu  Cu15  1  0.567572  0.703347  0.270501  1
  Cu  Cu16  1  0.000000  0.500000  0.500000  1
  Cu  Cu17  1  0.309662  0.809389  0.752149  1
  Cu  Cu18  1  0.295984  0.565917  0.861516  1
  Si  Si19  1  0.784673  0.284670  0.842385  1
  Si  Si20  1  0.557712  0.057715  0.842385  1
  Si  Si21  1  0.058052  0.208568  0.500165  1
  Si  Si22  1  0.291432  0.441948  0.499835  1
  Si  Si23  1  0.942113  0.791597  0.500165  1
  Si  Si24  1  0.442285  0.942288  0.157615  1
  Si  Si25  1  0.215330  0.715327  0.157615  1
  Si  Si26  1  0.708403  0.557887  0.499835  1
  Ni  Ni27  1  0.500000  0.000000  0.500000  1
