# generated using pymatgen
data_Sm5Pb3Cl
_symmetry_space_group_name_H-M   'P 1'
_cell_length_a   9.39970000
_cell_length_b   9.39969864
_cell_length_c   6.75247600
_cell_angle_alpha   90.00000000
_cell_angle_beta   90.00000000
_cell_angle_gamma   119.99999773
_symmetry_Int_Tables_number   1
_chemical_formula_structural   Sm5Pb3Cl
_chemical_formula_sum   'Sm10 Pb6 Cl2'
_cell_volume   516.67995620
_cell_formula_units_Z   2
loop_
 _symmetry_equiv_pos_site_id
 _symmetry_equiv_pos_as_xyz
  1  'x, y, z'
loop_
 _atom_site_type_symbol
 _atom_site_label
 _atom_site_symmetry_multiplicity
 _atom_site_fract_x
 _atom_site_fract_y
 _atom_site_fract_z
 _atom_site_occupancy
  Sm  Sm0  1  0.333333  0.666667  0.000000  1
  Sm  Sm1  1  0.666667  0.333333  0.000000  1
  Sm  Sm2  1  0.666667  0.333333  0.500000  1
  Sm  Sm3  1  0.333333  0.666667  0.500000  1
  Sm  Sm4  1  0.259144  0.000000  0.250000  1
  Sm  Sm5  1  0.740856  0.000000  0.750000  1
  Sm  Sm6  1  0.000000  0.259144  0.250000  1
  Sm  Sm7  1  0.000000  0.740856  0.750000  1
  Sm  Sm8  1  0.740856  0.740856  0.250000  1
  Sm  Sm9  1  0.259144  0.259144  0.750000  1
  Pb  Pb10  1  0.610559  0.000000  0.250000  1
  Pb  Pb11  1  0.389441  0.000000  0.750000  1
  Pb  Pb12  1  0.000000  0.610559  0.250000  1
  Pb  Pb13  1  0.000000  0.389441  0.750000  1
  Pb  Pb14  1  0.389441  0.389441  0.250000  1
  Pb  Pb15  1  0.610559  0.610559  0.750000  1
  Cl  Cl16  1  0.000000  0.000000  0.000000  1
  Cl  Cl17  1  0.000000  0.000000  0.500000  1
