# generated using pymatgen
data_Dy3Th3(SiIr)4
_symmetry_space_group_name_H-M   'P 1'
_cell_length_a   5.72945904
_cell_length_b   5.72946028
_cell_length_c   13.40321300
_cell_angle_alpha   90.00707015
_cell_angle_beta   89.99292985
_cell_angle_gamma   138.56668983
_symmetry_Int_Tables_number   1
_chemical_formula_structural   Dy3Th3(SiIr)4
_chemical_formula_sum   'Dy3 Th3 Si4 Ir4'
_cell_volume   291.15803837
_cell_formula_units_Z   1
loop_
 _symmetry_equiv_pos_site_id
 _symmetry_equiv_pos_as_xyz
  1  'x, y, z'
loop_
 _atom_site_type_symbol
 _atom_site_label
 _atom_site_symmetry_multiplicity
 _atom_site_fract_x
 _atom_site_fract_y
 _atom_site_fract_z
 _atom_site_occupancy
  Dy  Dy0  1  0.780889  0.219111  0.605832  1
  Dy  Dy1  1  0.507468  0.492532  0.251055  1
  Dy  Dy2  1  0.489995  0.510005  0.745905  1
  Th  Th3  1  0.219715  0.780285  0.398718  1
  Th  Th4  1  0.776666  0.223334  0.896399  1
  Th  Th5  1  0.222495  0.777505  0.101191  1
  Si  Si6  1  0.064545  0.935455  0.593220  1
  Si  Si7  1  0.062341  0.937659  0.905726  1
  Si  Si8  1  0.932635  0.067365  0.413030  1
  Si  Si9  1  0.936865  0.063135  0.091387  1
  Ir  Ir10  1  0.799673  0.200327  0.250985  1
  Ir  Ir11  1  0.199962  0.800038  0.749385  1
  Ir  Ir12  1  0.500573  0.499427  0.999109  1
  Ir  Ir13  1  0.506179  0.493821  0.498058  1
