# generated using pymatgen
data_DyEr(TmZn6)2
_symmetry_space_group_name_H-M   'P 1'
_cell_length_a   4.37082700
_cell_length_b   6.62757611
_cell_length_c   10.05090597
_cell_angle_alpha   90.05460991
_cell_angle_beta   90.00000000
_cell_angle_gamma   90.00000000
_symmetry_Int_Tables_number   1
_chemical_formula_structural   DyEr(TmZn6)2
_chemical_formula_sum   'Dy1 Er1 Tm2 Zn12'
_cell_volume   291.15439741
_cell_formula_units_Z   1
loop_
 _symmetry_equiv_pos_site_id
 _symmetry_equiv_pos_as_xyz
  1  'x, y, z'
loop_
 _atom_site_type_symbol
 _atom_site_label
 _atom_site_symmetry_multiplicity
 _atom_site_fract_x
 _atom_site_fract_y
 _atom_site_fract_z
 _atom_site_occupancy
  Dy  Dy0  1  0.250000  0.278835  0.664489  1
  Er  Er1  1  0.750000  0.221035  0.164511  1
  Tm  Tm2  1  0.250000  0.779230  0.836180  1
  Tm  Tm3  1  0.750000  0.720773  0.336087  1
  Zn  Zn4  1  0.250000  0.534824  0.103382  1
  Zn  Zn5  1  0.250000  0.034348  0.395325  1
  Zn  Zn6  1  0.750000  0.465076  0.896158  1
  Zn  Zn7  1  0.750000  0.964398  0.602858  1
  Zn  Zn8  1  0.250000  0.917892  0.149896  1
  Zn  Zn9  1  0.250000  0.419412  0.350169  1
  Zn  Zn10  1  0.750000  0.080073  0.851319  1
  Zn  Zn11  1  0.750000  0.583181  0.649257  1
  Zn  Zn12  1  0.250000  0.213969  0.958136  1
  Zn  Zn13  1  0.250000  0.717110  0.542819  1
  Zn  Zn14  1  0.750000  0.784384  0.043059  1
  Zn  Zn15  1  0.750000  0.285458  0.456356  1
