# generated using pymatgen
data_Na5Bi2F13
_symmetry_space_group_name_H-M   'P 1'
_cell_length_a   6.68979153
_cell_length_b   6.68979140
_cell_length_c   8.80764805
_cell_angle_alpha   83.51717142
_cell_angle_beta   83.51717079
_cell_angle_gamma   50.33986191
_symmetry_Int_Tables_number   1
_chemical_formula_structural   Na5Bi2F13
_chemical_formula_sum   'Na5 Bi2 F13'
_cell_volume   301.07989058
_cell_formula_units_Z   1
loop_
 _symmetry_equiv_pos_site_id
 _symmetry_equiv_pos_as_xyz
  1  'x, y, z'
loop_
 _atom_site_type_symbol
 _atom_site_label
 _atom_site_symmetry_multiplicity
 _atom_site_fract_x
 _atom_site_fract_y
 _atom_site_fract_z
 _atom_site_occupancy
  Na  Na0  1  0.221888  0.221888  0.845877  1
  Na  Na1  1  0.778112  0.778112  0.154123  1
  Na  Na2  1  0.500000  0.500000  0.000000  1
  Na  Na3  1  0.665208  0.665208  0.572856  1
  Na  Na4  1  0.334792  0.334792  0.427144  1
  Bi  Bi5  1  0.926780  0.926780  0.744205  1
  Bi  Bi6  1  0.073220  0.073220  0.255795  1
  F  F7  1  0.056842  0.568300  0.642636  1
  F  F8  1  0.568300  0.056842  0.642636  1
  F  F9  1  0.943158  0.431700  0.357364  1
  F  F10  1  0.431700  0.943158  0.357364  1
  F  F11  1  0.632541  0.097001  0.935055  1
  F  F12  1  0.097001  0.632541  0.935055  1
  F  F13  1  0.367459  0.902999  0.064945  1
  F  F14  1  0.902999  0.367459  0.064945  1
  F  F15  1  0.311385  0.820637  0.754042  1
  F  F16  1  0.820637  0.311385  0.754042  1
  F  F17  1  0.688615  0.179363  0.245958  1
  F  F18  1  0.179363  0.688615  0.245958  1
  F  F19  1  0.000000  0.000000  0.500000  1
