# generated using pymatgen
data_Tm2Fe3Mo2P6Ir5
_symmetry_space_group_name_H-M   'P 1'
_cell_length_a   3.79595300
_cell_length_b   10.58941800
_cell_length_c   12.42317200
_cell_angle_alpha   90.00000000
_cell_angle_beta   90.00000000
_cell_angle_gamma   90.00000000
_symmetry_Int_Tables_number   1
_chemical_formula_structural   Tm2Fe3Mo2P6Ir5
_chemical_formula_sum   'Tm4 Fe6 Mo4 P12 Ir10'
_cell_volume   499.37341285
_cell_formula_units_Z   2
loop_
 _symmetry_equiv_pos_site_id
 _symmetry_equiv_pos_as_xyz
  1  'x, y, z'
loop_
 _atom_site_type_symbol
 _atom_site_label
 _atom_site_symmetry_multiplicity
 _atom_site_fract_x
 _atom_site_fract_y
 _atom_site_fract_z
 _atom_site_occupancy
  Tm  Tm0  1  0.250000  0.579421  0.713684  1
  Tm  Tm1  1  0.250000  0.920579  0.213684  1
  Tm  Tm2  1  0.750000  0.414437  0.289501  1
  Tm  Tm3  1  0.750000  0.085563  0.789501  1
  Fe  Fe4  1  0.750000  0.117792  0.303131  1
  Fe  Fe5  1  0.750000  0.382208  0.803131  1
  Fe  Fe6  1  0.250000  0.461020  0.935900  1
  Fe  Fe7  1  0.250000  0.038980  0.435900  1
  Fe  Fe8  1  0.750000  0.537425  0.062092  1
  Fe  Fe9  1  0.750000  0.962575  0.562092  1
  Mo  Mo10  1  0.250000  0.703453  0.987171  1
  Mo  Mo11  1  0.250000  0.796547  0.487171  1
  Mo  Mo12  1  0.750000  0.295270  0.009474  1
  Mo  Mo13  1  0.750000  0.204730  0.509474  1
  P  P14  1  0.250000  0.423559  0.106117  1
  P  P15  1  0.250000  0.076441  0.606117  1
  P  P16  1  0.750000  0.563979  0.888332  1
  P  P17  1  0.750000  0.936021  0.388332  1
  P  P18  1  0.250000  0.274203  0.865172  1
  P  P19  1  0.250000  0.225797  0.365172  1
  P  P20  1  0.750000  0.731100  0.130389  1
  P  P21  1  0.750000  0.768900  0.630389  1
  P  P22  1  0.250000  0.598410  0.390572  1
  P  P23  1  0.250000  0.901590  0.890572  1
  P  P24  1  0.750000  0.400972  0.619129  1
  P  P25  1  0.750000  0.099028  0.119129  1
  Ir  Ir26  1  0.250000  0.403331  0.476862  1
  Ir  Ir27  1  0.250000  0.096669  0.976862  1
  Ir  Ir28  1  0.750000  0.592585  0.521304  1
  Ir  Ir29  1  0.750000  0.907415  0.021304  1
  Ir  Ir30  1  0.250000  0.224218  0.178100  1
  Ir  Ir31  1  0.250000  0.275782  0.678100  1
  Ir  Ir32  1  0.750000  0.765023  0.821270  1
  Ir  Ir33  1  0.750000  0.734977  0.321270  1
  Ir  Ir34  1  0.250000  0.891147  0.701802  1
  Ir  Ir35  1  0.250000  0.608853  0.201802  1
