# generated using pymatgen
data_YHoAl9IrPd2
_symmetry_space_group_name_H-M   'P 1'
_cell_length_a   7.61056500
_cell_length_b   7.61058466
_cell_length_c   9.45228100
_cell_angle_alpha   90.00000000
_cell_angle_beta   90.00000000
_cell_angle_gamma   119.63478061
_symmetry_Int_Tables_number   1
_chemical_formula_structural   YHoAl9IrPd2
_chemical_formula_sum   'Y2 Ho2 Al18 Ir2 Pd4'
_cell_volume   475.87044051
_cell_formula_units_Z   2
loop_
 _symmetry_equiv_pos_site_id
 _symmetry_equiv_pos_as_xyz
  1  'x, y, z'
loop_
 _atom_site_type_symbol
 _atom_site_label
 _atom_site_symmetry_multiplicity
 _atom_site_fract_x
 _atom_site_fract_y
 _atom_site_fract_z
 _atom_site_occupancy
  Y  Y0  1  0.994358  0.668892  0.250000  1
  Y  Y1  1  0.005642  0.331108  0.750000  1
  Ho  Ho2  1  0.668928  0.994344  0.250000  1
  Ho  Ho3  1  0.331072  0.005656  0.750000  1
  Al  Al4  1  0.127574  0.127633  0.250000  1
  Al  Al5  1  0.872426  0.872367  0.750000  1
  Al  Al6  1  0.999746  0.331343  0.076173  1
  Al  Al7  1  0.000254  0.668657  0.923827  1
  Al  Al8  1  0.000254  0.668657  0.576173  1
  Al  Al9  1  0.331518  0.999839  0.423899  1
  Al  Al10  1  0.999746  0.331343  0.423827  1
  Al  Al11  1  0.668482  0.000161  0.576101  1
  Al  Al12  1  0.668482  0.000161  0.923899  1
  Al  Al13  1  0.331518  0.999839  0.076101  1
  Al  Al14  1  0.330702  0.330619  0.556926  1
  Al  Al15  1  0.669298  0.669381  0.443074  1
  Al  Al16  1  0.669298  0.669381  0.056926  1
  Al  Al17  1  0.330702  0.330619  0.943074  1
  Al  Al18  1  0.340361  0.547662  0.250000  1
  Al  Al19  1  0.659639  0.452338  0.750000  1
  Al  Al20  1  0.547566  0.340203  0.250000  1
  Al  Al21  1  0.452434  0.659797  0.750000  1
  Ir  Ir22  1  0.000000  0.000000  0.000000  1
  Ir  Ir23  1  0.000000  0.000000  0.500000  1
  Pd  Pd24  1  0.672316  0.327614  0.000003  1
  Pd  Pd25  1  0.327684  0.672386  0.999997  1
  Pd  Pd26  1  0.327684  0.672386  0.500003  1
  Pd  Pd27  1  0.672316  0.327614  0.499997  1
