# generated using pymatgen
data_Tb2YTmCuPt3
_symmetry_space_group_name_H-M   'P 1'
_cell_length_a   4.48482000
_cell_length_b   5.59485004
_cell_length_c   7.02903887
_cell_angle_alpha   89.45780274
_cell_angle_beta   90.00000000
_cell_angle_gamma   90.00000000
_symmetry_Int_Tables_number   1
_chemical_formula_structural   Tb2YTmCuPt3
_chemical_formula_sum   'Tb2 Y1 Tm1 Cu1 Pt3'
_cell_volume   176.36401067
_cell_formula_units_Z   1
loop_
 _symmetry_equiv_pos_site_id
 _symmetry_equiv_pos_as_xyz
  1  'x, y, z'
loop_
 _atom_site_type_symbol
 _atom_site_label
 _atom_site_symmetry_multiplicity
 _atom_site_fract_x
 _atom_site_fract_y
 _atom_site_fract_z
 _atom_site_occupancy
  Tb  Tb0  1  0.500000  0.364515  0.686874  1
  Tb  Tb1  1  0.500000  0.138647  0.176104  1
  Y  Y2  1  0.000000  0.641265  0.316929  1
  Tm  Tm3  1  0.000000  0.856721  0.819867  1
  Cu  Cu4  1  0.000000  0.135424  0.465502  1
  Pt  Pt5  1  0.000000  0.339981  0.953776  1
  Pt  Pt6  1  0.500000  0.866191  0.538996  1
  Pt  Pt7  1  0.500000  0.657257  0.041952  1
