# generated using pymatgen
data_YbTh3IrPd3
_symmetry_space_group_name_H-M   'P 1'
_cell_length_a   4.54084900
_cell_length_b   5.81563333
_cell_length_c   7.27553600
_cell_angle_alpha   89.83769748
_cell_angle_beta   90.00000000
_cell_angle_gamma   90.00000000
_symmetry_Int_Tables_number   1
_chemical_formula_structural   YbTh3IrPd3
_chemical_formula_sum   'Yb1 Th3 Ir1 Pd3'
_cell_volume   192.13094944
_cell_formula_units_Z   1
loop_
 _symmetry_equiv_pos_site_id
 _symmetry_equiv_pos_as_xyz
  1  'x, y, z'
loop_
 _atom_site_type_symbol
 _atom_site_label
 _atom_site_symmetry_multiplicity
 _atom_site_fract_x
 _atom_site_fract_y
 _atom_site_fract_z
 _atom_site_occupancy
  Yb  Yb0  1  0.250000  0.146231  0.182830  1
  Th  Th1  1  0.250000  0.354097  0.676142  1
  Th  Th2  1  0.750000  0.661493  0.323087  1
  Th  Th3  1  0.750000  0.855678  0.812221  1
  Ir  Ir4  1  0.250000  0.822689  0.555252  1
  Pd  Pd5  1  0.250000  0.647077  0.044099  1
  Pd  Pd6  1  0.750000  0.166542  0.451594  1
  Pd  Pd7  1  0.750000  0.346193  0.954778  1
