# generated using pymatgen
data_Tb3Er7Si5P
_symmetry_space_group_name_H-M   'P 1'
_cell_length_a   8.37409300
_cell_length_b   8.38068593
_cell_length_c   6.26658100
_cell_angle_alpha   90.00000000
_cell_angle_beta   90.00000000
_cell_angle_gamma   119.97396836
_symmetry_Int_Tables_number   1
_chemical_formula_structural   Tb3Er7Si5P
_chemical_formula_sum   'Tb3 Er7 Si5 P1'
_cell_volume   380.97150679
_cell_formula_units_Z   1
loop_
 _symmetry_equiv_pos_site_id
 _symmetry_equiv_pos_as_xyz
  1  'x, y, z'
loop_
 _atom_site_type_symbol
 _atom_site_label
 _atom_site_symmetry_multiplicity
 _atom_site_fract_x
 _atom_site_fract_y
 _atom_site_fract_z
 _atom_site_occupancy
  Tb  Tb0  1  0.001031  0.756959  0.750000  1
  Tb  Tb1  1  0.755169  0.000000  0.750000  1
  Tb  Tb2  1  0.244071  0.243041  0.750000  1
  Er  Er3  1  0.000780  0.244138  0.250000  1
  Er  Er4  1  0.756642  0.755862  0.250000  1
  Er  Er5  1  0.243385  0.000000  0.250000  1
  Er  Er6  1  0.333689  0.667349  0.500056  1
  Er  Er7  1  0.666341  0.332651  0.999944  1
  Er  Er8  1  0.666341  0.332651  0.500056  1
  Er  Er9  1  0.333689  0.667349  0.999944  1
  Si  Si10  1  0.394474  0.393931  0.250000  1
  Si  Si11  1  0.000543  0.606069  0.250000  1
  Si  Si12  1  0.000096  0.394636  0.750000  1
  Si  Si13  1  0.605461  0.605364  0.750000  1
  Si  Si14  1  0.606665  0.000000  0.250000  1
  P  P15  1  0.391626  0.000000  0.750000  1
