# generated using pymatgen
data_Lu2Ga3Pd
_symmetry_space_group_name_H-M   'P 1'
_cell_length_a   8.83616300
_cell_length_b   8.83616357
_cell_length_c   6.85756500
_cell_angle_alpha   90.00000000
_cell_angle_beta   90.00000000
_cell_angle_gamma   120.00000161
_symmetry_Int_Tables_number   1
_chemical_formula_structural   Lu2Ga3Pd
_chemical_formula_sum   'Lu8 Ga12 Pd4'
_cell_volume   463.69031271
_cell_formula_units_Z   4
loop_
 _symmetry_equiv_pos_site_id
 _symmetry_equiv_pos_as_xyz
  1  'x, y, z'
loop_
 _atom_site_type_symbol
 _atom_site_label
 _atom_site_symmetry_multiplicity
 _atom_site_fract_x
 _atom_site_fract_y
 _atom_site_fract_z
 _atom_site_occupancy
  Lu  Lu0  1  0.000000  0.000000  0.250000  1
  Lu  Lu1  1  0.000000  0.000000  0.750000  1
  Lu  Lu2  1  0.518678  0.037356  0.250000  1
  Lu  Lu3  1  0.518678  0.481322  0.250000  1
  Lu  Lu4  1  0.962644  0.481322  0.250000  1
  Lu  Lu5  1  0.481322  0.962644  0.750000  1
  Lu  Lu6  1  0.481322  0.518678  0.750000  1
  Lu  Lu7  1  0.037356  0.518678  0.750000  1
  Ga  Ga8  1  0.166708  0.333416  0.045411  1
  Ga  Ga9  1  0.166708  0.833292  0.454589  1
  Ga  Ga10  1  0.666584  0.833292  0.454589  1
  Ga  Ga11  1  0.666584  0.833292  0.045411  1
  Ga  Ga12  1  0.166708  0.833292  0.045411  1
  Ga  Ga13  1  0.833292  0.666584  0.954589  1
  Ga  Ga14  1  0.833292  0.166708  0.954589  1
  Ga  Ga15  1  0.333416  0.166708  0.954589  1
  Ga  Ga16  1  0.166708  0.333416  0.454589  1
  Ga  Ga17  1  0.333416  0.166708  0.545411  1
  Ga  Ga18  1  0.833292  0.666584  0.545411  1
  Ga  Ga19  1  0.833292  0.166708  0.545411  1
  Pd  Pd20  1  0.333333  0.666667  0.028434  1
  Pd  Pd21  1  0.333333  0.666667  0.471566  1
  Pd  Pd22  1  0.666667  0.333333  0.971566  1
  Pd  Pd23  1  0.666667  0.333333  0.528434  1
