# generated using pymatgen
data_Nd2Fe10Co2P7
_symmetry_space_group_name_H-M   'P 1'
_cell_length_a   9.01981034
_cell_length_b   9.03097801
_cell_length_c   3.67715800
_cell_angle_alpha   90.00000000
_cell_angle_beta   90.00000000
_cell_angle_gamma   119.92745861
_symmetry_Int_Tables_number   1
_chemical_formula_structural   Nd2Fe10Co2P7
_chemical_formula_sum   'Nd2 Fe10 Co2 P7'
_cell_volume   259.59248030
_cell_formula_units_Z   1
loop_
 _symmetry_equiv_pos_site_id
 _symmetry_equiv_pos_as_xyz
  1  'x, y, z'
loop_
 _atom_site_type_symbol
 _atom_site_label
 _atom_site_symmetry_multiplicity
 _atom_site_fract_x
 _atom_site_fract_y
 _atom_site_fract_z
 _atom_site_occupancy
  Nd  Nd0  1  0.667155  0.333927  0.000000  1
  Nd  Nd1  1  0.333211  0.666467  0.500000  1
  Fe  Fe2  1  0.056205  0.631298  0.000000  1
  Fe  Fe3  1  0.574807  0.945229  0.000000  1
  Fe  Fe4  1  0.370478  0.426574  0.000000  1
  Fe  Fe5  1  0.272422  0.119590  0.000000  1
  Fe  Fe6  1  0.847542  0.728240  0.000000  1
  Fe  Fe7  1  0.880232  0.151257  0.000000  1
  Fe  Fe8  1  0.950310  0.381886  0.500000  1
  Fe  Fe9  1  0.097312  0.881277  0.500000  1
  Fe  Fe10  1  0.782569  0.901429  0.500000  1
  Fe  Fe11  1  0.117406  0.214691  0.500000  1
  Co  Co12  1  0.433070  0.050016  0.500000  1
  Co  Co13  1  0.617301  0.567459  0.500000  1
  P  P14  1  0.297899  0.891857  0.000000  1
  P  P15  1  0.593619  0.702004  0.000000  1
  P  P16  1  0.106833  0.406947  0.000000  1
  P  P17  1  0.394009  0.289089  0.500000  1
  P  P18  1  0.895085  0.603656  0.500000  1
  P  P19  1  0.712007  0.107451  0.500000  1
  P  P20  1  0.000527  0.999656  0.000000  1
