# generated using pymatgen
data_Dy2Ho2Al4RuPt3
_symmetry_space_group_name_H-M   'P 1'
_cell_length_a   4.35142200
_cell_length_b   6.84251579
_cell_length_c   7.86607000
_cell_angle_alpha   89.79462714
_cell_angle_beta   90.00000000
_cell_angle_gamma   90.00000000
_symmetry_Int_Tables_number   1
_chemical_formula_structural   Dy2Ho2Al4RuPt3
_chemical_formula_sum   'Dy2 Ho2 Al4 Ru1 Pt3'
_cell_volume   234.20816335
_cell_formula_units_Z   1
loop_
 _symmetry_equiv_pos_site_id
 _symmetry_equiv_pos_as_xyz
  1  'x, y, z'
loop_
 _atom_site_type_symbol
 _atom_site_label
 _atom_site_symmetry_multiplicity
 _atom_site_fract_x
 _atom_site_fract_y
 _atom_site_fract_z
 _atom_site_occupancy
  Dy  Dy0  1  0.750000  0.976519  0.321083  1
  Dy  Dy1  1  0.750000  0.467236  0.184388  1
  Ho  Ho2  1  0.250000  0.033763  0.677652  1
  Ho  Ho3  1  0.250000  0.530490  0.819153  1
  Al  Al4  1  0.250000  0.143999  0.062137  1
  Al  Al5  1  0.250000  0.637970  0.436955  1
  Al  Al6  1  0.750000  0.858276  0.937791  1
  Al  Al7  1  0.750000  0.355789  0.560260  1
  Ru  Ru8  1  0.250000  0.263989  0.381372  1
  Pt  Pt9  1  0.250000  0.771001  0.118188  1
  Pt  Pt10  1  0.750000  0.730094  0.621053  1
  Pt  Pt11  1  0.750000  0.230876  0.879966  1
