# generated using pymatgen
data_Li3Tm2Nb3(Co4P3)4
_symmetry_space_group_name_H-M   'P 1'
_cell_length_a   11.84204900
_cell_length_b   11.84204852
_cell_length_c   3.64197800
_cell_angle_alpha   90.00000000
_cell_angle_beta   90.00000000
_cell_angle_gamma   119.99999855
_symmetry_Int_Tables_number   1
_chemical_formula_structural   Li3Tm2Nb3(Co4P3)4
_chemical_formula_sum   'Li3 Tm2 Nb3 Co16 P12'
_cell_volume   442.30479339
_cell_formula_units_Z   1
loop_
 _symmetry_equiv_pos_site_id
 _symmetry_equiv_pos_as_xyz
  1  'x, y, z'
loop_
 _atom_site_type_symbol
 _atom_site_label
 _atom_site_symmetry_multiplicity
 _atom_site_fract_x
 _atom_site_fract_y
 _atom_site_fract_z
 _atom_site_occupancy
  Li  Li0  1  0.442224  0.000000  0.000000  1
  Li  Li1  1  0.000000  0.442224  0.000000  1
  Li  Li2  1  0.557776  0.557776  0.000000  1
  Tm  Tm3  1  0.333333  0.666667  0.000000  1
  Tm  Tm4  1  0.666667  0.333333  0.000000  1
  Nb  Nb5  1  0.812217  0.000000  0.500000  1
  Nb  Nb6  1  0.000000  0.812217  0.500000  1
  Nb  Nb7  1  0.187783  0.187783  0.500000  1
  Co  Co8  1  0.277197  0.000000  0.500000  1
  Co  Co9  1  0.000000  0.277197  0.500000  1
  Co  Co10  1  0.722803  0.722803  0.500000  1
  Co  Co11  1  0.628796  0.804659  0.000000  1
  Co  Co12  1  0.195341  0.824138  0.000000  1
  Co  Co13  1  0.175862  0.371204  0.000000  1
  Co  Co14  1  0.371204  0.175862  0.000000  1
  Co  Co15  1  0.804659  0.628796  0.000000  1
  Co  Co16  1  0.824138  0.195341  0.000000  1
  Co  Co17  1  0.523763  0.874853  0.500000  1
  Co  Co18  1  0.125147  0.648909  0.500000  1
  Co  Co19  1  0.351091  0.476237  0.500000  1
  Co  Co20  1  0.476237  0.351091  0.500000  1
  Co  Co21  1  0.874853  0.523763  0.500000  1
  Co  Co22  1  0.648909  0.125147  0.500000  1
  Co  Co23  1  0.000000  0.000000  0.000000  1
  P  P24  1  0.174746  0.000000  0.000000  1
  P  P25  1  0.000000  0.174746  0.000000  1
  P  P26  1  0.825254  0.825254  0.000000  1
  P  P27  1  0.519998  0.684550  0.500000  1
  P  P28  1  0.315450  0.835447  0.500000  1
  P  P29  1  0.164553  0.480002  0.500000  1
  P  P30  1  0.480002  0.164553  0.500000  1
  P  P31  1  0.684550  0.519998  0.500000  1
  P  P32  1  0.835447  0.315450  0.500000  1
  P  P33  1  0.641366  0.000000  0.000000  1
  P  P34  1  0.000000  0.641366  0.000000  1
  P  P35  1  0.358634  0.358634  0.000000  1
