# generated using pymatgen
data_Er3CoSn3IrPd
_symmetry_space_group_name_H-M   'P 1'
_cell_length_a   7.55037800
_cell_length_b   7.55037873
_cell_length_c   3.77780300
_cell_angle_alpha   90.00000000
_cell_angle_beta   90.00000000
_cell_angle_gamma   119.99999680
_symmetry_Int_Tables_number   1
_chemical_formula_structural   Er3CoSn3IrPd
_chemical_formula_sum   'Er3 Co1 Sn3 Ir1 Pd1'
_cell_volume   186.51225978
_cell_formula_units_Z   1
loop_
 _symmetry_equiv_pos_site_id
 _symmetry_equiv_pos_as_xyz
  1  'x, y, z'
loop_
 _atom_site_type_symbol
 _atom_site_label
 _atom_site_symmetry_multiplicity
 _atom_site_fract_x
 _atom_site_fract_y
 _atom_site_fract_z
 _atom_site_occupancy
  Er  Er0  1  0.396147  0.409183  0.500000  1
  Er  Er1  1  0.590817  0.986964  0.500000  1
  Er  Er2  1  0.013036  0.603853  0.500000  1
  Co  Co3  1  0.000000  0.000000  0.500000  1
  Sn  Sn4  1  0.748631  0.745418  0.000000  1
  Sn  Sn5  1  0.254582  0.003213  0.000000  1
  Sn  Sn6  1  0.996787  0.251369  0.000000  1
  Ir  Ir7  1  0.333333  0.666667  0.000000  1
  Pd  Pd8  1  0.666667  0.333333  0.000000  1
