# generated using pymatgen
data_Y6Ho13ErPb16
_symmetry_space_group_name_H-M   'P 1'
_cell_length_a   8.20795100
_cell_length_b   8.26900206
_cell_length_c   15.62011204
_cell_angle_alpha   90.00804960
_cell_angle_beta   90.00051516
_cell_angle_gamma   90.00368743
_symmetry_Int_Tables_number   1
_chemical_formula_structural   Y6Ho13ErPb16
_chemical_formula_sum   'Y6 Ho13 Er1 Pb16'
_cell_volume   1060.16141707
_cell_formula_units_Z   1
loop_
 _symmetry_equiv_pos_site_id
 _symmetry_equiv_pos_as_xyz
  1  'x, y, z'
loop_
 _atom_site_type_symbol
 _atom_site_label
 _atom_site_symmetry_multiplicity
 _atom_site_fract_x
 _atom_site_fract_y
 _atom_site_fract_z
 _atom_site_occupancy
  Y  Y0  1  0.463665  0.675685  0.399913  1
  Y  Y1  1  0.964004  0.824737  0.100072  1
  Y  Y2  1  0.463645  0.675685  0.100081  1
  Y  Y3  1  0.963979  0.824734  0.399930  1
  Y  Y4  1  0.536167  0.324575  0.600001  1
  Y  Y5  1  0.036231  0.175443  0.900157  1
  Ho  Ho6  1  0.377209  0.841859  0.879109  1
  Ho  Ho7  1  0.877212  0.658235  0.621098  1
  Ho  Ho8  1  0.622508  0.158102  0.378710  1
  Ho  Ho9  1  0.122857  0.341644  0.121258  1
  Ho  Ho10  1  0.622471  0.158163  0.121182  1
  Ho  Ho11  1  0.122822  0.341591  0.378849  1
  Ho  Ho12  1  0.377185  0.841863  0.620891  1
  Ho  Ho13  1  0.877197  0.658241  0.878904  1
  Ho  Ho14  1  0.536168  0.324595  0.899905  1
  Ho  Ho15  1  0.036220  0.175423  0.599947  1
  Ho  Ho16  1  0.209500  0.504155  0.749991  1
  Ho  Ho17  1  0.709481  0.995904  0.750010  1
  Ho  Ho18  1  0.790591  0.495739  0.250004  1
  Er  Er19  1  0.290431  0.004584  0.249993  1
  Pb  Pb20  1  0.281604  0.033480  0.043403  1
  Pb  Pb21  1  0.781514  0.466007  0.457070  1
  Pb  Pb22  1  0.718883  0.966366  0.542814  1
  Pb  Pb23  1  0.218753  0.533547  0.957166  1
  Pb  Pb24  1  0.718434  0.966297  0.957189  1
  Pb  Pb25  1  0.218294  0.533620  0.542827  1
  Pb  Pb26  1  0.281473  0.033595  0.456736  1
  Pb  Pb27  1  0.781360  0.465874  0.042786  1
  Pb  Pb28  1  0.572479  0.625975  0.750036  1
  Pb  Pb29  1  0.072622  0.874202  0.749961  1
  Pb  Pb30  1  0.427106  0.373727  0.249988  1
  Pb  Pb31  1  0.927955  0.125313  0.250012  1
  Pb  Pb32  1  0.348473  0.153393  0.750117  1
  Pb  Pb33  1  0.848579  0.346433  0.749890  1
  Pb  Pb34  1  0.650899  0.846908  0.249992  1
  Pb  Pb35  1  0.152031  0.654304  0.250011  1
