# generated using pymatgen
data_Sc2Fe8NiP7Ru3
_symmetry_space_group_name_H-M   'P 1'
_cell_length_a   8.87173120
_cell_length_b   8.93135282
_cell_length_c   3.66539800
_cell_angle_alpha   90.00000000
_cell_angle_beta   90.00000000
_cell_angle_gamma   119.30017374
_symmetry_Int_Tables_number   1
_chemical_formula_structural   Sc2Fe8NiP7Ru3
_chemical_formula_sum   'Sc2 Fe8 Ni1 P7 Ru3'
_cell_volume   253.27772951
_cell_formula_units_Z   1
loop_
 _symmetry_equiv_pos_site_id
 _symmetry_equiv_pos_as_xyz
  1  'x, y, z'
loop_
 _atom_site_type_symbol
 _atom_site_label
 _atom_site_symmetry_multiplicity
 _atom_site_fract_x
 _atom_site_fract_y
 _atom_site_fract_z
 _atom_site_occupancy
  Sc  Sc0  1  0.671302  0.338985  0.500000  1
  Sc  Sc1  1  0.328051  0.658553  0.000000  1
  Fe  Fe2  1  0.385930  0.437103  0.500000  1
  Fe  Fe3  1  0.054913  0.614174  0.500000  1
  Fe  Fe4  1  0.714187  0.879874  0.000000  1
  Fe  Fe5  1  0.120350  0.842261  0.000000  1
  Fe  Fe6  1  0.159460  0.277261  0.000000  1
  Fe  Fe7  1  0.943507  0.372348  0.000000  1
  Fe  Fe8  1  0.631064  0.570605  0.000000  1
  Fe  Fe9  1  0.432873  0.058557  0.000000  1
  Ni  Ni10  1  0.555533  0.943739  0.500000  1
  P  P11  1  0.996593  0.999912  0.000000  1
  P  P12  1  0.422001  0.303718  0.000000  1
  P  P13  1  0.587283  0.703426  0.500000  1
  P  P14  1  0.283266  0.875738  0.500000  1
  P  P15  1  0.122267  0.411310  0.500000  1
  P  P16  1  0.704647  0.124859  0.000000  1
  P  P17  1  0.886684  0.582774  0.000000  1
  Ru  Ru18  1  0.220461  0.097799  0.500000  1
  Ru  Ru19  1  0.877411  0.782744  0.500000  1
  Ru  Ru20  1  0.902216  0.124260  0.500000  1
