# generated using pymatgen
data_TbPrHo3(Tl2Pd)2
_symmetry_space_group_name_H-M   'P 1'
_cell_length_a   3.65297300
_cell_length_b   8.29766939
_cell_length_c   18.54336802
_cell_angle_alpha   89.90693757
_cell_angle_beta   90.00000000
_cell_angle_gamma   90.00000000
_symmetry_Int_Tables_number   1
_chemical_formula_structural   TbPrHo3(Tl2Pd)2
_chemical_formula_sum   'Tb2 Pr2 Ho6 Tl8 Pd4'
_cell_volume   562.07029517
_cell_formula_units_Z   2
loop_
 _symmetry_equiv_pos_site_id
 _symmetry_equiv_pos_as_xyz
  1  'x, y, z'
loop_
 _atom_site_type_symbol
 _atom_site_label
 _atom_site_symmetry_multiplicity
 _atom_site_fract_x
 _atom_site_fract_y
 _atom_site_fract_z
 _atom_site_occupancy
  Tb  Tb0  1  0.000000  0.739344  0.283005  1
  Tb  Tb1  1  0.000000  0.260656  0.716995  1
  Pr  Pr2  1  0.000000  0.500000  0.500000  1
  Pr  Pr3  1  0.000000  0.000000  0.000000  1
  Ho  Ho4  1  0.000000  0.760783  0.782765  1
  Ho  Ho5  1  0.000000  0.239217  0.217235  1
  Ho  Ho6  1  0.000000  0.620606  0.086389  1
  Ho  Ho7  1  0.000000  0.379394  0.913611  1
  Ho  Ho8  1  0.000000  0.879112  0.586211  1
  Ho  Ho9  1  0.000000  0.120888  0.413789  1
  Tl  Tl10  1  0.500000  0.697461  0.933344  1
  Tl  Tl11  1  0.500000  0.302539  0.066656  1
  Tl  Tl12  1  0.500000  0.803436  0.433623  1
  Tl  Tl13  1  0.500000  0.196564  0.566377  1
  Tl  Tl14  1  0.500000  0.585840  0.653443  1
  Tl  Tl15  1  0.500000  0.414160  0.346557  1
  Tl  Tl16  1  0.500000  0.915355  0.153244  1
  Tl  Tl17  1  0.500000  0.084645  0.846756  1
  Pd  Pd18  1  0.500000  0.524605  0.195580  1
  Pd  Pd19  1  0.500000  0.475395  0.804420  1
  Pd  Pd20  1  0.500000  0.972050  0.695928  1
  Pd  Pd21  1  0.500000  0.027950  0.304072  1
