# generated using pymatgen
data_Dy3Tm(AlGa2)2
_symmetry_space_group_name_H-M   'P 1'
_cell_length_a   6.98197460
_cell_length_b   6.98197460
_cell_length_c   4.45988700
_cell_angle_alpha   90.00000000
_cell_angle_beta   90.00000000
_cell_angle_gamma   90.46142187
_symmetry_Int_Tables_number   1
_chemical_formula_structural   Dy3Tm(AlGa2)2
_chemical_formula_sum   'Dy3 Tm1 Al2 Ga4'
_cell_volume   217.40338464
_cell_formula_units_Z   1
loop_
 _symmetry_equiv_pos_site_id
 _symmetry_equiv_pos_as_xyz
  1  'x, y, z'
loop_
 _atom_site_type_symbol
 _atom_site_label
 _atom_site_symmetry_multiplicity
 _atom_site_fract_x
 _atom_site_fract_y
 _atom_site_fract_z
 _atom_site_occupancy
  Dy  Dy0  1  0.827141  0.673851  0.500000  1
  Dy  Dy1  1  0.173851  0.327141  0.500000  1
  Dy  Dy2  1  0.672023  0.172023  0.500000  1
  Tm  Tm3  1  0.327156  0.827156  0.500000  1
  Al  Al4  1  0.499681  0.500135  0.000000  1
  Al  Al5  1  0.000135  0.999681  0.000000  1
  Ga  Ga6  1  0.869189  0.369189  0.000000  1
  Ga  Ga7  1  0.367844  0.129327  0.000000  1
  Ga  Ga8  1  0.133653  0.633653  0.000000  1
  Ga  Ga9  1  0.629327  0.867844  0.000000  1
