# generated using pymatgen
data_HoLuSc3P12Ru19
_symmetry_space_group_name_H-M   'P 1'
_cell_length_a   12.44809100
_cell_length_b   12.44809122
_cell_length_c   3.94740300
_cell_angle_alpha   90.00000000
_cell_angle_beta   90.00000000
_cell_angle_gamma   120.00000207
_symmetry_Int_Tables_number   1
_chemical_formula_structural   HoLuSc3P12Ru19
_chemical_formula_sum   'Ho1 Lu1 Sc3 P12 Ru19'
_cell_volume   529.72150731
_cell_formula_units_Z   1
loop_
 _symmetry_equiv_pos_site_id
 _symmetry_equiv_pos_as_xyz
  1  'x, y, z'
loop_
 _atom_site_type_symbol
 _atom_site_label
 _atom_site_symmetry_multiplicity
 _atom_site_fract_x
 _atom_site_fract_y
 _atom_site_fract_z
 _atom_site_occupancy
  Ho  Ho0  1  0.333333  0.666667  0.000000  1
  Lu  Lu1  1  0.666667  0.333333  0.000000  1
  Sc  Sc2  1  0.000030  0.181812  0.500000  1
  Sc  Sc3  1  0.818188  0.818218  0.500000  1
  Sc  Sc4  1  0.181782  0.999970  0.500000  1
  P  P5  1  0.999596  0.818682  0.000000  1
  P  P6  1  0.181318  0.180914  0.000000  1
  P  P7  1  0.819086  0.000404  0.000000  1
  P  P8  1  0.693606  0.170561  0.500000  1
  P  P9  1  0.829439  0.523045  0.500000  1
  P  P10  1  0.476955  0.306394  0.500000  1
  P  P11  1  0.169822  0.693529  0.500000  1
  P  P12  1  0.523708  0.830178  0.500000  1
  P  P13  1  0.306471  0.476292  0.500000  1
  P  P14  1  0.000031  0.372767  0.000000  1
  P  P15  1  0.627233  0.627264  0.000000  1
  P  P16  1  0.372736  0.999969  0.000000  1
  Ru  Ru17  1  0.000019  0.556248  0.000000  1
  Ru  Ru18  1  0.443752  0.443771  0.000000  1
  Ru  Ru19  1  0.556229  0.999981  0.000000  1
  Ru  Ru20  1  0.999742  0.721197  0.500000  1
  Ru  Ru21  1  0.278803  0.278545  0.500000  1
  Ru  Ru22  1  0.721455  0.000258  0.500000  1
  Ru  Ru23  1  0.811927  0.185136  0.000000  1
  Ru  Ru24  1  0.814864  0.626791  0.000000  1
  Ru  Ru25  1  0.373209  0.188073  0.000000  1
  Ru  Ru26  1  0.184656  0.812309  0.000000  1
  Ru  Ru27  1  0.627653  0.815344  0.000000  1
  Ru  Ru28  1  0.187691  0.372347  0.000000  1
  Ru  Ru29  1  0.872877  0.365395  0.500000  1
  Ru  Ru30  1  0.634605  0.507482  0.500000  1
  Ru  Ru31  1  0.492518  0.127123  0.500000  1
  Ru  Ru32  1  0.365420  0.874171  0.500000  1
  Ru  Ru33  1  0.508751  0.634580  0.500000  1
  Ru  Ru34  1  0.125829  0.491249  0.500000  1
  Ru  Ru35  1  0.000000  0.000000  0.000000  1
