# generated using pymatgen
data_LiTb2Lu4Co17P12
_symmetry_space_group_name_H-M   'P 1'
_cell_length_a   3.66453500
_cell_length_b   10.46214100
_cell_length_c   12.07803500
_cell_angle_alpha   90.00000000
_cell_angle_beta   90.00000000
_cell_angle_gamma   90.00000000
_symmetry_Int_Tables_number   1
_chemical_formula_structural   LiTb2Lu4Co17P12
_chemical_formula_sum   'Li1 Tb2 Lu4 Co17 P12'
_cell_volume   463.05835708
_cell_formula_units_Z   1
loop_
 _symmetry_equiv_pos_site_id
 _symmetry_equiv_pos_as_xyz
  1  'x, y, z'
loop_
 _atom_site_type_symbol
 _atom_site_label
 _atom_site_symmetry_multiplicity
 _atom_site_fract_x
 _atom_site_fract_y
 _atom_site_fract_z
 _atom_site_occupancy
  Li  Li0  1  0.500000  0.500000  0.151565  1
  Tb  Tb1  1  0.000000  0.500000  0.523110  1
  Tb  Tb2  1  0.500000  0.000000  0.477470  1
  Lu  Lu3  1  0.500000  0.820092  0.206118  1
  Lu  Lu4  1  0.500000  0.179908  0.206118  1
  Lu  Lu5  1  0.000000  0.681443  0.794660  1
  Lu  Lu6  1  0.000000  0.318557  0.794660  1
  Co  Co7  1  0.000000  0.000000  0.840618  1
  Co  Co8  1  0.500000  0.500000  0.706169  1
  Co  Co9  1  0.000000  0.000000  0.294886  1
  Co  Co10  1  0.000000  0.500000  0.986248  1
  Co  Co11  1  0.500000  0.000000  0.012095  1
  Co  Co12  1  0.500000  0.330802  0.995098  1
  Co  Co13  1  0.500000  0.669198  0.995098  1
  Co  Co14  1  0.000000  0.165210  0.003361  1
  Co  Co15  1  0.000000  0.834790  0.003361  1
  Co  Co16  1  0.500000  0.296097  0.431462  1
  Co  Co17  1  0.500000  0.703903  0.431462  1
  Co  Co18  1  0.000000  0.202626  0.571019  1
  Co  Co19  1  0.000000  0.797374  0.571019  1
  Co  Co20  1  0.500000  0.878788  0.710239  1
  Co  Co21  1  0.500000  0.121212  0.710239  1
  Co  Co22  1  0.000000  0.623070  0.291305  1
  Co  Co23  1  0.000000  0.376930  0.291305  1
  P  P24  1  0.500000  0.500000  0.884291  1
  P  P25  1  0.000000  0.000000  0.116877  1
  P  P26  1  0.500000  0.500000  0.344623  1
  P  P27  1  0.000000  0.000000  0.655886  1
  P  P28  1  0.500000  0.310541  0.618556  1
  P  P29  1  0.500000  0.689459  0.618556  1
  P  P30  1  0.000000  0.189320  0.383368  1
  P  P31  1  0.000000  0.810680  0.383368  1
  P  P32  1  0.500000  0.846425  0.890930  1
  P  P33  1  0.500000  0.153575  0.890930  1
  P  P34  1  0.000000  0.658206  0.106964  1
  P  P35  1  0.000000  0.341794  0.106964  1
