# generated using pymatgen
data_Er3Ga6Ni8Rh
_symmetry_space_group_name_H-M   'P 1'
_cell_length_a   8.85010066
_cell_length_b   8.85010034
_cell_length_c   4.09400700
_cell_angle_alpha   90.00000000
_cell_angle_beta   90.00000000
_cell_angle_gamma   122.00351259
_symmetry_Int_Tables_number   1
_chemical_formula_structural   Er3Ga6Ni8Rh
_chemical_formula_sum   'Er3 Ga6 Ni8 Rh1'
_cell_volume   271.92480821
_cell_formula_units_Z   1
loop_
 _symmetry_equiv_pos_site_id
 _symmetry_equiv_pos_as_xyz
  1  'x, y, z'
loop_
 _atom_site_type_symbol
 _atom_site_label
 _atom_site_symmetry_multiplicity
 _atom_site_fract_x
 _atom_site_fract_y
 _atom_site_fract_z
 _atom_site_occupancy
  Er  Er0  1  0.667461  0.333355  0.500000  1
  Er  Er1  1  0.333355  0.667461  0.500000  1
  Er  Er2  1  0.014529  0.014529  0.000000  1
  Ga  Ga3  1  0.473559  0.473559  0.000000  1
  Ga  Ga4  1  0.518984  0.987713  0.000000  1
  Ga  Ga5  1  0.987713  0.518984  0.000000  1
  Ga  Ga6  1  0.733713  0.733713  0.500000  1
  Ga  Ga7  1  0.275555  0.995039  0.500000  1
  Ga  Ga8  1  0.995039  0.275555  0.500000  1
  Ni  Ni9  1  0.824169  0.197227  0.000000  1
  Ni  Ni10  1  0.797598  0.631033  0.000000  1
  Ni  Ni11  1  0.392377  0.167525  0.000000  1
  Ni  Ni12  1  0.197227  0.824169  0.000000  1
  Ni  Ni13  1  0.631033  0.797598  0.000000  1
  Ni  Ni14  1  0.167525  0.392377  0.000000  1
  Ni  Ni15  1  0.706771  0.996458  0.500000  1
  Ni  Ni16  1  0.996458  0.706771  0.500000  1
  Rh  Rh17  1  0.286934  0.286934  0.500000  1
