# generated using pymatgen
data_ThPa7H30
_symmetry_space_group_name_H-M   'P 1'
_cell_length_a   7.65041194
_cell_length_b   7.65041137
_cell_length_c   7.65041204
_cell_angle_alpha   109.42972751
_cell_angle_beta   109.42974193
_cell_angle_gamma   109.42974177
_symmetry_Int_Tables_number   1
_chemical_formula_structural   ThPa7H30
_chemical_formula_sum   'Th1 Pa7 H30'
_cell_volume   345.22145913
_cell_formula_units_Z   1
loop_
 _symmetry_equiv_pos_site_id
 _symmetry_equiv_pos_as_xyz
  1  'x, y, z'
loop_
 _atom_site_type_symbol
 _atom_site_label
 _atom_site_symmetry_multiplicity
 _atom_site_fract_x
 _atom_site_fract_y
 _atom_site_fract_z
 _atom_site_occupancy
  Th  Th0  1  0.419652  0.419652  0.419652  1
  Pa  Pa1  1  0.919641  0.919641  0.919641  1
  Pa  Pa2  1  0.502035  0.996334  0.080823  1
  Pa  Pa3  1  0.996334  0.080823  0.502035  1
  Pa  Pa4  1  0.080823  0.502035  0.996334  1
  Pa  Pa5  1  0.000578  0.582701  0.500316  1
  Pa  Pa6  1  0.582701  0.500316  0.000578  1
  Pa  Pa7  1  0.500316  0.000578  0.582701  1
  H  H8  1  0.650080  0.966231  0.371386  1
  H  H9  1  0.218466  0.317270  0.849189  1
  H  H10  1  0.178681  0.400355  0.534947  1
  H  H11  1  0.092064  0.281502  0.122918  1
  H  H12  1  0.281502  0.122918  0.092064  1
  H  H13  1  0.122918  0.092064  0.281502  1
  H  H14  1  0.469965  0.151038  0.872160  1
  H  H15  1  0.716641  0.348952  0.812428  1
  H  H16  1  0.629540  0.371420  0.245517  1
  H  H17  1  0.245517  0.629540  0.371420  1
  H  H18  1  0.751775  0.874147  0.127498  1
  H  H19  1  0.127498  0.751775  0.874147  1
  H  H20  1  0.371420  0.245517  0.629540  1
  H  H21  1  0.874147  0.127498  0.751775  1
  H  H22  1  0.790202  0.601964  0.636651  1
  H  H23  1  0.317270  0.849189  0.218466  1
  H  H24  1  0.371386  0.650080  0.966231  1
  H  H25  1  0.966231  0.371386  0.650080  1
  H  H26  1  0.534947  0.178681  0.400355  1
  H  H27  1  0.400355  0.534947  0.178681  1
  H  H28  1  0.849189  0.218466  0.317270  1
  H  H29  1  0.900900  0.683378  0.030651  1
  H  H30  1  0.812428  0.716641  0.348952  1
  H  H31  1  0.151038  0.872160  0.469965  1
  H  H32  1  0.683378  0.030651  0.900900  1
  H  H33  1  0.348952  0.812428  0.716641  1
  H  H34  1  0.872160  0.469965  0.151038  1
  H  H35  1  0.636651  0.790202  0.601964  1
  H  H36  1  0.601964  0.636651  0.790202  1
  H  H37  1  0.030651  0.900900  0.683378  1
