# generated using pymatgen
data_Zr2Mn8Cr2Ni2P7
_symmetry_space_group_name_H-M   'P 1'
_cell_length_a   9.08750803
_cell_length_b   9.13051719
_cell_length_c   3.58944500
_cell_angle_alpha   90.00000000
_cell_angle_beta   90.00000000
_cell_angle_gamma   119.85069448
_symmetry_Int_Tables_number   1
_chemical_formula_structural   Zr2Mn8Cr2Ni2P7
_chemical_formula_sum   'Zr2 Mn8 Cr2 Ni2 P7'
_cell_volume   258.31495682
_cell_formula_units_Z   1
loop_
 _symmetry_equiv_pos_site_id
 _symmetry_equiv_pos_as_xyz
  1  'x, y, z'
loop_
 _atom_site_type_symbol
 _atom_site_label
 _atom_site_symmetry_multiplicity
 _atom_site_fract_x
 _atom_site_fract_y
 _atom_site_fract_z
 _atom_site_occupancy
  Zr  Zr0  1  0.002283  0.001915  0.000000  1
  Zr  Zr1  1  0.332134  0.661950  0.500000  1
  Mn  Mn2  1  0.289557  0.383916  0.000000  1
  Mn  Mn3  1  0.092834  0.708081  0.000000  1
  Mn  Mn4  1  0.387580  0.171854  0.000000  1
  Mn  Mn5  1  0.789561  0.617563  0.000000  1
  Mn  Mn6  1  0.234689  0.944792  0.500000  1
  Mn  Mn7  1  0.056029  0.287301  0.500000  1
  Mn  Mn8  1  0.715629  0.770261  0.500000  1
  Mn  Mn9  1  0.566266  0.108850  0.500000  1
  Cr  Cr10  1  0.887363  0.458317  0.500000  1
  Cr  Cr11  1  0.549566  0.437226  0.500000  1
  Ni  Ni12  1  0.825193  0.214577  0.000000  1
  Ni  Ni13  1  0.604075  0.897331  0.000000  1
  P  P14  1  0.665619  0.336267  0.000000  1
  P  P15  1  0.080218  0.455983  0.000000  1
  P  P16  1  0.256870  0.207666  0.500000  1
  P  P17  1  0.791859  0.045530  0.500000  1
  P  P18  1  0.955060  0.749576  0.500000  1
  P  P19  1  0.544816  0.624678  0.000000  1
  P  P20  1  0.372799  0.916363  0.000000  1
