# generated using pymatgen
data_TbDy4U2O12
_symmetry_space_group_name_H-M   'P 1'
_cell_length_a   6.60722664
_cell_length_b   6.62635461
_cell_length_c   6.56885401
_cell_angle_alpha   99.39027937
_cell_angle_beta   98.77480958
_cell_angle_gamma   99.24035735
_symmetry_Int_Tables_number   1
_chemical_formula_structural   TbDy4U2O12
_chemical_formula_sum   'Tb1 Dy4 U2 O12'
_cell_volume   275.30190412
_cell_formula_units_Z   1
loop_
 _symmetry_equiv_pos_site_id
 _symmetry_equiv_pos_as_xyz
  1  'x, y, z'
loop_
 _atom_site_type_symbol
 _atom_site_label
 _atom_site_symmetry_multiplicity
 _atom_site_fract_x
 _atom_site_fract_y
 _atom_site_fract_z
 _atom_site_occupancy
  Tb  Tb0  1  0.606231  0.133943  0.311563  1
  Dy  Dy1  1  0.861039  0.693620  0.395110  1
  Dy  Dy2  1  0.389886  0.855914  0.684329  1
  Dy  Dy3  1  0.309507  0.611521  0.144163  1
  Dy  Dy4  1  0.143795  0.313204  0.607111  1
  U  U5  1  0.689634  0.397003  0.861683  1
  U  U6  1  0.002829  0.003364  0.000365  1
  O  O7  1  0.428911  0.177104  0.586934  1
  O  O8  1  0.588145  0.425949  0.166718  1
  O  O9  1  0.174705  0.582761  0.432491  1
  O  O10  1  0.567338  0.816904  0.411915  1
  O  O11  1  0.422283  0.569551  0.821880  1
  O  O12  1  0.813164  0.416264  0.576042  1
  O  O13  1  0.075858  0.318572  0.943321  1
  O  O14  1  0.686828  0.057700  0.921671  1
  O  O15  1  0.054971  0.923742  0.685916  1
  O  O16  1  0.925565  0.684378  0.057380  1
  O  O17  1  0.314630  0.943031  0.074953  1
  O  O18  1  0.944678  0.075475  0.316456  1
