# generated using pymatgen
data_Nd3Sn2As4Rh9
_symmetry_space_group_name_H-M   'P 1'
_cell_length_a   4.11103900
_cell_length_b   8.60635358
_cell_length_c   10.12611585
_cell_angle_alpha   106.08986486
_cell_angle_beta   90.00000000
_cell_angle_gamma   103.81792530
_symmetry_Int_Tables_number   1
_chemical_formula_structural   Nd3Sn2As4Rh9
_chemical_formula_sum   'Nd3 Sn2 As4 Rh9'
_cell_volume   333.43379862
_cell_formula_units_Z   1
loop_
 _symmetry_equiv_pos_site_id
 _symmetry_equiv_pos_as_xyz
  1  'x, y, z'
loop_
 _atom_site_type_symbol
 _atom_site_label
 _atom_site_symmetry_multiplicity
 _atom_site_fract_x
 _atom_site_fract_y
 _atom_site_fract_z
 _atom_site_occupancy
  Nd  Nd0  1  0.851133  0.702265  0.310956  1
  Nd  Nd1  1  0.148867  0.297735  0.689044  1
  Nd  Nd2  1  0.000000  0.000000  0.000000  1
  Sn  Sn3  1  0.799177  0.598354  0.871078  1
  Sn  Sn4  1  0.200823  0.401646  0.128922  1
  As  As5  1  0.530050  0.060099  0.771661  1
  As  As6  1  0.469950  0.939901  0.228339  1
  As  As7  1  0.640080  0.280160  0.456661  1
  As  As8  1  0.359920  0.719840  0.543339  1
  Rh  Rh9  1  0.956458  0.912917  0.665028  1
  Rh  Rh10  1  0.043542  0.087083  0.334972  1
  Rh  Rh11  1  0.782712  0.565423  0.597590  1
  Rh  Rh12  1  0.217288  0.434577  0.402410  1
  Rh  Rh13  1  0.378418  0.756837  0.788046  1
  Rh  Rh14  1  0.621582  0.243163  0.211954  1
  Rh  Rh15  1  0.500000  0.000000  0.500000  1
  Rh  Rh16  1  0.660301  0.320602  0.949005  1
  Rh  Rh17  1  0.339699  0.679398  0.050995  1
