# generated using pymatgen
data_Nd7Er13Sn16
_symmetry_space_group_name_H-M   'P 1'
_cell_length_a   8.05768243
_cell_length_b   8.23088124
_cell_length_c   15.51887365
_cell_angle_alpha   90.26260255
_cell_angle_beta   90.41227554
_cell_angle_gamma   89.89646374
_symmetry_Int_Tables_number   1
_chemical_formula_structural   Nd7Er13Sn16
_chemical_formula_sum   'Nd7 Er13 Sn16'
_cell_volume   1029.20098093
_cell_formula_units_Z   1
loop_
 _symmetry_equiv_pos_site_id
 _symmetry_equiv_pos_as_xyz
  1  'x, y, z'
loop_
 _atom_site_type_symbol
 _atom_site_label
 _atom_site_symmetry_multiplicity
 _atom_site_fract_x
 _atom_site_fract_y
 _atom_site_fract_z
 _atom_site_occupancy
  Nd  Nd0  1  0.013866  0.178990  0.597841  1
  Nd  Nd1  1  0.486654  0.678001  0.403752  1
  Nd  Nd2  1  0.985906  0.821063  0.095745  1
  Nd  Nd3  1  0.484636  0.676836  0.095959  1
  Nd  Nd4  1  0.986580  0.822046  0.403787  1
  Nd  Nd5  1  0.512206  0.322622  0.595713  1
  Nd  Nd6  1  0.014212  0.179549  0.903331  1
  Er  Er7  1  0.359403  0.835792  0.876411  1
  Er  Er8  1  0.857292  0.663863  0.623881  1
  Er  Er9  1  0.642031  0.164133  0.376090  1
  Er  Er10  1  0.138773  0.336771  0.122268  1
  Er  Er11  1  0.639207  0.164282  0.123191  1
  Er  Er12  1  0.141728  0.335696  0.376570  1
  Er  Er13  1  0.358480  0.836642  0.625118  1
  Er  Er14  1  0.860538  0.662859  0.877477  1
  Er  Er15  1  0.518779  0.322613  0.902168  1
  Er  Er16  1  0.192738  0.502205  0.751070  1
  Er  Er17  1  0.691462  0.996995  0.750890  1
  Er  Er18  1  0.807436  0.496814  0.249430  1
  Er  Er19  1  0.308084  0.003115  0.249558  1
  Sn  Sn20  1  0.305206  0.041224  0.041288  1
  Sn  Sn21  1  0.805845  0.458418  0.458349  1
  Sn  Sn22  1  0.693605  0.959690  0.542214  1
  Sn  Sn23  1  0.203245  0.536189  0.956505  1
  Sn  Sn24  1  0.693786  0.962228  0.957399  1
  Sn  Sn25  1  0.193357  0.543080  0.541920  1
  Sn  Sn26  1  0.306306  0.040636  0.458703  1
  Sn  Sn27  1  0.798731  0.456602  0.039969  1
  Sn  Sn28  1  0.557727  0.621577  0.750674  1
  Sn  Sn29  1  0.056835  0.876052  0.750443  1
  Sn  Sn30  1  0.441582  0.376357  0.249794  1
  Sn  Sn31  1  0.942500  0.124539  0.249379  1
  Sn  Sn32  1  0.326947  0.146938  0.752334  1
  Sn  Sn33  1  0.820376  0.356515  0.750765  1
  Sn  Sn34  1  0.677112  0.855971  0.249965  1
  Sn  Sn35  1  0.176828  0.643095  0.250052  1
