# generated using pymatgen
data_Er12GaCo4Hg
_symmetry_space_group_name_H-M   'P 1'
_cell_length_a   8.21337927
_cell_length_b   8.21337945
_cell_length_c   8.21338011
_cell_angle_alpha   112.00529368
_cell_angle_beta   109.77359823
_cell_angle_gamma   106.67864098
_symmetry_Int_Tables_number   1
_chemical_formula_structural   Er12GaCo4Hg
_chemical_formula_sum   'Er12 Ga1 Co4 Hg1'
_cell_volume   425.59885679
_cell_formula_units_Z   1
loop_
 _symmetry_equiv_pos_site_id
 _symmetry_equiv_pos_as_xyz
  1  'x, y, z'
loop_
 _atom_site_type_symbol
 _atom_site_label
 _atom_site_symmetry_multiplicity
 _atom_site_fract_x
 _atom_site_fract_y
 _atom_site_fract_z
 _atom_site_occupancy
  Er  Er0  1  0.960067  0.262520  0.697547  1
  Er  Er1  1  0.039933  0.737480  0.302453  1
  Er  Er2  1  0.673998  0.860821  0.186822  1
  Er  Er3  1  0.326002  0.512824  0.186822  1
  Er  Er4  1  0.326002  0.139179  0.813178  1
  Er  Er5  1  0.673998  0.487176  0.813178  1
  Er  Er6  1  0.564973  0.262520  0.302453  1
  Er  Er7  1  0.435027  0.737480  0.697547  1
  Er  Er8  1  0.180148  0.780080  0.960228  1
  Er  Er9  1  0.819852  0.780080  0.599932  1
  Er  Er10  1  0.180148  0.219920  0.400068  1
  Er  Er11  1  0.819852  0.219920  0.039772  1
  Ga  Ga12  1  0.000000  0.500000  0.500000  1
  Co  Co13  1  0.114790  0.114790  0.000000  1
  Co  Co14  1  0.885210  0.885210  0.000000  1
  Co  Co15  1  0.663322  0.500000  0.163322  1
  Co  Co16  1  0.336678  0.500000  0.836678  1
  Hg  Hg17  1  0.500000  0.000000  0.500000  1
