# generated using pymatgen
data_Hf5ZrAl16Co2Ni5
_symmetry_space_group_name_H-M   'P 1'
_cell_length_a   8.49733347
_cell_length_b   8.49733420
_cell_length_c   8.49968600
_cell_angle_alpha   59.99084413
_cell_angle_beta   59.99084130
_cell_angle_gamma   59.94995191
_symmetry_Int_Tables_number   1
_chemical_formula_structural   Hf5ZrAl16Co2Ni5
_chemical_formula_sum   'Hf5 Zr1 Al16 Co2 Ni5'
_cell_volume   433.73915562
_cell_formula_units_Z   1
loop_
 _symmetry_equiv_pos_site_id
 _symmetry_equiv_pos_as_xyz
  1  'x, y, z'
loop_
 _atom_site_type_symbol
 _atom_site_label
 _atom_site_symmetry_multiplicity
 _atom_site_fract_x
 _atom_site_fract_y
 _atom_site_fract_z
 _atom_site_occupancy
  Hf  Hf0  1  0.312251  0.686866  0.311972  1
  Hf  Hf1  1  0.686866  0.312251  0.311972  1
  Hf  Hf2  1  0.309368  0.309368  0.690632  1
  Hf  Hf3  1  0.686866  0.312251  0.688911  1
  Hf  Hf4  1  0.312251  0.686866  0.688911  1
  Zr  Zr5  1  0.692924  0.692924  0.307076  1
  Al  Al6  1  0.882263  0.882263  0.353745  1
  Al  Al7  1  0.877822  0.354666  0.883755  1
  Al  Al8  1  0.354666  0.877822  0.883755  1
  Al  Al9  1  0.882263  0.882263  0.881729  1
  Al  Al10  1  0.117961  0.117961  0.646431  1
  Al  Al11  1  0.122772  0.645239  0.115995  1
  Al  Al12  1  0.645239  0.122772  0.115995  1
  Al  Al13  1  0.117961  0.117961  0.117647  1
  Al  Al14  1  0.664944  0.664944  0.002377  1
  Al  Al15  1  0.664979  0.002875  0.666073  1
  Al  Al16  1  0.002875  0.664979  0.666073  1
  Al  Al17  1  0.664944  0.664944  0.667735  1
  Al  Al18  1  0.335000  0.335000  0.997066  1
  Al  Al19  1  0.334363  0.997693  0.333972  1
  Al  Al20  1  0.997693  0.334363  0.333972  1
  Al  Al21  1  0.335000  0.335000  0.332932  1
  Co  Co22  1  0.999881  0.999881  0.000119  1
  Co  Co23  1  0.499699  0.499699  0.000301  1
  Ni  Ni24  1  0.999783  0.999783  0.500217  1
  Ni  Ni25  1  0.499260  0.000422  0.500739  1
  Ni  Ni26  1  0.000422  0.499260  0.500739  1
  Ni  Ni27  1  0.000422  0.499260  0.999579  1
  Ni  Ni28  1  0.499260  0.000422  0.999579  1
