# generated using pymatgen
data_Lu2Hf5TcF30
_symmetry_space_group_name_H-M   'P 1'
_cell_length_a   8.04252862
_cell_length_b   8.04252764
_cell_length_c   8.03490318
_cell_angle_alpha   79.84803930
_cell_angle_beta   79.84803616
_cell_angle_gamma   100.17467675
_symmetry_Int_Tables_number   1
_chemical_formula_structural   Lu2Hf5TcF30
_chemical_formula_sum   'Lu2 Hf5 Tc1 F30'
_cell_volume   491.86194000
_cell_formula_units_Z   1
loop_
 _symmetry_equiv_pos_site_id
 _symmetry_equiv_pos_as_xyz
  1  'x, y, z'
loop_
 _atom_site_type_symbol
 _atom_site_label
 _atom_site_symmetry_multiplicity
 _atom_site_fract_x
 _atom_site_fract_y
 _atom_site_fract_z
 _atom_site_occupancy
  Lu  Lu0  1  0.677559  0.322441  0.750000  1
  Lu  Lu1  1  0.322551  0.677449  0.250000  1
  Hf  Hf2  1  0.749177  0.250823  0.250000  1
  Hf  Hf3  1  0.822097  0.750278  0.325311  1
  Hf  Hf4  1  0.249722  0.177903  0.174689  1
  Hf  Hf5  1  0.177147  0.249535  0.674048  1
  Hf  Hf6  1  0.750465  0.822853  0.825952  1
  Tc  Tc7  1  0.250019  0.749981  0.750000  1
  F  F8  1  0.150932  0.185700  0.946092  1
  F  F9  1  0.688078  0.563116  0.847978  1
  F  F10  1  0.041861  0.655276  0.314716  1
  F  F11  1  0.654539  0.040745  0.816413  1
  F  F12  1  0.561692  0.685867  0.348415  1
  F  F13  1  0.183121  0.150068  0.447917  1
  F  F14  1  0.849932  0.816879  0.052083  1
  F  F15  1  0.314133  0.438308  0.151585  1
  F  F16  1  0.959255  0.345461  0.683587  1
  F  F17  1  0.344724  0.958139  0.185284  1
  F  F18  1  0.436884  0.311922  0.652022  1
  F  F19  1  0.814300  0.849068  0.553908  1
  F  F20  1  0.967250  0.032750  0.750000  1
  F  F21  1  0.542892  0.752202  0.029548  1
  F  F22  1  0.247798  0.457108  0.470452  1
  F  F23  1  0.457042  0.247496  0.970395  1
  F  F24  1  0.752504  0.542958  0.529605  1
  F  F25  1  0.033243  0.966757  0.250000  1
  F  F26  1  0.217809  0.726123  0.000460  1
  F  F27  1  0.225912  0.497363  0.783207  1
  F  F28  1  0.996735  0.720427  0.774953  1
  F  F29  1  0.723251  0.992660  0.275541  1
  F  F30  1  0.491740  0.224772  0.281101  1
  F  F31  1  0.726252  0.219272  0.504628  1
  F  F32  1  0.780728  0.273748  0.995372  1
  F  F33  1  0.775228  0.508260  0.218899  1
  F  F34  1  0.007340  0.276749  0.224459  1
  F  F35  1  0.279573  0.003265  0.725047  1
  F  F36  1  0.502637  0.774088  0.716793  1
  F  F37  1  0.273877  0.782191  0.499540  1
