# generated using pymatgen
data_Tm3Sn2Hg3
_symmetry_space_group_name_H-M   'P 1'
_cell_length_a   6.25982267
_cell_length_b   6.25982257
_cell_length_c   10.33427700
_cell_angle_alpha   90.00000000
_cell_angle_beta   90.00000000
_cell_angle_gamma   99.98488795
_symmetry_Int_Tables_number   1
_chemical_formula_structural   Tm3Sn2Hg3
_chemical_formula_sum   'Tm6 Sn4 Hg6'
_cell_volume   398.81895681
_cell_formula_units_Z   2
loop_
 _symmetry_equiv_pos_site_id
 _symmetry_equiv_pos_as_xyz
  1  'x, y, z'
loop_
 _atom_site_type_symbol
 _atom_site_label
 _atom_site_symmetry_multiplicity
 _atom_site_fract_x
 _atom_site_fract_y
 _atom_site_fract_z
 _atom_site_occupancy
  Tm  Tm0  1  0.620880  0.620880  0.250000  1
  Tm  Tm1  1  0.379120  0.379120  0.750000  1
  Tm  Tm2  1  0.201230  0.798770  0.500000  1
  Tm  Tm3  1  0.201230  0.798770  0.000000  1
  Tm  Tm4  1  0.798770  0.201230  0.500000  1
  Tm  Tm5  1  0.798770  0.201230  0.000000  1
  Sn  Sn6  1  0.307864  0.307864  0.043686  1
  Sn  Sn7  1  0.692136  0.692136  0.956314  1
  Sn  Sn8  1  0.307864  0.307864  0.456314  1
  Sn  Sn9  1  0.692136  0.692136  0.543686  1
  Hg  Hg10  1  0.006586  0.006586  0.250000  1
  Hg  Hg11  1  0.993414  0.993414  0.750000  1
  Hg  Hg12  1  0.518421  0.075226  0.250000  1
  Hg  Hg13  1  0.924774  0.481579  0.750000  1
  Hg  Hg14  1  0.481579  0.924774  0.750000  1
  Hg  Hg15  1  0.075226  0.518421  0.250000  1
