# generated using pymatgen
data_LaPr15
_symmetry_space_group_name_H-M   'P 1'
_cell_length_a   7.38272366
_cell_length_b   7.38272378
_cell_length_c   10.68446311
_cell_angle_alpha   89.94822029
_cell_angle_beta   89.94821541
_cell_angle_gamma   90.02021604
_symmetry_Int_Tables_number   1
_chemical_formula_structural   LaPr15
_chemical_formula_sum   'La1 Pr15'
_cell_volume   582.35197793
_cell_formula_units_Z   1
loop_
 _symmetry_equiv_pos_site_id
 _symmetry_equiv_pos_as_xyz
  1  'x, y, z'
loop_
 _atom_site_type_symbol
 _atom_site_label
 _atom_site_symmetry_multiplicity
 _atom_site_fract_x
 _atom_site_fract_y
 _atom_site_fract_z
 _atom_site_occupancy
  La  La0  1  0.251332  0.748668  0.500000  1
  Pr  Pr1  1  0.506543  0.505829  0.249222  1
  Pr  Pr2  1  0.494171  0.493457  0.750778  1
  Pr  Pr3  1  0.251137  0.748863  0.000000  1
  Pr  Pr4  1  0.749362  0.250638  0.500000  1
  Pr  Pr5  1  0.748890  0.251110  0.000000  1
  Pr  Pr6  1  0.993056  0.994317  0.248911  1
  Pr  Pr7  1  0.005683  0.006944  0.751089  1
  Pr  Pr8  1  0.248924  0.248820  0.003963  1
  Pr  Pr9  1  0.751180  0.751076  0.996037  1
  Pr  Pr10  1  0.249129  0.248735  0.496091  1
  Pr  Pr11  1  0.751265  0.750871  0.503909  1
  Pr  Pr12  1  0.497003  0.002742  0.249270  1
  Pr  Pr13  1  0.997258  0.502997  0.750730  1
  Pr  Pr14  1  0.502417  0.997351  0.750684  1
  Pr  Pr15  1  0.002649  0.497583  0.249316  1
