# generated using pymatgen
data_Dy8Tm2Si5Ge
_symmetry_space_group_name_H-M   'P 1'
_cell_length_a   8.43486305
_cell_length_b   8.43486229
_cell_length_c   6.33941200
_cell_angle_alpha   90.00130500
_cell_angle_beta   90.00130271
_cell_angle_gamma   120.01298059
_symmetry_Int_Tables_number   1
_chemical_formula_structural   Dy8Tm2Si5Ge
_chemical_formula_sum   'Dy8 Tm2 Si5 Ge1'
_cell_volume   390.55195909
_cell_formula_units_Z   1
loop_
 _symmetry_equiv_pos_site_id
 _symmetry_equiv_pos_as_xyz
  1  'x, y, z'
loop_
 _atom_site_type_symbol
 _atom_site_label
 _atom_site_symmetry_multiplicity
 _atom_site_fract_x
 _atom_site_fract_y
 _atom_site_fract_z
 _atom_site_occupancy
  Dy  Dy0  1  0.667312  0.333192  0.500641  1
  Dy  Dy1  1  0.333192  0.667312  0.500641  1
  Dy  Dy2  1  0.757046  0.757046  0.248509  1
  Dy  Dy3  1  0.243477  0.998980  0.248506  1
  Dy  Dy4  1  0.998980  0.243477  0.248506  1
  Dy  Dy5  1  0.243416  0.243416  0.751423  1
  Dy  Dy6  1  0.756219  0.999952  0.751501  1
  Dy  Dy7  1  0.999952  0.756219  0.751501  1
  Tm  Tm8  1  0.333208  0.667333  0.999363  1
  Tm  Tm9  1  0.667333  0.333208  0.999363  1
  Si  Si10  1  0.605334  0.999981  0.245161  1
  Si  Si11  1  0.999981  0.605334  0.245161  1
  Si  Si12  1  0.605495  0.605495  0.754758  1
  Si  Si13  1  0.394652  0.000034  0.754845  1
  Si  Si14  1  0.000034  0.394652  0.754845  1
  Ge  Ge15  1  0.394369  0.394369  0.245278  1
