# generated using pymatgen
data_Dy2Y14MgHg3Ir4
_symmetry_space_group_name_H-M   'P 1'
_cell_length_a   9.67204490
_cell_length_b   9.65767799
_cell_length_c   9.67174300
_cell_angle_alpha   59.95181587
_cell_angle_beta   60.00103596
_cell_angle_gamma   59.93922901
_symmetry_Int_Tables_number   1
_chemical_formula_structural   Dy2Y14MgHg3Ir4
_chemical_formula_sum   'Dy2 Y14 Mg1 Hg3 Ir4'
_cell_volume   638.30178274
_cell_formula_units_Z   1
loop_
 _symmetry_equiv_pos_site_id
 _symmetry_equiv_pos_as_xyz
  1  'x, y, z'
loop_
 _atom_site_type_symbol
 _atom_site_label
 _atom_site_symmetry_multiplicity
 _atom_site_fract_x
 _atom_site_fract_y
 _atom_site_fract_z
 _atom_site_occupancy
  Dy  Dy0  1  0.599681  0.597814  0.597015  1
  Dy  Dy1  1  0.599681  0.597814  0.205489  1
  Y  Y2  1  0.601144  0.202653  0.598101  1
  Y  Y3  1  0.192092  0.603102  0.602402  1
  Y  Y4  1  0.057645  0.440775  0.442156  1
  Y  Y5  1  0.437115  0.060907  0.062019  1
  Y  Y6  1  0.437115  0.060907  0.439958  1
  Y  Y7  1  0.057645  0.440775  0.059424  1
  Y  Y8  1  0.437980  0.439308  0.061356  1
  Y  Y9  1  0.058185  0.059027  0.441393  1
  Y  Y10  1  0.187291  0.811681  0.811965  1
  Y  Y11  1  0.811084  0.188829  0.187351  1
  Y  Y12  1  0.811084  0.188829  0.812737  1
  Y  Y13  1  0.187291  0.811681  0.189065  1
  Y  Y14  1  0.810843  0.812433  0.188362  1
  Y  Y15  1  0.186437  0.189487  0.812039  1
  Mg  Mg16  1  0.535383  0.821157  0.821730  1
  Hg  Hg17  1  0.831719  0.836575  0.836753  1
  Hg  Hg18  1  0.831719  0.836575  0.494953  1
  Hg  Hg19  1  0.831881  0.494279  0.836920  1
  Ir  Ir20  1  0.390498  0.394085  0.391447  1
  Ir  Ir21  1  0.390498  0.394085  0.823968  1
  Ir  Ir22  1  0.391784  0.823409  0.392403  1
  Ir  Ir23  1  0.824205  0.393809  0.390993  1
