# generated using pymatgen
data_Er4Al6FeRh
_symmetry_space_group_name_H-M   'P 1'
_cell_length_a   5.48910600
_cell_length_b   5.48910529
_cell_length_c   8.62435200
_cell_angle_alpha   90.00000000
_cell_angle_beta   90.00000000
_cell_angle_gamma   119.99999221
_symmetry_Int_Tables_number   1
_chemical_formula_structural   Er4Al6FeRh
_chemical_formula_sum   'Er4 Al6 Fe1 Rh1'
_cell_volume   225.04031060
_cell_formula_units_Z   1
loop_
 _symmetry_equiv_pos_site_id
 _symmetry_equiv_pos_as_xyz
  1  'x, y, z'
loop_
 _atom_site_type_symbol
 _atom_site_label
 _atom_site_symmetry_multiplicity
 _atom_site_fract_x
 _atom_site_fract_y
 _atom_site_fract_z
 _atom_site_occupancy
  Er  Er0  1  0.666666  0.333332  0.054035  1
  Er  Er1  1  0.666666  0.333332  0.443832  1
  Er  Er2  1  0.333334  0.666667  0.556168  1
  Er  Er3  1  0.333334  0.666667  0.945965  1
  Al  Al4  1  0.162462  0.324924  0.253604  1
  Al  Al5  1  0.162463  0.837539  0.253604  1
  Al  Al6  1  0.675076  0.837539  0.253604  1
  Al  Al7  1  0.324925  0.162463  0.746397  1
  Al  Al8  1  0.837538  0.162463  0.746397  1
  Al  Al9  1  0.837538  0.675076  0.746397  1
  Fe  Fe10  1  0.000000  0.000000  0.500000  1
  Rh  Rh11  1  0.000000  0.000000  0.000000  1
