# generated using pymatgen
data_Li2AcTmSi2
_symmetry_space_group_name_H-M   'P 1'
_cell_length_a   4.47677700
_cell_length_b   4.47677622
_cell_length_c   7.60512400
_cell_angle_alpha   90.00000000
_cell_angle_beta   90.00000000
_cell_angle_gamma   119.99999836
_symmetry_Int_Tables_number   1
_chemical_formula_structural   Li2AcTmSi2
_chemical_formula_sum   'Li2 Ac1 Tm1 Si2'
_cell_volume   131.99813228
_cell_formula_units_Z   1
loop_
 _symmetry_equiv_pos_site_id
 _symmetry_equiv_pos_as_xyz
  1  'x, y, z'
loop_
 _atom_site_type_symbol
 _atom_site_label
 _atom_site_symmetry_multiplicity
 _atom_site_fract_x
 _atom_site_fract_y
 _atom_site_fract_z
 _atom_site_occupancy
  Li  Li0  1  0.666667  0.333333  0.441426  1
  Li  Li1  1  0.333333  0.666667  0.072697  1
  Ac  Ac2  1  0.000000  0.000000  0.754923  1
  Tm  Tm3  1  0.000000  0.000000  0.253825  1
  Si  Si4  1  0.333333  0.666667  0.464543  1
  Si  Si5  1  0.666667  0.333333  0.033584  1
