# generated using pymatgen
data_Tb3TmHg2
_symmetry_space_group_name_H-M   'P 1'
_cell_length_a   5.08395000
_cell_length_b   7.12116953
_cell_length_c   9.23324460
_cell_angle_alpha   90.01665622
_cell_angle_beta   90.00000000
_cell_angle_gamma   90.00000000
_symmetry_Int_Tables_number   1
_chemical_formula_structural   Tb3TmHg2
_chemical_formula_sum   'Tb6 Tm2 Hg4'
_cell_volume   334.27732498
_cell_formula_units_Z   2
loop_
 _symmetry_equiv_pos_site_id
 _symmetry_equiv_pos_as_xyz
  1  'x, y, z'
loop_
 _atom_site_type_symbol
 _atom_site_label
 _atom_site_symmetry_multiplicity
 _atom_site_fract_x
 _atom_site_fract_y
 _atom_site_fract_z
 _atom_site_occupancy
  Tb  Tb0  1  0.250000  0.482396  0.189560  1
  Tb  Tb1  1  0.750000  0.517604  0.810440  1
  Tb  Tb2  1  0.250000  0.984166  0.307521  1
  Tb  Tb3  1  0.750000  0.015834  0.692479  1
  Tb  Tb4  1  0.750000  0.668399  0.423263  1
  Tb  Tb5  1  0.250000  0.331601  0.576737  1
  Tm  Tm6  1  0.750000  0.164188  0.073786  1
  Tm  Tm7  1  0.250000  0.835812  0.926214  1
  Hg  Hg8  1  0.250000  0.256911  0.899708  1
  Hg  Hg9  1  0.750000  0.743089  0.100292  1
  Hg  Hg10  1  0.250000  0.761927  0.605936  1
  Hg  Hg11  1  0.750000  0.238073  0.394064  1
