# generated using pymatgen
data_YHo3Co16(P3Ru)4
_symmetry_space_group_name_H-M   'P 1'
_cell_length_a   3.68671800
_cell_length_b   10.38331221
_cell_length_c   11.76250924
_cell_angle_alpha   90.02302097
_cell_angle_beta   90.00000000
_cell_angle_gamma   90.00000000
_symmetry_Int_Tables_number   1
_chemical_formula_structural   YHo3Co16(P3Ru)4
_chemical_formula_sum   'Y1 Ho3 Co16 P12 Ru4'
_cell_volume   450.27286383
_cell_formula_units_Z   1
loop_
 _symmetry_equiv_pos_site_id
 _symmetry_equiv_pos_as_xyz
  1  'x, y, z'
loop_
 _atom_site_type_symbol
 _atom_site_label
 _atom_site_symmetry_multiplicity
 _atom_site_fract_x
 _atom_site_fract_y
 _atom_site_fract_z
 _atom_site_occupancy
  Y  Y0  1  0.250000  0.586227  0.704022  1
  Ho  Ho1  1  0.250000  0.913991  0.203852  1
  Ho  Ho2  1  0.750000  0.086024  0.796145  1
  Ho  Ho3  1  0.750000  0.413850  0.296070  1
  Co  Co4  1  0.250000  0.091212  0.989268  1
  Co  Co5  1  0.750000  0.908838  0.010825  1
  Co  Co6  1  0.750000  0.591114  0.510011  1
  Co  Co7  1  0.250000  0.408509  0.489004  1
  Co  Co8  1  0.250000  0.278542  0.676823  1
  Co  Co9  1  0.750000  0.721369  0.323031  1
  Co  Co10  1  0.750000  0.779190  0.823346  1
  Co  Co11  1  0.250000  0.221185  0.176875  1
  Co  Co12  1  0.250000  0.612598  0.202743  1
  Co  Co13  1  0.750000  0.386832  0.797531  1
  Co  Co14  1  0.750000  0.112605  0.297232  1
  Co  Co15  1  0.250000  0.887727  0.702670  1
  Co  Co16  1  0.250000  0.034901  0.430340  1
  Co  Co17  1  0.750000  0.965485  0.569457  1
  Co  Co18  1  0.750000  0.534771  0.069862  1
  Co  Co19  1  0.250000  0.464931  0.930877  1
  P  P20  1  0.250000  0.080369  0.612155  1
  P  P21  1  0.750000  0.919721  0.387758  1
  P  P22  1  0.750000  0.580284  0.888416  1
  P  P23  1  0.250000  0.419632  0.112317  1
  P  P24  1  0.250000  0.228769  0.366932  1
  P  P25  1  0.750000  0.771884  0.632805  1
  P  P26  1  0.750000  0.728851  0.133003  1
  P  P27  1  0.250000  0.271210  0.866977  1
  P  P28  1  0.250000  0.904471  0.890080  1
  P  P29  1  0.750000  0.095445  0.109957  1
  P  P30  1  0.750000  0.404031  0.609734  1
  P  P31  1  0.250000  0.595473  0.390056  1
  Ru  Ru32  1  0.250000  0.783095  0.492144  1
  Ru  Ru33  1  0.750000  0.216931  0.507407  1
  Ru  Ru34  1  0.750000  0.282818  0.007721  1
  Ru  Ru35  1  0.250000  0.717114  0.992555  1
