# generated using pymatgen
data_Ta5Ti9As8
_symmetry_space_group_name_H-M   'P 1'
_cell_length_a   7.84448986
_cell_length_b   7.84448933
_cell_length_c   14.12367121
_cell_angle_alpha   75.90344148
_cell_angle_beta   75.90344165
_cell_angle_gamma   25.65378656
_symmetry_Int_Tables_number   1
_chemical_formula_structural   Ta5Ti9As8
_chemical_formula_sum   'Ta5 Ti9 As8'
_cell_volume   364.33991224
_cell_formula_units_Z   1
loop_
 _symmetry_equiv_pos_site_id
 _symmetry_equiv_pos_as_xyz
  1  'x, y, z'
loop_
 _atom_site_type_symbol
 _atom_site_label
 _atom_site_symmetry_multiplicity
 _atom_site_fract_x
 _atom_site_fract_y
 _atom_site_fract_z
 _atom_site_occupancy
  Ta  Ta0  1  0.999445  0.999445  0.000848  1
  Ta  Ta1  1  0.499342  0.499342  0.499191  1
  Ta  Ta2  1  0.427709  0.427709  0.172303  1
  Ta  Ta3  1  0.572326  0.572326  0.828678  1
  Ta  Ta4  1  0.196252  0.196252  0.692972  1
  Ti  Ti5  1  0.803445  0.803445  0.306171  1
  Ti  Ti6  1  0.209749  0.209749  0.205836  1
  Ti  Ti7  1  0.790495  0.790495  0.794396  1
  Ti  Ti8  1  0.339464  0.339464  0.968247  1
  Ti  Ti9  1  0.660681  0.660681  0.033364  1
  Ti  Ti10  1  0.001118  0.001118  0.340420  1
  Ti  Ti11  1  0.998921  0.998921  0.660493  1
  Ti  Ti12  1  0.180000  0.180000  0.454977  1
  Ti  Ti13  1  0.820483  0.820483  0.543859  1
  As  As14  1  0.180854  0.180854  0.894636  1
  As  As15  1  0.819341  0.819341  0.108172  1
  As  As16  1  0.370732  0.370732  0.396646  1
  As  As17  1  0.627848  0.627848  0.597473  1
  As  As18  1  0.371758  0.371758  0.662474  1
  As  As19  1  0.630480  0.630480  0.337296  1
  As  As20  1  0.064393  0.064393  0.155850  1
  As  As21  1  0.935166  0.935166  0.845698  1
