# generated using pymatgen
data_HfSc2Ga3Pt2Rh
_symmetry_space_group_name_H-M   'P 1'
_cell_length_a   7.25772791
_cell_length_b   7.25756229
_cell_length_c   6.87247000
_cell_angle_alpha   90.00000000
_cell_angle_beta   90.00000000
_cell_angle_gamma   120.02081954
_symmetry_Int_Tables_number   1
_chemical_formula_structural   HfSc2Ga3Pt2Rh
_chemical_formula_sum   'Hf2 Sc4 Ga6 Pt4 Rh2'
_cell_volume   313.43232850
_cell_formula_units_Z   2
loop_
 _symmetry_equiv_pos_site_id
 _symmetry_equiv_pos_as_xyz
  1  'x, y, z'
loop_
 _atom_site_type_symbol
 _atom_site_label
 _atom_site_symmetry_multiplicity
 _atom_site_fract_x
 _atom_site_fract_y
 _atom_site_fract_z
 _atom_site_occupancy
  Hf  Hf0  1  0.995218  0.603511  0.250000  1
  Hf  Hf1  1  0.607211  0.002813  0.250000  1
  Sc  Sc2  1  0.395633  0.391967  0.250000  1
  Sc  Sc3  1  0.600891  0.997825  0.750000  1
  Sc  Sc4  1  0.396965  0.400544  0.750000  1
  Sc  Sc5  1  0.005542  0.604800  0.750000  1
  Ga  Ga6  1  0.268013  0.002321  0.000512  1
  Ga  Ga7  1  0.268013  0.002321  0.499488  1
  Ga  Ga8  1  0.002981  0.268260  0.499714  1
  Ga  Ga9  1  0.002981  0.268260  0.000286  1
  Ga  Ga10  1  0.728500  0.728930  0.995049  1
  Ga  Ga11  1  0.728500  0.728930  0.504951  1
  Pt  Pt12  1  0.669953  0.333295  0.498400  1
  Pt  Pt13  1  0.669953  0.333295  0.001600  1
  Pt  Pt14  1  0.333021  0.669658  0.010463  1
  Pt  Pt15  1  0.333021  0.669658  0.489537  1
  Rh  Rh16  1  0.002858  0.002609  0.750000  1
  Rh  Rh17  1  0.990746  0.991003  0.250000  1
