# generated using pymatgen
data_Dy2Tm4Al24Ir5Os3
_symmetry_space_group_name_H-M   'P 1'
_cell_length_a   8.81379210
_cell_length_b   8.81379249
_cell_length_c   9.48581818
_cell_angle_alpha   89.76730322
_cell_angle_beta   90.23269490
_cell_angle_gamma   120.06273098
_symmetry_Int_Tables_number   1
_chemical_formula_structural   Dy2Tm4Al24Ir5Os3
_chemical_formula_sum   'Dy2 Tm4 Al24 Ir5 Os3'
_cell_volume   637.75137787
_cell_formula_units_Z   1
loop_
 _symmetry_equiv_pos_site_id
 _symmetry_equiv_pos_as_xyz
  1  'x, y, z'
loop_
 _atom_site_type_symbol
 _atom_site_label
 _atom_site_symmetry_multiplicity
 _atom_site_fract_x
 _atom_site_fract_y
 _atom_site_fract_z
 _atom_site_occupancy
  Dy  Dy0  1  0.193413  0.806587  0.249956  1
  Dy  Dy1  1  0.806587  0.193413  0.750044  1
  Tm  Tm2  1  0.196867  0.388684  0.251803  1
  Tm  Tm3  1  0.803133  0.611316  0.748197  1
  Tm  Tm4  1  0.611316  0.803133  0.251803  1
  Tm  Tm5  1  0.388684  0.196867  0.748197  1
  Al  Al6  1  0.333550  0.666450  0.028579  1
  Al  Al7  1  0.666450  0.333550  0.971421  1
  Al  Al8  1  0.665902  0.334098  0.526235  1
  Al  Al9  1  0.334098  0.665902  0.473765  1
  Al  Al10  1  0.164599  0.327488  0.575292  1
  Al  Al11  1  0.835401  0.672512  0.424708  1
  Al  Al12  1  0.672512  0.835401  0.575292  1
  Al  Al13  1  0.836391  0.673067  0.074822  1
  Al  Al14  1  0.327488  0.164599  0.424708  1
  Al  Al15  1  0.163609  0.326933  0.925178  1
  Al  Al16  1  0.163107  0.836893  0.576297  1
  Al  Al17  1  0.326933  0.163609  0.074822  1
  Al  Al18  1  0.836893  0.163107  0.423703  1
  Al  Al19  1  0.673067  0.836391  0.925178  1
  Al  Al20  1  0.836849  0.163151  0.076365  1
  Al  Al21  1  0.163151  0.836849  0.923635  1
  Al  Al22  1  0.562898  0.123958  0.249634  1
  Al  Al23  1  0.437102  0.876042  0.750366  1
  Al  Al24  1  0.876042  0.437102  0.249634  1
  Al  Al25  1  0.123958  0.562898  0.750366  1
  Al  Al26  1  0.562395  0.437605  0.250502  1
  Al  Al27  1  0.437605  0.562395  0.749498  1
  Al  Al28  1  0.000351  0.999649  0.250021  1
  Al  Al29  1  0.999649  0.000351  0.749979  1
  Ir  Ir30  1  0.500000  0.000000  0.000000  1
  Ir  Ir31  1  0.000000  0.500000  0.000000  1
  Ir  Ir32  1  0.500000  0.000000  0.500000  1
  Ir  Ir33  1  0.500000  0.500000  0.000000  1
  Ir  Ir34  1  0.000000  0.500000  0.500000  1
  Os  Os35  1  0.500000  0.500000  0.500000  1
  Os  Os36  1  0.000000  0.000000  0.000000  1
  Os  Os37  1  0.000000  0.000000  0.500000  1
