# generated using pymatgen
data_Nd5TaPdO12
_symmetry_space_group_name_H-M   'P 1'
_cell_length_a   7.10925374
_cell_length_b   7.10925235
_cell_length_c   7.57076000
_cell_angle_alpha   74.54041730
_cell_angle_beta   74.54042041
_cell_angle_gamma   50.66490074
_symmetry_Int_Tables_number   1
_chemical_formula_structural   Nd5TaPdO12
_chemical_formula_sum   'Nd5 Ta1 Pd1 O12'
_cell_volume   282.78854444
_cell_formula_units_Z   1
loop_
 _symmetry_equiv_pos_site_id
 _symmetry_equiv_pos_as_xyz
  1  'x, y, z'
loop_
 _atom_site_type_symbol
 _atom_site_label
 _atom_site_symmetry_multiplicity
 _atom_site_fract_x
 _atom_site_fract_y
 _atom_site_fract_z
 _atom_site_occupancy
  Nd  Nd0  1  0.311152  0.294106  0.358974  1
  Nd  Nd1  1  0.705894  0.688848  0.641026  1
  Nd  Nd2  1  0.701107  0.687501  0.165940  1
  Nd  Nd3  1  0.312499  0.298893  0.834060  1
  Nd  Nd4  1  0.998035  0.001965  0.500000  1
  Ta  Ta5  1  0.223885  0.776115  0.000000  1
  Pd  Pd6  1  0.744994  0.255006  0.000000  1
  O  O7  1  0.101221  0.595921  0.574505  1
  O  O8  1  0.998889  0.000423  0.184051  1
  O  O9  1  0.404079  0.898779  0.425495  1
  O  O10  1  0.493867  0.506896  0.177858  1
  O  O11  1  0.104046  0.577613  0.080103  1
  O  O12  1  0.909234  0.400815  0.423115  1
  O  O13  1  0.999577  0.001111  0.815949  1
  O  O14  1  0.599185  0.090765  0.576885  1
  O  O15  1  0.493104  0.506133  0.822142  1
  O  O16  1  0.573121  0.096275  0.082427  1
  O  O17  1  0.422387  0.895954  0.919897  1
  O  O18  1  0.903725  0.426879  0.917573  1
