# generated using pymatgen
data_Dy2Er2Hf3AlPt4
_symmetry_space_group_name_H-M   'P 1'
_cell_length_a   4.56314200
_cell_length_b   7.06526333
_cell_length_c   8.13988336
_cell_angle_alpha   87.10266507
_cell_angle_beta   90.00000000
_cell_angle_gamma   90.00000000
_symmetry_Int_Tables_number   1
_chemical_formula_structural   Dy2Er2Hf3AlPt4
_chemical_formula_sum   'Dy2 Er2 Hf3 Al1 Pt4'
_cell_volume   262.09275082
_cell_formula_units_Z   1
loop_
 _symmetry_equiv_pos_site_id
 _symmetry_equiv_pos_as_xyz
  1  'x, y, z'
loop_
 _atom_site_type_symbol
 _atom_site_label
 _atom_site_symmetry_multiplicity
 _atom_site_fract_x
 _atom_site_fract_y
 _atom_site_fract_z
 _atom_site_occupancy
  Dy  Dy0  1  0.750000  0.516970  0.815343  1
  Dy  Dy1  1  0.750000  0.038939  0.670848  1
  Er  Er2  1  0.250000  0.471896  0.187135  1
  Er  Er3  1  0.250000  0.988373  0.337206  1
  Hf  Hf4  1  0.250000  0.855322  0.923992  1
  Hf  Hf5  1  0.750000  0.137947  0.071208  1
  Hf  Hf6  1  0.750000  0.640806  0.435005  1
  Al  Al7  1  0.250000  0.358394  0.571764  1
  Pt  Pt8  1  0.250000  0.726867  0.609332  1
  Pt  Pt9  1  0.750000  0.269919  0.380939  1
  Pt  Pt10  1  0.750000  0.764409  0.102730  1
  Pt  Pt11  1  0.250000  0.230161  0.894499  1
