# generated using pymatgen
data_Ho3Er3GaCo2
_symmetry_space_group_name_H-M   'P 1'
_cell_length_a   8.21174733
_cell_length_b   8.21056272
_cell_length_c   8.21056300
_cell_angle_alpha   111.93875052
_cell_angle_beta   109.60830861
_cell_angle_gamma   106.90024308
_symmetry_Int_Tables_number   1
_chemical_formula_structural   Ho3Er3GaCo2
_chemical_formula_sum   'Ho6 Er6 Ga2 Co4'
_cell_volume   425.35228986
_cell_formula_units_Z   2
loop_
 _symmetry_equiv_pos_site_id
 _symmetry_equiv_pos_as_xyz
  1  'x, y, z'
loop_
 _atom_site_type_symbol
 _atom_site_label
 _atom_site_symmetry_multiplicity
 _atom_site_fract_x
 _atom_site_fract_y
 _atom_site_fract_z
 _atom_site_occupancy
  Ho  Ho0  1  0.564172  0.261284  0.302888  1
  Ho  Ho1  1  0.435828  0.738716  0.697112  1
  Ho  Ho2  1  0.180718  0.780556  0.961313  1
  Ho  Ho3  1  0.819282  0.780595  0.599839  1
  Ho  Ho4  1  0.180718  0.219405  0.400161  1
  Ho  Ho5  1  0.819282  0.219444  0.038687  1
  Er  Er6  1  0.958411  0.261283  0.697128  1
  Er  Er7  1  0.041589  0.738717  0.302872  1
  Er  Er8  1  0.673575  0.861523  0.188006  1
  Er  Er9  1  0.326425  0.514432  0.187948  1
  Er  Er10  1  0.326425  0.138477  0.811994  1
  Er  Er11  1  0.673575  0.485568  0.812052  1
  Ga  Ga12  1  0.000000  0.500000  0.500000  1
  Ga  Ga13  1  0.500000  0.000000  0.500000  1
  Co  Co14  1  0.115184  0.115208  0.999976  1
  Co  Co15  1  0.884816  0.884792  0.000024  1
  Co  Co16  1  0.663635  0.500017  0.163618  1
  Co  Co17  1  0.336365  0.499983  0.836382  1
