# generated using pymatgen
data_Li4Lu4IrPt3
_symmetry_space_group_name_H-M   'P 1'
_cell_length_a   3.92506400
_cell_length_b   6.93300437
_cell_length_c   8.27545711
_cell_angle_alpha   90.33486598
_cell_angle_beta   90.00000000
_cell_angle_gamma   90.00000000
_symmetry_Int_Tables_number   1
_chemical_formula_structural   Li4Lu4IrPt3
_chemical_formula_sum   'Li4 Lu4 Ir1 Pt3'
_cell_volume   225.19191332
_cell_formula_units_Z   1
loop_
 _symmetry_equiv_pos_site_id
 _symmetry_equiv_pos_as_xyz
  1  'x, y, z'
loop_
 _atom_site_type_symbol
 _atom_site_label
 _atom_site_symmetry_multiplicity
 _atom_site_fract_x
 _atom_site_fract_y
 _atom_site_fract_z
 _atom_site_occupancy
  Li  Li0  1  0.250000  0.373548  0.559102  1
  Li  Li1  1  0.250000  0.874791  0.942721  1
  Li  Li2  1  0.750000  0.625627  0.441662  1
  Li  Li3  1  0.750000  0.126859  0.055312  1
  Lu  Lu4  1  0.250000  0.952499  0.323442  1
  Lu  Lu5  1  0.250000  0.449269  0.172637  1
  Lu  Lu6  1  0.750000  0.053075  0.682885  1
  Lu  Lu7  1  0.750000  0.538924  0.823026  1
  Ir  Ir8  1  0.250000  0.258441  0.871155  1
  Pt  Pt9  1  0.250000  0.757370  0.626372  1
  Pt  Pt10  1  0.750000  0.745216  0.129679  1
  Pt  Pt11  1  0.750000  0.244382  0.372006  1
