# generated using pymatgen
data_BaSb12Os3W
_symmetry_space_group_name_H-M   'P 1'
_cell_length_a   8.27769705
_cell_length_b   8.27769661
_cell_length_c   8.27769617
_cell_angle_alpha   109.61314040
_cell_angle_beta   109.61312257
_cell_angle_gamma   109.61312611
_symmetry_Int_Tables_number   1
_chemical_formula_structural   BaSb12Os3W
_chemical_formula_sum   'Ba1 Sb12 Os3 W1'
_cell_volume   434.31383400
_cell_formula_units_Z   1
loop_
 _symmetry_equiv_pos_site_id
 _symmetry_equiv_pos_as_xyz
  1  'x, y, z'
loop_
 _atom_site_type_symbol
 _atom_site_label
 _atom_site_symmetry_multiplicity
 _atom_site_fract_x
 _atom_site_fract_y
 _atom_site_fract_z
 _atom_site_occupancy
  Ba  Ba0  1  0.000000  0.000000  0.000000  1
  Sb  Sb1  1  0.339155  0.179572  0.840324  1
  Sb  Sb2  1  0.660845  0.820428  0.159676  1
  Sb  Sb3  1  0.660878  0.499486  0.848706  1
  Sb  Sb4  1  0.339122  0.500514  0.151294  1
  Sb  Sb5  1  0.179572  0.840324  0.339155  1
  Sb  Sb6  1  0.820428  0.159676  0.660845  1
  Sb  Sb7  1  0.499486  0.848706  0.660878  1
  Sb  Sb8  1  0.500514  0.151294  0.339122  1
  Sb  Sb9  1  0.840324  0.339155  0.179572  1
  Sb  Sb10  1  0.159676  0.660845  0.820428  1
  Sb  Sb11  1  0.848706  0.660878  0.499486  1
  Sb  Sb12  1  0.151294  0.339122  0.500514  1
  Os  Os13  1  0.000000  0.000000  0.500000  1
  Os  Os14  1  0.500000  0.000000  0.000000  1
  Os  Os15  1  0.000000  0.500000  0.000000  1
  W  W16  1  0.500000  0.500000  0.500000  1
