# generated using pymatgen
data_Ho7LuTi11Si16Ru
_symmetry_space_group_name_H-M   'P 1'
_cell_length_a   7.00466601
_cell_length_b   7.00640178
_cell_length_c   12.84528708
_cell_angle_alpha   89.99710029
_cell_angle_beta   90.01825009
_cell_angle_gamma   89.90835411
_symmetry_Int_Tables_number   1
_chemical_formula_structural   Ho7LuTi11Si16Ru
_chemical_formula_sum   'Ho7 Lu1 Ti11 Si16 Ru1'
_cell_volume   630.41379420
_cell_formula_units_Z   1
loop_
 _symmetry_equiv_pos_site_id
 _symmetry_equiv_pos_as_xyz
  1  'x, y, z'
loop_
 _atom_site_type_symbol
 _atom_site_label
 _atom_site_symmetry_multiplicity
 _atom_site_fract_x
 _atom_site_fract_y
 _atom_site_fract_z
 _atom_site_occupancy
  Ho  Ho0  1  0.496624  0.841419  0.717653  1
  Ho  Ho1  1  0.500241  0.159098  0.215436  1
  Ho  Ho2  1  0.841138  0.496734  0.282243  1
  Ho  Ho3  1  0.159242  0.500236  0.784687  1
  Ho  Ho4  1  0.658144  0.998403  0.968101  1
  Ho  Ho5  1  0.004099  0.340358  0.532464  1
  Ho  Ho6  1  0.998450  0.658164  0.031924  1
  Lu  Lu7  1  0.341254  0.002612  0.467342  1
  Ti  Ti8  1  0.174960  0.827684  0.248948  1
  Ti  Ti9  1  0.827501  0.174740  0.751123  1
  Ti  Ti10  1  0.673429  0.674263  0.499975  1
  Ti  Ti11  1  0.150466  0.003777  0.875176  1
  Ti  Ti12  1  0.492904  0.655386  0.125579  1
  Ti  Ti13  1  0.506198  0.349021  0.627319  1
  Ti  Ti14  1  0.655234  0.492913  0.874556  1
  Ti  Ti15  1  0.349132  0.506705  0.372544  1
  Ti  Ti16  1  0.849220  0.994100  0.375283  1
  Ti  Ti17  1  0.004055  0.150243  0.124823  1
  Ti  Ti18  1  0.994190  0.849271  0.624557  1
  Si  Si19  1  0.203075  0.131978  0.684362  1
  Si  Si20  1  0.372187  0.700504  0.933832  1
  Si  Si21  1  0.630525  0.295375  0.434032  1
  Si  Si22  1  0.700475  0.372145  0.066204  1
  Si  Si23  1  0.296376  0.632546  0.565643  1
  Si  Si24  1  0.796531  0.868587  0.183945  1
  Si  Si25  1  0.132822  0.202065  0.315996  1
  Si  Si26  1  0.868536  0.796579  0.816053  1
  Si  Si27  1  0.287688  0.953438  0.064591  1
  Si  Si28  1  0.546202  0.792914  0.316088  1
  Si  Si29  1  0.449691  0.209340  0.817593  1
  Si  Si30  1  0.792207  0.546955  0.684353  1
  Si  Si31  1  0.209404  0.449645  0.182460  1
  Si  Si32  1  0.707019  0.047623  0.565198  1
  Si  Si33  1  0.953496  0.287652  0.935429  1
  Si  Si34  1  0.048607  0.708839  0.434472  1
  Ru  Ru35  1  0.328678  0.328688  0.000016  1
