# generated using pymatgen
data_Hf2TaW3
_symmetry_space_group_name_H-M   'P 1'
_cell_length_a   5.45848889
_cell_length_b   5.39689196
_cell_length_c   5.39689200
_cell_angle_alpha   59.99999974
_cell_angle_beta   60.37259489
_cell_angle_gamma   60.37259747
_symmetry_Int_Tables_number   1
_chemical_formula_structural   Hf2TaW3
_chemical_formula_sum   'Hf2 Ta1 W3'
_cell_volume   113.04931031
_cell_formula_units_Z   1
loop_
 _symmetry_equiv_pos_site_id
 _symmetry_equiv_pos_as_xyz
  1  'x, y, z'
loop_
 _atom_site_type_symbol
 _atom_site_label
 _atom_site_symmetry_multiplicity
 _atom_site_fract_x
 _atom_site_fract_y
 _atom_site_fract_z
 _atom_site_occupancy
  Hf  Hf0  1  0.998676  0.000441  0.000441  1
  Hf  Hf1  1  0.251324  0.249559  0.249559  1
  Ta  Ta2  1  0.125000  0.625000  0.625000  1
  W  W3  1  0.625000  0.625000  0.625000  1
  W  W4  1  0.625000  0.125000  0.625000  1
  W  W5  1  0.625000  0.625000  0.125000  1
