# generated using pymatgen
data_Mg2TlSi(PPd4)5
_symmetry_space_group_name_H-M   'P 1'
_cell_length_a   8.61310882
_cell_length_b   8.60953367
_cell_length_c   8.60953237
_cell_angle_alpha   59.99989551
_cell_angle_beta   59.98624934
_cell_angle_gamma   59.98626683
_symmetry_Int_Tables_number   1
_chemical_formula_structural   Mg2TlSi(PPd4)5
_chemical_formula_sum   'Mg2 Tl1 Si1 P5 Pd20'
_cell_volume   451.35010415
_cell_formula_units_Z   1
loop_
 _symmetry_equiv_pos_site_id
 _symmetry_equiv_pos_as_xyz
  1  'x, y, z'
loop_
 _atom_site_type_symbol
 _atom_site_label
 _atom_site_symmetry_multiplicity
 _atom_site_fract_x
 _atom_site_fract_y
 _atom_site_fract_z
 _atom_site_occupancy
  Mg  Mg0  1  0.250799  0.249201  0.249201  1
  Mg  Mg1  1  0.998280  0.001720  0.001720  1
  Tl  Tl2  1  0.750884  0.749116  0.749116  1
  Si  Si3  1  0.733543  0.266457  0.266457  1
  P  P4  1  0.265459  0.734541  0.734541  1
  P  P5  1  0.267143  0.732645  0.265435  1
  P  P6  1  0.734777  0.265435  0.732645  1
  P  P7  1  0.267143  0.265435  0.732645  1
  P  P8  1  0.734777  0.732645  0.265435  1
  Pd  Pd9  1  0.380469  0.382053  0.382053  1
  Pd  Pd10  1  0.615040  0.615030  0.615030  1
  Pd  Pd11  1  0.382285  0.381969  0.853461  1
  Pd  Pd12  1  0.382285  0.853461  0.381969  1
  Pd  Pd13  1  0.615212  0.617434  0.152141  1
  Pd  Pd14  1  0.615212  0.152141  0.617434  1
  Pd  Pd15  1  0.855424  0.382053  0.382053  1
  Pd  Pd16  1  0.154899  0.615030  0.615030  1
  Pd  Pd17  1  0.338803  0.002813  0.002813  1
  Pd  Pd18  1  0.655570  0.002813  0.002813  1
  Pd  Pd19  1  0.000462  0.341209  0.657865  1
  Pd  Pd20  1  0.000462  0.657865  0.341209  1
  Pd  Pd21  1  0.003315  0.341319  0.999763  1
  Pd  Pd22  1  0.655604  0.999763  0.341319  1
  Pd  Pd23  1  0.001199  0.656668  0.001718  1
  Pd  Pd24  1  0.340415  0.001718  0.656668  1
  Pd  Pd25  1  0.003315  0.999763  0.341319  1
  Pd  Pd26  1  0.001199  0.001718  0.656668  1
  Pd  Pd27  1  0.655604  0.341319  0.999763  1
  Pd  Pd28  1  0.340415  0.656668  0.001718  1
