# generated using pymatgen
data_YbCo(PO3)4
_symmetry_space_group_name_H-M   'P 1'
_cell_length_a   7.50498027
_cell_length_b   7.50498004
_cell_length_c   10.08917809
_cell_angle_alpha   67.42743499
_cell_angle_beta   67.42743261
_cell_angle_gamma   71.15117655
_symmetry_Int_Tables_number   1
_chemical_formula_structural   YbCo(PO3)4
_chemical_formula_sum   'Yb2 Co2 P8 O24'
_cell_volume   474.13721570
_cell_formula_units_Z   2
loop_
 _symmetry_equiv_pos_site_id
 _symmetry_equiv_pos_as_xyz
  1  'x, y, z'
loop_
 _atom_site_type_symbol
 _atom_site_label
 _atom_site_symmetry_multiplicity
 _atom_site_fract_x
 _atom_site_fract_y
 _atom_site_fract_z
 _atom_site_occupancy
  Yb  Yb0  1  0.449655  0.550345  0.250000  1
  Yb  Yb1  1  0.550345  0.449655  0.750000  1
  Co  Co2  1  0.500000  0.000000  0.000000  1
  Co  Co3  1  0.000000  0.500000  0.500000  1
  P  P4  1  0.812591  0.806545  0.197037  1
  P  P5  1  0.187409  0.193455  0.802963  1
  P  P6  1  0.193455  0.187409  0.302963  1
  P  P7  1  0.806545  0.812591  0.697037  1
  P  P8  1  0.769515  0.218353  0.473625  1
  P  P9  1  0.230485  0.781647  0.526375  1
  P  P10  1  0.781647  0.230485  0.026375  1
  P  P11  1  0.218353  0.769515  0.973625  1
  O  O12  1  0.597082  0.323157  0.416508  1
  O  O13  1  0.402918  0.676843  0.583492  1
  O  O14  1  0.676843  0.402918  0.083492  1
  O  O15  1  0.323157  0.597082  0.916508  1
  O  O16  1  0.308532  0.149791  0.155892  1
  O  O17  1  0.691468  0.850209  0.844108  1
  O  O18  1  0.850209  0.691468  0.344108  1
  O  O19  1  0.149791  0.308532  0.655892  1
  O  O20  1  0.301429  0.810136  0.072789  1
  O  O21  1  0.698571  0.189864  0.927211  1
  O  O22  1  0.189864  0.698571  0.427211  1
  O  O23  1  0.810136  0.301429  0.572789  1
  O  O24  1  0.629310  0.792987  0.173936  1
  O  O25  1  0.370690  0.207013  0.826064  1
  O  O26  1  0.207013  0.370690  0.326064  1
  O  O27  1  0.792987  0.629310  0.673936  1
  O  O28  1  0.747511  0.993116  0.559619  1
  O  O29  1  0.252489  0.006884  0.440381  1
  O  O30  1  0.006884  0.252489  0.940381  1
  O  O31  1  0.993116  0.747511  0.059619  1
  O  O32  1  0.805692  0.035422  0.167015  1
  O  O33  1  0.194308  0.964578  0.832985  1
  O  O34  1  0.964578  0.194308  0.332985  1
  O  O35  1  0.035422  0.805692  0.667015  1
