# generated using pymatgen
data_Er3LuV2(CoB8)2
_symmetry_space_group_name_H-M   'P 1'
_cell_length_a   3.37827100
_cell_length_b   5.91663697
_cell_length_c   11.43535892
_cell_angle_alpha   90.05845509
_cell_angle_beta   90.00000000
_cell_angle_gamma   90.00000000
_symmetry_Int_Tables_number   1
_chemical_formula_structural   Er3LuV2(CoB8)2
_chemical_formula_sum   'Er3 Lu1 V2 Co2 B16'
_cell_volume   228.56987043
_cell_formula_units_Z   1
loop_
 _symmetry_equiv_pos_site_id
 _symmetry_equiv_pos_as_xyz
  1  'x, y, z'
loop_
 _atom_site_type_symbol
 _atom_site_label
 _atom_site_symmetry_multiplicity
 _atom_site_fract_x
 _atom_site_fract_y
 _atom_site_fract_z
 _atom_site_occupancy
  Er  Er0  1  0.500000  0.371260  0.148079  1
  Er  Er1  1  0.500000  0.628739  0.852010  1
  Er  Er2  1  0.500000  0.125214  0.652601  1
  Lu  Lu3  1  0.500000  0.874824  0.347403  1
  V  V4  1  0.500000  0.372333  0.413841  1
  V  V5  1  0.500000  0.627816  0.585755  1
  Co  Co6  1  0.500000  0.135938  0.912547  1
  Co  Co7  1  0.500000  0.864001  0.087799  1
  B  B8  1  0.000000  0.111243  0.046305  1
  B  B9  1  0.000000  0.888606  0.953859  1
  B  B10  1  0.000000  0.384898  0.547239  1
  B  B11  1  0.000000  0.616117  0.452142  1
  B  B12  1  0.000000  0.132996  0.466488  1
  B  B13  1  0.000000  0.866545  0.532727  1
  B  B14  1  0.000000  0.361471  0.969123  1
  B  B15  1  0.000000  0.638647  0.030997  1
  B  B16  1  0.000000  0.019484  0.190281  1
  B  B17  1  0.000000  0.980092  0.810288  1
  B  B18  1  0.000000  0.474333  0.695174  1
  B  B19  1  0.000000  0.526503  0.304778  1
  B  B20  1  0.000000  0.209834  0.311402  1
  B  B21  1  0.000000  0.788834  0.688676  1
  B  B22  1  0.000000  0.282364  0.817245  1
  B  B23  1  0.000000  0.717906  0.183244  1
