# generated using pymatgen
data_SrGaAgF6
_symmetry_space_group_name_H-M   'P 1'
_cell_length_a   5.49370800
_cell_length_b   9.64365800
_cell_length_c   10.81290700
_cell_angle_alpha   90.00000000
_cell_angle_beta   90.00000000
_cell_angle_gamma   90.00000000
_symmetry_Int_Tables_number   1
_chemical_formula_structural   SrGaAgF6
_chemical_formula_sum   'Sr4 Ga4 Ag4 F24'
_cell_volume   572.86176957
_cell_formula_units_Z   4
loop_
 _symmetry_equiv_pos_site_id
 _symmetry_equiv_pos_as_xyz
  1  'x, y, z'
loop_
 _atom_site_type_symbol
 _atom_site_label
 _atom_site_symmetry_multiplicity
 _atom_site_fract_x
 _atom_site_fract_y
 _atom_site_fract_z
 _atom_site_occupancy
  Sr  Sr0  1  0.510840  0.321790  0.170439  1
  Sr  Sr1  1  0.989160  0.678210  0.670439  1
  Sr  Sr2  1  0.489160  0.821790  0.329561  1
  Sr  Sr3  1  0.010840  0.178210  0.829561  1
  Ga  Ga4  1  0.038949  0.010053  0.133161  1
  Ga  Ga5  1  0.461051  0.989947  0.633161  1
  Ga  Ga6  1  0.961051  0.510053  0.366839  1
  Ga  Ga7  1  0.538949  0.489947  0.866839  1
  Ag  Ag8  1  0.043472  0.654166  0.072638  1
  Ag  Ag9  1  0.456528  0.345834  0.572638  1
  Ag  Ag10  1  0.956528  0.154166  0.427362  1
  Ag  Ag11  1  0.543472  0.845834  0.927362  1
  F  F12  1  0.212640  0.131700  0.601998  1
  F  F13  1  0.287360  0.868300  0.101998  1
  F  F14  1  0.787360  0.631700  0.898002  1
  F  F15  1  0.712640  0.368300  0.398002  1
  F  F16  1  0.201317  0.636438  0.307056  1
  F  F17  1  0.298683  0.363562  0.807056  1
  F  F18  1  0.798683  0.136438  0.192944  1
  F  F19  1  0.701317  0.863562  0.692944  1
  F  F20  1  0.224793  0.158287  0.054982  1
  F  F21  1  0.275207  0.841713  0.554982  1
  F  F22  1  0.775207  0.658287  0.445018  1
  F  F23  1  0.724793  0.341713  0.945018  1
  F  F24  1  0.161793  0.360839  0.306053  1
  F  F25  1  0.338207  0.639161  0.806053  1
  F  F26  1  0.838207  0.860839  0.193947  1
  F  F27  1  0.661793  0.139161  0.693947  1
  F  F28  1  0.387466  0.506240  0.026544  1
  F  F29  1  0.112534  0.493760  0.526544  1
  F  F30  1  0.612534  0.006240  0.473456  1
  F  F31  1  0.887466  0.993760  0.973456  1
  F  F32  1  0.219999  0.028958  0.284711  1
  F  F33  1  0.280001  0.971042  0.784711  1
  F  F34  1  0.780001  0.528958  0.215289  1
  F  F35  1  0.719999  0.471042  0.715289  1
