# generated using pymatgen
data_Ho16Lu4Ir11Au
_symmetry_space_group_name_H-M   'P 1'
_cell_length_a   10.88410024
_cell_length_b   10.88410024
_cell_length_c   6.31501602
_cell_angle_alpha   89.99408254
_cell_angle_beta   89.99408254
_cell_angle_gamma   89.64501510
_symmetry_Int_Tables_number   1
_chemical_formula_structural   Ho16Lu4Ir11Au
_chemical_formula_sum   'Ho16 Lu4 Ir11 Au1'
_cell_volume   748.08540529
_cell_formula_units_Z   1
loop_
 _symmetry_equiv_pos_site_id
 _symmetry_equiv_pos_as_xyz
  1  'x, y, z'
loop_
 _atom_site_type_symbol
 _atom_site_label
 _atom_site_symmetry_multiplicity
 _atom_site_fract_x
 _atom_site_fract_y
 _atom_site_fract_z
 _atom_site_occupancy
  Ho  Ho0  1  0.288922  0.087185  0.375990  1
  Ho  Ho1  1  0.291737  0.911550  0.875369  1
  Ho  Ho2  1  0.704819  0.083649  0.865473  1
  Ho  Ho3  1  0.706158  0.905033  0.380105  1
  Ho  Ho4  1  0.586726  0.789508  0.878735  1
  Ho  Ho5  1  0.578817  0.211171  0.377584  1
  Ho  Ho6  1  0.411383  0.789877  0.377150  1
  Ho  Ho7  1  0.410601  0.208860  0.876905  1
  Ho  Ho8  1  0.210492  0.413274  0.621265  1
  Ho  Ho9  1  0.210123  0.588617  0.122850  1
  Ho  Ho10  1  0.788829  0.421183  0.122416  1
  Ho  Ho11  1  0.791140  0.589399  0.623095  1
  Ho  Ho12  1  0.912815  0.711078  0.124010  1
  Ho  Ho13  1  0.916351  0.295181  0.634527  1
  Ho  Ho14  1  0.088450  0.708263  0.624631  1
  Ho  Ho15  1  0.094967  0.293842  0.119895  1
  Lu  Lu16  1  0.003450  0.995682  0.502032  1
  Lu  Lu17  1  0.004318  0.996550  0.997968  1
  Lu  Lu18  1  0.499255  0.498978  0.998968  1
  Lu  Lu19  1  0.501022  0.500745  0.501032  1
  Ir  Ir20  1  0.848336  0.850139  0.749578  1
  Ir  Ir21  1  0.149861  0.151664  0.750422  1
  Ir  Ir22  1  0.153478  0.846522  0.250000  1
  Ir  Ir23  1  0.653268  0.346732  0.750000  1
  Ir  Ir24  1  0.651595  0.650602  0.249103  1
  Ir  Ir25  1  0.349398  0.348405  0.250897  1
  Ir  Ir26  1  0.348158  0.651842  0.750000  1
  Ir  Ir27  1  0.500418  0.000164  0.125518  1
  Ir  Ir28  1  0.499432  0.000432  0.621621  1
  Ir  Ir29  1  0.999568  0.500568  0.878379  1
  Ir  Ir30  1  0.999836  0.499582  0.374482  1
  Au  Au31  1  0.846276  0.153724  0.250000  1
