# generated using pymatgen
data_YbY2ThB16
_symmetry_space_group_name_H-M   'P 1'
_cell_length_a   7.14958783
_cell_length_b   7.14757043
_cell_length_c   4.05561100
_cell_angle_alpha   90.00000000
_cell_angle_beta   90.00000000
_cell_angle_gamma   90.63464011
_symmetry_Int_Tables_number   1
_chemical_formula_structural   YbY2ThB16
_chemical_formula_sum   'Yb1 Y2 Th1 B16'
_cell_volume   207.23785981
_cell_formula_units_Z   1
loop_
 _symmetry_equiv_pos_site_id
 _symmetry_equiv_pos_as_xyz
  1  'x, y, z'
loop_
 _atom_site_type_symbol
 _atom_site_label
 _atom_site_symmetry_multiplicity
 _atom_site_fract_x
 _atom_site_fract_y
 _atom_site_fract_z
 _atom_site_occupancy
  Yb  Yb0  1  0.682458  0.818131  0.000000  1
  Y  Y1  1  0.182810  0.682589  0.000000  1
  Y  Y2  1  0.318222  0.182306  0.000000  1
  Th  Th3  1  0.815062  0.315018  0.000000  1
  B  B4  1  0.498143  0.504745  0.796703  1
  B  B5  1  0.001232  0.996405  0.796625  1
  B  B6  1  0.498143  0.504745  0.203297  1
  B  B7  1  0.001232  0.996405  0.203375  1
  B  B8  1  0.913893  0.586625  0.500000  1
  B  B9  1  0.087241  0.413268  0.500000  1
  B  B10  1  0.413195  0.913801  0.500000  1
  B  B11  1  0.588059  0.089003  0.500000  1
  B  B12  1  0.674026  0.540580  0.500000  1
  B  B13  1  0.323057  0.461482  0.500000  1
  B  B14  1  0.178069  0.960448  0.500000  1
  B  B15  1  0.826015  0.035366  0.500000  1
  B  B16  1  0.460309  0.677912  0.500000  1
  B  B17  1  0.535104  0.325692  0.500000  1
  B  B18  1  0.041634  0.173291  0.500000  1
  B  B19  1  0.962094  0.822187  0.500000  1
