# generated using pymatgen
data_Tb2Lu3InSb2
_symmetry_space_group_name_H-M   'P 1'
_cell_length_a   6.39610001
_cell_length_b   8.86005625
_cell_length_c   8.88378820
_cell_angle_alpha   119.91168269
_cell_angle_beta   90.00002480
_cell_angle_gamma   89.99994980
_symmetry_Int_Tables_number   1
_chemical_formula_structural   Tb2Lu3InSb2
_chemical_formula_sum   'Tb4 Lu6 In2 Sb4'
_cell_volume   436.38153225
_cell_formula_units_Z   2
loop_
 _symmetry_equiv_pos_site_id
 _symmetry_equiv_pos_as_xyz
  1  'x, y, z'
loop_
 _atom_site_type_symbol
 _atom_site_label
 _atom_site_symmetry_multiplicity
 _atom_site_fract_x
 _atom_site_fract_y
 _atom_site_fract_z
 _atom_site_occupancy
  Tb  Tb0  1  0.750008  0.240801  0.000000  1
  Tb  Tb1  1  0.750008  0.759843  0.757380  1
  Tb  Tb2  1  0.750008  0.002463  0.242620  1
  Tb  Tb3  1  0.250021  0.761072  0.000000  1
  Lu  Lu4  1  0.499966  0.332803  0.664026  1
  Lu  Lu5  1  0.499966  0.668777  0.335974  1
  Lu  Lu6  1  0.000024  0.668781  0.335971  1
  Lu  Lu7  1  0.000024  0.332810  0.664029  1
  Lu  Lu8  1  0.250007  0.237984  0.242827  1
  Lu  Lu9  1  0.250007  0.995157  0.757173  1
  In  In10  1  0.249998  0.604347  0.603028  1
  In  In11  1  0.249998  0.001318  0.396972  1
  Sb  Sb12  1  0.749982  0.606420  0.000000  1
  Sb  Sb13  1  0.749994  0.396133  0.394405  1
  Sb  Sb14  1  0.749994  0.001727  0.605595  1
  Sb  Sb15  1  0.249997  0.389567  0.000000  1
