# generated using pymatgen
data_Sm3RhBr3
_symmetry_space_group_name_H-M   'P 1'
_cell_length_a   10.32202231
_cell_length_b   10.32202235
_cell_length_c   10.32202200
_cell_angle_alpha   109.47121995
_cell_angle_beta   109.47122002
_cell_angle_gamma   109.47122118
_symmetry_Int_Tables_number   1
_chemical_formula_structural   Sm3RhBr3
_chemical_formula_sum   'Sm12 Rh4 Br12'
_cell_volume   846.58872872
_cell_formula_units_Z   4
loop_
 _symmetry_equiv_pos_site_id
 _symmetry_equiv_pos_as_xyz
  1  'x, y, z'
loop_
 _atom_site_type_symbol
 _atom_site_label
 _atom_site_symmetry_multiplicity
 _atom_site_fract_x
 _atom_site_fract_y
 _atom_site_fract_z
 _atom_site_occupancy
  Sm  Sm0  1  0.468034  0.484017  0.234017  1
  Sm  Sm1  1  0.750000  0.234017  0.265983  1
  Sm  Sm2  1  0.750000  0.015983  0.484017  1
  Sm  Sm3  1  0.234017  0.468034  0.484017  1
  Sm  Sm4  1  0.265983  0.750000  0.234017  1
  Sm  Sm5  1  0.031966  0.265983  0.015983  1
  Sm  Sm6  1  0.015983  0.031966  0.265983  1
  Sm  Sm7  1  0.484017  0.750000  0.015983  1
  Sm  Sm8  1  0.484017  0.234017  0.468034  1
  Sm  Sm9  1  0.015983  0.484017  0.750000  1
  Sm  Sm10  1  0.265983  0.015983  0.031966  1
  Sm  Sm11  1  0.234017  0.265983  0.750000  1
  Rh  Rh12  1  0.250000  0.250000  0.250000  1
  Rh  Rh13  1  0.500000  0.000000  0.250000  1
  Rh  Rh14  1  0.000000  0.250000  0.500000  1
  Rh  Rh15  1  0.250000  0.500000  0.000000  1
  Br  Br16  1  0.250000  0.755866  0.744134  1
  Br  Br17  1  0.511731  0.505866  0.755866  1
  Br  Br18  1  0.988269  0.744134  0.994134  1
  Br  Br19  1  0.744134  0.250000  0.755866  1
  Br  Br20  1  0.994134  0.988269  0.744134  1
  Br  Br21  1  0.250000  0.994134  0.505866  1
  Br  Br22  1  0.755866  0.511731  0.505866  1
  Br  Br23  1  0.505866  0.250000  0.994134  1
  Br  Br24  1  0.755866  0.744134  0.250000  1
  Br  Br25  1  0.744134  0.994134  0.988269  1
  Br  Br26  1  0.994134  0.505866  0.250000  1
  Br  Br27  1  0.505866  0.755866  0.511731  1
