# generated using pymatgen
data_BaSr2YbCN4
_symmetry_space_group_name_H-M   'P 1'
_cell_length_a   3.82184400
_cell_length_b   12.36359200
_cell_length_c   14.67876800
_cell_angle_alpha   90.00000000
_cell_angle_beta   90.00000000
_cell_angle_gamma   90.00000000
_symmetry_Int_Tables_number   1
_chemical_formula_structural   BaSr2YbCN4
_chemical_formula_sum   'Ba4 Sr8 Yb4 C4 N16'
_cell_volume   693.59703407
_cell_formula_units_Z   4
loop_
 _symmetry_equiv_pos_site_id
 _symmetry_equiv_pos_as_xyz
  1  'x, y, z'
loop_
 _atom_site_type_symbol
 _atom_site_label
 _atom_site_symmetry_multiplicity
 _atom_site_fract_x
 _atom_site_fract_y
 _atom_site_fract_z
 _atom_site_occupancy
  Ba  Ba0  1  0.750000  0.892797  0.393128  1
  Ba  Ba1  1  0.250000  0.107203  0.606872  1
  Ba  Ba2  1  0.250000  0.607203  0.893128  1
  Ba  Ba3  1  0.750000  0.392797  0.106872  1
  Sr  Sr4  1  0.750000  0.651618  0.255857  1
  Sr  Sr5  1  0.250000  0.348382  0.744143  1
  Sr  Sr6  1  0.250000  0.848382  0.755857  1
  Sr  Sr7  1  0.750000  0.151618  0.244143  1
  Sr  Sr8  1  0.750000  0.881777  0.963526  1
  Sr  Sr9  1  0.250000  0.118223  0.036474  1
  Sr  Sr10  1  0.250000  0.618223  0.463526  1
  Sr  Sr11  1  0.750000  0.381777  0.536474  1
  Yb  Yb12  1  0.750000  0.604771  0.672029  1
  Yb  Yb13  1  0.250000  0.395229  0.327971  1
  Yb  Yb14  1  0.250000  0.895229  0.172029  1
  Yb  Yb15  1  0.750000  0.104771  0.827971  1
  C  C16  1  0.750000  0.831483  0.590481  1
  C  C17  1  0.250000  0.168517  0.409519  1
  C  C18  1  0.250000  0.668517  0.090481  1
  C  C19  1  0.750000  0.331483  0.909519  1
  N  N20  1  0.750000  0.742557  0.550568  1
  N  N21  1  0.250000  0.257443  0.449432  1
  N  N22  1  0.250000  0.757443  0.050568  1
  N  N23  1  0.750000  0.242557  0.949432  1
  N  N24  1  0.750000  0.921725  0.627406  1
  N  N25  1  0.250000  0.078275  0.372594  1
  N  N26  1  0.250000  0.578275  0.127406  1
  N  N27  1  0.750000  0.421725  0.872594  1
  N  N28  1  0.750000  0.500321  0.376778  1
  N  N29  1  0.250000  0.499679  0.623222  1
  N  N30  1  0.250000  0.999679  0.876778  1
  N  N31  1  0.750000  0.000321  0.123222  1
  N  N32  1  0.750000  0.716761  0.809001  1
  N  N33  1  0.250000  0.283239  0.190999  1
  N  N34  1  0.250000  0.783239  0.309001  1
  N  N35  1  0.750000  0.216761  0.690999  1
