# generated using pymatgen
data_Er6Tm6Tc3Ir
_symmetry_space_group_name_H-M   'P 1'
_cell_length_a   6.22936860
_cell_length_b   7.35451033
_cell_length_c   9.00853286
_cell_angle_alpha   89.99831157
_cell_angle_beta   89.94992037
_cell_angle_gamma   89.98141279
_symmetry_Int_Tables_number   1
_chemical_formula_structural   Er6Tm6Tc3Ir
_chemical_formula_sum   'Er6 Tm6 Tc3 Ir1'
_cell_volume   412.71634589
_cell_formula_units_Z   1
loop_
 _symmetry_equiv_pos_site_id
 _symmetry_equiv_pos_as_xyz
  1  'x, y, z'
loop_
 _atom_site_type_symbol
 _atom_site_label
 _atom_site_symmetry_multiplicity
 _atom_site_fract_x
 _atom_site_fract_y
 _atom_site_fract_z
 _atom_site_occupancy
  Er  Er0  1  0.334512  0.676155  0.436251  1
  Er  Er1  1  0.161724  0.175700  0.062889  1
  Er  Er2  1  0.875374  0.540031  0.249986  1
  Er  Er3  1  0.623798  0.038057  0.250038  1
  Er  Er4  1  0.129696  0.458404  0.750026  1
  Er  Er5  1  0.373200  0.960581  0.749984  1
  Tm  Tm6  1  0.334617  0.676133  0.063567  1
  Tm  Tm7  1  0.161610  0.175514  0.437255  1
  Tm  Tm8  1  0.663362  0.322671  0.561382  1
  Tm  Tm9  1  0.836780  0.825356  0.938348  1
  Tm  Tm10  1  0.663216  0.322863  0.938601  1
  Tm  Tm11  1  0.836920  0.825534  0.561686  1
  Tc  Tc12  1  0.039403  0.883652  0.249945  1
  Tc  Tc13  1  0.462738  0.385896  0.250041  1
  Tc  Tc14  1  0.959998  0.116757  0.749758  1
  Ir  Ir15  1  0.543052  0.616698  0.750243  1
