# generated using pymatgen
data_Tb10In3Sn3Cl2
_symmetry_space_group_name_H-M   'P 1'
_cell_length_a   9.15183775
_cell_length_b   9.15183632
_cell_length_c   6.68832500
_cell_angle_alpha   90.00000000
_cell_angle_beta   90.00000000
_cell_angle_gamma   119.89629354
_symmetry_Int_Tables_number   1
_chemical_formula_structural   Tb10In3Sn3Cl2
_chemical_formula_sum   'Tb10 In3 Sn3 Cl2'
_cell_volume   485.64335709
_cell_formula_units_Z   1
loop_
 _symmetry_equiv_pos_site_id
 _symmetry_equiv_pos_as_xyz
  1  'x, y, z'
loop_
 _atom_site_type_symbol
 _atom_site_label
 _atom_site_symmetry_multiplicity
 _atom_site_fract_x
 _atom_site_fract_y
 _atom_site_fract_z
 _atom_site_occupancy
  Tb  Tb0  1  0.667124  0.333827  0.000257  1
  Tb  Tb1  1  0.333827  0.667124  0.499743  1
  Tb  Tb2  1  0.667124  0.333827  0.499743  1
  Tb  Tb3  1  0.333827  0.667124  0.000257  1
  Tb  Tb4  1  0.740309  0.999116  0.750000  1
  Tb  Tb5  1  0.740523  0.740523  0.250000  1
  Tb  Tb6  1  0.999207  0.258977  0.250000  1
  Tb  Tb7  1  0.999116  0.740309  0.750000  1
  Tb  Tb8  1  0.258580  0.258580  0.750000  1
  Tb  Tb9  1  0.258977  0.999207  0.250000  1
  In  In10  1  0.608535  0.608535  0.750000  1
  In  In11  1  0.999927  0.608681  0.250000  1
  In  In12  1  0.608681  0.999927  0.250000  1
  Sn  Sn13  1  0.391502  0.000275  0.750000  1
  Sn  Sn14  1  0.000275  0.391502  0.750000  1
  Sn  Sn15  1  0.390979  0.390979  0.250000  1
  Cl  Cl16  1  0.000744  0.000744  0.500520  1
  Cl  Cl17  1  0.000744  0.000744  0.999480  1
