# generated using pymatgen
data_Ho6ScRhO12
_symmetry_space_group_name_H-M   'P 1'
_cell_length_a   6.55063090
_cell_length_b   6.55063000
_cell_length_c   6.55063101
_cell_angle_alpha   93.42250781
_cell_angle_beta   93.42251176
_cell_angle_gamma   93.42250520
_symmetry_Int_Tables_number   1
_chemical_formula_structural   Ho6ScRhO12
_chemical_formula_sum   'Ho6 Sc1 Rh1 O12'
_cell_volume   279.52569405
_cell_formula_units_Z   1
loop_
 _symmetry_equiv_pos_site_id
 _symmetry_equiv_pos_as_xyz
  1  'x, y, z'
loop_
 _atom_site_type_symbol
 _atom_site_label
 _atom_site_symmetry_multiplicity
 _atom_site_fract_x
 _atom_site_fract_y
 _atom_site_fract_z
 _atom_site_occupancy
  Ho  Ho0  1  0.742103  0.922036  0.433179  1
  Ho  Ho1  1  0.922036  0.433179  0.742103  1
  Ho  Ho2  1  0.433179  0.742103  0.922036  1
  Ho  Ho3  1  0.257897  0.077964  0.566821  1
  Ho  Ho4  1  0.077964  0.566821  0.257897  1
  Ho  Ho5  1  0.566821  0.257897  0.077964  1
  Sc  Sc6  1  0.000000  0.000000  0.000000  1
  Rh  Rh7  1  0.500000  0.500000  0.500000  1
  O  O8  1  0.590390  0.460809  0.806174  1
  O  O9  1  0.460809  0.806174  0.590390  1
  O  O10  1  0.806174  0.590390  0.460809  1
  O  O11  1  0.409610  0.539191  0.193826  1
  O  O12  1  0.539191  0.193826  0.409610  1
  O  O13  1  0.193826  0.409610  0.539191  1
  O  O14  1  0.068560  0.915845  0.308901  1
  O  O15  1  0.915845  0.308901  0.068560  1
  O  O16  1  0.691099  0.931440  0.084155  1
  O  O17  1  0.084155  0.691099  0.931440  1
  O  O18  1  0.931440  0.084155  0.691099  1
  O  O19  1  0.308901  0.068560  0.915845  1
