# generated using pymatgen
data_Y4NbPd8Pt7
_symmetry_space_group_name_H-M   'P 1'
_cell_length_a   4.11230000
_cell_length_b   4.09757600
_cell_length_c   20.52554400
_cell_angle_alpha   90.00000000
_cell_angle_beta   90.00000000
_cell_angle_gamma   90.00000000
_symmetry_Int_Tables_number   1
_chemical_formula_structural   Y4NbPd8Pt7
_chemical_formula_sum   'Y4 Nb1 Pd8 Pt7'
_cell_volume   345.86489478
_cell_formula_units_Z   1
loop_
 _symmetry_equiv_pos_site_id
 _symmetry_equiv_pos_as_xyz
  1  'x, y, z'
loop_
 _atom_site_type_symbol
 _atom_site_label
 _atom_site_symmetry_multiplicity
 _atom_site_fract_x
 _atom_site_fract_y
 _atom_site_fract_z
 _atom_site_occupancy
  Y  Y0  1  0.000000  0.000000  0.198852  1
  Y  Y1  1  0.000000  0.000000  0.398804  1
  Y  Y2  1  0.000000  0.000000  0.601222  1
  Y  Y3  1  0.000000  0.000000  0.801337  1
  Nb  Nb4  1  0.000000  0.000000  0.000203  1
  Pd  Pd5  1  0.500000  0.500000  0.193844  1
  Pd  Pd6  1  0.500000  0.500000  0.398120  1
  Pd  Pd7  1  0.500000  0.500000  0.601857  1
  Pd  Pd8  1  0.500000  0.500000  0.806227  1
  Pd  Pd9  1  0.000000  0.500000  0.296698  1
  Pd  Pd10  1  0.000000  0.500000  0.499983  1
  Pd  Pd11  1  0.000000  0.500000  0.703335  1
  Pd  Pd12  1  0.000000  0.500000  0.907954  1
  Pt  Pt13  1  0.500000  0.500000  0.000008  1
  Pt  Pt14  1  0.500000  0.000000  0.091535  1
  Pt  Pt15  1  0.500000  0.000000  0.296951  1
  Pt  Pt16  1  0.500000  0.000000  0.499966  1
  Pt  Pt17  1  0.500000  0.000000  0.703209  1
  Pt  Pt18  1  0.500000  0.000000  0.908507  1
  Pt  Pt19  1  0.000000  0.500000  0.091385  1
