# generated using pymatgen
data_YbHo3Al2(Co2B)6
_symmetry_space_group_name_H-M   'P 1'
_cell_length_a   5.12761200
_cell_length_b   5.12761178
_cell_length_c   12.31198800
_cell_angle_alpha   90.00000000
_cell_angle_beta   90.00000000
_cell_angle_gamma   120.00000141
_symmetry_Int_Tables_number   1
_chemical_formula_structural   YbHo3Al2(Co2B)6
_chemical_formula_sum   'Yb1 Ho3 Al2 Co12 B6'
_cell_volume   280.34260268
_cell_formula_units_Z   1
loop_
 _symmetry_equiv_pos_site_id
 _symmetry_equiv_pos_as_xyz
  1  'x, y, z'
loop_
 _atom_site_type_symbol
 _atom_site_label
 _atom_site_symmetry_multiplicity
 _atom_site_fract_x
 _atom_site_fract_y
 _atom_site_fract_z
 _atom_site_occupancy
  Yb  Yb0  1  0.000000  0.000000  0.500000  1
  Ho  Ho1  1  0.000000  0.000000  0.000000  1
  Ho  Ho2  1  0.000000  0.000000  0.737242  1
  Ho  Ho3  1  0.000000  0.000000  0.262758  1
  Al  Al4  1  0.666667  0.333333  0.000000  1
  Al  Al5  1  0.333333  0.666667  0.000000  1
  Co  Co6  1  0.500000  0.500000  0.840332  1
  Co  Co7  1  0.500000  0.000000  0.840332  1
  Co  Co8  1  0.000000  0.500000  0.840332  1
  Co  Co9  1  0.500000  0.500000  0.159668  1
  Co  Co10  1  0.500000  0.000000  0.159668  1
  Co  Co11  1  0.000000  0.500000  0.159668  1
  Co  Co12  1  0.500000  0.500000  0.613502  1
  Co  Co13  1  0.500000  0.000000  0.613502  1
  Co  Co14  1  0.000000  0.500000  0.613502  1
  Co  Co15  1  0.500000  0.500000  0.386498  1
  Co  Co16  1  0.500000  0.000000  0.386498  1
  Co  Co17  1  0.000000  0.500000  0.386498  1
  B  B18  1  0.666667  0.333333  0.500000  1
  B  B19  1  0.333333  0.666667  0.500000  1
  B  B20  1  0.666667  0.333333  0.731188  1
  B  B21  1  0.333333  0.666667  0.731188  1
  B  B22  1  0.333333  0.666667  0.268812  1
  B  B23  1  0.666667  0.333333  0.268812  1
