# generated using pymatgen
data_Hg2AsO4F
_symmetry_space_group_name_H-M   'P 1'
_cell_length_a   8.32235192
_cell_length_b   8.32235146
_cell_length_c   12.02980123
_cell_angle_alpha   59.27560580
_cell_angle_beta   59.27560561
_cell_angle_gamma   48.69811662
_symmetry_Int_Tables_number   1
_chemical_formula_structural   Hg2AsO4F
_chemical_formula_sum   'Hg8 As4 O16 F4'
_cell_volume   518.24925841
_cell_formula_units_Z   4
loop_
 _symmetry_equiv_pos_site_id
 _symmetry_equiv_pos_as_xyz
  1  'x, y, z'
loop_
 _atom_site_type_symbol
 _atom_site_label
 _atom_site_symmetry_multiplicity
 _atom_site_fract_x
 _atom_site_fract_y
 _atom_site_fract_z
 _atom_site_occupancy
  Hg  Hg0  1  0.801812  0.304038  0.012267  1
  Hg  Hg1  1  0.695962  0.198188  0.487733  1
  Hg  Hg2  1  0.198188  0.695962  0.987733  1
  Hg  Hg3  1  0.304038  0.801812  0.512267  1
  Hg  Hg4  1  0.955905  0.738689  0.341152  1
  Hg  Hg5  1  0.261311  0.044095  0.158848  1
  Hg  Hg6  1  0.044095  0.261311  0.658848  1
  Hg  Hg7  1  0.738689  0.955905  0.841152  1
  As  As8  1  0.780629  0.572762  0.194773  1
  As  As9  1  0.427238  0.219371  0.305227  1
  As  As10  1  0.219371  0.427238  0.805227  1
  As  As11  1  0.572762  0.780629  0.694773  1
  O  O12  1  0.223851  0.401522  0.404788  1
  O  O13  1  0.598478  0.776149  0.095212  1
  O  O14  1  0.776149  0.598478  0.595212  1
  O  O15  1  0.401522  0.223851  0.904788  1
  O  O16  1  0.048513  0.360419  0.823342  1
  O  O17  1  0.639581  0.951487  0.676658  1
  O  O18  1  0.951487  0.639581  0.176658  1
  O  O19  1  0.360419  0.048513  0.323342  1
  O  O20  1  0.362605  0.472217  0.638029  1
  O  O21  1  0.527783  0.637395  0.861971  1
  O  O22  1  0.637395  0.527783  0.361971  1
  O  O23  1  0.472217  0.362605  0.138029  1
  O  O24  1  0.068662  0.660698  0.858920  1
  O  O25  1  0.339302  0.931338  0.641080  1
  O  O26  1  0.931338  0.339302  0.141080  1
  O  O27  1  0.660698  0.068662  0.358920  1
  F  F28  1  0.927787  0.095001  0.609596  1
  F  F29  1  0.904999  0.072213  0.890404  1
  F  F30  1  0.072213  0.904999  0.390404  1
  F  F31  1  0.095001  0.927787  0.109596  1
