# generated using pymatgen
data_Pm4Te7Pd
_symmetry_space_group_name_H-M   'P 1'
_cell_length_a   4.29544038
_cell_length_b   8.79526324
_cell_length_c   9.34889744
_cell_angle_alpha   90.05439672
_cell_angle_beta   90.00325353
_cell_angle_gamma   89.99672412
_symmetry_Int_Tables_number   1
_chemical_formula_structural   Pm4Te7Pd
_chemical_formula_sum   'Pm4 Te7 Pd1'
_cell_volume   353.19678096
_cell_formula_units_Z   1
loop_
 _symmetry_equiv_pos_site_id
 _symmetry_equiv_pos_as_xyz
  1  'x, y, z'
loop_
 _atom_site_type_symbol
 _atom_site_label
 _atom_site_symmetry_multiplicity
 _atom_site_fract_x
 _atom_site_fract_y
 _atom_site_fract_z
 _atom_site_occupancy
  Pm  Pm0  1  0.249411  0.125929  0.210731  1
  Pm  Pm1  1  0.750187  0.378402  0.768496  1
  Pm  Pm2  1  0.750202  0.870966  0.768132  1
  Pm  Pm3  1  0.249597  0.626236  0.244320  1
  Te  Te4  1  0.250589  0.318058  0.500328  1
  Te  Te5  1  0.250491  0.930160  0.499650  1
  Te  Te6  1  0.749930  0.624252  0.502866  1
  Te  Te7  1  0.250038  0.124901  0.867875  1
  Te  Te8  1  0.749372  0.379563  0.127805  1
  Te  Te9  1  0.749539  0.872343  0.127564  1
  Te  Te10  1  0.250013  0.625080  0.876965  1
  Pd  Pd11  1  0.750629  0.124111  0.505267  1
