# generated using pymatgen
data_Th8Si13Pb
_symmetry_space_group_name_H-M   'P 1'
_cell_length_a   8.17868740
_cell_length_b   8.02231251
_cell_length_c   8.62736400
_cell_angle_alpha   90.00000000
_cell_angle_beta   90.00000000
_cell_angle_gamma   120.69587997
_symmetry_Int_Tables_number   1
_chemical_formula_structural   Th8Si13Pb
_chemical_formula_sum   'Th8 Si13 Pb1'
_cell_volume   486.74745651
_cell_formula_units_Z   1
loop_
 _symmetry_equiv_pos_site_id
 _symmetry_equiv_pos_as_xyz
  1  'x, y, z'
loop_
 _atom_site_type_symbol
 _atom_site_label
 _atom_site_symmetry_multiplicity
 _atom_site_fract_x
 _atom_site_fract_y
 _atom_site_fract_z
 _atom_site_occupancy
  Th  Th0  1  0.269375  0.256354  0.987199  1
  Th  Th1  1  0.747282  0.752674  0.000763  1
  Th  Th2  1  0.747282  0.752674  0.499237  1
  Th  Th3  1  0.269375  0.256354  0.512801  1
  Th  Th4  1  0.252365  0.748070  0.496943  1
  Th  Th5  1  0.736484  0.253258  0.516367  1
  Th  Th6  1  0.736484  0.253258  0.983633  1
  Th  Th7  1  0.252365  0.748070  0.003057  1
  Si  Si8  1  0.941824  0.632204  0.750000  1
  Si  Si9  1  0.587322  0.420270  0.250000  1
  Si  Si10  1  0.413696  0.584891  0.750000  1
  Si  Si11  1  0.419019  0.593993  0.250000  1
  Si  Si12  1  0.595661  0.426681  0.750000  1
  Si  Si13  1  0.070894  0.938529  0.250000  1
  Si  Si14  1  0.934459  0.070823  0.750000  1
  Si  Si15  1  0.621000  0.942229  0.250000  1
  Si  Si16  1  0.381561  0.060035  0.750000  1
  Si  Si17  1  0.925686  0.593685  0.250000  1
  Si  Si18  1  0.072665  0.416597  0.750000  1
  Si  Si19  1  0.412669  0.074820  0.250000  1
  Si  Si20  1  0.589770  0.926498  0.750000  1
  Pb  Pb21  1  0.022763  0.298031  0.250000  1
