# generated using pymatgen
data_SmTm3Th4(ReC2)4
_symmetry_space_group_name_H-M   'P 1'
_cell_length_a   5.27045900
_cell_length_b   6.65886475
_cell_length_c   9.84734812
_cell_angle_alpha   90.27234330
_cell_angle_beta   90.00000000
_cell_angle_gamma   90.00000000
_symmetry_Int_Tables_number   1
_chemical_formula_structural   SmTm3Th4(ReC2)4
_chemical_formula_sum   'Sm1 Tm3 Th4 Re4 C8'
_cell_volume   345.59147325
_cell_formula_units_Z   1
loop_
 _symmetry_equiv_pos_site_id
 _symmetry_equiv_pos_as_xyz
  1  'x, y, z'
loop_
 _atom_site_type_symbol
 _atom_site_label
 _atom_site_symmetry_multiplicity
 _atom_site_fract_x
 _atom_site_fract_y
 _atom_site_fract_z
 _atom_site_occupancy
  Sm  Sm0  1  0.750000  0.180917  0.951078  1
  Tm  Tm1  1  0.250000  0.826051  0.052902  1
  Tm  Tm2  1  0.750000  0.673285  0.551902  1
  Tm  Tm3  1  0.250000  0.327770  0.447398  1
  Th  Th4  1  0.250000  0.470561  0.784208  1
  Th  Th5  1  0.750000  0.028729  0.287923  1
  Th  Th6  1  0.250000  0.970163  0.714237  1
  Th  Th7  1  0.750000  0.529715  0.215361  1
  Re  Re8  1  0.250000  0.271644  0.137813  1
  Re  Re9  1  0.750000  0.227734  0.634478  1
  Re  Re10  1  0.250000  0.772003  0.364536  1
  Re  Re11  1  0.750000  0.727931  0.862969  1
  C  C12  1  0.250000  0.167991  0.948748  1
  C  C13  1  0.750000  0.825548  0.052868  1
  C  C14  1  0.250000  0.666992  0.552462  1
  C  C15  1  0.750000  0.332467  0.447108  1
  C  C16  1  0.250000  0.040309  0.262476  1
  C  C17  1  0.750000  0.461917  0.758104  1
  C  C18  1  0.250000  0.541066  0.238290  1
  C  C19  1  0.750000  0.957207  0.735138  1
