# generated using pymatgen
data_Sc6TiAl12Os7W3
_symmetry_space_group_name_H-M   'P 1'
_cell_length_a   8.81423252
_cell_length_b   8.81423275
_cell_length_c   8.81423244
_cell_angle_alpha   59.94072130
_cell_angle_beta   59.94072092
_cell_angle_gamma   59.94071647
_symmetry_Int_Tables_number   1
_chemical_formula_structural   Sc6TiAl12Os7W3
_chemical_formula_sum   'Sc6 Ti1 Al12 Os7 W3'
_cell_volume   483.56426721
_cell_formula_units_Z   1
loop_
 _symmetry_equiv_pos_site_id
 _symmetry_equiv_pos_as_xyz
  1  'x, y, z'
loop_
 _atom_site_type_symbol
 _atom_site_label
 _atom_site_symmetry_multiplicity
 _atom_site_fract_x
 _atom_site_fract_y
 _atom_site_fract_z
 _atom_site_occupancy
  Sc  Sc0  1  0.709227  0.709227  0.287968  1
  Sc  Sc1  1  0.290886  0.709093  0.290886  1
  Sc  Sc2  1  0.709093  0.290886  0.290886  1
  Sc  Sc3  1  0.290886  0.290886  0.709093  1
  Sc  Sc4  1  0.709227  0.287968  0.709227  1
  Sc  Sc5  1  0.287968  0.709227  0.709227  1
  Ti  Ti6  1  0.880294  0.880294  0.880294  1
  Al  Al7  1  0.119754  0.119754  0.637930  1
  Al  Al8  1  0.119754  0.637930  0.119754  1
  Al  Al9  1  0.637930  0.119754  0.119754  1
  Al  Al10  1  0.121802  0.121802  0.121802  1
  Al  Al11  1  0.663261  0.663261  0.014530  1
  Al  Al12  1  0.663261  0.014530  0.663261  1
  Al  Al13  1  0.014530  0.663261  0.663261  1
  Al  Al14  1  0.657844  0.657844  0.657844  1
  Al  Al15  1  0.335196  0.335196  0.996399  1
  Al  Al16  1  0.335196  0.996399  0.335196  1
  Al  Al17  1  0.996399  0.335196  0.335196  1
  Al  Al18  1  0.335194  0.335194  0.335194  1
  Os  Os19  1  0.002928  0.002928  0.002928  1
  Os  Os20  1  0.997405  0.997405  0.499390  1
  Os  Os21  1  0.504583  0.996366  0.504583  1
  Os  Os22  1  0.996366  0.504583  0.504583  1
  Os  Os23  1  0.504583  0.504583  0.996366  1
  Os  Os24  1  0.997405  0.499390  0.997405  1
  Os  Os25  1  0.499390  0.997405  0.997405  1
  W  W26  1  0.878025  0.878025  0.363591  1
  W  W27  1  0.878025  0.363591  0.878025  1
  W  W28  1  0.363591  0.878025  0.878025  1
