# generated using pymatgen
data_ZrZn4Os
_symmetry_space_group_name_H-M   'P 1'
_cell_length_a   5.01237295
_cell_length_b   5.01237360
_cell_length_c   5.01237300
_cell_angle_alpha   59.99999733
_cell_angle_beta   59.99999304
_cell_angle_gamma   60.00000346
_symmetry_Int_Tables_number   1
_chemical_formula_structural   ZrZn4Os
_chemical_formula_sum   'Zr1 Zn4 Os1'
_cell_volume   89.04615566
_cell_formula_units_Z   1
loop_
 _symmetry_equiv_pos_site_id
 _symmetry_equiv_pos_as_xyz
  1  'x, y, z'
loop_
 _atom_site_type_symbol
 _atom_site_label
 _atom_site_symmetry_multiplicity
 _atom_site_fract_x
 _atom_site_fract_y
 _atom_site_fract_z
 _atom_site_occupancy
  Zr  Zr0  1  0.250000  0.250000  0.250000  1
  Zn  Zn1  1  0.625539  0.625539  0.625539  1
  Zn  Zn2  1  0.123383  0.625539  0.625539  1
  Zn  Zn3  1  0.625539  0.123383  0.625539  1
  Zn  Zn4  1  0.625539  0.625539  0.123383  1
  Os  Os5  1  0.000000  0.000000  0.000000  1
