# generated using pymatgen
data_Yb2Er4Al15Si9Os8
_symmetry_space_group_name_H-M   'P 1'
_cell_length_a   8.68978457
_cell_length_b   8.66355488
_cell_length_c   9.39991500
_cell_angle_alpha   90.00000000
_cell_angle_beta   90.00000000
_cell_angle_gamma   120.19213098
_symmetry_Int_Tables_number   1
_chemical_formula_structural   Yb2Er4Al15Si9Os8
_chemical_formula_sum   'Yb2 Er4 Al15 Si9 Os8'
_cell_volume   611.66781310
_cell_formula_units_Z   1
loop_
 _symmetry_equiv_pos_site_id
 _symmetry_equiv_pos_as_xyz
  1  'x, y, z'
loop_
 _atom_site_type_symbol
 _atom_site_label
 _atom_site_symmetry_multiplicity
 _atom_site_fract_x
 _atom_site_fract_y
 _atom_site_fract_z
 _atom_site_occupancy
  Yb  Yb0  1  0.192616  0.386614  0.250000  1
  Yb  Yb1  1  0.809050  0.614360  0.750000  1
  Er  Er2  1  0.611114  0.805271  0.250000  1
  Er  Er3  1  0.387260  0.191943  0.750000  1
  Er  Er4  1  0.193882  0.804181  0.250000  1
  Er  Er5  1  0.806590  0.195227  0.750000  1
  Al  Al6  1  0.166478  0.330502  0.577482  1
  Al  Al7  1  0.835682  0.670215  0.420684  1
  Al  Al8  1  0.670243  0.834805  0.578214  1
  Al  Al9  1  0.835682  0.670215  0.079316  1
  Al  Al10  1  0.329207  0.163501  0.419923  1
  Al  Al11  1  0.166478  0.330502  0.922518  1
  Al  Al12  1  0.165040  0.836184  0.578916  1
  Al  Al13  1  0.329207  0.163501  0.080077  1
  Al  Al14  1  0.834422  0.164431  0.420780  1
  Al  Al15  1  0.670243  0.834805  0.921786  1
  Al  Al16  1  0.834422  0.164431  0.079220  1
  Al  Al17  1  0.165040  0.836184  0.921084  1
  Al  Al18  1  0.437343  0.564670  0.750000  1
  Al  Al19  1  0.999820  0.998285  0.250000  1
  Al  Al20  1  0.000474  0.000949  0.750000  1
  Si  Si21  1  0.334063  0.665130  0.042428  1
  Si  Si22  1  0.666108  0.334694  0.956881  1
  Si  Si23  1  0.666108  0.334694  0.543119  1
  Si  Si24  1  0.334063  0.665130  0.457572  1
  Si  Si25  1  0.561856  0.124527  0.250000  1
  Si  Si26  1  0.435517  0.874645  0.750000  1
  Si  Si27  1  0.876303  0.437351  0.250000  1
  Si  Si28  1  0.124154  0.565471  0.750000  1
  Si  Si29  1  0.561172  0.436328  0.250000  1
  Os  Os30  1  0.500003  0.000842  0.000642  1
  Os  Os31  1  0.999192  0.499948  0.000414  1
  Os  Os32  1  0.500003  0.000842  0.499358  1
  Os  Os33  1  0.501151  0.499283  0.006620  1
  Os  Os34  1  0.999192  0.499948  0.499586  1
  Os  Os35  1  0.501151  0.499283  0.493380  1
  Os  Os36  1  0.999837  0.000554  0.999969  1
  Os  Os37  1  0.999837  0.000554  0.500031  1
