# generated using pymatgen
data_La3Lu2Bi3O14
_symmetry_space_group_name_H-M   'P 1'
_cell_length_a   6.68998782
_cell_length_b   6.76596673
_cell_length_c   7.84639188
_cell_angle_alpha   106.65210168
_cell_angle_beta   89.64615220
_cell_angle_gamma   99.12272373
_symmetry_Int_Tables_number   1
_chemical_formula_structural   La3Lu2Bi3O14
_chemical_formula_sum   'La3 Lu2 Bi3 O14'
_cell_volume   335.67284536
_cell_formula_units_Z   1
loop_
 _symmetry_equiv_pos_site_id
 _symmetry_equiv_pos_as_xyz
  1  'x, y, z'
loop_
 _atom_site_type_symbol
 _atom_site_label
 _atom_site_symmetry_multiplicity
 _atom_site_fract_x
 _atom_site_fract_y
 _atom_site_fract_z
 _atom_site_occupancy
  La  La0  1  0.270056  0.536362  0.883471  1
  La  La1  1  0.739770  0.456828  0.115263  1
  La  La2  1  0.751234  0.482387  0.617882  1
  Lu  Lu3  1  0.461527  0.010329  0.257891  1
  Lu  Lu4  1  0.533154  0.998415  0.746011  1
  Bi  Bi5  1  0.994688  0.998857  0.499371  1
  Bi  Bi6  1  0.999068  0.996489  0.998166  1
  Bi  Bi7  1  0.285958  0.542787  0.389585  1
  O  O8  1  0.447697  0.669577  0.180432  1
  O  O9  1  0.555624  0.337101  0.830401  1
  O  O10  1  0.305206  0.940826  0.949540  1
  O  O11  1  0.694218  0.054172  0.053269  1
  O  O12  1  0.299964  0.941212  0.521461  1
  O  O13  1  0.694369  0.066838  0.482196  1
  O  O14  1  0.532356  0.348990  0.340087  1
  O  O15  1  0.463743  0.656092  0.653619  1
  O  O16  1  0.927209  0.664110  0.938410  1
  O  O17  1  0.069557  0.322455  0.039793  1
  O  O18  1  0.070639  0.330632  0.618220  1
  O  O19  1  0.915330  0.666669  0.390165  1
  O  O20  1  0.865736  0.927812  0.732063  1
  O  O21  1  0.122897  0.051057  0.262706  1
