# generated using pymatgen
data_Sm3Mn2Sb3O14
_symmetry_space_group_name_H-M   'P 1'
_cell_length_a   7.31812157
_cell_length_b   7.31876311
_cell_length_c   7.31783309
_cell_angle_alpha   117.97077849
_cell_angle_beta   62.02931902
_cell_angle_gamma   117.97070489
_symmetry_Int_Tables_number   1
_chemical_formula_structural   Sm3Mn2Sb3O14
_chemical_formula_sum   'Sm3 Mn2 Sb3 O14'
_cell_volume   289.72045393
_cell_formula_units_Z   1
loop_
 _symmetry_equiv_pos_site_id
 _symmetry_equiv_pos_as_xyz
  1  'x, y, z'
loop_
 _atom_site_type_symbol
 _atom_site_label
 _atom_site_symmetry_multiplicity
 _atom_site_fract_x
 _atom_site_fract_y
 _atom_site_fract_z
 _atom_site_occupancy
  Sm  Sm0  1  0.999992  0.500013  0.000007  1
  Sm  Sm1  1  0.500012  0.000034  0.000009  1
  Sm  Sm2  1  0.500002  0.500017  0.500000  1
  Mn  Mn3  1  0.499985  0.499894  0.000038  1
  Mn  Mn4  1  0.999936  0.999749  0.499767  1
  Sb  Sb5  1  0.500018  0.000009  0.500011  1
  Sb  Sb6  1  0.000007  0.500014  0.500028  1
  Sb  Sb7  1  0.000001  0.999999  0.000013  1
  O  O8  1  0.617148  0.382863  0.117149  1
  O  O9  1  0.382846  0.617194  0.882859  1
  O  O10  1  0.081310  0.320754  0.179241  1
  O  O11  1  0.679259  0.918723  0.179254  1
  O  O12  1  0.679239  0.320759  0.581324  1
  O  O13  1  0.918701  0.679286  0.820781  1
  O  O14  1  0.320751  0.081313  0.820773  1
  O  O15  1  0.320768  0.679278  0.418703  1
  O  O16  1  0.643914  0.905951  0.594083  1
  O  O17  1  0.094079  0.356126  0.594087  1
  O  O18  1  0.094077  0.905950  0.143923  1
  O  O19  1  0.356094  0.094089  0.405935  1
  O  O20  1  0.905927  0.643900  0.405931  1
  O  O21  1  0.905934  0.094085  0.856084  1
