# generated using pymatgen
data_Er3NiSn3PtRh
_symmetry_space_group_name_H-M   'P 1'
_cell_length_a   7.54994200
_cell_length_b   7.54994187
_cell_length_c   3.75499900
_cell_angle_alpha   90.00000000
_cell_angle_beta   90.00000000
_cell_angle_gamma   119.99999179
_symmetry_Int_Tables_number   1
_chemical_formula_structural   Er3NiSn3PtRh
_chemical_formula_sum   'Er3 Ni1 Sn3 Pt1 Rh1'
_cell_volume   185.36499194
_cell_formula_units_Z   1
loop_
 _symmetry_equiv_pos_site_id
 _symmetry_equiv_pos_as_xyz
  1  'x, y, z'
loop_
 _atom_site_type_symbol
 _atom_site_label
 _atom_site_symmetry_multiplicity
 _atom_site_fract_x
 _atom_site_fract_y
 _atom_site_fract_z
 _atom_site_occupancy
  Er  Er0  1  0.403265  0.406474  0.000000  1
  Er  Er1  1  0.003208  0.596735  0.000000  1
  Er  Er2  1  0.593526  0.996792  0.000000  1
  Ni  Ni3  1  0.000000  0.000000  0.000000  1
  Sn  Sn4  1  0.744129  0.748155  0.500000  1
  Sn  Sn5  1  0.004026  0.255871  0.500000  1
  Sn  Sn6  1  0.251845  0.995974  0.500000  1
  Pt  Pt7  1  0.666667  0.333333  0.500000  1
  Rh  Rh8  1  0.333333  0.666667  0.500000  1
