# generated using pymatgen
data_Ce11Y8LuPt16
_symmetry_space_group_name_H-M   'P 1'
_cell_length_a   7.64392700
_cell_length_b   7.71135500
_cell_length_c   14.97507100
_cell_angle_alpha   90.00000000
_cell_angle_beta   90.00000000
_cell_angle_gamma   90.00057954
_symmetry_Int_Tables_number   1
_chemical_formula_structural   Ce11Y8LuPt16
_chemical_formula_sum   'Ce11 Y8 Lu1 Pt16'
_cell_volume   882.70607960
_cell_formula_units_Z   1
loop_
 _symmetry_equiv_pos_site_id
 _symmetry_equiv_pos_as_xyz
  1  'x, y, z'
loop_
 _atom_site_type_symbol
 _atom_site_label
 _atom_site_symmetry_multiplicity
 _atom_site_fract_x
 _atom_site_fract_y
 _atom_site_fract_z
 _atom_site_occupancy
  Ce  Ce0  1  0.683050  0.978458  0.250000  1
  Ce  Ce1  1  0.184247  0.522510  0.250000  1
  Ce  Ce2  1  0.818753  0.482446  0.750000  1
  Ce  Ce3  1  0.656226  0.838891  0.621655  1
  Ce  Ce4  1  0.159272  0.664991  0.878619  1
  Ce  Ce5  1  0.840845  0.336967  0.381068  1
  Ce  Ce6  1  0.342537  0.163403  0.119319  1
  Ce  Ce7  1  0.342537  0.163403  0.380681  1
  Ce  Ce8  1  0.840845  0.336967  0.118932  1
  Ce  Ce9  1  0.159272  0.664991  0.621381  1
  Ce  Ce10  1  0.656226  0.838891  0.878345  1
  Y  Y11  1  0.996906  0.819244  0.408497  1
  Y  Y12  1  0.496976  0.680964  0.091375  1
  Y  Y13  1  0.501179  0.316503  0.596225  1
  Y  Y14  1  0.005914  0.177819  0.904238  1
  Y  Y15  1  0.005914  0.177819  0.595762  1
  Y  Y16  1  0.501179  0.316503  0.903775  1
  Y  Y17  1  0.496976  0.680964  0.408625  1
  Y  Y18  1  0.996906  0.819244  0.091503  1
  Lu  Lu19  1  0.315030  0.018395  0.750000  1
  Pt  Pt20  1  0.816196  0.640638  0.250000  1
  Pt  Pt21  1  0.316313  0.860534  0.250000  1
  Pt  Pt22  1  0.680374  0.139238  0.750000  1
  Pt  Pt23  1  0.186764  0.357751  0.750000  1
  Pt  Pt24  1  0.547484  0.382522  0.250000  1
  Pt  Pt25  1  0.047137  0.118164  0.250000  1
  Pt  Pt26  1  0.956119  0.885361  0.750000  1
  Pt  Pt27  1  0.451456  0.623265  0.750000  1
  Pt  Pt28  1  0.813701  0.532384  0.543426  1
  Pt  Pt29  1  0.313155  0.965923  0.956494  1
  Pt  Pt30  1  0.685846  0.032516  0.459649  1
  Pt  Pt31  1  0.185978  0.465753  0.040187  1
  Pt  Pt32  1  0.185978  0.465753  0.459813  1
  Pt  Pt33  1  0.685846  0.032516  0.040351  1
  Pt  Pt34  1  0.313155  0.965923  0.543506  1
  Pt  Pt35  1  0.813701  0.532384  0.956574  1
