# generated using pymatgen
data_DyTh3(Re2Si)8
_symmetry_space_group_name_H-M   'P 1'
_cell_length_a   4.16270600
_cell_length_b   7.27790887
_cell_length_c   15.61810836
_cell_angle_alpha   90.33389259
_cell_angle_beta   90.00000000
_cell_angle_gamma   90.00000000
_symmetry_Int_Tables_number   1
_chemical_formula_structural   DyTh3(Re2Si)8
_chemical_formula_sum   'Dy1 Th3 Re16 Si8'
_cell_volume   473.15497338
_cell_formula_units_Z   1
loop_
 _symmetry_equiv_pos_site_id
 _symmetry_equiv_pos_as_xyz
  1  'x, y, z'
loop_
 _atom_site_type_symbol
 _atom_site_label
 _atom_site_symmetry_multiplicity
 _atom_site_fract_x
 _atom_site_fract_y
 _atom_site_fract_z
 _atom_site_occupancy
  Dy  Dy0  1  0.000000  0.585707  0.118062  1
  Th  Th1  1  0.000000  0.417075  0.884165  1
  Th  Th2  1  0.500000  0.083200  0.379477  1
  Th  Th3  1  0.500000  0.913585  0.617959  1
  Re  Re4  1  0.000000  0.149489  0.052427  1
  Re  Re5  1  0.000000  0.862404  0.950754  1
  Re  Re6  1  0.500000  0.639725  0.448660  1
  Re  Re7  1  0.500000  0.356526  0.550588  1
  Re  Re8  1  0.000000  0.736104  0.319627  1
  Re  Re9  1  0.000000  0.260945  0.678929  1
  Re  Re10  1  0.500000  0.240952  0.177452  1
  Re  Re11  1  0.500000  0.762105  0.822889  1
  Re  Re12  1  0.000000  0.427500  0.418365  1
  Re  Re13  1  0.000000  0.569706  0.580215  1
  Re  Re14  1  0.500000  0.934781  0.082795  1
  Re  Re15  1  0.500000  0.073083  0.921420  1
  Re  Re16  1  0.000000  0.991285  0.204262  1
  Re  Re17  1  0.000000  0.001657  0.794931  1
  Re  Re18  1  0.500000  0.496480  0.292785  1
  Re  Re19  1  0.500000  0.500638  0.707117  1
  Si  Si20  1  0.000000  0.827719  0.474020  1
  Si  Si21  1  0.000000  0.169312  0.524169  1
  Si  Si22  1  0.500000  0.338121  0.025981  1
  Si  Si23  1  0.500000  0.673238  0.978198  1
  Si  Si24  1  0.000000  0.302238  0.269351  1
  Si  Si25  1  0.000000  0.696773  0.727148  1
  Si  Si26  1  0.500000  0.792324  0.223677  1
  Si  Si27  1  0.500000  0.197332  0.774579  1
