# generated using pymatgen
data_Tm2AlNiOs
_symmetry_space_group_name_H-M   'P 1'
_cell_length_a   5.42096845
_cell_length_b   5.42096814
_cell_length_c   5.42096831
_cell_angle_alpha   135.49778819
_cell_angle_beta   118.30019993
_cell_angle_gamma   79.20388592
_symmetry_Int_Tables_number   1
_chemical_formula_structural   Tm2AlNiOs
_chemical_formula_sum   'Tm2 Al1 Ni1 Os1'
_cell_volume   95.33570215
_cell_formula_units_Z   1
loop_
 _symmetry_equiv_pos_site_id
 _symmetry_equiv_pos_as_xyz
  1  'x, y, z'
loop_
 _atom_site_type_symbol
 _atom_site_label
 _atom_site_symmetry_multiplicity
 _atom_site_fract_x
 _atom_site_fract_y
 _atom_site_fract_z
 _atom_site_occupancy
  Tm  Tm0  1  0.695360  0.201373  0.493987  1
  Tm  Tm1  1  0.292614  0.798627  0.493987  1
  Al  Al2  1  0.999605  0.000000  0.999605  1
  Ni  Ni3  1  0.737890  0.500000  0.237890  1
  Os  Os4  1  0.274531  0.500000  0.774531  1
