# generated using pymatgen
data_TbLuWO6
_symmetry_space_group_name_H-M   'P 1'
_cell_length_a   5.38083300
_cell_length_b   7.66141541
_cell_length_c   11.34779324
_cell_angle_alpha   75.66077116
_cell_angle_beta   90.00000000
_cell_angle_gamma   90.00000000
_symmetry_Int_Tables_number   1
_chemical_formula_structural   TbLuWO6
_chemical_formula_sum   'Tb4 Lu4 W4 O24'
_cell_volume   453.23648657
_cell_formula_units_Z   4
loop_
 _symmetry_equiv_pos_site_id
 _symmetry_equiv_pos_as_xyz
  1  'x, y, z'
loop_
 _atom_site_type_symbol
 _atom_site_label
 _atom_site_symmetry_multiplicity
 _atom_site_fract_x
 _atom_site_fract_y
 _atom_site_fract_z
 _atom_site_occupancy
  Tb  Tb0  1  0.256904  0.000000  0.750000  1
  Tb  Tb1  1  0.743096  0.000000  0.250000  1
  Tb  Tb2  1  0.315620  0.500000  0.750000  1
  Tb  Tb3  1  0.684380  0.500000  0.250000  1
  Lu  Lu4  1  0.182672  0.793208  0.079195  1
  Lu  Lu5  1  0.182672  0.206792  0.420805  1
  Lu  Lu6  1  0.817328  0.206792  0.920805  1
  Lu  Lu7  1  0.817328  0.793208  0.579195  1
  W  W8  1  0.743555  0.724042  0.886165  1
  W  W9  1  0.256445  0.724042  0.386165  1
  W  W10  1  0.743555  0.275958  0.613835  1
  W  W11  1  0.256445  0.275958  0.113835  1
  O  O12  1  0.540125  0.158156  0.066479  1
  O  O13  1  0.049394  0.058225  0.102023  1
  O  O14  1  0.017644  0.712945  0.770210  1
  O  O15  1  0.459875  0.158156  0.566479  1
  O  O16  1  0.356580  0.487986  0.386791  1
  O  O17  1  0.950606  0.058225  0.602023  1
  O  O18  1  0.546028  0.791780  0.725294  1
  O  O19  1  0.453972  0.791780  0.225294  1
  O  O20  1  0.145217  0.635583  0.549590  1
  O  O21  1  0.049394  0.941775  0.397977  1
  O  O22  1  0.459875  0.841844  0.933521  1
  O  O23  1  0.453972  0.208220  0.274706  1
  O  O24  1  0.854783  0.364417  0.450410  1
  O  O25  1  0.643420  0.487986  0.886791  1
  O  O26  1  0.356580  0.512014  0.113209  1
  O  O27  1  0.950606  0.941775  0.897977  1
  O  O28  1  0.540125  0.841844  0.433521  1
  O  O29  1  0.982356  0.287055  0.229790  1
  O  O30  1  0.546028  0.208220  0.774706  1
  O  O31  1  0.854783  0.635583  0.049590  1
  O  O32  1  0.017644  0.287055  0.729790  1
  O  O33  1  0.145217  0.364417  0.950410  1
  O  O34  1  0.982356  0.712945  0.270210  1
  O  O35  1  0.643420  0.512014  0.613209  1
