# generated using pymatgen
data_KPaSe3
_symmetry_space_group_name_H-M   'P 1'
_cell_length_a   7.78916673
_cell_length_b   7.78905011
_cell_length_c   7.78899291
_cell_angle_alpha   59.88292185
_cell_angle_beta   59.88440492
_cell_angle_gamma   59.88369507
_symmetry_Int_Tables_number   1
_chemical_formula_structural   KPaSe3
_chemical_formula_sum   'K2 Pa2 Se6'
_cell_volume   333.26833236
_cell_formula_units_Z   2
loop_
 _symmetry_equiv_pos_site_id
 _symmetry_equiv_pos_as_xyz
  1  'x, y, z'
loop_
 _atom_site_type_symbol
 _atom_site_label
 _atom_site_symmetry_multiplicity
 _atom_site_fract_x
 _atom_site_fract_y
 _atom_site_fract_z
 _atom_site_occupancy
  K  K0  1  0.250000  0.249998  0.250000  1
  K  K1  1  0.750000  0.750002  0.750000  1
  Pa  Pa2  1  0.000000  0.000000  0.000000  1
  Pa  Pa3  1  0.500000  0.500000  0.500000  1
  Se  Se4  1  0.749977  0.264058  0.235999  1
  Se  Se5  1  0.735947  0.763999  0.250019  1
  Se  Se6  1  0.235997  0.749981  0.264054  1
  Se  Se7  1  0.764003  0.250019  0.735945  1
  Se  Se8  1  0.264053  0.236001  0.749980  1
  Se  Se9  1  0.250023  0.735941  0.764001  1
