# generated using pymatgen
data_Si(HCl)3
_symmetry_space_group_name_H-M   'P 1'
_cell_length_a   5.38647567
_cell_length_b   6.86851794
_cell_length_c   6.97855577
_cell_angle_alpha   66.54089908
_cell_angle_beta   66.58570120
_cell_angle_gamma   65.71335911
_symmetry_Int_Tables_number   1
_chemical_formula_structural   Si(HCl)3
_chemical_formula_sum   'Si1 H3 Cl3'
_cell_volume   207.28583612
_cell_formula_units_Z   1
loop_
 _symmetry_equiv_pos_site_id
 _symmetry_equiv_pos_as_xyz
  1  'x, y, z'
loop_
 _atom_site_type_symbol
 _atom_site_label
 _atom_site_symmetry_multiplicity
 _atom_site_fract_x
 _atom_site_fract_y
 _atom_site_fract_z
 _atom_site_occupancy
  Si  Si0  1  0.843691  0.100810  0.118769  1
  H  H1  1  0.732929  0.094371  0.959868  1
  H  H2  1  0.594542  0.518923  0.628686  1
  H  H3  1  0.633570  0.442035  0.562199  1
  Cl  Cl4  1  0.534667  0.105025  0.407456  1
  Cl  Cl5  1  0.964153  0.382153  0.003444  1
  Cl  Cl6  1  0.184543  0.826727  0.167088  1
