# generated using pymatgen
data_CaYb2(Si3Os)4
_symmetry_space_group_name_H-M   'P 1'
_cell_length_a   10.17603752
_cell_length_b   10.17603736
_cell_length_c   8.18099400
_cell_angle_alpha   90.00001120
_cell_angle_beta   90.00001264
_cell_angle_gamma   132.55839204
_symmetry_Int_Tables_number   1
_chemical_formula_structural   CaYb2(Si3Os)4
_chemical_formula_sum   'Ca2 Yb4 Si24 Os8'
_cell_volume   624.00542262
_cell_formula_units_Z   2
loop_
 _symmetry_equiv_pos_site_id
 _symmetry_equiv_pos_as_xyz
  1  'x, y, z'
loop_
 _atom_site_type_symbol
 _atom_site_label
 _atom_site_symmetry_multiplicity
 _atom_site_fract_x
 _atom_site_fract_y
 _atom_site_fract_z
 _atom_site_occupancy
  Ca  Ca0  1  0.500635  0.000635  0.750000  1
  Ca  Ca1  1  0.999365  0.499365  0.250000  1
  Yb  Yb2  1  0.499101  0.999101  0.250000  1
  Yb  Yb3  1  0.000899  0.500899  0.750000  1
  Yb  Yb4  1  0.000008  0.999992  0.000000  1
  Yb  Yb5  1  0.499992  0.500008  0.500000  1
  Si  Si6  1  0.794634  0.205366  0.500000  1
  Si  Si7  1  0.705365  0.294635  0.000000  1
  Si  Si8  1  0.205427  0.794573  0.500000  1
  Si  Si9  1  0.294573  0.705427  0.000000  1
  Si  Si10  1  0.667879  0.667803  0.167642  1
  Si  Si11  1  0.167803  0.167879  0.332358  1
  Si  Si12  1  0.832121  0.832197  0.667642  1
  Si  Si13  1  0.332197  0.332121  0.832358  1
  Si  Si14  1  0.847534  0.613707  0.991512  1
  Si  Si15  1  0.113707  0.347534  0.508488  1
  Si  Si16  1  0.652466  0.886293  0.491512  1
  Si  Si17  1  0.386293  0.152466  0.008488  1
  Si  Si18  1  0.152412  0.386290  0.007937  1
  Si  Si19  1  0.886290  0.652412  0.492063  1
  Si  Si20  1  0.125537  0.892159  0.731224  1
  Si  Si21  1  0.392159  0.625537  0.768776  1
  Si  Si22  1  0.374463  0.607841  0.231224  1
  Si  Si23  1  0.107841  0.874463  0.268776  1
  Si  Si24  1  0.873962  0.107228  0.268864  1
  Si  Si25  1  0.607228  0.373961  0.231136  1
  Si  Si26  1  0.626039  0.392772  0.768864  1
  Si  Si27  1  0.892772  0.126038  0.731136  1
  Si  Si28  1  0.613710  0.847588  0.992063  1
  Si  Si29  1  0.347588  0.113710  0.507937  1
  Os  Os30  1  0.625840  0.626068  0.874683  1
  Os  Os31  1  0.126068  0.125840  0.625318  1
  Os  Os32  1  0.373932  0.374160  0.125317  1
  Os  Os33  1  0.874160  0.873932  0.374682  1
  Os  Os34  1  0.169670  0.830330  0.000000  1
  Os  Os35  1  0.330330  0.669670  0.500000  1
  Os  Os36  1  0.830307  0.169693  0.000000  1
  Os  Os37  1  0.669693  0.330307  0.500000  1
