# generated using pymatgen
data_Hf16MnCo4Ir3
_symmetry_space_group_name_H-M   'P 1'
_cell_length_a   8.58290354
_cell_length_b   8.58290308
_cell_length_c   8.58290384
_cell_angle_alpha   59.91930402
_cell_angle_beta   59.91930775
_cell_angle_gamma   59.91930496
_symmetry_Int_Tables_number   1
_chemical_formula_structural   Hf16MnCo4Ir3
_chemical_formula_sum   'Hf16 Mn1 Co4 Ir3'
_cell_volume   446.26414736
_cell_formula_units_Z   1
loop_
 _symmetry_equiv_pos_site_id
 _symmetry_equiv_pos_as_xyz
  1  'x, y, z'
loop_
 _atom_site_type_symbol
 _atom_site_label
 _atom_site_symmetry_multiplicity
 _atom_site_fract_x
 _atom_site_fract_y
 _atom_site_fract_z
 _atom_site_occupancy
  Hf  Hf0  1  0.060307  0.646057  0.646057  1
  Hf  Hf1  1  0.646057  0.060307  0.646057  1
  Hf  Hf2  1  0.646057  0.646057  0.060307  1
  Hf  Hf3  1  0.645213  0.645213  0.645213  1
  Hf  Hf4  1  0.800654  0.800654  0.199423  1
  Hf  Hf5  1  0.200994  0.200994  0.797508  1
  Hf  Hf6  1  0.800654  0.199423  0.800654  1
  Hf  Hf7  1  0.200994  0.797508  0.200994  1
  Hf  Hf8  1  0.199423  0.800654  0.800654  1
  Hf  Hf9  1  0.797508  0.200994  0.200994  1
  Hf  Hf10  1  0.436119  0.436119  0.071315  1
  Hf  Hf11  1  0.063991  0.063991  0.436910  1
  Hf  Hf12  1  0.436119  0.071315  0.436119  1
  Hf  Hf13  1  0.063991  0.436910  0.063991  1
  Hf  Hf14  1  0.071315  0.436119  0.436119  1
  Hf  Hf15  1  0.436910  0.063991  0.063991  1
  Mn  Mn16  1  0.415738  0.415738  0.415738  1
  Co  Co17  1  0.424403  0.857906  0.857906  1
  Co  Co18  1  0.857906  0.424403  0.857906  1
  Co  Co19  1  0.857906  0.857906  0.424403  1
  Co  Co20  1  0.858851  0.858851  0.858851  1
  Ir  Ir21  1  0.750658  0.414117  0.414117  1
  Ir  Ir22  1  0.414117  0.750658  0.414117  1
  Ir  Ir23  1  0.414117  0.414117  0.750658  1
