# generated using pymatgen
data_NdCo4P3Ru
_symmetry_space_group_name_H-M   'P 1'
_cell_length_a   3.73392200
_cell_length_b   10.53277200
_cell_length_c   11.89545300
_cell_angle_alpha   90.00000000
_cell_angle_beta   90.00000000
_cell_angle_gamma   90.00000000
_symmetry_Int_Tables_number   1
_chemical_formula_structural   NdCo4P3Ru
_chemical_formula_sum   'Nd4 Co16 P12 Ru4'
_cell_volume   467.83090728
_cell_formula_units_Z   4
loop_
 _symmetry_equiv_pos_site_id
 _symmetry_equiv_pos_as_xyz
  1  'x, y, z'
loop_
 _atom_site_type_symbol
 _atom_site_label
 _atom_site_symmetry_multiplicity
 _atom_site_fract_x
 _atom_site_fract_y
 _atom_site_fract_z
 _atom_site_occupancy
  Nd  Nd0  1  0.250000  0.586235  0.703537  1
  Nd  Nd1  1  0.250000  0.913765  0.203537  1
  Nd  Nd2  1  0.750000  0.413765  0.296463  1
  Nd  Nd3  1  0.750000  0.086235  0.796463  1
  Co  Co4  1  0.250000  0.407448  0.491711  1
  Co  Co5  1  0.250000  0.092552  0.991711  1
  Co  Co6  1  0.750000  0.592552  0.508289  1
  Co  Co7  1  0.750000  0.907448  0.008289  1
  Co  Co8  1  0.250000  0.220793  0.175835  1
  Co  Co9  1  0.250000  0.279207  0.675835  1
  Co  Co10  1  0.750000  0.779207  0.824165  1
  Co  Co11  1  0.750000  0.720793  0.324165  1
  Co  Co12  1  0.250000  0.886258  0.701589  1
  Co  Co13  1  0.250000  0.613742  0.201589  1
  Co  Co14  1  0.750000  0.113742  0.298411  1
  Co  Co15  1  0.750000  0.386258  0.798411  1
  Co  Co16  1  0.250000  0.465798  0.931516  1
  Co  Co17  1  0.250000  0.034202  0.431516  1
  Co  Co18  1  0.750000  0.534202  0.068484  1
  Co  Co19  1  0.750000  0.965798  0.568484  1
  P  P20  1  0.250000  0.419763  0.109730  1
  P  P21  1  0.250000  0.080237  0.609730  1
  P  P22  1  0.750000  0.580237  0.890270  1
  P  P23  1  0.750000  0.919763  0.390270  1
  P  P24  1  0.250000  0.276090  0.867028  1
  P  P25  1  0.250000  0.223910  0.367028  1
  P  P26  1  0.750000  0.723910  0.132972  1
  P  P27  1  0.750000  0.776090  0.632972  1
  P  P28  1  0.250000  0.599271  0.391869  1
  P  P29  1  0.250000  0.900729  0.891869  1
  P  P30  1  0.750000  0.400729  0.608131  1
  P  P31  1  0.750000  0.099271  0.108131  1
  Ru  Ru32  1  0.250000  0.714940  0.991620  1
  Ru  Ru33  1  0.250000  0.785060  0.491620  1
  Ru  Ru34  1  0.750000  0.285060  0.008380  1
  Ru  Ru35  1  0.750000  0.214940  0.508380  1
