# generated using pymatgen
data_Ta2Ru6C
_symmetry_space_group_name_H-M   'P 1'
_cell_length_a   5.61356484
_cell_length_b   5.61356487
_cell_length_c   5.61356500
_cell_angle_alpha   60.00000513
_cell_angle_beta   60.00000495
_cell_angle_gamma   60.00001028
_symmetry_Int_Tables_number   1
_chemical_formula_structural   Ta2Ru6C
_chemical_formula_sum   'Ta2 Ru6 C1'
_cell_volume   125.08387125
_cell_formula_units_Z   1
loop_
 _symmetry_equiv_pos_site_id
 _symmetry_equiv_pos_as_xyz
  1  'x, y, z'
loop_
 _atom_site_type_symbol
 _atom_site_label
 _atom_site_symmetry_multiplicity
 _atom_site_fract_x
 _atom_site_fract_y
 _atom_site_fract_z
 _atom_site_occupancy
  Ta  Ta0  1  0.250000  0.250000  0.250000  1
  Ta  Ta1  1  0.750000  0.750000  0.750000  1
  Ru  Ru2  1  0.744470  0.255530  0.255530  1
  Ru  Ru3  1  0.255530  0.744470  0.255530  1
  Ru  Ru4  1  0.744470  0.744470  0.255530  1
  Ru  Ru5  1  0.255530  0.255530  0.744470  1
  Ru  Ru6  1  0.744470  0.255530  0.744470  1
  Ru  Ru7  1  0.255530  0.744470  0.744470  1
  C  C8  1  0.000000  0.000000  0.000000  1
