# generated using pymatgen
data_Ac11ErGa12
_symmetry_space_group_name_H-M   'P 1'
_cell_length_a   4.29896800
_cell_length_b   14.16899806
_cell_length_c   11.96503354
_cell_angle_alpha   90.07499355
_cell_angle_beta   90.00000000
_cell_angle_gamma   90.00000000
_symmetry_Int_Tables_number   1
_chemical_formula_structural   Ac11ErGa12
_chemical_formula_sum   'Ac11 Er1 Ga12'
_cell_volume   728.81432733
_cell_formula_units_Z   1
loop_
 _symmetry_equiv_pos_site_id
 _symmetry_equiv_pos_as_xyz
  1  'x, y, z'
loop_
 _atom_site_type_symbol
 _atom_site_label
 _atom_site_symmetry_multiplicity
 _atom_site_fract_x
 _atom_site_fract_y
 _atom_site_fract_z
 _atom_site_occupancy
  Ac  Ac0  1  0.250000  0.662531  0.853635  1
  Ac  Ac1  1  0.250000  0.829372  0.358800  1
  Ac  Ac2  1  0.750000  0.333857  0.142121  1
  Ac  Ac3  1  0.750000  0.167530  0.643349  1
  Ac  Ac4  1  0.250000  0.336582  0.855312  1
  Ac  Ac5  1  0.250000  0.171157  0.359996  1
  Ac  Ac6  1  0.750000  0.666446  0.140805  1
  Ac  Ac7  1  0.750000  0.832390  0.642111  1
  Ac  Ac8  1  0.250000  0.000182  0.858858  1
  Ac  Ac9  1  0.250000  0.499778  0.358438  1
  Ac  Ac10  1  0.750000  0.999464  0.142885  1
  Er  Er11  1  0.750000  0.500429  0.625219  1
  Ga  Ga12  1  0.250000  0.344716  0.575310  1
  Ga  Ga13  1  0.250000  0.166734  0.066457  1
  Ga  Ga14  1  0.750000  0.662444  0.440578  1
  Ga  Ga15  1  0.750000  0.831198  0.931834  1
  Ga  Ga16  1  0.250000  0.655888  0.573054  1
  Ga  Ga17  1  0.250000  0.832678  0.063880  1
  Ga  Ga18  1  0.750000  0.337880  0.442931  1
  Ga  Ga19  1  0.750000  0.168505  0.934365  1
  Ga  Ga20  1  0.250000  0.000095  0.564221  1
  Ga  Ga21  1  0.250000  0.500055  0.062875  1
  Ga  Ga22  1  0.750000  0.000250  0.432784  1
  Ga  Ga23  1  0.750000  0.499844  0.930181  1
