# generated using pymatgen
data_Ta20Al9Cu
_symmetry_space_group_name_H-M   'P 1'
_cell_length_a   9.91547555
_cell_length_b   9.91547549
_cell_length_c   5.21769700
_cell_angle_alpha   90.00000000
_cell_angle_beta   90.00000000
_cell_angle_gamma   89.81574807
_symmetry_Int_Tables_number   1
_chemical_formula_structural   Ta20Al9Cu
_chemical_formula_sum   'Ta20 Al9 Cu1'
_cell_volume   512.98386237
_cell_formula_units_Z   1
loop_
 _symmetry_equiv_pos_site_id
 _symmetry_equiv_pos_as_xyz
  1  'x, y, z'
loop_
 _atom_site_type_symbol
 _atom_site_label
 _atom_site_symmetry_multiplicity
 _atom_site_fract_x
 _atom_site_fract_y
 _atom_site_fract_z
 _atom_site_occupancy
  Ta  Ta0  1  0.397515  0.397515  0.000000  1
  Ta  Ta1  1  0.899697  0.100303  0.500000  1
  Ta  Ta2  1  0.100303  0.899697  0.500000  1
  Ta  Ta3  1  0.602485  0.602485  0.000000  1
  Ta  Ta4  1  0.128886  0.464507  0.000000  1
  Ta  Ta5  1  0.963910  0.369601  0.500000  1
  Ta  Ta6  1  0.036090  0.630399  0.500000  1
  Ta  Ta7  1  0.871114  0.535493  0.000000  1
  Ta  Ta8  1  0.369601  0.963910  0.500000  1
  Ta  Ta9  1  0.630399  0.036090  0.500000  1
  Ta  Ta10  1  0.464507  0.128886  0.000000  1
  Ta  Ta11  1  0.535493  0.871114  0.000000  1
  Ta  Ta12  1  0.180645  0.180645  0.251770  1
  Ta  Ta13  1  0.682497  0.317503  0.751251  1
  Ta  Ta14  1  0.317503  0.682497  0.751251  1
  Ta  Ta15  1  0.819355  0.819355  0.251770  1
  Ta  Ta16  1  0.317503  0.682497  0.248749  1
  Ta  Ta17  1  0.682497  0.317503  0.248749  1
  Ta  Ta18  1  0.180645  0.180645  0.748230  1
  Ta  Ta19  1  0.819355  0.819355  0.748230  1
  Al  Al20  1  0.500000  0.500000  0.500000  1
  Al  Al21  1  0.256506  0.935276  0.000000  1
  Al  Al22  1  0.433262  0.237486  0.500000  1
  Al  Al23  1  0.566738  0.762514  0.500000  1
  Al  Al24  1  0.743494  0.064724  0.000000  1
  Al  Al25  1  0.237486  0.433262  0.500000  1
  Al  Al26  1  0.762514  0.566738  0.500000  1
  Al  Al27  1  0.935276  0.256506  0.000000  1
  Al  Al28  1  0.064724  0.743494  0.000000  1
  Cu  Cu29  1  0.000000  0.000000  0.000000  1
