# generated using pymatgen
data_Pr2Al9Os2Pd
_symmetry_space_group_name_H-M   'P 1'
_cell_length_a   7.64508600
_cell_length_b   7.64508516
_cell_length_c   9.73782700
_cell_angle_alpha   90.00000000
_cell_angle_beta   90.00000000
_cell_angle_gamma   119.25989575
_symmetry_Int_Tables_number   1
_chemical_formula_structural   Pr2Al9Os2Pd
_chemical_formula_sum   'Pr4 Al18 Os4 Pd2'
_cell_volume   496.53308350
_cell_formula_units_Z   2
loop_
 _symmetry_equiv_pos_site_id
 _symmetry_equiv_pos_as_xyz
  1  'x, y, z'
loop_
 _atom_site_type_symbol
 _atom_site_label
 _atom_site_symmetry_multiplicity
 _atom_site_fract_x
 _atom_site_fract_y
 _atom_site_fract_z
 _atom_site_occupancy
  Pr  Pr0  1  0.998092  0.671980  0.250000  1
  Pr  Pr1  1  0.001908  0.328020  0.750000  1
  Pr  Pr2  1  0.671980  0.998092  0.250000  1
  Pr  Pr3  1  0.328020  0.001908  0.750000  1
  Al  Al4  1  0.137904  0.137904  0.250000  1
  Al  Al5  1  0.862096  0.862096  0.750000  1
  Al  Al6  1  0.006219  0.341440  0.070958  1
  Al  Al7  1  0.993781  0.658560  0.929042  1
  Al  Al8  1  0.993781  0.658560  0.570958  1
  Al  Al9  1  0.341440  0.006219  0.429042  1
  Al  Al10  1  0.006219  0.341440  0.429042  1
  Al  Al11  1  0.658560  0.993781  0.570958  1
  Al  Al12  1  0.658560  0.993781  0.929042  1
  Al  Al13  1  0.341440  0.006219  0.070958  1
  Al  Al14  1  0.340899  0.340899  0.545330  1
  Al  Al15  1  0.659101  0.659101  0.454670  1
  Al  Al16  1  0.659101  0.659101  0.045330  1
  Al  Al17  1  0.340899  0.340899  0.954670  1
  Al  Al18  1  0.337863  0.548688  0.250000  1
  Al  Al19  1  0.662137  0.451312  0.750000  1
  Al  Al20  1  0.548688  0.337863  0.250000  1
  Al  Al21  1  0.451312  0.662137  0.750000  1
  Os  Os22  1  0.672258  0.327742  0.000000  1
  Os  Os23  1  0.327742  0.672258  0.000000  1
  Os  Os24  1  0.327742  0.672258  0.500000  1
  Os  Os25  1  0.672258  0.327742  0.500000  1
  Pd  Pd26  1  0.000000  0.000000  0.000000  1
  Pd  Pd27  1  0.000000  0.000000  0.500000  1
