# generated using pymatgen
data_TbTm3(Co5As3)4
_symmetry_space_group_name_H-M   'P 1'
_cell_length_a   3.77337600
_cell_length_b   12.15611425
_cell_length_c   10.65116562
_cell_angle_alpha   89.92229123
_cell_angle_beta   90.00000000
_cell_angle_gamma   90.00000000
_symmetry_Int_Tables_number   1
_chemical_formula_structural   TbTm3(Co5As3)4
_chemical_formula_sum   'Tb1 Tm3 Co20 As12'
_cell_volume   488.56414832
_cell_formula_units_Z   1
loop_
 _symmetry_equiv_pos_site_id
 _symmetry_equiv_pos_as_xyz
  1  'x, y, z'
loop_
 _atom_site_type_symbol
 _atom_site_label
 _atom_site_symmetry_multiplicity
 _atom_site_fract_x
 _atom_site_fract_y
 _atom_site_fract_z
 _atom_site_occupancy
  Tb  Tb0  1  0.750000  0.201945  0.418059  1
  Tm  Tm1  1  0.750000  0.701298  0.081193  1
  Tm  Tm2  1  0.250000  0.298589  0.918998  1
  Tm  Tm3  1  0.250000  0.798669  0.581299  1
  Co  Co4  1  0.750000  0.697680  0.384097  1
  Co  Co5  1  0.250000  0.303248  0.616855  1
  Co  Co6  1  0.250000  0.802401  0.884330  1
  Co  Co7  1  0.750000  0.197324  0.114819  1
  Co  Co8  1  0.750000  0.991002  0.212188  1
  Co  Co9  1  0.250000  0.008159  0.788087  1
  Co  Co10  1  0.250000  0.508931  0.712545  1
  Co  Co11  1  0.750000  0.491233  0.287574  1
  Co  Co12  1  0.750000  0.677682  0.784130  1
  Co  Co13  1  0.250000  0.322472  0.215513  1
  Co  Co14  1  0.250000  0.822035  0.283648  1
  Co  Co15  1  0.750000  0.177684  0.716490  1
  Co  Co16  1  0.750000  0.931705  0.969049  1
  Co  Co17  1  0.250000  0.067755  0.029863  1
  Co  Co18  1  0.250000  0.569093  0.469361  1
  Co  Co19  1  0.750000  0.433148  0.531496  1
  Co  Co20  1  0.750000  0.986806  0.593125  1
  Co  Co21  1  0.250000  0.011063  0.407518  1
  Co  Co22  1  0.250000  0.512713  0.092654  1
  Co  Co23  1  0.750000  0.487286  0.907439  1
  As  As24  1  0.750000  0.615460  0.584717  1
  As  As25  1  0.250000  0.386775  0.415435  1
  As  As26  1  0.250000  0.885062  0.084510  1
  As  As27  1  0.750000  0.114654  0.915201  1
  As  As28  1  0.750000  0.890178  0.400006  1
  As  As29  1  0.250000  0.109139  0.601196  1
  As  As30  1  0.250000  0.609581  0.900136  1
  As  As31  1  0.750000  0.390292  0.099920  1
  As  As32  1  0.750000  0.869707  0.768157  1
  As  As33  1  0.250000  0.129190  0.230300  1
  As  As34  1  0.250000  0.630093  0.267881  1
  As  As35  1  0.750000  0.369947  0.732209  1
