# generated using pymatgen
data_Tb20Bi5Pt4Pb3
_symmetry_space_group_name_H-M   'P 1'
_cell_length_a   7.99452285
_cell_length_b   9.09000249
_cell_length_c   12.50380400
_cell_angle_alpha   90.07253053
_cell_angle_beta   90.13084583
_cell_angle_gamma   90.01202465
_symmetry_Int_Tables_number   1
_chemical_formula_structural   Tb20Bi5Pt4Pb3
_chemical_formula_sum   'Tb20 Bi5 Pt4 Pb3'
_cell_volume   908.65122671
_cell_formula_units_Z   1
loop_
 _symmetry_equiv_pos_site_id
 _symmetry_equiv_pos_as_xyz
  1  'x, y, z'
loop_
 _atom_site_type_symbol
 _atom_site_label
 _atom_site_symmetry_multiplicity
 _atom_site_fract_x
 _atom_site_fract_y
 _atom_site_fract_z
 _atom_site_occupancy
  Tb  Tb0  1  0.838660  0.746278  0.788651  1
  Tb  Tb1  1  0.162110  0.251550  0.210562  1
  Tb  Tb2  1  0.339578  0.253503  0.712048  1
  Tb  Tb3  1  0.659057  0.748053  0.288776  1
  Tb  Tb4  1  0.371218  0.746592  0.698958  1
  Tb  Tb5  1  0.626230  0.252161  0.300773  1
  Tb  Tb6  1  0.870700  0.253500  0.800761  1
  Tb  Tb7  1  0.131472  0.748069  0.198140  1
  Tb  Tb8  1  0.954102  0.747383  0.502410  1
  Tb  Tb9  1  0.048014  0.252339  0.500392  1
  Tb  Tb10  1  0.453923  0.254746  0.998777  1
  Tb  Tb11  1  0.546589  0.745209  0.001155  1
  Tb  Tb12  1  0.680586  0.043752  0.567269  1
  Tb  Tb13  1  0.318723  0.956588  0.432672  1
  Tb  Tb14  1  0.180837  0.957214  0.932630  1
  Tb  Tb15  1  0.320249  0.543218  0.431227  1
  Tb  Tb16  1  0.819746  0.043074  0.067292  1
  Tb  Tb17  1  0.680663  0.457709  0.570777  1
  Tb  Tb18  1  0.817004  0.457680  0.066246  1
  Tb  Tb19  1  0.181728  0.542043  0.930910  1
  Bi  Bi20  1  0.430065  0.992316  0.171898  1
  Bi  Bi21  1  0.929613  0.491491  0.327163  1
  Bi  Bi22  1  0.570080  0.007426  0.827879  1
  Bi  Bi23  1  0.929565  0.007910  0.327733  1
  Bi  Bi24  1  0.069793  0.992267  0.672813  1
  Pt  Pt25  1  0.571970  0.750555  0.510667  1
  Pt  Pt26  1  0.427431  0.249380  0.489159  1
  Pt  Pt27  1  0.071113  0.249477  0.989351  1
  Pt  Pt28  1  0.929043  0.750721  0.010978  1
  Pb  Pb29  1  0.570168  0.492278  0.827546  1
  Pb  Pb30  1  0.429889  0.507750  0.172849  1
  Pb  Pb31  1  0.070080  0.507767  0.671544  1
