# generated using pymatgen
data_Ho3Fe5(P3Ru2)2
_symmetry_space_group_name_H-M   'P 1'
_cell_length_a   3.80511100
_cell_length_b   10.69090200
_cell_length_c   12.50973300
_cell_angle_alpha   90.00000000
_cell_angle_beta   90.00000000
_cell_angle_gamma   90.00000000
_symmetry_Int_Tables_number   1
_chemical_formula_structural   Ho3Fe5(P3Ru2)2
_chemical_formula_sum   'Ho6 Fe10 P12 Ru8'
_cell_volume   508.89679911
_cell_formula_units_Z   2
loop_
 _symmetry_equiv_pos_site_id
 _symmetry_equiv_pos_as_xyz
  1  'x, y, z'
loop_
 _atom_site_type_symbol
 _atom_site_label
 _atom_site_symmetry_multiplicity
 _atom_site_fract_x
 _atom_site_fract_y
 _atom_site_fract_z
 _atom_site_occupancy
  Ho  Ho0  1  0.000000  0.500000  0.526035  1
  Ho  Ho1  1  0.500000  0.000000  0.473965  1
  Ho  Ho2  1  0.500000  0.816910  0.201225  1
  Ho  Ho3  1  0.500000  0.183090  0.201225  1
  Ho  Ho4  1  0.000000  0.683090  0.798775  1
  Ho  Ho5  1  0.000000  0.316910  0.798775  1
  Fe  Fe6  1  0.000000  0.500000  0.989017  1
  Fe  Fe7  1  0.500000  0.000000  0.010983  1
  Fe  Fe8  1  0.500000  0.883488  0.715746  1
  Fe  Fe9  1  0.500000  0.116512  0.715746  1
  Fe  Fe10  1  0.000000  0.616512  0.284254  1
  Fe  Fe11  1  0.000000  0.383488  0.284254  1
  Fe  Fe12  1  0.500000  0.326626  0.995261  1
  Fe  Fe13  1  0.500000  0.673374  0.995261  1
  Fe  Fe14  1  0.000000  0.173374  0.004739  1
  Fe  Fe15  1  0.000000  0.826626  0.004739  1
  P  P16  1  0.500000  0.300169  0.621884  1
  P  P17  1  0.500000  0.699831  0.621884  1
  P  P18  1  0.000000  0.199831  0.378116  1
  P  P19  1  0.000000  0.800169  0.378116  1
  P  P20  1  0.500000  0.500000  0.890799  1
  P  P21  1  0.000000  0.000000  0.109201  1
  P  P22  1  0.500000  0.848444  0.892820  1
  P  P23  1  0.500000  0.151556  0.892820  1
  P  P24  1  0.000000  0.651556  0.107180  1
  P  P25  1  0.000000  0.348444  0.107180  1
  P  P26  1  0.500000  0.500000  0.335155  1
  P  P27  1  0.000000  0.000000  0.664845  1
  Ru  Ru28  1  0.500000  0.303228  0.428323  1
  Ru  Ru29  1  0.500000  0.696772  0.428323  1
  Ru  Ru30  1  0.000000  0.196772  0.571677  1
  Ru  Ru31  1  0.000000  0.803228  0.571677  1
  Ru  Ru32  1  0.500000  0.500000  0.149804  1
  Ru  Ru33  1  0.000000  0.000000  0.850196  1
  Ru  Ru34  1  0.500000  0.500000  0.700577  1
  Ru  Ru35  1  0.000000  0.000000  0.299423  1
