# generated using pymatgen
data_PuSbF10
_symmetry_space_group_name_H-M   'P 1'
_cell_length_a   5.71844542
_cell_length_b   5.77656213
_cell_length_c   8.27342717
_cell_angle_alpha   98.37563231
_cell_angle_beta   108.85051323
_cell_angle_gamma   110.71529265
_symmetry_Int_Tables_number   1
_chemical_formula_structural   PuSbF10
_chemical_formula_sum   'Pu1 Sb1 F10'
_cell_volume   231.24966791
_cell_formula_units_Z   1
loop_
 _symmetry_equiv_pos_site_id
 _symmetry_equiv_pos_as_xyz
  1  'x, y, z'
loop_
 _atom_site_type_symbol
 _atom_site_label
 _atom_site_symmetry_multiplicity
 _atom_site_fract_x
 _atom_site_fract_y
 _atom_site_fract_z
 _atom_site_occupancy
  Pu  Pu0  1  0.499785  0.000705  0.498478  1
  Sb  Sb1  1  0.995503  0.999722  0.999068  1
  F  F2  1  0.308290  0.076462  0.230932  1
  F  F3  1  0.683993  0.923457  0.766628  1
  F  F4  1  0.594664  0.741457  0.380223  1
  F  F5  1  0.876866  0.210930  0.118350  1
  F  F6  1  0.777743  0.711779  0.049488  1
  F  F7  1  0.137794  0.721394  0.449166  1
  F  F8  1  0.213640  0.288317  0.949374  1
  F  F9  1  0.861861  0.279428  0.547931  1
  F  F10  1  0.112780  0.787800  0.879175  1
  F  F11  1  0.405327  0.260197  0.617066  1
