# generated using pymatgen
data_Hf3Zr(V3Si4)2
_symmetry_space_group_name_H-M   'P 1'
_cell_length_a   6.62347600
_cell_length_b   6.62274314
_cell_length_c   12.26014500
_cell_angle_alpha   90.00000000
_cell_angle_beta   90.00000000
_cell_angle_gamma   89.98802651
_symmetry_Int_Tables_number   1
_chemical_formula_structural   Hf3Zr(V3Si4)2
_chemical_formula_sum   'Hf6 Zr2 V12 Si16'
_cell_volume   537.79836292
_cell_formula_units_Z   2
loop_
 _symmetry_equiv_pos_site_id
 _symmetry_equiv_pos_as_xyz
  1  'x, y, z'
loop_
 _atom_site_type_symbol
 _atom_site_label
 _atom_site_symmetry_multiplicity
 _atom_site_fract_x
 _atom_site_fract_y
 _atom_site_fract_z
 _atom_site_occupancy
  Hf  Hf0  1  0.002776  0.661186  0.029975  1
  Hf  Hf1  1  0.838025  0.502425  0.279893  1
  Hf  Hf2  1  0.161975  0.497575  0.779893  1
  Hf  Hf3  1  0.502461  0.837913  0.720045  1
  Hf  Hf4  1  0.497539  0.162087  0.220045  1
  Hf  Hf5  1  0.997224  0.338814  0.529975  1
  Zr  Zr6  1  0.661706  0.001781  0.969912  1
  Zr  Zr7  1  0.338294  0.998219  0.469912  1
  V  V8  1  0.332767  0.333954  0.000101  1
  V  V9  1  0.166374  0.833055  0.249709  1
  V  V10  1  0.833626  0.166945  0.749709  1
  V  V11  1  0.667233  0.666046  0.500101  1
  V  V12  1  0.003813  0.159974  0.127010  1
  V  V13  1  0.340661  0.503979  0.376577  1
  V  V14  1  0.659339  0.496021  0.876577  1
  V  V15  1  0.504327  0.341280  0.623610  1
  V  V16  1  0.495673  0.658720  0.123610  1
  V  V17  1  0.996187  0.840026  0.627010  1
  V  V18  1  0.159802  0.003546  0.873279  1
  V  V19  1  0.840198  0.996454  0.373279  1
  Si  Si20  1  0.290186  0.960537  0.064604  1
  Si  Si21  1  0.539774  0.790716  0.314260  1
  Si  Si22  1  0.460226  0.209284  0.814260  1
  Si  Si23  1  0.791215  0.539360  0.685592  1
  Si  Si24  1  0.208785  0.460640  0.185592  1
  Si  Si25  1  0.709814  0.039463  0.564604  1
  Si  Si26  1  0.960845  0.291330  0.935298  1
  Si  Si27  1  0.039155  0.708670  0.435298  1
  Si  Si28  1  0.705121  0.373901  0.071242  1
  Si  Si29  1  0.126378  0.206073  0.320921  1
  Si  Si30  1  0.873622  0.793927  0.820921  1
  Si  Si31  1  0.205113  0.127512  0.679206  1
  Si  Si32  1  0.794887  0.872488  0.179206  1
  Si  Si33  1  0.294879  0.626099  0.571242  1
  Si  Si34  1  0.372686  0.704668  0.928763  1
  Si  Si35  1  0.627314  0.295332  0.428763  1
