# generated using pymatgen
data_La10Tc2I15
_symmetry_space_group_name_H-M   'P 1'
_cell_length_a   10.12866149
_cell_length_b   11.27560683
_cell_length_c   11.99395762
_cell_angle_alpha   91.08180872
_cell_angle_beta   114.01071444
_cell_angle_gamma   110.37830258
_symmetry_Int_Tables_number   1
_chemical_formula_structural   La10Tc2I15
_chemical_formula_sum   'La10 Tc2 I15'
_cell_volume   1152.14408157
_cell_formula_units_Z   1
loop_
 _symmetry_equiv_pos_site_id
 _symmetry_equiv_pos_as_xyz
  1  'x, y, z'
loop_
 _atom_site_type_symbol
 _atom_site_label
 _atom_site_symmetry_multiplicity
 _atom_site_fract_x
 _atom_site_fract_y
 _atom_site_fract_z
 _atom_site_occupancy
  La  La0  1  0.227402  0.582779  0.053875  1
  La  La1  1  0.772598  0.417221  0.946125  1
  La  La2  1  0.300520  0.906895  0.276711  1
  La  La3  1  0.699480  0.093105  0.723289  1
  La  La4  1  0.088078  0.549788  0.328753  1
  La  La5  1  0.911922  0.450212  0.671247  1
  La  La6  1  0.837539  0.749440  0.176042  1
  La  La7  1  0.162461  0.250560  0.823958  1
  La  La8  1  0.976087  0.794579  0.907751  1
  La  La9  1  0.023913  0.205421  0.092249  1
  Tc  Tc10  1  0.023801  0.680723  0.123270  1
  Tc  Tc11  1  0.976199  0.319277  0.876730  1
  I  I12  1  0.335658  0.442506  0.299295  1
  I  I13  1  0.664342  0.557494  0.700705  1
  I  I14  1  0.209222  0.734849  0.816121  1
  I  I15  1  0.790778  0.265151  0.183879  1
  I  I16  1  0.144032  0.387198  0.582493  1
  I  I17  1  0.855968  0.612802  0.417507  1
  I  I18  1  0.388356  0.799076  0.532296  1
  I  I19  1  0.611644  0.200924  0.467704  1
  I  I20  1  0.264913  0.087066  0.054756  1
  I  I21  1  0.735087  0.912934  0.945244  1
  I  I22  1  0.563176  0.843247  0.225753  1
  I  I23  1  0.436824  0.156753  0.774247  1
  I  I24  1  0.091501  0.039143  0.335874  1
  I  I25  1  0.908499  0.960857  0.664126  1
  I  I26  1  0.500000  0.500000  0.000000  1
