# generated using pymatgen
data_Tb7Lu5(ThSn2)8
_symmetry_space_group_name_H-M   'P 1'
_cell_length_a   8.10038741
_cell_length_b   8.20882409
_cell_length_c   15.54000873
_cell_angle_alpha   89.99052174
_cell_angle_beta   89.96632093
_cell_angle_gamma   89.98628270
_symmetry_Int_Tables_number   1
_chemical_formula_structural   Tb7Lu5(ThSn2)8
_chemical_formula_sum   'Tb7 Lu5 Th8 Sn16'
_cell_volume   1033.32730072
_cell_formula_units_Z   1
loop_
 _symmetry_equiv_pos_site_id
 _symmetry_equiv_pos_as_xyz
  1  'x, y, z'
loop_
 _atom_site_type_symbol
 _atom_site_label
 _atom_site_symmetry_multiplicity
 _atom_site_fract_x
 _atom_site_fract_y
 _atom_site_fract_z
 _atom_site_occupancy
  Tb  Tb0  1  0.360675  0.837989  0.876493  1
  Tb  Tb1  1  0.860654  0.662534  0.624256  1
  Tb  Tb2  1  0.639730  0.162289  0.376248  1
  Tb  Tb3  1  0.139777  0.337543  0.123864  1
  Tb  Tb4  1  0.640252  0.162346  0.122774  1
  Tb  Tb5  1  0.139856  0.337682  0.376120  1
  Tb  Tb6  1  0.360146  0.837364  0.624394  1
  Lu  Lu7  1  0.859542  0.661655  0.875317  1
  Lu  Lu8  1  0.189755  0.498557  0.750503  1
  Lu  Lu9  1  0.690718  0.001585  0.750550  1
  Lu  Lu10  1  0.809809  0.502023  0.249557  1
  Lu  Lu11  1  0.310153  0.998080  0.249943  1
  Th  Th12  1  0.518034  0.322130  0.904209  1
  Th  Th13  1  0.017783  0.178393  0.596514  1
  Th  Th14  1  0.481825  0.678422  0.404210  1
  Th  Th15  1  0.981777  0.821072  0.095005  1
  Th  Th16  1  0.481305  0.678331  0.095718  1
  Th  Th17  1  0.981836  0.821644  0.404143  1
  Th  Th18  1  0.518711  0.321965  0.596132  1
  Th  Th19  1  0.018214  0.178497  0.904035  1
  Sn  Sn20  1  0.298653  0.038935  0.042952  1
  Sn  Sn21  1  0.799073  0.461130  0.457079  1
  Sn  Sn22  1  0.700961  0.960849  0.543178  1
  Sn  Sn23  1  0.198052  0.539834  0.956469  1
  Sn  Sn24  1  0.702744  0.958369  0.956435  1
  Sn  Sn25  1  0.201268  0.538581  0.543165  1
  Sn  Sn26  1  0.298688  0.038928  0.457330  1
  Sn  Sn27  1  0.799391  0.462305  0.041286  1
  Sn  Sn28  1  0.555873  0.621225  0.750892  1
  Sn  Sn29  1  0.054266  0.877611  0.751217  1
  Sn  Sn30  1  0.445194  0.378922  0.249703  1
  Sn  Sn31  1  0.944798  0.120912  0.249853  1
  Sn  Sn32  1  0.325626  0.145947  0.750109  1
  Sn  Sn33  1  0.824999  0.355889  0.750795  1
  Sn  Sn34  1  0.674999  0.854410  0.249815  1
  Sn  Sn35  1  0.174866  0.646052  0.249738  1
