# generated using pymatgen
data_CeEr9Ru4
_symmetry_space_group_name_H-M   'P 1'
_cell_length_a   6.32993080
_cell_length_b   7.20223056
_cell_length_c   8.49769778
_cell_angle_alpha   96.14942362
_cell_angle_beta   112.03672016
_cell_angle_gamma   91.31396130
_symmetry_Int_Tables_number   1
_chemical_formula_structural   CeEr9Ru4
_chemical_formula_sum   'Ce1 Er9 Ru4'
_cell_volume   356.19949981
_cell_formula_units_Z   1
loop_
 _symmetry_equiv_pos_site_id
 _symmetry_equiv_pos_as_xyz
  1  'x, y, z'
loop_
 _atom_site_type_symbol
 _atom_site_label
 _atom_site_symmetry_multiplicity
 _atom_site_fract_x
 _atom_site_fract_y
 _atom_site_fract_z
 _atom_site_occupancy
  Ce  Ce0  1  0.992409  0.902313  0.190242  1
  Er  Er1  1  0.791139  0.582863  0.808200  1
  Er  Er2  1  0.021393  0.083793  0.814113  1
  Er  Er3  1  0.209211  0.416518  0.184145  1
  Er  Er4  1  0.639463  0.816088  0.437086  1
  Er  Er5  1  0.208416  0.685059  0.569412  1
  Er  Er6  1  0.355852  0.188072  0.569309  1
  Er  Er7  1  0.792516  0.313350  0.435336  1
  Er  Er8  1  0.425273  0.748731  0.997104  1
  Er  Er9  1  0.579883  0.248885  0.000934  1
  Ru  Ru10  1  0.836827  0.597324  0.220055  1
  Ru  Ru11  1  0.603206  0.926053  0.777618  1
  Ru  Ru12  1  0.176198  0.424301  0.778575  1
  Ru  Ru13  1  0.368216  0.066650  0.217870  1
