# generated using pymatgen
data_Y4ErPt9
_symmetry_space_group_name_H-M   'P 1'
_cell_length_a   9.78541800
_cell_length_b   9.78541800
_cell_length_c   5.77679200
_cell_angle_alpha   90.00000000
_cell_angle_beta   90.00000000
_cell_angle_gamma   90.00000000
_symmetry_Int_Tables_number   1
_chemical_formula_structural   Y4ErPt9
_chemical_formula_sum   'Y8 Er2 Pt18'
_cell_volume   553.15328328
_cell_formula_units_Z   2
loop_
 _symmetry_equiv_pos_site_id
 _symmetry_equiv_pos_as_xyz
  1  'x, y, z'
loop_
 _atom_site_type_symbol
 _atom_site_label
 _atom_site_symmetry_multiplicity
 _atom_site_fract_x
 _atom_site_fract_y
 _atom_site_fract_z
 _atom_site_occupancy
  Y  Y0  1  0.452546  0.808993  0.000000  1
  Y  Y1  1  0.547454  0.191007  0.000000  1
  Y  Y2  1  0.191007  0.547454  0.000000  1
  Y  Y3  1  0.808993  0.452546  0.000000  1
  Y  Y4  1  0.308993  0.047454  0.500000  1
  Y  Y5  1  0.691007  0.952546  0.500000  1
  Y  Y6  1  0.952546  0.691007  0.500000  1
  Y  Y7  1  0.047454  0.308993  0.500000  1
  Er  Er8  1  0.500000  0.500000  0.500000  1
  Er  Er9  1  0.000000  0.000000  0.000000  1
  Pt  Pt10  1  0.191177  0.808823  0.251261  1
  Pt  Pt11  1  0.808823  0.191177  0.748739  1
  Pt  Pt12  1  0.808823  0.191177  0.251261  1
  Pt  Pt13  1  0.191177  0.808823  0.748739  1
  Pt  Pt14  1  0.440315  0.779435  0.500000  1
  Pt  Pt15  1  0.559685  0.220565  0.500000  1
  Pt  Pt16  1  0.220565  0.559685  0.500000  1
  Pt  Pt17  1  0.779435  0.440315  0.500000  1
  Pt  Pt18  1  0.308823  0.308823  0.248739  1
  Pt  Pt19  1  0.691177  0.691177  0.751261  1
  Pt  Pt20  1  0.691177  0.691177  0.248739  1
  Pt  Pt21  1  0.308823  0.308823  0.751261  1
  Pt  Pt22  1  0.279435  0.059685  0.000000  1
  Pt  Pt23  1  0.720565  0.940315  0.000000  1
  Pt  Pt24  1  0.940315  0.720565  0.000000  1
  Pt  Pt25  1  0.059685  0.279435  0.000000  1
  Pt  Pt26  1  0.000000  0.000000  0.500000  1
  Pt  Pt27  1  0.500000  0.500000  0.000000  1
