# generated using pymatgen
data_Ce2U6TiSe17
_symmetry_space_group_name_H-M   'P 1'
_cell_length_a   8.28012184
_cell_length_b   8.28012248
_cell_length_c   10.95948573
_cell_angle_alpha   80.55325581
_cell_angle_beta   80.55325606
_cell_angle_gamma   65.17021790
_symmetry_Int_Tables_number   1
_chemical_formula_structural   Ce2U6TiSe17
_chemical_formula_sum   'Ce2 U6 Ti1 Se17'
_cell_volume   668.86554671
_cell_formula_units_Z   1
loop_
 _symmetry_equiv_pos_site_id
 _symmetry_equiv_pos_as_xyz
  1  'x, y, z'
loop_
 _atom_site_type_symbol
 _atom_site_label
 _atom_site_symmetry_multiplicity
 _atom_site_fract_x
 _atom_site_fract_y
 _atom_site_fract_z
 _atom_site_occupancy
  Ce  Ce0  1  0.185032  0.696345  0.703474  1
  Ce  Ce1  1  0.696345  0.185032  0.703474  1
  U  U2  1  0.819525  0.299139  0.297054  1
  U  U3  1  0.299139  0.819525  0.297054  1
  U  U4  1  0.204013  0.204013  0.537705  1
  U  U5  1  0.798454  0.798454  0.461349  1
  U  U6  1  0.680507  0.680507  0.987398  1
  U  U7  1  0.319299  0.319299  0.013875  1
  Ti  Ti8  1  0.998089  0.998089  0.996816  1
  Se  Se9  1  0.825567  0.433363  0.530308  1
  Se  Se10  1  0.433363  0.825567  0.530308  1
  Se  Se11  1  0.178367  0.567537  0.460458  1
  Se  Se12  1  0.567537  0.178367  0.460458  1
  Se  Se13  1  0.055490  0.674674  0.978572  1
  Se  Se14  1  0.674674  0.055490  0.978572  1
  Se  Se15  1  0.941453  0.322989  0.027738  1
  Se  Se16  1  0.322989  0.941453  0.027738  1
  Se  Se17  1  0.064108  0.064108  0.771047  1
  Se  Se18  1  0.939013  0.939013  0.228494  1
  Se  Se19  1  0.212363  0.212363  0.273188  1
  Se  Se20  1  0.785259  0.785259  0.725417  1
  Se  Se21  1  0.300416  0.300416  0.753836  1
  Se  Se22  1  0.695825  0.695825  0.249189  1
  Se  Se23  1  0.521082  0.521082  0.840334  1
  Se  Se24  1  0.479864  0.479864  0.170194  1
  Se  Se25  1  0.002226  0.002226  0.495949  1
