# generated using pymatgen
data_Y2TcB8Rh
_symmetry_space_group_name_H-M   'P 1'
_cell_length_a   3.58663300
_cell_length_b   5.97119564
_cell_length_c   11.56828802
_cell_angle_alpha   90.28151026
_cell_angle_beta   90.00000000
_cell_angle_gamma   90.00000000
_symmetry_Int_Tables_number   1
_chemical_formula_structural   Y2TcB8Rh
_chemical_formula_sum   'Y4 Tc2 B16 Rh2'
_cell_volume   247.74910351
_cell_formula_units_Z   2
loop_
 _symmetry_equiv_pos_site_id
 _symmetry_equiv_pos_as_xyz
  1  'x, y, z'
loop_
 _atom_site_type_symbol
 _atom_site_label
 _atom_site_symmetry_multiplicity
 _atom_site_fract_x
 _atom_site_fract_y
 _atom_site_fract_z
 _atom_site_occupancy
  Y  Y0  1  0.500000  0.371451  0.149091  1
  Y  Y1  1  0.500000  0.628549  0.850909  1
  Y  Y2  1  0.500000  0.129016  0.648785  1
  Y  Y3  1  0.500000  0.870984  0.351215  1
  Tc  Tc4  1  0.500000  0.366033  0.411355  1
  Tc  Tc5  1  0.500000  0.633967  0.588645  1
  B  B6  1  0.000000  0.112457  0.047471  1
  B  B7  1  0.000000  0.887543  0.952529  1
  B  B8  1  0.000000  0.387729  0.546421  1
  B  B9  1  0.000000  0.612271  0.453579  1
  B  B10  1  0.000000  0.135786  0.469235  1
  B  B11  1  0.000000  0.864214  0.530765  1
  B  B12  1  0.000000  0.363557  0.969179  1
  B  B13  1  0.000000  0.636443  0.030821  1
  B  B14  1  0.000000  0.023260  0.192823  1
  B  B15  1  0.000000  0.976740  0.807177  1
  B  B16  1  0.000000  0.476170  0.692096  1
  B  B17  1  0.000000  0.523830  0.307904  1
  B  B18  1  0.000000  0.211611  0.314470  1
  B  B19  1  0.000000  0.788389  0.685530  1
  B  B20  1  0.000000  0.289506  0.813995  1
  B  B21  1  0.000000  0.710494  0.186005  1
  Rh  Rh22  1  0.500000  0.140498  0.905799  1
  Rh  Rh23  1  0.500000  0.859502  0.094201  1
