# generated using pymatgen
data_K2RbTaSe4
_symmetry_space_group_name_H-M   'P 1'
_cell_length_a   10.02663900
_cell_length_b   10.15953400
_cell_length_c   11.20719300
_cell_angle_alpha   90.00000000
_cell_angle_beta   90.00000000
_cell_angle_gamma   90.00000000
_symmetry_Int_Tables_number   1
_chemical_formula_structural   K2RbTaSe4
_chemical_formula_sum   'K8 Rb4 Ta4 Se16'
_cell_volume   1141.63169605
_cell_formula_units_Z   4
loop_
 _symmetry_equiv_pos_site_id
 _symmetry_equiv_pos_as_xyz
  1  'x, y, z'
loop_
 _atom_site_type_symbol
 _atom_site_label
 _atom_site_symmetry_multiplicity
 _atom_site_fract_x
 _atom_site_fract_y
 _atom_site_fract_z
 _atom_site_occupancy
  K  K0  1  0.558806  0.202583  0.048544  1
  K  K1  1  0.058806  0.297417  0.451456  1
  K  K2  1  0.441194  0.797417  0.548544  1
  K  K3  1  0.941194  0.702583  0.951456  1
  K  K4  1  0.441194  0.797417  0.951456  1
  K  K5  1  0.941194  0.702583  0.548544  1
  K  K6  1  0.558806  0.202583  0.451456  1
  K  K7  1  0.058806  0.297417  0.048544  1
  Rb  Rb8  1  0.639095  0.414308  0.750000  1
  Rb  Rb9  1  0.139095  0.085692  0.750000  1
  Rb  Rb10  1  0.360905  0.585692  0.250000  1
  Rb  Rb11  1  0.860905  0.914308  0.250000  1
  Ta  Ta12  1  0.716070  0.981137  0.750000  1
  Ta  Ta13  1  0.216070  0.518863  0.750000  1
  Ta  Ta14  1  0.283930  0.018863  0.250000  1
  Ta  Ta15  1  0.783930  0.481137  0.250000  1
  Se  Se16  1  0.835222  0.045250  0.572493  1
  Se  Se17  1  0.335222  0.454750  0.927507  1
  Se  Se18  1  0.164778  0.954750  0.072493  1
  Se  Se19  1  0.664778  0.545250  0.427507  1
  Se  Se20  1  0.164778  0.954750  0.427507  1
  Se  Se21  1  0.664778  0.545250  0.072493  1
  Se  Se22  1  0.835222  0.045250  0.927507  1
  Se  Se23  1  0.335222  0.454750  0.572493  1
  Se  Se24  1  0.690487  0.744661  0.750000  1
  Se  Se25  1  0.190487  0.755339  0.750000  1
  Se  Se26  1  0.309513  0.255339  0.250000  1
  Se  Se27  1  0.809513  0.244661  0.250000  1
  Se  Se28  1  0.495812  0.080704  0.750000  1
  Se  Se29  1  0.995812  0.419296  0.750000  1
  Se  Se30  1  0.504188  0.919296  0.250000  1
  Se  Se31  1  0.004188  0.580704  0.250000  1
