# generated using pymatgen
data_Tb5Y6Lu5(CdNi)4
_symmetry_space_group_name_H-M   'P 1'
_cell_length_a   9.50550095
_cell_length_b   9.50461133
_cell_length_c   9.50461302
_cell_angle_alpha   59.94824540
_cell_angle_beta   59.99690136
_cell_angle_gamma   59.99689875
_symmetry_Int_Tables_number   1
_chemical_formula_structural   Tb5Y6Lu5(CdNi)4
_chemical_formula_sum   'Tb5 Y6 Lu5 Cd4 Ni4'
_cell_volume   606.92960575
_cell_formula_units_Z   1
loop_
 _symmetry_equiv_pos_site_id
 _symmetry_equiv_pos_as_xyz
  1  'x, y, z'
loop_
 _atom_site_type_symbol
 _atom_site_label
 _atom_site_symmetry_multiplicity
 _atom_site_fract_x
 _atom_site_fract_y
 _atom_site_fract_z
 _atom_site_occupancy
  Tb  Tb0  1  0.597214  0.599879  0.599879  1
  Tb  Tb1  1  0.599600  0.600101  0.200701  1
  Tb  Tb2  1  0.599600  0.200701  0.600101  1
  Tb  Tb3  1  0.203028  0.599879  0.599879  1
  Tb  Tb4  1  0.063749  0.436251  0.436251  1
  Y  Y5  1  0.186518  0.813482  0.813482  1
  Y  Y6  1  0.812064  0.187936  0.187936  1
  Y  Y7  1  0.811900  0.187108  0.813429  1
  Y  Y8  1  0.187564  0.813429  0.187108  1
  Y  Y9  1  0.811900  0.813429  0.187108  1
  Y  Y10  1  0.187564  0.187108  0.813429  1
  Lu  Lu11  1  0.435012  0.064988  0.064988  1
  Lu  Lu12  1  0.437572  0.062972  0.435287  1
  Lu  Lu13  1  0.064170  0.435287  0.062972  1
  Lu  Lu14  1  0.437572  0.435287  0.062972  1
  Lu  Lu15  1  0.064170  0.062972  0.435287  1
  Cd  Cd16  1  0.831218  0.830876  0.830876  1
  Cd  Cd17  1  0.831010  0.831337  0.506640  1
  Cd  Cd18  1  0.831010  0.506640  0.831337  1
  Cd  Cd19  1  0.507029  0.830876  0.830876  1
  Ni  Ni20  1  0.393410  0.391116  0.391116  1
  Ni  Ni21  1  0.391384  0.390855  0.826378  1
  Ni  Ni22  1  0.391384  0.826378  0.390855  1
  Ni  Ni23  1  0.824358  0.391116  0.391116  1
