# generated using pymatgen
data_MnFe2(SeO3)4
_symmetry_space_group_name_H-M   'P 1'
_cell_length_a   8.22323300
_cell_length_b   8.22818550
_cell_length_c   8.41841227
_cell_angle_alpha   88.27912570
_cell_angle_beta   90.00000000
_cell_angle_gamma   90.00000000
_symmetry_Int_Tables_number   1
_chemical_formula_structural   MnFe2(SeO3)4
_chemical_formula_sum   'Mn2 Fe4 Se8 O24'
_cell_volume   569.35212123
_cell_formula_units_Z   2
loop_
 _symmetry_equiv_pos_site_id
 _symmetry_equiv_pos_as_xyz
  1  'x, y, z'
loop_
 _atom_site_type_symbol
 _atom_site_label
 _atom_site_symmetry_multiplicity
 _atom_site_fract_x
 _atom_site_fract_y
 _atom_site_fract_z
 _atom_site_occupancy
  Mn  Mn0  1  0.602014  0.344782  0.162780  1
  Mn  Mn1  1  0.397986  0.844782  0.162780  1
  Fe  Fe2  1  0.761903  0.751713  0.998739  1
  Fe  Fe3  1  0.742606  0.242079  0.510556  1
  Fe  Fe4  1  0.238097  0.251713  0.998739  1
  Fe  Fe5  1  0.257394  0.742079  0.510556  1
  Se  Se6  1  0.089873  0.548805  0.191766  1
  Se  Se7  1  0.910127  0.048805  0.191766  1
  Se  Se8  1  0.571057  0.452945  0.816624  1
  Se  Se9  1  0.323031  0.167485  0.416193  1
  Se  Se10  1  0.057124  0.419796  0.681444  1
  Se  Se11  1  0.428943  0.952945  0.816624  1
  Se  Se12  1  0.676969  0.667485  0.416193  1
  Se  Se13  1  0.942876  0.919796  0.681444  1
  O  O14  1  0.965369  0.699233  0.114527  1
  O  O15  1  0.308989  0.014628  0.979337  1
  O  O16  1  0.161208  0.259640  0.776734  1
  O  O17  1  0.673286  0.459768  0.372601  1
  O  O18  1  0.759034  0.172468  0.274062  1
  O  O19  1  0.193983  0.489570  0.025364  1
  O  O20  1  0.218651  0.512805  0.582190  1
  O  O21  1  0.631001  0.749521  0.226227  1
  O  O22  1  0.716958  0.346530  0.720925  1
  O  O23  1  0.326714  0.959768  0.372601  1
  O  O24  1  0.973882  0.313869  0.524297  1
  O  O25  1  0.479391  0.299926  0.935050  1
  O  O26  1  0.838792  0.759640  0.776734  1
  O  O27  1  0.500660  0.695137  0.516486  1
  O  O28  1  0.283042  0.846530  0.720925  1
  O  O29  1  0.240966  0.672468  0.274062  1
  O  O30  1  0.368999  0.249521  0.226227  1
  O  O31  1  0.034631  0.199233  0.114527  1
  O  O32  1  0.026118  0.813869  0.524297  1
  O  O33  1  0.520609  0.799926  0.935050  1
  O  O34  1  0.691011  0.514627  0.979337  1
  O  O35  1  0.781349  0.012805  0.582190  1
  O  O36  1  0.499340  0.195137  0.516486  1
  O  O37  1  0.806017  0.989570  0.025364  1
