# generated using pymatgen
data_Os3PdPb4O13
_symmetry_space_group_name_H-M   'P 1'
_cell_length_a   7.43768598
_cell_length_b   7.37904202
_cell_length_c   7.43768600
_cell_angle_alpha   59.73675301
_cell_angle_beta   59.99999992
_cell_angle_gamma   59.73675304
_symmetry_Int_Tables_number   1
_chemical_formula_structural   Os3PdPb4O13
_chemical_formula_sum   'Os3 Pd1 Pb4 O13'
_cell_volume   287.48891709
_cell_formula_units_Z   1
loop_
 _symmetry_equiv_pos_site_id
 _symmetry_equiv_pos_as_xyz
  1  'x, y, z'
loop_
 _atom_site_type_symbol
 _atom_site_label
 _atom_site_symmetry_multiplicity
 _atom_site_fract_x
 _atom_site_fract_y
 _atom_site_fract_z
 _atom_site_occupancy
  Os  Os0  1  0.873028  0.877305  0.376639  1
  Os  Os1  1  0.873028  0.877305  0.873028  1
  Os  Os2  1  0.376639  0.877305  0.873028  1
  Pd  Pd3  1  0.873216  0.380351  0.873216  1
  Pb  Pb4  1  0.877630  0.379431  0.371469  1
  Pb  Pb5  1  0.371469  0.379431  0.371469  1
  Pb  Pb6  1  0.371469  0.379431  0.877630  1
  Pb  Pb7  1  0.371317  0.886051  0.371317  1
  O  O8  1  0.196530  0.815652  0.791287  1
  O  O9  1  0.196530  0.815652  0.196530  1
  O  O10  1  0.565504  0.920103  0.948889  1
  O  O11  1  0.565504  0.920103  0.565504  1
  O  O12  1  0.948889  0.920103  0.565504  1
  O  O13  1  0.791287  0.815652  0.196530  1
  O  O14  1  0.531205  0.557056  0.955869  1
  O  O15  1  0.794668  0.193435  0.794668  1
  O  O16  1  0.794668  0.193435  0.217228  1
  O  O17  1  0.955869  0.557056  0.955869  1
  O  O18  1  0.955869  0.557056  0.531205  1
  O  O19  1  0.217228  0.193435  0.794668  1
  O  O20  1  0.498451  0.504646  0.498451  1
