# generated using pymatgen
data_Pa5TiNb2(Co4P3)4
_symmetry_space_group_name_H-M   'P 1'
_cell_length_a   12.14210100
_cell_length_b   12.15084736
_cell_length_c   3.77770400
_cell_angle_alpha   90.00000000
_cell_angle_beta   90.00000000
_cell_angle_gamma   119.97618341
_symmetry_Int_Tables_number   1
_chemical_formula_structural   Pa5TiNb2(Co4P3)4
_chemical_formula_sum   'Pa5 Ti1 Nb2 Co16 P12'
_cell_volume   482.79541945
_cell_formula_units_Z   1
loop_
 _symmetry_equiv_pos_site_id
 _symmetry_equiv_pos_as_xyz
  1  'x, y, z'
loop_
 _atom_site_type_symbol
 _atom_site_label
 _atom_site_symmetry_multiplicity
 _atom_site_fract_x
 _atom_site_fract_y
 _atom_site_fract_z
 _atom_site_occupancy
  Pa  Pa0  1  0.815097  0.000000  0.500000  1
  Pa  Pa1  1  0.000994  0.816825  0.500000  1
  Pa  Pa2  1  0.184168  0.183175  0.500000  1
  Pa  Pa3  1  0.333381  0.667868  0.000000  1
  Pa  Pa4  1  0.665514  0.332132  0.000000  1
  Ti  Ti5  1  0.434919  0.000000  0.000000  1
  Nb  Nb6  1  0.999762  0.440297  0.000000  1
  Nb  Nb7  1  0.559465  0.559703  0.000000  1
  Co  Co8  1  0.278380  0.000000  0.500000  1
  Co  Co9  1  0.000148  0.276000  0.500000  1
  Co  Co10  1  0.724147  0.724000  0.500000  1
  Co  Co11  1  0.626629  0.809351  0.000000  1
  Co  Co12  1  0.193231  0.818010  0.000000  1
  Co  Co13  1  0.182236  0.373579  0.000000  1
  Co  Co14  1  0.375221  0.181990  0.000000  1
  Co  Co15  1  0.808657  0.626421  0.000000  1
  Co  Co16  1  0.817278  0.190649  0.000000  1
  Co  Co17  1  0.512898  0.873776  0.500000  1
  Co  Co18  1  0.128346  0.640894  0.500000  1
  Co  Co19  1  0.359891  0.487890  0.500000  1
  Co  Co20  1  0.487453  0.359106  0.500000  1
  Co  Co21  1  0.872002  0.512110  0.500000  1
  Co  Co22  1  0.639122  0.126224  0.500000  1
  Co  Co23  1  0.000700  0.000000  0.000000  1
  P  P24  1  0.181201  0.000000  0.000000  1
  P  P25  1  0.000182  0.179785  0.000000  1
  P  P26  1  0.820398  0.820215  0.000000  1
  P  P27  1  0.525580  0.693398  0.500000  1
  P  P28  1  0.308917  0.834220  0.500000  1
  P  P29  1  0.167545  0.474643  0.500000  1
  P  P30  1  0.474697  0.165780  0.500000  1
  P  P31  1  0.692902  0.525357  0.500000  1
  P  P32  1  0.832182  0.306602  0.500000  1
  P  P33  1  0.633073  0.000000  0.000000  1
  P  P34  1  0.000332  0.636983  0.000000  1
  P  P35  1  0.363349  0.363017  0.000000  1
