# generated using pymatgen
data_HoTh3(InPd2)2
_symmetry_space_group_name_H-M   'P 1'
_cell_length_a   7.92375162
_cell_length_b   7.92375162
_cell_length_c   3.79248400
_cell_angle_alpha   90.00000000
_cell_angle_beta   90.00000000
_cell_angle_gamma   89.51279560
_symmetry_Int_Tables_number   1
_chemical_formula_structural   HoTh3(InPd2)2
_chemical_formula_sum   'Ho1 Th3 In2 Pd4'
_cell_volume   238.10568391
_cell_formula_units_Z   1
loop_
 _symmetry_equiv_pos_site_id
 _symmetry_equiv_pos_as_xyz
  1  'x, y, z'
loop_
 _atom_site_type_symbol
 _atom_site_label
 _atom_site_symmetry_multiplicity
 _atom_site_fract_x
 _atom_site_fract_y
 _atom_site_fract_z
 _atom_site_occupancy
  Ho  Ho0  1  0.674834  0.174834  0.500000  1
  Th  Th1  1  0.328971  0.828971  0.500000  1
  Th  Th2  1  0.824350  0.672234  0.500000  1
  Th  Th3  1  0.172234  0.324350  0.500000  1
  In  In4  1  0.995134  0.002250  0.000000  1
  In  In5  1  0.502250  0.495134  0.000000  1
  Pd  Pd6  1  0.371734  0.128340  0.000000  1
  Pd  Pd7  1  0.872354  0.372354  0.000000  1
  Pd  Pd8  1  0.129802  0.629802  0.000000  1
  Pd  Pd9  1  0.628340  0.871734  0.000000  1
