# generated using pymatgen
data_K5Bi6
_symmetry_space_group_name_H-M   'P 1'
_cell_length_a   17.47400041
_cell_length_b   17.47399950
_cell_length_c   5.54666400
_cell_angle_alpha   90.00000000
_cell_angle_beta   90.00000000
_cell_angle_gamma   162.63906070
_symmetry_Int_Tables_number   1
_chemical_formula_structural   K5Bi6
_chemical_formula_sum   'K5 Bi6'
_cell_volume   505.36021303
_cell_formula_units_Z   1
loop_
 _symmetry_equiv_pos_site_id
 _symmetry_equiv_pos_as_xyz
  1  'x, y, z'
loop_
 _atom_site_type_symbol
 _atom_site_label
 _atom_site_symmetry_multiplicity
 _atom_site_fract_x
 _atom_site_fract_y
 _atom_site_fract_z
 _atom_site_occupancy
  K  K0  1  0.000000  0.000000  0.000000  1
  K  K1  1  0.617956  0.382044  0.000000  1
  K  K2  1  0.382044  0.617956  0.000000  1
  K  K3  1  0.803266  0.196733  0.500000  1
  K  K4  1  0.196733  0.803266  0.500000  1
  Bi  Bi5  1  0.729559  0.270441  0.000000  1
  Bi  Bi6  1  0.270441  0.729559  0.000000  1
  Bi  Bi7  1  0.913253  0.086747  0.500000  1
  Bi  Bi8  1  0.547122  0.452877  0.500000  1
  Bi  Bi9  1  0.452877  0.547122  0.500000  1
  Bi  Bi10  1  0.086747  0.913253  0.500000  1
