# generated using pymatgen
data_Dy7Y5Co5Sn
_symmetry_space_group_name_H-M   'P 1'
_cell_length_a   8.31827317
_cell_length_b   8.32422357
_cell_length_c   8.31827350
_cell_angle_alpha   107.17718444
_cell_angle_beta   110.58862645
_cell_angle_gamma   110.64355346
_symmetry_Int_Tables_number   1
_chemical_formula_structural   Dy7Y5Co5Sn
_chemical_formula_sum   'Dy7 Y5 Co5 Sn1'
_cell_volume   443.02020807
_cell_formula_units_Z   1
loop_
 _symmetry_equiv_pos_site_id
 _symmetry_equiv_pos_as_xyz
  1  'x, y, z'
loop_
 _atom_site_type_symbol
 _atom_site_label
 _atom_site_symmetry_multiplicity
 _atom_site_fract_x
 _atom_site_fract_y
 _atom_site_fract_z
 _atom_site_occupancy
  Dy  Dy0  1  0.307327  0.993861  0.686533  1
  Dy  Dy1  1  0.692864  0.379367  0.686504  1
  Dy  Dy2  1  0.692970  0.007109  0.314140  1
  Dy  Dy3  1  0.192357  0.206899  0.400180  1
  Dy  Dy4  1  0.807572  0.792878  0.600220  1
  Dy  Dy5  1  0.192658  0.792878  0.985305  1
  Dy  Dy6  1  0.806719  0.206899  0.014543  1
  Y  Y7  1  0.478976  0.292350  0.186381  1
  Y  Y8  1  0.105969  0.292350  0.813373  1
  Y  Y9  1  0.893611  0.707576  0.186334  1
  Y  Y10  1  0.521242  0.707576  0.813965  1
  Y  Y11  1  0.305036  0.619154  0.314118  1
  Co  Co12  1  0.500668  0.611319  0.110651  1
  Co  Co13  1  0.499791  0.386808  0.887018  1
  Co  Co14  1  0.379075  0.001239  0.378440  1
  Co  Co15  1  0.622799  0.001239  0.622165  1
  Co  Co16  1  0.000379  0.000462  0.000083  1
  Sn  Sn17  1  0.999986  0.500035  0.500049  1
