# generated using pymatgen
data_Pr16Mg3AgIr3Pt
_symmetry_space_group_name_H-M   'P 1'
_cell_length_a   10.05651987
_cell_length_b   10.05651996
_cell_length_c   10.05652173
_cell_angle_alpha   60.45830059
_cell_angle_beta   60.45829961
_cell_angle_gamma   60.45829830
_symmetry_Int_Tables_number   1
_chemical_formula_structural   Pr16Mg3AgIr3Pt
_chemical_formula_sum   'Pr16 Mg3 Ag1 Ir3 Pt1'
_cell_volume   726.61527428
_cell_formula_units_Z   1
loop_
 _symmetry_equiv_pos_site_id
 _symmetry_equiv_pos_as_xyz
  1  'x, y, z'
loop_
 _atom_site_type_symbol
 _atom_site_label
 _atom_site_symmetry_multiplicity
 _atom_site_fract_x
 _atom_site_fract_y
 _atom_site_fract_z
 _atom_site_occupancy
  Pr  Pr0  1  0.345849  0.345849  0.345849  1
  Pr  Pr1  1  0.350186  0.350186  0.955615  1
  Pr  Pr2  1  0.350186  0.955615  0.350186  1
  Pr  Pr3  1  0.955615  0.350186  0.350186  1
  Pr  Pr4  1  0.807143  0.189290  0.189290  1
  Pr  Pr5  1  0.188191  0.809830  0.809830  1
  Pr  Pr6  1  0.189290  0.807143  0.189290  1
  Pr  Pr7  1  0.809830  0.188191  0.809830  1
  Pr  Pr8  1  0.189290  0.189290  0.807143  1
  Pr  Pr9  1  0.809830  0.809830  0.188191  1
  Pr  Pr10  1  0.935116  0.561822  0.561822  1
  Pr  Pr11  1  0.562734  0.936894  0.936894  1
  Pr  Pr12  1  0.561822  0.935116  0.561822  1
  Pr  Pr13  1  0.936894  0.562734  0.936894  1
  Pr  Pr14  1  0.561822  0.561822  0.935116  1
  Pr  Pr15  1  0.936894  0.936894  0.562734  1
  Mg  Mg16  1  0.579559  0.579559  0.267492  1
  Mg  Mg17  1  0.579559  0.267492  0.579559  1
  Mg  Mg18  1  0.267492  0.579559  0.579559  1
  Ag  Ag19  1  0.580780  0.580780  0.580780  1
  Ir  Ir20  1  0.142258  0.142258  0.574997  1
  Ir  Ir21  1  0.142258  0.574997  0.142258  1
  Ir  Ir22  1  0.574997  0.142258  0.142258  1
  Pt  Pt23  1  0.142408  0.142408  0.142408  1
