# generated using pymatgen
data_ThSc2Al7Ni2
_symmetry_space_group_name_H-M   'P 1'
_cell_length_a   8.97020728
_cell_length_b   8.97020819
_cell_length_c   8.97020700
_cell_angle_alpha   35.10505721
_cell_angle_beta   35.10504899
_cell_angle_gamma   35.10505834
_symmetry_Int_Tables_number   1
_chemical_formula_structural   ThSc2Al7Ni2
_chemical_formula_sum   'Th1 Sc2 Al7 Ni2'
_cell_volume   213.17270647
_cell_formula_units_Z   1
loop_
 _symmetry_equiv_pos_site_id
 _symmetry_equiv_pos_as_xyz
  1  'x, y, z'
loop_
 _atom_site_type_symbol
 _atom_site_label
 _atom_site_symmetry_multiplicity
 _atom_site_fract_x
 _atom_site_fract_y
 _atom_site_fract_z
 _atom_site_occupancy
  Th  Th0  1  0.000000  0.000000  0.000000  1
  Sc  Sc1  1  0.856655  0.856655  0.856655  1
  Sc  Sc2  1  0.143345  0.143345  0.143345  1
  Al  Al3  1  0.418229  0.418229  0.925671  1
  Al  Al4  1  0.925671  0.418229  0.418229  1
  Al  Al5  1  0.418229  0.925671  0.418229  1
  Al  Al6  1  0.500000  0.500000  0.500000  1
  Al  Al7  1  0.581771  0.074329  0.581771  1
  Al  Al8  1  0.074329  0.581771  0.581771  1
  Al  Al9  1  0.581771  0.581771  0.074329  1
  Ni  Ni10  1  0.665147  0.665147  0.665147  1
  Ni  Ni11  1  0.334853  0.334853  0.334853  1
