# generated using pymatgen
data_SmCrMo3C4
_symmetry_space_group_name_H-M   'P 1'
_cell_length_a   5.97521501
_cell_length_b   5.97521457
_cell_length_c   6.18457240
_cell_angle_alpha   94.54174851
_cell_angle_beta   93.94668880
_cell_angle_gamma   147.86532528
_symmetry_Int_Tables_number   1
_chemical_formula_structural   SmCrMo3C4
_chemical_formula_sum   'Sm1 Cr1 Mo3 C4'
_cell_volume   113.17215969
_cell_formula_units_Z   1
loop_
 _symmetry_equiv_pos_site_id
 _symmetry_equiv_pos_as_xyz
  1  'x, y, z'
loop_
 _atom_site_type_symbol
 _atom_site_label
 _atom_site_symmetry_multiplicity
 _atom_site_fract_x
 _atom_site_fract_y
 _atom_site_fract_z
 _atom_site_occupancy
  Sm  Sm0  1  0.996964  0.998160  0.995124  1
  Cr  Cr1  1  0.189158  0.638149  0.827307  1
  Mo  Mo2  1  0.818859  0.367829  0.186686  1
  Mo  Mo3  1  0.626097  0.830444  0.456537  1
  Mo  Mo4  1  0.369474  0.178587  0.548062  1
  C  C5  1  0.398362  0.730023  0.128382  1
  C  C6  1  0.733294  0.601464  0.334755  1
  C  C7  1  0.259743  0.412221  0.671965  1
  C  C8  1  0.608054  0.243127  0.851181  1
