# generated using pymatgen
data_Nd2VP4Rh5
_symmetry_space_group_name_H-M   'P 1'
_cell_length_a   3.96696100
_cell_length_b   11.29994000
_cell_length_c   12.95565400
_cell_angle_alpha   90.00000000
_cell_angle_beta   90.00000000
_cell_angle_gamma   90.00000000
_symmetry_Int_Tables_number   1
_chemical_formula_structural   Nd2VP4Rh5
_chemical_formula_sum   'Nd6 V3 P12 Rh15'
_cell_volume   580.75560419
_cell_formula_units_Z   3
loop_
 _symmetry_equiv_pos_site_id
 _symmetry_equiv_pos_as_xyz
  1  'x, y, z'
loop_
 _atom_site_type_symbol
 _atom_site_label
 _atom_site_symmetry_multiplicity
 _atom_site_fract_x
 _atom_site_fract_y
 _atom_site_fract_z
 _atom_site_occupancy
  Nd  Nd0  1  0.000000  0.500000  0.517845  1
  Nd  Nd1  1  0.500000  0.000000  0.482630  1
  Nd  Nd2  1  0.500000  0.816624  0.200773  1
  Nd  Nd3  1  0.500000  0.183376  0.200773  1
  Nd  Nd4  1  0.000000  0.681169  0.795933  1
  Nd  Nd5  1  0.000000  0.318831  0.795933  1
  V  V6  1  0.500000  0.500000  0.159074  1
  V  V7  1  0.000000  0.000000  0.844786  1
  V  V8  1  0.000000  0.500000  0.986364  1
  P  P9  1  0.500000  0.500000  0.878139  1
  P  P10  1  0.000000  0.000000  0.118301  1
  P  P11  1  0.500000  0.500000  0.342306  1
  P  P12  1  0.000000  0.000000  0.662036  1
  P  P13  1  0.500000  0.309232  0.616129  1
  P  P14  1  0.500000  0.690768  0.616129  1
  P  P15  1  0.000000  0.188331  0.384196  1
  P  P16  1  0.000000  0.811669  0.384196  1
  P  P17  1  0.500000  0.847148  0.892256  1
  P  P18  1  0.500000  0.152852  0.892256  1
  P  P19  1  0.000000  0.648687  0.108946  1
  P  P20  1  0.000000  0.351313  0.108946  1
  Rh  Rh21  1  0.500000  0.500000  0.694117  1
  Rh  Rh22  1  0.000000  0.000000  0.299939  1
  Rh  Rh23  1  0.500000  0.000000  0.012802  1
  Rh  Rh24  1  0.500000  0.334231  0.991921  1
  Rh  Rh25  1  0.500000  0.665769  0.991921  1
  Rh  Rh26  1  0.000000  0.166249  0.006413  1
  Rh  Rh27  1  0.000000  0.833751  0.006413  1
  Rh  Rh28  1  0.500000  0.290277  0.431051  1
  Rh  Rh29  1  0.500000  0.709723  0.431051  1
  Rh  Rh30  1  0.000000  0.207379  0.569855  1
  Rh  Rh31  1  0.000000  0.792621  0.569855  1
  Rh  Rh32  1  0.500000  0.876987  0.711737  1
  Rh  Rh33  1  0.500000  0.123013  0.711737  1
  Rh  Rh34  1  0.000000  0.623839  0.291622  1
  Rh  Rh35  1  0.000000  0.376161  0.291622  1
