# generated using pymatgen
data_Y4Er6Hg3Ru
_symmetry_space_group_name_H-M   'P 1'
_cell_length_a   9.62630600
_cell_length_b   9.62676781
_cell_length_c   9.60012400
_cell_angle_alpha   90.00000000
_cell_angle_beta   90.00000000
_cell_angle_gamma   119.99813687
_symmetry_Int_Tables_number   1
_chemical_formula_structural   Y4Er6Hg3Ru
_chemical_formula_sum   'Y8 Er12 Hg6 Ru2'
_cell_volume   770.47009683
_cell_formula_units_Z   2
loop_
 _symmetry_equiv_pos_site_id
 _symmetry_equiv_pos_as_xyz
  1  'x, y, z'
loop_
 _atom_site_type_symbol
 _atom_site_label
 _atom_site_symmetry_multiplicity
 _atom_site_fract_x
 _atom_site_fract_y
 _atom_site_fract_z
 _atom_site_occupancy
  Y  Y0  1  0.000000  0.000000  0.500000  1
  Y  Y1  1  0.000000  0.000000  0.000000  1
  Y  Y2  1  0.540689  0.459321  0.250000  1
  Y  Y3  1  0.540660  0.081340  0.250000  1
  Y  Y4  1  0.918629  0.459331  0.250000  1
  Y  Y5  1  0.459311  0.540679  0.750000  1
  Y  Y6  1  0.459340  0.918660  0.750000  1
  Y  Y7  1  0.081371  0.540669  0.750000  1
  Er  Er8  1  0.210415  0.789596  0.439385  1
  Er  Er9  1  0.210417  0.420805  0.439373  1
  Er  Er10  1  0.579197  0.789593  0.439372  1
  Er  Er11  1  0.789585  0.210404  0.560615  1
  Er  Er12  1  0.789583  0.579195  0.560627  1
  Er  Er13  1  0.420803  0.210407  0.560628  1
  Er  Er14  1  0.789585  0.210404  0.939385  1
  Er  Er15  1  0.789583  0.579195  0.939373  1
  Er  Er16  1  0.420803  0.210407  0.939372  1
  Er  Er17  1  0.210415  0.789596  0.060615  1
  Er  Er18  1  0.210417  0.420805  0.060627  1
  Er  Er19  1  0.579197  0.789593  0.060628  1
  Hg  Hg20  1  0.881245  0.118728  0.250000  1
  Hg  Hg21  1  0.881252  0.762524  0.250000  1
  Hg  Hg22  1  0.237461  0.118723  0.250000  1
  Hg  Hg23  1  0.118755  0.881272  0.750000  1
  Hg  Hg24  1  0.118748  0.237476  0.750000  1
  Hg  Hg25  1  0.762539  0.881277  0.750000  1
  Ru  Ru26  1  0.333343  0.666666  0.250000  1
  Ru  Ru27  1  0.666657  0.333334  0.750000  1
