# generated using pymatgen
data_Ac3(MgPt)4
_symmetry_space_group_name_H-M   'P 1'
_cell_length_a   8.82489685
_cell_length_b   8.82489558
_cell_length_c   8.82489546
_cell_angle_alpha   151.55739382
_cell_angle_beta   124.97105343
_cell_angle_gamma   63.09855524
_symmetry_Int_Tables_number   1
_chemical_formula_structural   Ac3(MgPt)4
_chemical_formula_sum   'Ac3 Mg4 Pt4'
_cell_volume   265.88264603
_cell_formula_units_Z   1
loop_
 _symmetry_equiv_pos_site_id
 _symmetry_equiv_pos_as_xyz
  1  'x, y, z'
loop_
 _atom_site_type_symbol
 _atom_site_label
 _atom_site_symmetry_multiplicity
 _atom_site_fract_x
 _atom_site_fract_y
 _atom_site_fract_z
 _atom_site_occupancy
  Ac  Ac0  1  0.500000  0.000000  0.500000  1
  Ac  Ac1  1  0.880933  0.880933  0.000000  1
  Ac  Ac2  1  0.119067  0.119067  0.000000  1
  Mg  Mg3  1  0.486115  0.676749  0.809366  1
  Mg  Mg4  1  0.867382  0.676749  0.190634  1
  Mg  Mg5  1  0.132618  0.323251  0.809366  1
  Mg  Mg6  1  0.513885  0.323251  0.190634  1
  Pt  Pt7  1  0.276430  0.776430  0.500000  1
  Pt  Pt8  1  0.723570  0.223570  0.500000  1
  Pt  Pt9  1  0.799696  0.500000  0.299696  1
  Pt  Pt10  1  0.200304  0.500000  0.700304  1
