# generated using pymatgen
data_Cs4Tb11LuS20
_symmetry_space_group_name_H-M   'P 1'
_cell_length_a   4.02129500
_cell_length_b   12.09601319
_cell_length_c   21.45286429
_cell_angle_alpha   90.11677228
_cell_angle_beta   90.00000000
_cell_angle_gamma   90.00000000
_symmetry_Int_Tables_number   1
_chemical_formula_structural   Cs4Tb11LuS20
_chemical_formula_sum   'Cs4 Tb11 Lu1 S20'
_cell_volume   1043.50027844
_cell_formula_units_Z   1
loop_
 _symmetry_equiv_pos_site_id
 _symmetry_equiv_pos_as_xyz
  1  'x, y, z'
loop_
 _atom_site_type_symbol
 _atom_site_label
 _atom_site_symmetry_multiplicity
 _atom_site_fract_x
 _atom_site_fract_y
 _atom_site_fract_z
 _atom_site_occupancy
  Cs  Cs0  1  0.250000  0.853515  0.095170  1
  Cs  Cs1  1  0.750000  0.146702  0.905118  1
  Cs  Cs2  1  0.750000  0.352543  0.406483  1
  Cs  Cs3  1  0.250000  0.647491  0.594685  1
  Tb  Tb4  1  0.750000  0.797747  0.825329  1
  Tb  Tb5  1  0.250000  0.201906  0.174741  1
  Tb  Tb6  1  0.250000  0.296957  0.672762  1
  Tb  Tb7  1  0.750000  0.702658  0.326158  1
  Tb  Tb8  1  0.250000  0.959617  0.697110  1
  Tb  Tb9  1  0.750000  0.041908  0.303940  1
  Tb  Tb10  1  0.750000  0.458329  0.801932  1
  Tb  Tb11  1  0.250000  0.540957  0.197609  1
  Tb  Tb12  1  0.750000  0.389502  0.052158  1
  Tb  Tb13  1  0.250000  0.610230  0.947595  1
  Tb  Tb14  1  0.250000  0.891568  0.448425  1
  Lu  Lu15  1  0.750000  0.108307  0.552678  1
  S  S16  1  0.250000  0.956185  0.568976  1
  S  S17  1  0.750000  0.049629  0.432957  1
  S  S18  1  0.750000  0.452405  0.930698  1
  S  S19  1  0.250000  0.547349  0.068819  1
  S  S20  1  0.750000  0.762838  0.951846  1
  S  S21  1  0.250000  0.236875  0.048010  1
  S  S22  1  0.250000  0.254839  0.546964  1
  S  S23  1  0.750000  0.738802  0.452649  1
  S  S24  1  0.250000  0.946819  0.824216  1
  S  S25  1  0.750000  0.053154  0.176538  1
  S  S26  1  0.750000  0.445983  0.674359  1
  S  S27  1  0.250000  0.553689  0.324841  1
  S  S28  1  0.750000  0.126844  0.680299  1
  S  S29  1  0.250000  0.874061  0.318209  1
  S  S30  1  0.250000  0.626819  0.817061  1
  S  S31  1  0.750000  0.372993  0.182502  1
  S  S32  1  0.750000  0.688472  0.198940  1
  S  S33  1  0.250000  0.310925  0.800205  1
  S  S34  1  0.250000  0.189209  0.301978  1
  S  S35  1  0.750000  0.812174  0.698040  1
