# generated using pymatgen
data_Rb6Nb4S25
_symmetry_space_group_name_H-M   'P 1'
_cell_length_a   19.33756645
_cell_length_b   19.33756650
_cell_length_c   13.16524300
_cell_angle_alpha   80.93114927
_cell_angle_beta   80.93114925
_cell_angle_gamma   25.00755267
_symmetry_Int_Tables_number   1
_chemical_formula_structural   Rb6Nb4S25
_chemical_formula_sum   'Rb12 Nb8 S50'
_cell_volume   2053.84765852
_cell_formula_units_Z   2
loop_
 _symmetry_equiv_pos_site_id
 _symmetry_equiv_pos_as_xyz
  1  'x, y, z'
loop_
 _atom_site_type_symbol
 _atom_site_label
 _atom_site_symmetry_multiplicity
 _atom_site_fract_x
 _atom_site_fract_y
 _atom_site_fract_z
 _atom_site_occupancy
  Rb  Rb0  1  0.063293  0.358380  0.235774  1
  Rb  Rb1  1  0.650838  0.280457  0.107172  1
  Rb  Rb2  1  0.719543  0.349162  0.392828  1
  Rb  Rb3  1  0.348931  0.901079  0.137567  1
  Rb  Rb4  1  0.936707  0.641620  0.764226  1
  Rb  Rb5  1  0.098921  0.651069  0.362433  1
  Rb  Rb6  1  0.901079  0.348931  0.637567  1
  Rb  Rb7  1  0.280457  0.650838  0.607172  1
  Rb  Rb8  1  0.641620  0.936707  0.264226  1
  Rb  Rb9  1  0.651069  0.098921  0.862433  1
  Rb  Rb10  1  0.349162  0.719543  0.892828  1
  Rb  Rb11  1  0.358380  0.063293  0.735774  1
  Nb  Nb12  1  0.219476  0.605508  0.941968  1
  Nb  Nb13  1  0.516052  0.128309  0.590134  1
  Nb  Nb14  1  0.871691  0.483948  0.909866  1
  Nb  Nb15  1  0.483948  0.871691  0.409866  1
  Nb  Nb16  1  0.128309  0.516052  0.090134  1
  Nb  Nb17  1  0.394492  0.780524  0.558032  1
  Nb  Nb18  1  0.780524  0.394492  0.058032  1
  Nb  Nb19  1  0.605508  0.219476  0.441968  1
  S  S20  1  0.391766  0.225676  0.041723  1
  S  S21  1  0.028374  0.882568  0.935366  1
  S  S22  1  0.918413  0.483443  0.743323  1
  S  S23  1  0.484990  0.230419  0.373075  1
  S  S24  1  0.056067  0.215372  0.938679  1
  S  S25  1  0.770329  0.384395  0.875632  1
  S  S26  1  0.702657  0.070721  0.298554  1
  S  S27  1  0.483443  0.918413  0.243323  1
  S  S28  1  0.117432  0.971626  0.564634  1
  S  S29  1  0.943933  0.784628  0.061321  1
  S  S30  1  0.856681  0.772664  0.013172  1
  S  S31  1  0.515010  0.769581  0.626925  1
  S  S32  1  0.772664  0.856681  0.513172  1
  S  S33  1  0.422485  0.340759  0.596700  1
  S  S34  1  0.784628  0.943933  0.561321  1
  S  S35  1  0.774324  0.608234  0.458277  1
  S  S36  1  0.882568  0.028374  0.435366  1
  S  S37  1  0.769581  0.515010  0.126925  1
  S  S38  1  0.026793  0.061113  0.713159  1
  S  S39  1  0.615605  0.229671  0.624368  1
  S  S40  1  0.384395  0.770329  0.375632  1
  S  S41  1  0.577515  0.659241  0.403300  1
  S  S42  1  0.815399  0.638845  0.991996  1
  S  S43  1  0.973207  0.938887  0.286841  1
  S  S44  1  0.445532  0.457371  0.869583  1
  S  S45  1  0.229671  0.615605  0.124368  1
  S  S46  1  0.070721  0.702657  0.798554  1
  S  S47  1  0.061113  0.026793  0.213159  1
  S  S48  1  0.929279  0.297343  0.201446  1
  S  S49  1  0.184601  0.361155  0.008004  1
  S  S50  1  0.215372  0.056067  0.438679  1
  S  S51  1  0.608234  0.774324  0.958277  1
  S  S52  1  0.230419  0.484990  0.873075  1
  S  S53  1  0.542629  0.554468  0.630417  1
  S  S54  1  0.457371  0.445532  0.369583  1
  S  S55  1  0.143319  0.227336  0.986828  1
  S  S56  1  0.340759  0.422485  0.096700  1
  S  S57  1  0.163681  0.836319  0.250000  1
  S  S58  1  0.971626  0.117432  0.064634  1
  S  S59  1  0.361155  0.184601  0.508004  1
  S  S60  1  0.554468  0.542629  0.130417  1
  S  S61  1  0.836319  0.163681  0.750000  1
  S  S62  1  0.659241  0.577515  0.903300  1
  S  S63  1  0.938887  0.973207  0.786841  1
  S  S64  1  0.638845  0.815399  0.491996  1
  S  S65  1  0.227336  0.143319  0.486828  1
  S  S66  1  0.297343  0.929279  0.701446  1
  S  S67  1  0.516557  0.081587  0.756677  1
  S  S68  1  0.225676  0.391766  0.541723  1
  S  S69  1  0.081587  0.516557  0.256677  1
