# generated using pymatgen
data_Sm7Tm(SiI6)2
_symmetry_space_group_name_H-M   'P 1'
_cell_length_a   4.28073400
_cell_length_b   14.24418737
_cell_length_c   15.01938895
_cell_angle_alpha   89.71657891
_cell_angle_beta   90.00000000
_cell_angle_gamma   90.00000000
_symmetry_Int_Tables_number   1
_chemical_formula_structural   Sm7Tm(SiI6)2
_chemical_formula_sum   'Sm7 Tm1 Si2 I12'
_cell_volume   915.80470512
_cell_formula_units_Z   1
loop_
 _symmetry_equiv_pos_site_id
 _symmetry_equiv_pos_as_xyz
  1  'x, y, z'
loop_
 _atom_site_type_symbol
 _atom_site_label
 _atom_site_symmetry_multiplicity
 _atom_site_fract_x
 _atom_site_fract_y
 _atom_site_fract_z
 _atom_site_occupancy
  Sm  Sm0  1  0.500000  0.115467  0.345990  1
  Sm  Sm1  1  0.500000  0.885185  0.653384  1
  Sm  Sm2  1  0.500000  0.613448  0.152957  1
  Sm  Sm3  1  0.500000  0.385021  0.847958  1
  Sm  Sm4  1  0.000000  0.112741  0.575115  1
  Sm  Sm5  1  0.000000  0.887458  0.424383  1
  Sm  Sm6  1  0.000000  0.610487  0.926004  1
  Tm  Tm7  1  0.000000  0.390165  0.073366  1
  Si  Si8  1  0.500000  0.000274  0.499534  1
  Si  Si9  1  0.500000  0.496888  0.002014  1
  I  I10  1  0.500000  0.252373  0.158941  1
  I  I11  1  0.500000  0.754432  0.838463  1
  I  I12  1  0.500000  0.743686  0.337728  1
  I  I13  1  0.500000  0.255468  0.662889  1
  I  I14  1  0.000000  0.259944  0.413704  1
  I  I15  1  0.000000  0.740448  0.585957  1
  I  I16  1  0.000000  0.758604  0.085468  1
  I  I17  1  0.000000  0.242240  0.920063  1
  I  I18  1  0.000000  0.999779  0.239027  1
  I  I19  1  0.000000  0.001280  0.760252  1
  I  I20  1  0.000000  0.493325  0.256069  1
  I  I21  1  0.000000  0.501285  0.740734  1
