# generated using pymatgen
data_YbDy3NbOs7
_symmetry_space_group_name_H-M   'P 1'
_cell_length_a   5.43591200
_cell_length_b   5.43591073
_cell_length_c   8.66413800
_cell_angle_alpha   90.00000000
_cell_angle_beta   90.00000000
_cell_angle_gamma   119.99999553
_symmetry_Int_Tables_number   1
_chemical_formula_structural   YbDy3NbOs7
_chemical_formula_sum   'Yb1 Dy3 Nb1 Os7'
_cell_volume   221.71789465
_cell_formula_units_Z   1
loop_
 _symmetry_equiv_pos_site_id
 _symmetry_equiv_pos_as_xyz
  1  'x, y, z'
loop_
 _atom_site_type_symbol
 _atom_site_label
 _atom_site_symmetry_multiplicity
 _atom_site_fract_x
 _atom_site_fract_y
 _atom_site_fract_z
 _atom_site_occupancy
  Yb  Yb0  1  0.333333  0.666667  0.061051  1
  Dy  Dy1  1  0.333333  0.666667  0.420974  1
  Dy  Dy2  1  0.666667  0.333333  0.572287  1
  Dy  Dy3  1  0.666667  0.333333  0.942248  1
  Nb  Nb4  1  0.000000  0.000000  0.503661  1
  Os  Os5  1  0.000000  0.000000  0.998790  1
  Os  Os6  1  0.827341  0.172659  0.249012  1
  Os  Os7  1  0.827341  0.654682  0.249012  1
  Os  Os8  1  0.345318  0.172659  0.249012  1
  Os  Os9  1  0.174415  0.825585  0.751318  1
  Os  Os10  1  0.174415  0.348829  0.751318  1
  Os  Os11  1  0.651171  0.825585  0.751318  1
