# generated using pymatgen
data_SmU7(B6W)4
_symmetry_space_group_name_H-M   'P 1'
_cell_length_a   3.69542600
_cell_length_b   9.30848701
_cell_length_c   11.40076801
_cell_angle_alpha   89.99516871
_cell_angle_beta   90.00000000
_cell_angle_gamma   90.00000000
_symmetry_Int_Tables_number   1
_chemical_formula_structural   SmU7(B6W)4
_chemical_formula_sum   'Sm1 U7 B24 W4'
_cell_volume   392.17302124
_cell_formula_units_Z   1
loop_
 _symmetry_equiv_pos_site_id
 _symmetry_equiv_pos_as_xyz
  1  'x, y, z'
loop_
 _atom_site_type_symbol
 _atom_site_label
 _atom_site_symmetry_multiplicity
 _atom_site_fract_x
 _atom_site_fract_y
 _atom_site_fract_z
 _atom_site_occupancy
  Sm  Sm0  1  0.000000  0.335012  0.407981  1
  U  U1  1  0.000000  0.665028  0.592284  1
  U  U2  1  0.000000  0.834373  0.092263  1
  U  U3  1  0.000000  0.165245  0.907458  1
  U  U4  1  0.000000  0.956295  0.394706  1
  U  U5  1  0.000000  0.044124  0.605202  1
  U  U6  1  0.000000  0.456384  0.104802  1
  U  U7  1  0.000000  0.543747  0.895212  1
  B  B8  1  0.500000  0.554458  0.433631  1
  B  B9  1  0.500000  0.451746  0.569841  1
  B  B10  1  0.500000  0.049332  0.066055  1
  B  B11  1  0.500000  0.949911  0.932802  1
  B  B12  1  0.500000  0.744059  0.424660  1
  B  B13  1  0.500000  0.254491  0.577991  1
  B  B14  1  0.500000  0.243476  0.075228  1
  B  B15  1  0.500000  0.756481  0.924127  1
  B  B16  1  0.500000  0.804235  0.272657  1
  B  B17  1  0.500000  0.196053  0.728138  1
  B  B18  1  0.500000  0.302429  0.224176  1
  B  B19  1  0.500000  0.696352  0.772691  1
  B  B20  1  0.500000  0.645190  0.187140  1
  B  B21  1  0.500000  0.355297  0.813082  1
  B  B22  1  0.500000  0.141615  0.311359  1
  B  B23  1  0.500000  0.855269  0.687651  1
  B  B24  1  0.500000  0.985408  0.217770  1
  B  B25  1  0.500000  0.014170  0.781545  1
  B  B26  1  0.500000  0.488988  0.279092  1
  B  B27  1  0.500000  0.515220  0.718799  1
  B  B28  1  0.500000  0.642620  0.039126  1
  B  B29  1  0.500000  0.358158  0.960764  1
  B  B30  1  0.500000  0.135259  0.462356  1
  B  B31  1  0.500000  0.857871  0.539963  1
  W  W32  1  0.000000  0.649460  0.318771  1
  W  W33  1  0.000000  0.354897  0.683466  1
  W  W34  1  0.000000  0.142385  0.176741  1
  W  W35  1  0.000000  0.854963  0.820466  1
