# generated using pymatgen
data_Cs8NaLi3(DySb2)4
_symmetry_space_group_name_H-M   'P 1'
_cell_length_a   11.57746362
_cell_length_b   11.57746262
_cell_length_c   7.42098554
_cell_angle_alpha   90.08623558
_cell_angle_beta   89.91376771
_cell_angle_gamma   100.49048136
_symmetry_Int_Tables_number   1
_chemical_formula_structural   Cs8NaLi3(DySb2)4
_chemical_formula_sum   'Cs8 Na1 Li3 Dy4 Sb8'
_cell_volume   978.06350434
_cell_formula_units_Z   1
loop_
 _symmetry_equiv_pos_site_id
 _symmetry_equiv_pos_as_xyz
  1  'x, y, z'
loop_
 _atom_site_type_symbol
 _atom_site_label
 _atom_site_symmetry_multiplicity
 _atom_site_fract_x
 _atom_site_fract_y
 _atom_site_fract_z
 _atom_site_occupancy
  Cs  Cs0  1  0.071463  0.429319  0.249387  1
  Cs  Cs1  1  0.429319  0.071463  0.750613  1
  Cs  Cs2  1  0.929074  0.568885  0.749735  1
  Cs  Cs3  1  0.568885  0.929074  0.250265  1
  Cs  Cs4  1  0.674809  0.323487  0.211649  1
  Cs  Cs5  1  0.823208  0.178264  0.712606  1
  Cs  Cs6  1  0.323487  0.674809  0.788351  1
  Cs  Cs7  1  0.178264  0.823208  0.287394  1
  Na  Na8  1  0.882715  0.882715  0.500000  1
  Li  Li9  1  0.378981  0.378981  0.000000  1
  Li  Li10  1  0.124766  0.124766  0.500000  1
  Li  Li11  1  0.620321  0.620321  0.000000  1
  Dy  Dy12  1  0.131225  0.131225  0.000000  1
  Dy  Dy13  1  0.370391  0.370391  0.500000  1
  Dy  Dy14  1  0.869264  0.869264  0.000000  1
  Dy  Dy15  1  0.628991  0.628991  0.500000  1
  Sb  Sb16  1  0.836204  0.654017  0.240550  1
  Sb  Sb17  1  0.654017  0.836204  0.759450  1
  Sb  Sb18  1  0.160507  0.339562  0.748938  1
  Sb  Sb19  1  0.339562  0.160507  0.251062  1
  Sb  Sb20  1  0.908997  0.095927  0.223263  1
  Sb  Sb21  1  0.589012  0.410610  0.734208  1
  Sb  Sb22  1  0.095927  0.908997  0.776737  1
  Sb  Sb23  1  0.410610  0.589012  0.265792  1
