# generated using pymatgen
data_Tm5ScAl17Si7Os8
_symmetry_space_group_name_H-M   'P 1'
_cell_length_a   8.64695590
_cell_length_b   8.65717204
_cell_length_c   9.43772300
_cell_angle_alpha   90.00000000
_cell_angle_beta   90.00000000
_cell_angle_gamma   120.06734528
_symmetry_Int_Tables_number   1
_chemical_formula_structural   Tm5ScAl17Si7Os8
_chemical_formula_sum   'Tm5 Sc1 Al17 Si7 Os8'
_cell_volume   611.42336550
_cell_formula_units_Z   1
loop_
 _symmetry_equiv_pos_site_id
 _symmetry_equiv_pos_as_xyz
  1  'x, y, z'
loop_
 _atom_site_type_symbol
 _atom_site_label
 _atom_site_symmetry_multiplicity
 _atom_site_fract_x
 _atom_site_fract_y
 _atom_site_fract_z
 _atom_site_occupancy
  Tm  Tm0  1  0.193587  0.389932  0.250000  1
  Tm  Tm1  1  0.609631  0.806675  0.250000  1
  Tm  Tm2  1  0.388962  0.191755  0.750000  1
  Tm  Tm3  1  0.196384  0.804526  0.250000  1
  Tm  Tm4  1  0.801929  0.191974  0.750000  1
  Sc  Sc5  1  0.803998  0.608807  0.750000  1
  Al  Al6  1  0.164364  0.329791  0.579327  1
  Al  Al7  1  0.834391  0.671309  0.422784  1
  Al  Al8  1  0.672292  0.834341  0.579176  1
  Al  Al9  1  0.834391  0.671309  0.077216  1
  Al  Al10  1  0.330537  0.166494  0.422066  1
  Al  Al11  1  0.164364  0.329791  0.920673  1
  Al  Al12  1  0.161896  0.833515  0.578045  1
  Al  Al13  1  0.330537  0.166494  0.077934  1
  Al  Al14  1  0.835419  0.164613  0.421388  1
  Al  Al15  1  0.672292  0.834341  0.920824  1
  Al  Al16  1  0.835419  0.164613  0.078612  1
  Al  Al17  1  0.161896  0.833515  0.921955  1
  Al  Al18  1  0.122499  0.564951  0.750000  1
  Al  Al19  1  0.565137  0.435918  0.250000  1
  Al  Al20  1  0.440894  0.565924  0.750000  1
  Al  Al21  1  0.999847  0.999398  0.250000  1
  Al  Al22  1  0.996070  0.993131  0.750000  1
  Si  Si23  1  0.333711  0.665182  0.040072  1
  Si  Si24  1  0.668129  0.338613  0.956295  1
  Si  Si25  1  0.668129  0.338613  0.543705  1
  Si  Si26  1  0.333711  0.665182  0.459928  1
  Si  Si27  1  0.564667  0.124417  0.250000  1
  Si  Si28  1  0.436110  0.872831  0.750000  1
  Si  Si29  1  0.874754  0.435231  0.250000  1
  Os  Os30  1  0.501123  0.001480  0.000458  1
  Os  Os31  1  0.998506  0.499879  0.006270  1
  Os  Os32  1  0.501123  0.001480  0.499542  1
  Os  Os33  1  0.501242  0.500718  0.000009  1
  Os  Os34  1  0.998506  0.499879  0.493730  1
  Os  Os35  1  0.501242  0.500718  0.499991  1
  Os  Os36  1  0.001154  0.001327  0.000142  1
  Os  Os37  1  0.001154  0.001327  0.499858  1
