# generated using pymatgen
data_Li4Pr4IrPt3
_symmetry_space_group_name_H-M   'P 1'
_cell_length_a   4.15600200
_cell_length_b   7.26304338
_cell_length_c   8.57502407
_cell_angle_alpha   90.25346043
_cell_angle_beta   90.00000000
_cell_angle_gamma   90.00000000
_symmetry_Int_Tables_number   1
_chemical_formula_structural   Li4Pr4IrPt3
_chemical_formula_sum   'Li4 Pr4 Ir1 Pt3'
_cell_volume   258.83647956
_cell_formula_units_Z   1
loop_
 _symmetry_equiv_pos_site_id
 _symmetry_equiv_pos_as_xyz
  1  'x, y, z'
loop_
 _atom_site_type_symbol
 _atom_site_label
 _atom_site_symmetry_multiplicity
 _atom_site_fract_x
 _atom_site_fract_y
 _atom_site_fract_z
 _atom_site_occupancy
  Li  Li0  1  0.250000  0.127885  0.054072  1
  Li  Li1  1  0.750000  0.371680  0.558544  1
  Li  Li2  1  0.250000  0.628396  0.443505  1
  Li  Li3  1  0.750000  0.869497  0.943741  1
  Pr  Pr4  1  0.250000  0.547856  0.822493  1
  Pr  Pr5  1  0.250000  0.044207  0.681175  1
  Pr  Pr6  1  0.750000  0.953043  0.307986  1
  Pr  Pr7  1  0.750000  0.462723  0.183882  1
  Ir  Ir8  1  0.250000  0.746141  0.125548  1
  Pt  Pt9  1  0.250000  0.251369  0.380468  1
  Pt  Pt10  1  0.750000  0.748728  0.621783  1
  Pt  Pt11  1  0.750000  0.248475  0.876803  1
