# generated using pymatgen
data_Ho9Er3In2Fe2Os
_symmetry_space_group_name_H-M   'P 1'
_cell_length_a   8.34568572
_cell_length_b   8.34745435
_cell_length_c   8.34568402
_cell_angle_alpha   108.58328006
_cell_angle_beta   108.70750929
_cell_angle_gamma   111.12698751
_symmetry_Int_Tables_number   1
_chemical_formula_structural   Ho9Er3In2Fe2Os
_chemical_formula_sum   'Ho9 Er3 In2 Fe2 Os1'
_cell_volume   447.33057177
_cell_formula_units_Z   1
loop_
 _symmetry_equiv_pos_site_id
 _symmetry_equiv_pos_as_xyz
  1  'x, y, z'
loop_
 _atom_site_type_symbol
 _atom_site_label
 _atom_site_symmetry_multiplicity
 _atom_site_fract_x
 _atom_site_fract_y
 _atom_site_fract_z
 _atom_site_occupancy
  Ho  Ho0  1  0.308203  0.308176  0.615903  1
  Ho  Ho1  1  0.691480  0.692068  0.383752  1
  Ho  Ho2  1  0.308318  0.692068  0.000588  1
  Ho  Ho3  1  0.692272  0.308176  0.999973  1
  Ho  Ho4  1  0.430259  0.192451  0.238287  1
  Ho  Ho5  1  0.570091  0.807571  0.762224  1
  Ho  Ho6  1  0.954163  0.192451  0.762192  1
  Ho  Ho7  1  0.191534  0.953362  0.761829  1
  Ho  Ho8  1  0.045348  0.807571  0.237480  1
  Er  Er9  1  0.809047  0.046364  0.237316  1
  Er  Er10  1  0.191007  0.428602  0.237595  1
  Er  Er11  1  0.808615  0.571121  0.762506  1
  In  In12  1  0.499822  0.999903  0.500081  1
  In  In13  1  0.999425  0.499274  0.499848  1
  Fe  Fe14  1  0.387050  0.387215  0.000165  1
  Fe  Fe15  1  0.613540  0.613485  0.999944  1
  Os  Os16  1  0.999826  0.000142  0.000317  1
