# generated using pymatgen
data_CePa3Sn10
_symmetry_space_group_name_H-M   'P 1'
_cell_length_a   4.61229453
_cell_length_b   4.60922400
_cell_length_c   17.06213300
_cell_angle_alpha   90.00000000
_cell_angle_beta   82.23202429
_cell_angle_gamma   90.00000000
_symmetry_Int_Tables_number   1
_chemical_formula_structural   CePa3Sn10
_chemical_formula_sum   'Ce1 Pa3 Sn10'
_cell_volume   359.39703232
_cell_formula_units_Z   1
loop_
 _symmetry_equiv_pos_site_id
 _symmetry_equiv_pos_as_xyz
  1  'x, y, z'
loop_
 _atom_site_type_symbol
 _atom_site_label
 _atom_site_symmetry_multiplicity
 _atom_site_fract_x
 _atom_site_fract_y
 _atom_site_fract_z
 _atom_site_occupancy
  Ce  Ce0  1  0.569868  0.000000  0.860073  1
  Pa  Pa1  1  0.429150  0.000000  0.141353  1
  Pa  Pa2  1  0.293318  0.000000  0.412922  1
  Pa  Pa3  1  0.707519  0.000000  0.585134  1
  Sn  Sn4  1  0.499784  0.500000  0.000982  1
  Sn  Sn5  1  0.999665  0.000000  0.000948  1
  Sn  Sn6  1  0.928809  0.500000  0.141956  1
  Sn  Sn7  1  0.859548  0.000000  0.281047  1
  Sn  Sn8  1  0.359314  0.500000  0.282175  1
  Sn  Sn9  1  0.781678  0.500000  0.435664  1
  Sn  Sn10  1  0.218344  0.500000  0.564329  1
  Sn  Sn11  1  0.641439  0.500000  0.717181  1
  Sn  Sn12  1  0.140299  0.000000  0.718269  1
  Sn  Sn13  1  0.071274  0.500000  0.857967  1
