# generated using pymatgen
data_Dy16In4Os3Rh
_symmetry_space_group_name_H-M   'P 1'
_cell_length_a   9.69269070
_cell_length_b   9.59408451
_cell_length_c   9.69269000
_cell_angle_alpha   59.65942185
_cell_angle_beta   59.99999556
_cell_angle_gamma   59.65942135
_symmetry_Int_Tables_number   1
_chemical_formula_structural   Dy16In4Os3Rh
_chemical_formula_sum   'Dy16 In4 Os3 Rh1'
_cell_volume   634.04814770
_cell_formula_units_Z   1
loop_
 _symmetry_equiv_pos_site_id
 _symmetry_equiv_pos_as_xyz
  1  'x, y, z'
loop_
 _atom_site_type_symbol
 _atom_site_label
 _atom_site_symmetry_multiplicity
 _atom_site_fract_x
 _atom_site_fract_y
 _atom_site_fract_z
 _atom_site_occupancy
  Dy  Dy0  1  0.691022  0.311288  0.306668  1
  Dy  Dy1  1  0.693119  0.689350  0.308765  1
  Dy  Dy2  1  0.308765  0.689350  0.308765  1
  Dy  Dy3  1  0.935591  0.944704  0.559853  1
  Dy  Dy4  1  0.150858  0.150382  0.547902  1
  Dy  Dy5  1  0.559853  0.944704  0.559853  1
  Dy  Dy6  1  0.150858  0.150382  0.150858  1
  Dy  Dy7  1  0.306668  0.311288  0.691022  1
  Dy  Dy8  1  0.941076  0.560072  0.557775  1
  Dy  Dy9  1  0.557775  0.560072  0.941076  1
  Dy  Dy10  1  0.559853  0.944704  0.935591  1
  Dy  Dy11  1  0.941076  0.560072  0.941076  1
  Dy  Dy12  1  0.152911  0.541265  0.152911  1
  Dy  Dy13  1  0.308765  0.689350  0.693119  1
  Dy  Dy14  1  0.691022  0.311288  0.691022  1
  Dy  Dy15  1  0.547902  0.150382  0.150858  1
  In  In16  1  0.917495  0.918886  0.246125  1
  In  In17  1  0.246125  0.918886  0.917495  1
  In  In18  1  0.917623  0.247132  0.917623  1
  In  In19  1  0.917495  0.918886  0.917495  1
  Os  Os20  1  0.361163  0.355690  0.361163  1
  Os  Os21  1  0.921985  0.355690  0.361163  1
  Os  Os22  1  0.361163  0.355690  0.921985  1
  Rh  Rh23  1  0.359838  0.920487  0.359838  1
