# generated using pymatgen
data_YEr3Mn4F28
_symmetry_space_group_name_H-M   'P 1'
_cell_length_a   5.41125417
_cell_length_b   8.64366930
_cell_length_c   11.64774535
_cell_angle_alpha   62.68238843
_cell_angle_beta   89.97273264
_cell_angle_gamma   89.97993472
_symmetry_Int_Tables_number   1
_chemical_formula_structural   YEr3Mn4F28
_chemical_formula_sum   'Y1 Er3 Mn4 F28'
_cell_volume   484.04272090
_cell_formula_units_Z   1
loop_
 _symmetry_equiv_pos_site_id
 _symmetry_equiv_pos_as_xyz
  1  'x, y, z'
loop_
 _atom_site_type_symbol
 _atom_site_label
 _atom_site_symmetry_multiplicity
 _atom_site_fract_x
 _atom_site_fract_y
 _atom_site_fract_z
 _atom_site_occupancy
  Y  Y0  1  0.760907  0.810508  0.765023  1
  Er  Er1  1  0.260961  0.191550  0.734856  1
  Er  Er2  1  0.238822  0.189778  0.235149  1
  Er  Er3  1  0.739024  0.810312  0.264884  1
  Mn  Mn4  1  0.758819  0.272478  0.956954  1
  Mn  Mn5  1  0.258600  0.726363  0.542731  1
  Mn  Mn6  1  0.241400  0.726103  0.044588  1
  Mn  Mn7  1  0.740890  0.274248  0.455677  1
  F  F8  1  0.427672  0.703385  0.921854  1
  F  F9  1  0.929048  0.295974  0.578497  1
  F  F10  1  0.570399  0.295485  0.078966  1
  F  F11  1  0.070523  0.704118  0.420504  1
  F  F12  1  0.450679  0.277799  0.539315  1
  F  F13  1  0.951186  0.721482  0.962268  1
  F  F14  1  0.549807  0.722535  0.460091  1
  F  F15  1  0.049093  0.277047  0.039883  1
  F  F16  1  0.777130  0.511308  0.862753  1
  F  F17  1  0.276924  0.486981  0.637283  1
  F  F18  1  0.223686  0.486568  0.138191  1
  F  F19  1  0.723186  0.513545  0.362043  1
  F  F20  1  0.754213  0.034533  0.046621  1
  F  F21  1  0.254190  0.964534  0.453461  1
  F  F22  1  0.245564  0.964164  0.954180  1
  F  F23  1  0.745780  0.036342  0.545013  1
  F  F24  1  0.976996  0.724161  0.632117  1
  F  F25  1  0.477037  0.274718  0.866988  1
  F  F26  1  0.022740  0.274943  0.366396  1
  F  F27  1  0.523425  0.725202  0.133640  1
  F  F28  1  0.055956  0.744422  0.171979  1
  F  F29  1  0.555499  0.255835  0.328379  1
  F  F30  1  0.944097  0.255130  0.828891  1
  F  F31  1  0.441170  0.743467  0.671102  1
  F  F32  1  0.412064  0.969952  0.230364  1
  F  F33  1  0.912107  0.030096  0.269662  1
  F  F34  1  0.587852  0.033569  0.770062  1
  F  F35  1  0.092554  0.971363  0.729634  1
