# generated using pymatgen
data_TbHo7CdInNi2
_symmetry_space_group_name_H-M   'P 1'
_cell_length_a   9.53478754
_cell_length_b   9.53478639
_cell_length_c   9.53862900
_cell_angle_alpha   59.98667805
_cell_angle_beta   59.98668204
_cell_angle_gamma   60.06343672
_symmetry_Int_Tables_number   1
_chemical_formula_structural   TbHo7CdInNi2
_chemical_formula_sum   'Tb2 Ho14 Cd2 In2 Ni4'
_cell_volume   613.35678710
_cell_formula_units_Z   2
loop_
 _symmetry_equiv_pos_site_id
 _symmetry_equiv_pos_as_xyz
  1  'x, y, z'
loop_
 _atom_site_type_symbol
 _atom_site_label
 _atom_site_symmetry_multiplicity
 _atom_site_fract_x
 _atom_site_fract_y
 _atom_site_fract_z
 _atom_site_occupancy
  Tb  Tb0  1  0.347430  0.347430  0.348256  1
  Tb  Tb1  1  0.347430  0.347430  0.956882  1
  Ho  Ho2  1  0.350155  0.952365  0.348740  1
  Ho  Ho3  1  0.952365  0.350155  0.348740  1
  Ho  Ho4  1  0.812008  0.189069  0.188120  1
  Ho  Ho5  1  0.189069  0.812008  0.810802  1
  Ho  Ho6  1  0.189069  0.812008  0.188120  1
  Ho  Ho7  1  0.812008  0.189069  0.810802  1
  Ho  Ho8  1  0.187304  0.187304  0.812696  1
  Ho  Ho9  1  0.810471  0.810471  0.189529  1
  Ho  Ho10  1  0.937818  0.564299  0.563972  1
  Ho  Ho11  1  0.564299  0.937818  0.933911  1
  Ho  Ho12  1  0.564299  0.937818  0.563972  1
  Ho  Ho13  1  0.937818  0.564299  0.933911  1
  Ho  Ho14  1  0.564998  0.564998  0.935002  1
  Ho  Ho15  1  0.937833  0.937833  0.562167  1
  Cd  Cd16  1  0.580890  0.253951  0.582581  1
  Cd  Cd17  1  0.253951  0.580890  0.582581  1
  In  In18  1  0.581632  0.581632  0.582789  1
  In  In19  1  0.581632  0.581632  0.253946  1
  Ni  Ni20  1  0.141218  0.141218  0.144263  1
  Ni  Ni21  1  0.141218  0.141218  0.573302  1
  Ni  Ni22  1  0.140509  0.574574  0.142459  1
  Ni  Ni23  1  0.574574  0.140509  0.142459  1
