# generated using pymatgen
data_DyTm2Fe9
_symmetry_space_group_name_H-M   'P 1'
_cell_length_a   5.06944517
_cell_length_b   5.06944566
_cell_length_c   8.53842324
_cell_angle_alpha   72.73085974
_cell_angle_beta   72.73085479
_cell_angle_gamma   60.00000162
_symmetry_Int_Tables_number   1
_chemical_formula_structural   DyTm2Fe9
_chemical_formula_sum   'Dy1 Tm2 Fe9'
_cell_volume   178.51970922
_cell_formula_units_Z   1
loop_
 _symmetry_equiv_pos_site_id
 _symmetry_equiv_pos_as_xyz
  1  'x, y, z'
loop_
 _atom_site_type_symbol
 _atom_site_label
 _atom_site_symmetry_multiplicity
 _atom_site_fract_x
 _atom_site_fract_y
 _atom_site_fract_z
 _atom_site_occupancy
  Dy  Dy0  1  0.000000  0.000000  0.000000  1
  Tm  Tm1  1  0.141959  0.141959  0.574122  1
  Tm  Tm2  1  0.858041  0.858041  0.425878  1
  Fe  Fe3  1  0.081863  0.582019  0.754098  1
  Fe  Fe4  1  0.582019  0.582019  0.754098  1
  Fe  Fe5  1  0.582019  0.081863  0.754098  1
  Fe  Fe6  1  0.918137  0.417981  0.245902  1
  Fe  Fe7  1  0.417981  0.417981  0.245902  1
  Fe  Fe8  1  0.417981  0.918137  0.245902  1
  Fe  Fe9  1  0.332754  0.332754  0.001739  1
  Fe  Fe10  1  0.667246  0.667246  0.998261  1
  Fe  Fe11  1  0.500000  0.500000  0.500000  1
