# generated using pymatgen
data_Ca3NdBi3
_symmetry_space_group_name_H-M   'P 1'
_cell_length_a   8.41354095
_cell_length_b   8.46936114
_cell_length_c   8.41354084
_cell_angle_alpha   109.36900414
_cell_angle_beta   109.29805678
_cell_angle_gamma   109.47855343
_symmetry_Int_Tables_number   1
_chemical_formula_structural   Ca3NdBi3
_chemical_formula_sum   'Ca6 Nd2 Bi6'
_cell_volume   463.03515131
_cell_formula_units_Z   2
loop_
 _symmetry_equiv_pos_site_id
 _symmetry_equiv_pos_as_xyz
  1  'x, y, z'
loop_
 _atom_site_type_symbol
 _atom_site_label
 _atom_site_symmetry_multiplicity
 _atom_site_fract_x
 _atom_site_fract_y
 _atom_site_fract_z
 _atom_site_occupancy
  Ca  Ca0  1  0.999712  0.639007  0.502661  1
  Ca  Ca1  1  0.863653  0.860993  0.860705  1
  Ca  Ca2  1  0.499965  0.999799  0.143984  1
  Ca  Ca3  1  0.144185  0.500201  0.000165  1
  Ca  Ca4  1  0.999787  0.146300  0.500142  1
  Ca  Ca5  1  0.353842  0.353700  0.353487  1
  Nd  Nd6  1  0.639809  0.502713  0.003109  1
  Nd  Nd7  1  0.500398  0.997287  0.637097  1
  Bi  Bi8  1  0.868750  0.250000  0.118750  1
  Bi  Bi9  1  0.627187  0.750000  0.377187  1
  Bi  Bi10  1  0.254296  0.124636  0.872193  1
  Bi  Bi11  1  0.747558  0.375364  0.629660  1
  Bi  Bi12  1  0.121240  0.871562  0.251182  1
  Bi  Bi13  1  0.379621  0.628438  0.749678  1
