# generated using pymatgen
data_LaNdZn6Si2Ge
_symmetry_space_group_name_H-M   'P 1'
_cell_length_a   7.61475436
_cell_length_b   7.62939605
_cell_length_c   4.09777100
_cell_angle_alpha   90.00000000
_cell_angle_beta   90.00000000
_cell_angle_gamma   120.08184856
_symmetry_Int_Tables_number   1
_chemical_formula_structural   LaNdZn6Si2Ge
_chemical_formula_sum   'La1 Nd1 Zn6 Si2 Ge1'
_cell_volume   205.99922901
_cell_formula_units_Z   1
loop_
 _symmetry_equiv_pos_site_id
 _symmetry_equiv_pos_as_xyz
  1  'x, y, z'
loop_
 _atom_site_type_symbol
 _atom_site_label
 _atom_site_symmetry_multiplicity
 _atom_site_fract_x
 _atom_site_fract_y
 _atom_site_fract_z
 _atom_site_occupancy
  La  La0  1  0.665008  0.332906  0.000000  1
  Nd  Nd1  1  0.335328  0.668130  0.000000  1
  Zn  Zn2  1  0.702811  0.994897  0.500000  1
  Zn  Zn3  1  0.000480  0.714939  0.500000  1
  Zn  Zn4  1  0.191774  0.997815  0.000000  1
  Zn  Zn5  1  0.806836  0.807354  0.000000  1
  Zn  Zn6  1  0.296356  0.292618  0.500000  1
  Zn  Zn7  1  0.001323  0.188341  0.000000  1
  Si  Si8  1  0.376608  0.998739  0.500000  1
  Si  Si9  1  0.622123  0.623158  0.500000  1
  Ge  Ge10  1  0.001353  0.381103  0.500000  1
