# generated using pymatgen
data_DyTmNi2(B2Ir)2
_symmetry_space_group_name_H-M   'P 1'
_cell_length_a   5.06286228
_cell_length_b   5.06286191
_cell_length_c   7.27726819
_cell_angle_alpha   58.55091405
_cell_angle_beta   58.55091760
_cell_angle_gamma   61.82490120
_symmetry_Int_Tables_number   1
_chemical_formula_structural   DyTmNi2(B2Ir)2
_chemical_formula_sum   'Dy1 Tm1 Ni2 B4 Ir2'
_cell_volume   130.53348948
_cell_formula_units_Z   1
loop_
 _symmetry_equiv_pos_site_id
 _symmetry_equiv_pos_as_xyz
  1  'x, y, z'
loop_
 _atom_site_type_symbol
 _atom_site_label
 _atom_site_symmetry_multiplicity
 _atom_site_fract_x
 _atom_site_fract_y
 _atom_site_fract_z
 _atom_site_occupancy
  Dy  Dy0  1  0.873326  0.126674  0.750000  1
  Tm  Tm1  1  0.111237  0.888763  0.250000  1
  Ni  Ni2  1  0.528400  0.732462  0.793674  1
  Ni  Ni3  1  0.267538  0.471600  0.706326  1
  B  B4  1  0.168926  0.494091  0.004954  1
  B  B5  1  0.505909  0.831074  0.495046  1
  B  B6  1  0.841986  0.488691  0.971898  1
  B  B7  1  0.511309  0.158014  0.528102  1
  Ir  Ir8  1  0.461934  0.270566  0.198476  1
  Ir  Ir9  1  0.729434  0.538066  0.301524  1
