# generated using pymatgen
data_ScUMoO6
_symmetry_space_group_name_H-M   'P 1'
_cell_length_a   4.92241000
_cell_length_b   4.92241000
_cell_length_c   9.89051900
_cell_angle_alpha   90.00000000
_cell_angle_beta   90.00000000
_cell_angle_gamma   90.00000000
_symmetry_Int_Tables_number   1
_chemical_formula_structural   ScUMoO6
_chemical_formula_sum   'Sc2 U2 Mo2 O12'
_cell_volume   239.64846429
_cell_formula_units_Z   2
loop_
 _symmetry_equiv_pos_site_id
 _symmetry_equiv_pos_as_xyz
  1  'x, y, z'
loop_
 _atom_site_type_symbol
 _atom_site_label
 _atom_site_symmetry_multiplicity
 _atom_site_fract_x
 _atom_site_fract_y
 _atom_site_fract_z
 _atom_site_occupancy
  Sc  Sc0  1  0.000000  0.000000  0.334948  1
  Sc  Sc1  1  0.500000  0.500000  0.834948  1
  U  U2  1  0.000000  0.000000  0.999838  1
  U  U3  1  0.500000  0.500000  0.499838  1
  Mo  Mo4  1  0.000000  0.000000  0.666036  1
  Mo  Mo5  1  0.500000  0.500000  0.166036  1
  O  O6  1  0.689382  0.689382  0.664209  1
  O  O7  1  0.310618  0.310618  0.664209  1
  O  O8  1  0.693289  0.693289  0.337193  1
  O  O9  1  0.189382  0.810618  0.164209  1
  O  O10  1  0.810618  0.189382  0.164209  1
  O  O11  1  0.806711  0.193289  0.837193  1
  O  O12  1  0.303633  0.303633  0.998187  1
  O  O13  1  0.196367  0.803633  0.498187  1
  O  O14  1  0.803633  0.196367  0.498187  1
  O  O15  1  0.696367  0.696367  0.998187  1
  O  O16  1  0.306711  0.306711  0.337193  1
  O  O17  1  0.193289  0.806711  0.837193  1
