# generated using pymatgen
data_Dy7YCo3Si12Rh
_symmetry_space_group_name_H-M   'P 1'
_cell_length_a   8.02981200
_cell_length_b   8.02981331
_cell_length_c   7.91550500
_cell_angle_alpha   89.99994292
_cell_angle_beta   90.00000000
_cell_angle_gamma   119.99996165
_symmetry_Int_Tables_number   1
_chemical_formula_structural   Dy7YCo3Si12Rh
_chemical_formula_sum   'Dy7 Y1 Co3 Si12 Rh1'
_cell_volume   441.99794746
_cell_formula_units_Z   1
loop_
 _symmetry_equiv_pos_site_id
 _symmetry_equiv_pos_as_xyz
  1  'x, y, z'
loop_
 _atom_site_type_symbol
 _atom_site_label
 _atom_site_symmetry_multiplicity
 _atom_site_fract_x
 _atom_site_fract_y
 _atom_site_fract_z
 _atom_site_occupancy
  Dy  Dy0  1  0.000000  0.000000  0.751391  1
  Dy  Dy1  1  0.012596  0.506299  0.248493  1
  Dy  Dy2  1  0.493701  0.506298  0.248492  1
  Dy  Dy3  1  0.503908  0.007816  0.750043  1
  Dy  Dy4  1  0.493701  0.987404  0.248492  1
  Dy  Dy5  1  0.503908  0.496093  0.750042  1
  Dy  Dy6  1  0.992184  0.496092  0.750043  1
  Y  Y7  1  0.000000  0.000000  0.248926  1
  Co  Co8  1  0.333333  0.666667  0.969916  1
  Co  Co9  1  0.333333  0.666667  0.530172  1
  Co  Co10  1  0.666667  0.333334  0.030256  1
  Si  Si11  1  0.171177  0.342356  0.999906  1
  Si  Si12  1  0.657644  0.828823  0.999905  1
  Si  Si13  1  0.171993  0.343986  0.499390  1
  Si  Si14  1  0.343721  0.171860  0.999167  1
  Si  Si15  1  0.171177  0.828822  0.999906  1
  Si  Si16  1  0.656014  0.828007  0.499389  1
  Si  Si17  1  0.828139  0.656279  0.999167  1
  Si  Si18  1  0.332285  0.166143  0.502440  1
  Si  Si19  1  0.171993  0.828007  0.499390  1
  Si  Si20  1  0.833857  0.667715  0.502441  1
  Si  Si21  1  0.828139  0.171860  0.999167  1
  Si  Si22  1  0.833857  0.166143  0.502441  1
  Rh  Rh23  1  0.666667  0.333333  0.471024  1
