# generated using pymatgen
data_Yb9(PdPt2)2
_symmetry_space_group_name_H-M   'P 1'
_cell_length_a   7.50211869
_cell_length_b   7.52895988
_cell_length_c   7.50105381
_cell_angle_alpha   70.32879348
_cell_angle_beta   70.62069117
_cell_angle_gamma   70.56964202
_symmetry_Int_Tables_number   1
_chemical_formula_structural   Yb9(PdPt2)2
_chemical_formula_sum   'Yb9 Pd2 Pt4'
_cell_volume   364.52332073
_cell_formula_units_Z   1
loop_
 _symmetry_equiv_pos_site_id
 _symmetry_equiv_pos_as_xyz
  1  'x, y, z'
loop_
 _atom_site_type_symbol
 _atom_site_label
 _atom_site_symmetry_multiplicity
 _atom_site_fract_x
 _atom_site_fract_y
 _atom_site_fract_z
 _atom_site_occupancy
  Yb  Yb0  1  0.000582  0.999634  0.002772  1
  Yb  Yb1  1  0.801249  0.796727  0.803039  1
  Yb  Yb2  1  0.196738  0.197853  0.196794  1
  Yb  Yb3  1  0.326255  0.600598  0.852919  1
  Yb  Yb4  1  0.848788  0.334208  0.594807  1
  Yb  Yb5  1  0.602694  0.846333  0.330316  1
  Yb  Yb6  1  0.672882  0.403270  0.151113  1
  Yb  Yb7  1  0.149964  0.669232  0.400338  1
  Yb  Yb8  1  0.403845  0.149205  0.668757  1
  Pd  Pd9  1  0.160759  0.954825  0.590632  1
  Pd  Pd10  1  0.589416  0.165818  0.953835  1
  Pt  Pt11  1  0.954581  0.590149  0.165929  1
  Pt  Pt12  1  0.833927  0.047062  0.412003  1
  Pt  Pt13  1  0.409856  0.837854  0.046100  1
  Pt  Pt14  1  0.048466  0.407230  0.830647  1
