# generated using pymatgen
data_NaPr(CuO2)4
_symmetry_space_group_name_H-M   'P 1'
_cell_length_a   6.31181431
_cell_length_b   6.31181390
_cell_length_c   6.31181371
_cell_angle_alpha   124.51736996
_cell_angle_beta   124.51736393
_cell_angle_gamma   82.33897993
_symmetry_Int_Tables_number   1
_chemical_formula_structural   NaPr(CuO2)4
_chemical_formula_sum   'Na1 Pr1 Cu4 O8'
_cell_volume   164.05334181
_cell_formula_units_Z   1
loop_
 _symmetry_equiv_pos_site_id
 _symmetry_equiv_pos_as_xyz
  1  'x, y, z'
loop_
 _atom_site_type_symbol
 _atom_site_label
 _atom_site_symmetry_multiplicity
 _atom_site_fract_x
 _atom_site_fract_y
 _atom_site_fract_z
 _atom_site_occupancy
  Na  Na0  1  0.000000  0.000000  0.000000  1
  Pr  Pr1  1  0.750000  0.250000  0.500000  1
  Cu  Cu2  1  0.876322  0.630139  0.257760  1
  Cu  Cu3  1  0.381438  0.123678  0.753817  1
  Cu  Cu4  1  0.369861  0.627621  0.246183  1
  Cu  Cu5  1  0.372379  0.618562  0.742240  1
  O  O6  1  0.348358  0.967808  0.914143  1
  O  O7  1  0.686064  0.823300  0.408989  1
  O  O8  1  0.722924  0.313936  0.137236  1
  O  O9  1  0.565785  0.651642  0.619450  1
  O  O10  1  0.176700  0.585688  0.862764  1
  O  O11  1  0.032192  0.946335  0.380550  1
  O  O12  1  0.053665  0.434215  0.085857  1
  O  O13  1  0.414312  0.277076  0.591011  1
