# generated using pymatgen
data_DyTm3Zr4F28
_symmetry_space_group_name_H-M   'P 1'
_cell_length_a   5.70651774
_cell_length_b   9.02591367
_cell_length_c   12.14147063
_cell_angle_alpha   62.48249114
_cell_angle_beta   89.98746522
_cell_angle_gamma   90.02001572
_symmetry_Int_Tables_number   1
_chemical_formula_structural   DyTm3Zr4F28
_chemical_formula_sum   'Dy1 Tm3 Zr4 F28'
_cell_volume   554.61726535
_cell_formula_units_Z   1
loop_
 _symmetry_equiv_pos_site_id
 _symmetry_equiv_pos_as_xyz
  1  'x, y, z'
loop_
 _atom_site_type_symbol
 _atom_site_label
 _atom_site_symmetry_multiplicity
 _atom_site_fract_x
 _atom_site_fract_y
 _atom_site_fract_z
 _atom_site_occupancy
  Dy  Dy0  1  0.756684  0.817354  0.766075  1
  Tm  Tm1  1  0.743645  0.817785  0.266031  1
  Tm  Tm2  1  0.243611  0.183285  0.234045  1
  Tm  Tm3  1  0.257262  0.184727  0.733840  1
  Zr  Zr4  1  0.744085  0.276011  0.453809  1
  Zr  Zr5  1  0.244337  0.725427  0.047191  1
  Zr  Zr6  1  0.255039  0.725433  0.543320  1
  Zr  Zr7  1  0.755520  0.272693  0.955599  1
  F  F8  1  0.466753  0.710594  0.921886  1
  F  F9  1  0.968845  0.288868  0.579064  1
  F  F10  1  0.530278  0.287584  0.079933  1
  F  F11  1  0.030654  0.710902  0.418782  1
  F  F12  1  0.451348  0.280327  0.550759  1
  F  F13  1  0.950989  0.718833  0.952094  1
  F  F14  1  0.549241  0.720248  0.447788  1
  F  F15  1  0.048045  0.278589  0.052231  1
  F  F16  1  0.769179  0.525811  0.857949  1
  F  F17  1  0.267877  0.471788  0.641625  1
  F  F18  1  0.233602  0.471589  0.144099  1
  F  F19  1  0.732383  0.528971  0.356142  1
  F  F20  1  0.759527  0.019969  0.059791  1
  F  F21  1  0.259266  0.978501  0.439698  1
  F  F22  1  0.240229  0.978030  0.941206  1
  F  F23  1  0.739820  0.022860  0.557465  1
  F  F24  1  0.982032  0.733202  0.648543  1
  F  F25  1  0.482785  0.265622  0.849448  1
  F  F26  1  0.014738  0.265370  0.347777  1
  F  F27  1  0.515645  0.734977  0.152889  1
  F  F28  1  0.031402  0.747317  0.175376  1
  F  F29  1  0.529504  0.253612  0.325933  1
  F  F30  1  0.969502  0.251441  0.827057  1
  F  F31  1  0.465701  0.745717  0.672812  1
  F  F32  1  0.432469  0.975233  0.235680  1
  F  F33  1  0.932525  0.025509  0.264472  1
  F  F34  1  0.569987  0.030360  0.765154  1
  F  F35  1  0.075492  0.975460  0.734439  1
