# generated using pymatgen
data_Lu4Al16GaSiIr6
_symmetry_space_group_name_H-M   'P 1'
_cell_length_a   7.51275365
_cell_length_b   7.51275389
_cell_length_c   9.35540700
_cell_angle_alpha   90.00000000
_cell_angle_beta   90.00000000
_cell_angle_gamma   119.66862469
_symmetry_Int_Tables_number   1
_chemical_formula_structural   Lu4Al16GaSiIr6
_chemical_formula_sum   'Lu4 Al16 Ga1 Si1 Ir6'
_cell_volume   458.80922614
_cell_formula_units_Z   1
loop_
 _symmetry_equiv_pos_site_id
 _symmetry_equiv_pos_as_xyz
  1  'x, y, z'
loop_
 _atom_site_type_symbol
 _atom_site_label
 _atom_site_symmetry_multiplicity
 _atom_site_fract_x
 _atom_site_fract_y
 _atom_site_fract_z
 _atom_site_occupancy
  Lu  Lu0  1  0.995198  0.675352  0.250000  1
  Lu  Lu1  1  0.004208  0.328854  0.750000  1
  Lu  Lu2  1  0.675352  0.995198  0.250000  1
  Lu  Lu3  1  0.328854  0.004208  0.750000  1
  Al  Al4  1  0.000206  0.336713  0.077478  1
  Al  Al5  1  0.999095  0.665316  0.924630  1
  Al  Al6  1  0.999095  0.665316  0.575370  1
  Al  Al7  1  0.336713  0.000206  0.422522  1
  Al  Al8  1  0.000206  0.336713  0.422522  1
  Al  Al9  1  0.665316  0.999095  0.575370  1
  Al  Al10  1  0.665316  0.999095  0.924630  1
  Al  Al11  1  0.336713  0.000206  0.077478  1
  Al  Al12  1  0.332750  0.332750  0.558301  1
  Al  Al13  1  0.664314  0.664314  0.444051  1
  Al  Al14  1  0.664314  0.664314  0.055949  1
  Al  Al15  1  0.332750  0.332750  0.941699  1
  Al  Al16  1  0.336246  0.549014  0.250000  1
  Al  Al17  1  0.662065  0.450948  0.750000  1
  Al  Al18  1  0.549014  0.336246  0.250000  1
  Al  Al19  1  0.450948  0.662065  0.750000  1
  Ga  Ga20  1  0.873067  0.873067  0.750000  1
  Si  Si21  1  0.130603  0.130603  0.250000  1
  Ir  Ir22  1  0.670948  0.326799  0.000290  1
  Ir  Ir23  1  0.326799  0.670948  0.000290  1
  Ir  Ir24  1  0.326799  0.670948  0.499710  1
  Ir  Ir25  1  0.670948  0.326799  0.499710  1
  Ir  Ir26  1  0.001084  0.001084  0.009382  1
  Ir  Ir27  1  0.001084  0.001084  0.490618  1
