# generated using pymatgen
data_Th4InNi4Au
_symmetry_space_group_name_H-M   'P 1'
_cell_length_a   7.57428600
_cell_length_b   7.57428600
_cell_length_c   3.69479700
_cell_angle_alpha   90.00000000
_cell_angle_beta   90.00000000
_cell_angle_gamma   90.00000000
_symmetry_Int_Tables_number   1
_chemical_formula_structural   Th4InNi4Au
_chemical_formula_sum   'Th4 In1 Ni4 Au1'
_cell_volume   211.96979600
_cell_formula_units_Z   1
loop_
 _symmetry_equiv_pos_site_id
 _symmetry_equiv_pos_as_xyz
  1  'x, y, z'
loop_
 _atom_site_type_symbol
 _atom_site_label
 _atom_site_symmetry_multiplicity
 _atom_site_fract_x
 _atom_site_fract_y
 _atom_site_fract_z
 _atom_site_occupancy
  Th  Th0  1  0.668963  0.180105  0.500000  1
  Th  Th1  1  0.331037  0.819895  0.500000  1
  Th  Th2  1  0.180105  0.331037  0.500000  1
  Th  Th3  1  0.819895  0.668963  0.500000  1
  In  In4  1  0.000000  0.000000  0.000000  1
  Ni  Ni5  1  0.122726  0.624931  0.000000  1
  Ni  Ni6  1  0.877274  0.375069  0.000000  1
  Ni  Ni7  1  0.624931  0.877274  0.000000  1
  Ni  Ni8  1  0.375069  0.122726  0.000000  1
  Au  Au9  1  0.500000  0.500000  0.000000  1
