# generated using pymatgen
data_Nd16Cd4NiOsPd2
_symmetry_space_group_name_H-M   'P 1'
_cell_length_a   10.00379588
_cell_length_b   10.00379584
_cell_length_c   10.00944194
_cell_angle_alpha   59.31968103
_cell_angle_beta   59.31968780
_cell_angle_gamma   59.53873293
_symmetry_Int_Tables_number   1
_chemical_formula_structural   Nd16Cd4NiOsPd2
_chemical_formula_sum   'Nd16 Cd4 Ni1 Os1 Pd2'
_cell_volume   698.51563086
_cell_formula_units_Z   1
loop_
 _symmetry_equiv_pos_site_id
 _symmetry_equiv_pos_as_xyz
  1  'x, y, z'
loop_
 _atom_site_type_symbol
 _atom_site_label
 _atom_site_symmetry_multiplicity
 _atom_site_fract_x
 _atom_site_fract_y
 _atom_site_fract_z
 _atom_site_occupancy
  Nd  Nd0  1  0.346511  0.346511  0.359433  1
  Nd  Nd1  1  0.349081  0.349081  0.948257  1
  Nd  Nd2  1  0.344265  0.953391  0.353252  1
  Nd  Nd3  1  0.953391  0.344265  0.353252  1
  Nd  Nd4  1  0.816566  0.189793  0.188361  1
  Nd  Nd5  1  0.188017  0.815403  0.802180  1
  Nd  Nd6  1  0.189793  0.816566  0.188361  1
  Nd  Nd7  1  0.815403  0.188017  0.802180  1
  Nd  Nd8  1  0.188218  0.188218  0.812559  1
  Nd  Nd9  1  0.807700  0.807700  0.187556  1
  Nd  Nd10  1  0.935980  0.565412  0.565061  1
  Nd  Nd11  1  0.555218  0.938521  0.939381  1
  Nd  Nd12  1  0.565412  0.935980  0.565061  1
  Nd  Nd13  1  0.938521  0.555218  0.939381  1
  Nd  Nd14  1  0.563857  0.563857  0.938066  1
  Nd  Nd15  1  0.937254  0.937254  0.556851  1
  Cd  Cd16  1  0.580357  0.580357  0.579072  1
  Cd  Cd17  1  0.579951  0.579951  0.258616  1
  Cd  Cd18  1  0.580796  0.257575  0.579584  1
  Cd  Cd19  1  0.257575  0.580796  0.579584  1
  Ni  Ni20  1  0.144785  0.144785  0.573391  1
  Os  Os21  1  0.143277  0.143277  0.143191  1
  Pd  Pd22  1  0.145664  0.572407  0.143685  1
  Pd  Pd23  1  0.572407  0.145664  0.143685  1
