# generated using pymatgen
data_Hf8Nb2CuSn6Ge
_symmetry_space_group_name_H-M   'P 1'
_cell_length_a   8.57195100
_cell_length_b   8.57195133
_cell_length_c   5.74278400
_cell_angle_alpha   90.00000000
_cell_angle_beta   90.00000000
_cell_angle_gamma   119.99999485
_symmetry_Int_Tables_number   1
_chemical_formula_structural   Hf8Nb2CuSn6Ge
_chemical_formula_sum   'Hf8 Nb2 Cu1 Sn6 Ge1'
_cell_volume   365.43699622
_cell_formula_units_Z   1
loop_
 _symmetry_equiv_pos_site_id
 _symmetry_equiv_pos_as_xyz
  1  'x, y, z'
loop_
 _atom_site_type_symbol
 _atom_site_label
 _atom_site_symmetry_multiplicity
 _atom_site_fract_x
 _atom_site_fract_y
 _atom_site_fract_z
 _atom_site_occupancy
  Hf  Hf0  1  0.666667  0.333333  0.000000  1
  Hf  Hf1  1  0.333333  0.666667  0.500000  1
  Hf  Hf2  1  0.265294  0.000041  0.250627  1
  Hf  Hf3  1  0.265294  0.265253  0.749373  1
  Hf  Hf4  1  0.999959  0.734706  0.749373  1
  Hf  Hf5  1  0.999959  0.265253  0.250627  1
  Hf  Hf6  1  0.734747  0.734706  0.250627  1
  Hf  Hf7  1  0.734747  0.000041  0.749373  1
  Nb  Nb8  1  0.333333  0.666667  0.000000  1
  Nb  Nb9  1  0.666667  0.333333  0.500000  1
  Cu  Cu10  1  0.000000  0.000000  0.500000  1
  Sn  Sn11  1  0.610597  0.000259  0.251071  1
  Sn  Sn12  1  0.610597  0.610339  0.748929  1
  Sn  Sn13  1  0.999741  0.389403  0.748929  1
  Sn  Sn14  1  0.999741  0.610339  0.251071  1
  Sn  Sn15  1  0.389661  0.389403  0.251071  1
  Sn  Sn16  1  0.389661  0.000259  0.748929  1
  Ge  Ge17  1  0.000000  0.000000  0.000000  1
