# generated using pymatgen
data_Tb3TmGa18(PdRh2)2
_symmetry_space_group_name_H-M   'P 1'
_cell_length_a   7.61946586
_cell_length_b   7.62071459
_cell_length_c   9.52556800
_cell_angle_alpha   90.00000000
_cell_angle_beta   90.00000000
_cell_angle_gamma   119.73702667
_symmetry_Int_Tables_number   1
_chemical_formula_structural   Tb3TmGa18(PdRh2)2
_chemical_formula_sum   'Tb3 Tm1 Ga18 Pd2 Rh4'
_cell_volume   480.27113256
_cell_formula_units_Z   1
loop_
 _symmetry_equiv_pos_site_id
 _symmetry_equiv_pos_as_xyz
  1  'x, y, z'
loop_
 _atom_site_type_symbol
 _atom_site_label
 _atom_site_symmetry_multiplicity
 _atom_site_fract_x
 _atom_site_fract_y
 _atom_site_fract_z
 _atom_site_occupancy
  Tb  Tb0  1  0.996974  0.672182  0.250000  1
  Tb  Tb1  1  0.002972  0.327752  0.750000  1
  Tb  Tb2  1  0.671873  0.996742  0.250000  1
  Tm  Tm3  1  0.327587  0.003111  0.750000  1
  Ga  Ga4  1  0.133429  0.132640  0.250000  1
  Ga  Ga5  1  0.868573  0.867674  0.750000  1
  Ga  Ga6  1  0.000173  0.338853  0.080128  1
  Ga  Ga7  1  0.001836  0.662768  0.918233  1
  Ga  Ga8  1  0.001836  0.662768  0.581767  1
  Ga  Ga9  1  0.338336  0.999980  0.421072  1
  Ga  Ga10  1  0.000173  0.338853  0.419872  1
  Ga  Ga11  1  0.660426  0.000995  0.581922  1
  Ga  Ga12  1  0.660426  0.000995  0.918078  1
  Ga  Ga13  1  0.338336  0.999980  0.078928  1
  Ga  Ga14  1  0.336148  0.335426  0.568279  1
  Ga  Ga15  1  0.662893  0.662989  0.433954  1
  Ga  Ga16  1  0.662893  0.662989  0.066046  1
  Ga  Ga17  1  0.336148  0.335426  0.931721  1
  Ga  Ga18  1  0.336764  0.547659  0.250000  1
  Ga  Ga19  1  0.662931  0.450464  0.750000  1
  Ga  Ga20  1  0.547556  0.336039  0.250000  1
  Ga  Ga21  1  0.451177  0.663298  0.750000  1
  Pd  Pd22  1  0.999895  0.000045  0.999835  1
  Pd  Pd23  1  0.999895  0.000045  0.500165  1
  Rh  Rh24  1  0.671578  0.328890  0.999618  1
  Rh  Rh25  1  0.328796  0.671272  0.999614  1
  Rh  Rh26  1  0.328796  0.671272  0.500386  1
  Rh  Rh27  1  0.671578  0.328890  0.500382  1
