# generated using pymatgen
data_Ho4TiIr3
_symmetry_space_group_name_H-M   'P 1'
_cell_length_a   10.70731100
_cell_length_b   10.70731100
_cell_length_c   6.13069900
_cell_angle_alpha   90.00000000
_cell_angle_beta   90.00000000
_cell_angle_gamma   90.00000000
_symmetry_Int_Tables_number   1
_chemical_formula_structural   Ho4TiIr3
_chemical_formula_sum   'Ho16 Ti4 Ir12'
_cell_volume   702.86323716
_cell_formula_units_Z   4
loop_
 _symmetry_equiv_pos_site_id
 _symmetry_equiv_pos_as_xyz
  1  'x, y, z'
loop_
 _atom_site_type_symbol
 _atom_site_label
 _atom_site_symmetry_multiplicity
 _atom_site_fract_x
 _atom_site_fract_y
 _atom_site_fract_z
 _atom_site_occupancy
  Ho  Ho0  1  0.286298  0.085250  0.372990  1
  Ho  Ho1  1  0.286298  0.914750  0.872990  1
  Ho  Ho2  1  0.713702  0.085250  0.872990  1
  Ho  Ho3  1  0.713702  0.914750  0.372990  1
  Ho  Ho4  1  0.585250  0.786298  0.872990  1
  Ho  Ho5  1  0.585250  0.213702  0.372990  1
  Ho  Ho6  1  0.414750  0.786298  0.372990  1
  Ho  Ho7  1  0.414750  0.213702  0.872990  1
  Ho  Ho8  1  0.213702  0.414750  0.627010  1
  Ho  Ho9  1  0.213702  0.585250  0.127010  1
  Ho  Ho10  1  0.786298  0.414750  0.127010  1
  Ho  Ho11  1  0.786298  0.585250  0.627010  1
  Ho  Ho12  1  0.914750  0.713702  0.127010  1
  Ho  Ho13  1  0.914750  0.286298  0.627010  1
  Ho  Ho14  1  0.085250  0.713702  0.627010  1
  Ho  Ho15  1  0.085250  0.286298  0.127010  1
  Ti  Ti16  1  0.000000  0.000000  0.500000  1
  Ti  Ti17  1  0.000000  0.000000  0.000000  1
  Ti  Ti18  1  0.500000  0.500000  0.000000  1
  Ti  Ti19  1  0.500000  0.500000  0.500000  1
  Ir  Ir20  1  0.862661  0.137339  0.250000  1
  Ir  Ir21  1  0.862661  0.862661  0.750000  1
  Ir  Ir22  1  0.137339  0.137339  0.750000  1
  Ir  Ir23  1  0.137339  0.862661  0.250000  1
  Ir  Ir24  1  0.637339  0.362661  0.750000  1
  Ir  Ir25  1  0.637339  0.637339  0.250000  1
  Ir  Ir26  1  0.362661  0.362661  0.250000  1
  Ir  Ir27  1  0.362661  0.637339  0.750000  1
  Ir  Ir28  1  0.500000  0.000000  0.117825  1
  Ir  Ir29  1  0.500000  0.000000  0.617825  1
  Ir  Ir30  1  0.000000  0.500000  0.882175  1
  Ir  Ir31  1  0.000000  0.500000  0.382175  1
