# generated using pymatgen
data_Ba2Mn11AlO24
_symmetry_space_group_name_H-M   'P 1'
_cell_length_a   8.25508512
_cell_length_b   8.25508572
_cell_length_c   9.89817706
_cell_angle_alpha   54.24941314
_cell_angle_beta   54.24940724
_cell_angle_gamma   64.73633026
_symmetry_Int_Tables_number   1
_chemical_formula_structural   Ba2Mn11AlO24
_chemical_formula_sum   'Ba2 Mn11 Al1 O24'
_cell_volume   440.51846056
_cell_formula_units_Z   1
loop_
 _symmetry_equiv_pos_site_id
 _symmetry_equiv_pos_as_xyz
  1  'x, y, z'
loop_
 _atom_site_type_symbol
 _atom_site_label
 _atom_site_symmetry_multiplicity
 _atom_site_fract_x
 _atom_site_fract_y
 _atom_site_fract_z
 _atom_site_occupancy
  Ba  Ba0  1  0.722092  0.284110  0.000110  1
  Ba  Ba1  1  0.284110  0.722092  0.000110  1
  Mn  Mn2  1  0.006130  0.671056  0.814823  1
  Mn  Mn3  1  0.671056  0.006130  0.814823  1
  Mn  Mn4  1  0.001023  0.330617  0.180042  1
  Mn  Mn5  1  0.663542  0.663542  0.185572  1
  Mn  Mn6  1  0.330617  0.001023  0.180042  1
  Mn  Mn7  1  0.148483  0.148483  0.518566  1
  Mn  Mn8  1  0.477282  0.813348  0.521761  1
  Mn  Mn9  1  0.813348  0.477282  0.521761  1
  Mn  Mn10  1  0.851248  0.851248  0.477513  1
  Mn  Mn11  1  0.186752  0.515767  0.480486  1
  Mn  Mn12  1  0.515767  0.186752  0.480486  1
  Al  Al13  1  0.337205  0.337205  0.814165  1
  O  O14  1  0.348442  0.348442  0.610976  1
  O  O15  1  0.011824  0.674507  0.609455  1
  O  O16  1  0.674507  0.011824  0.609455  1
  O  O17  1  0.989040  0.318534  0.387579  1
  O  O18  1  0.648706  0.648706  0.394199  1
  O  O19  1  0.318534  0.989040  0.387579  1
  O  O20  1  0.344729  0.344729  0.347933  1
  O  O21  1  0.011732  0.667220  0.356712  1
  O  O22  1  0.667220  0.011732  0.356712  1
  O  O23  1  0.997944  0.319574  0.644265  1
  O  O24  1  0.656608  0.656608  0.645613  1
  O  O25  1  0.319574  0.997944  0.644265  1
  O  O26  1  0.620456  0.294580  0.724722  1
  O  O27  1  0.294580  0.620456  0.724722  1
  O  O28  1  0.960556  0.960556  0.715819  1
  O  O29  1  0.710924  0.373240  0.273702  1
  O  O30  1  0.373240  0.710924  0.273702  1
  O  O31  1  0.043596  0.043596  0.275838  1
  O  O32  1  0.957833  0.623173  0.069802  1
  O  O33  1  0.623173  0.957833  0.069802  1
  O  O34  1  0.296337  0.296337  0.055179  1
  O  O35  1  0.371894  0.044577  0.944980  1
  O  O36  1  0.044577  0.371894  0.944980  1
  O  O37  1  0.705321  0.705321  0.941751  1
