# generated using pymatgen
data_Sr2La9In9Pt4
_symmetry_space_group_name_H-M   'P 1'
_cell_length_a   13.68045200
_cell_length_b   13.68045913
_cell_length_c   3.89565400
_cell_angle_alpha   90.00000000
_cell_angle_beta   90.00000000
_cell_angle_gamma   111.80337634
_symmetry_Int_Tables_number   1
_chemical_formula_structural   Sr2La9In9Pt4
_chemical_formula_sum   'Sr2 La9 In9 Pt4'
_cell_volume   676.93432854
_cell_formula_units_Z   1
loop_
 _symmetry_equiv_pos_site_id
 _symmetry_equiv_pos_as_xyz
  1  'x, y, z'
loop_
 _atom_site_type_symbol
 _atom_site_label
 _atom_site_symmetry_multiplicity
 _atom_site_fract_x
 _atom_site_fract_y
 _atom_site_fract_z
 _atom_site_occupancy
  Sr  Sr0  1  0.499939  0.499925  0.500000  1
  Sr  Sr1  1  0.659723  0.340327  0.500000  1
  La  La2  1  0.810268  0.811014  0.500000  1
  La  La3  1  0.189029  0.189908  0.500000  1
  La  La4  1  0.571159  0.919182  0.500000  1
  La  La5  1  0.426367  0.077788  0.500000  1
  La  La6  1  0.922287  0.573471  0.500000  1
  La  La7  1  0.080759  0.428882  0.500000  1
  La  La8  1  0.127023  0.872915  0.500000  1
  La  La9  1  0.872953  0.127249  0.500000  1
  La  La10  1  0.340521  0.659306  0.500000  1
  In  In11  1  0.337010  0.863918  0.000000  1
  In  In12  1  0.662124  0.132635  0.000000  1
  In  In13  1  0.867344  0.337874  0.000000  1
  In  In14  1  0.136010  0.662907  0.000000  1
  In  In15  1  0.576585  0.720505  0.000000  1
  In  In16  1  0.419922  0.277878  0.000000  1
  In  In17  1  0.722243  0.580088  0.000000  1
  In  In18  1  0.279377  0.423404  0.000000  1
  In  In19  1  0.000400  0.999738  0.000000  1
  Pt  Pt20  1  0.744823  0.948303  0.000000  1
  Pt  Pt21  1  0.254165  0.051745  0.000000  1
  Pt  Pt22  1  0.948325  0.745824  0.000000  1
  Pt  Pt23  1  0.051641  0.255215  0.000000  1
