# generated using pymatgen
data_Li3Ho2ThPt3
_symmetry_space_group_name_H-M   'P 1'
_cell_length_a   7.20182791
_cell_length_b   7.23917878
_cell_length_c   4.05040900
_cell_angle_alpha   90.00000000
_cell_angle_beta   90.00000000
_cell_angle_gamma   120.17171353
_symmetry_Int_Tables_number   1
_chemical_formula_structural   Li3Ho2ThPt3
_chemical_formula_sum   'Li3 Ho2 Th1 Pt3'
_cell_volume   182.56078309
_cell_formula_units_Z   1
loop_
 _symmetry_equiv_pos_site_id
 _symmetry_equiv_pos_as_xyz
  1  'x, y, z'
loop_
 _atom_site_type_symbol
 _atom_site_label
 _atom_site_symmetry_multiplicity
 _atom_site_fract_x
 _atom_site_fract_y
 _atom_site_fract_z
 _atom_site_occupancy
  Li  Li0  1  0.754904  0.762927  0.000000  1
  Li  Li1  1  0.245096  0.008023  0.000000  1
  Li  Li2  1  0.000000  0.228770  0.000000  1
  Ho  Ho3  1  0.400498  0.402419  0.500000  1
  Ho  Ho4  1  0.599502  0.001920  0.500000  1
  Th  Th5  1  0.000000  0.592336  0.500000  1
  Pt  Pt6  1  0.667039  0.336668  0.000000  1
  Pt  Pt7  1  0.332961  0.669628  0.000000  1
  Pt  Pt8  1  0.000000  0.997308  0.500000  1
