# generated using pymatgen
data_Tm3Sn3IrRh2
_symmetry_space_group_name_H-M   'P 1'
_cell_length_a   7.65334200
_cell_length_b   7.65334248
_cell_length_c   3.67510800
_cell_angle_alpha   90.00000000
_cell_angle_beta   90.00000000
_cell_angle_gamma   120.00001520
_symmetry_Int_Tables_number   1
_chemical_formula_structural   Tm3Sn3IrRh2
_chemical_formula_sum   'Tm3 Sn3 Ir1 Rh2'
_cell_volume   186.42448003
_cell_formula_units_Z   1
loop_
 _symmetry_equiv_pos_site_id
 _symmetry_equiv_pos_as_xyz
  1  'x, y, z'
loop_
 _atom_site_type_symbol
 _atom_site_label
 _atom_site_symmetry_multiplicity
 _atom_site_fract_x
 _atom_site_fract_y
 _atom_site_fract_z
 _atom_site_occupancy
  Tm  Tm0  1  0.997542  0.401659  0.500000  1
  Tm  Tm1  1  0.598341  0.595884  0.500000  1
  Tm  Tm2  1  0.404116  0.002458  0.500000  1
  Sn  Sn3  1  0.002806  0.734606  0.000000  1
  Sn  Sn4  1  0.265394  0.268200  0.000000  1
  Sn  Sn5  1  0.731800  0.997194  0.000000  1
  Ir  Ir6  1  0.666667  0.333333  0.000000  1
  Rh  Rh7  1  0.333333  0.666667  0.000000  1
  Rh  Rh8  1  0.000000  0.000000  0.500000  1
