# generated using pymatgen
data_U4Mo6P6Ru
_symmetry_space_group_name_H-M   'P 1'
_cell_length_a   7.04038724
_cell_length_b   7.04038591
_cell_length_c   7.04038600
_cell_angle_alpha   109.34997756
_cell_angle_beta   109.71400269
_cell_angle_gamma   109.34995524
_symmetry_Int_Tables_number   1
_chemical_formula_structural   U4Mo6P6Ru
_chemical_formula_sum   'U4 Mo6 P6 Ru1'
_cell_volume   268.63446990
_cell_formula_units_Z   1
loop_
 _symmetry_equiv_pos_site_id
 _symmetry_equiv_pos_as_xyz
  1  'x, y, z'
loop_
 _atom_site_type_symbol
 _atom_site_label
 _atom_site_symmetry_multiplicity
 _atom_site_fract_x
 _atom_site_fract_y
 _atom_site_fract_z
 _atom_site_occupancy
  U  U0  1  0.998390  0.996782  0.498390  1
  U  U1  1  0.501610  0.003218  0.001610  1
  U  U2  1  0.998390  0.500000  0.001610  1
  U  U3  1  0.501610  0.500000  0.498390  1
  Mo  Mo4  1  0.750000  0.500000  0.250000  1
  Mo  Mo5  1  0.497174  0.749132  0.246306  1
  Mo  Mo6  1  0.497174  0.250868  0.748043  1
  Mo  Mo7  1  0.753694  0.250868  0.502826  1
  Mo  Mo8  1  0.251957  0.749132  0.502826  1
  Mo  Mo9  1  0.000000  0.000000  0.000000  1
  P  P10  1  0.311261  0.000000  0.311261  1
  P  P11  1  0.001210  0.310196  0.311404  1
  P  P12  1  0.001210  0.689804  0.691014  1
  P  P13  1  0.308986  0.310196  0.998790  1
  P  P14  1  0.688596  0.689804  0.998790  1
  P  P15  1  0.688739  0.000000  0.688739  1
  Ru  Ru16  1  0.250000  0.500000  0.750000  1
