# generated using pymatgen
data_Eu2Ga6CuPt
_symmetry_space_group_name_H-M   'P 1'
_cell_length_a   6.09641755
_cell_length_b   6.09641818
_cell_length_c   5.95008700
_cell_angle_alpha   90.00000000
_cell_angle_beta   90.00000000
_cell_angle_gamma   117.46369302
_symmetry_Int_Tables_number   1
_chemical_formula_structural   Eu2Ga6CuPt
_chemical_formula_sum   'Eu2 Ga6 Cu1 Pt1'
_cell_volume   196.22071086
_cell_formula_units_Z   1
loop_
 _symmetry_equiv_pos_site_id
 _symmetry_equiv_pos_as_xyz
  1  'x, y, z'
loop_
 _atom_site_type_symbol
 _atom_site_label
 _atom_site_symmetry_multiplicity
 _atom_site_fract_x
 _atom_site_fract_y
 _atom_site_fract_z
 _atom_site_occupancy
  Eu  Eu0  1  0.234858  0.765142  0.750000  1
  Eu  Eu1  1  0.767468  0.232532  0.250000  1
  Ga  Ga2  1  0.664063  0.335937  0.750000  1
  Ga  Ga3  1  0.337913  0.662087  0.250000  1
  Ga  Ga4  1  0.722662  0.723385  0.994487  1
  Ga  Ga5  1  0.722662  0.723385  0.505513  1
  Ga  Ga6  1  0.276615  0.277338  0.994487  1
  Ga  Ga7  1  0.276615  0.277338  0.505513  1
  Cu  Cu8  1  0.896209  0.103791  0.750000  1
  Pt  Pt9  1  0.100933  0.899067  0.250000  1
