# generated using pymatgen
data_TbLu15(In3Os)2
_symmetry_space_group_name_H-M   'P 1'
_cell_length_a   10.19920500
_cell_length_b   10.19418374
_cell_length_c   6.94836022
_cell_angle_alpha   89.89050967
_cell_angle_beta   90.00000000
_cell_angle_gamma   120.01629190
_symmetry_Int_Tables_number   1
_chemical_formula_structural   TbLu15(In3Os)2
_chemical_formula_sum   'Tb1 Lu15 In6 Os2'
_cell_volume   625.54615162
_cell_formula_units_Z   1
loop_
 _symmetry_equiv_pos_site_id
 _symmetry_equiv_pos_as_xyz
  1  'x, y, z'
loop_
 _atom_site_type_symbol
 _atom_site_label
 _atom_site_symmetry_multiplicity
 _atom_site_fract_x
 _atom_site_fract_y
 _atom_site_fract_z
 _atom_site_occupancy
  Tb  Tb0  1  0.530722  0.061444  0.521415  1
  Lu  Lu1  1  0.937242  0.469094  0.522762  1
  Lu  Lu2  1  0.531853  0.469094  0.522762  1
  Lu  Lu3  1  0.467348  0.934697  0.022669  1
  Lu  Lu4  1  0.064077  0.532121  0.023170  1
  Lu  Lu5  1  0.468043  0.532121  0.023170  1
  Lu  Lu6  1  0.177831  0.355661  0.729625  1
  Lu  Lu7  1  0.645415  0.822070  0.730458  1
  Lu  Lu8  1  0.176656  0.822070  0.730458  1
  Lu  Lu9  1  0.822461  0.644923  0.228851  1
  Lu  Lu10  1  0.354673  0.178004  0.227748  1
  Lu  Lu11  1  0.823329  0.178004  0.227748  1
  Lu  Lu12  1  0.667408  0.334815  0.901336  1
  Lu  Lu13  1  0.332433  0.664867  0.400926  1
  Lu  Lu14  1  0.999991  0.999982  0.507484  1
  Lu  Lu15  1  0.999774  0.999549  0.007793  1
  In  In16  1  0.836603  0.673205  0.770830  1
  In  In17  1  0.325943  0.163960  0.771325  1
  In  In18  1  0.838018  0.163960  0.771325  1
  In  In19  1  0.163331  0.326663  0.270648  1
  In  In20  1  0.673084  0.836092  0.271822  1
  In  In21  1  0.163008  0.836092  0.271822  1
  Os  Os22  1  0.667498  0.334995  0.299276  1
  Os  Os23  1  0.333259  0.666520  0.800254  1
