# generated using pymatgen
data_Nd2Ni(Sb2Ir)2
_symmetry_space_group_name_H-M   'P 1'
_cell_length_a   4.53653600
_cell_length_b   11.22856500
_cell_length_c   16.08599400
_cell_angle_alpha   90.00000000
_cell_angle_beta   90.00000000
_cell_angle_gamma   90.00000000
_symmetry_Int_Tables_number   1
_chemical_formula_structural   Nd2Ni(Sb2Ir)2
_chemical_formula_sum   'Nd8 Ni4 Sb16 Ir8'
_cell_volume   819.40105986
_cell_formula_units_Z   4
loop_
 _symmetry_equiv_pos_site_id
 _symmetry_equiv_pos_as_xyz
  1  'x, y, z'
loop_
 _atom_site_type_symbol
 _atom_site_label
 _atom_site_symmetry_multiplicity
 _atom_site_fract_x
 _atom_site_fract_y
 _atom_site_fract_z
 _atom_site_occupancy
  Nd  Nd0  1  0.250000  0.746315  0.507929  1
  Nd  Nd1  1  0.250000  0.753685  0.007929  1
  Nd  Nd2  1  0.750000  0.253685  0.492071  1
  Nd  Nd3  1  0.750000  0.246315  0.992071  1
  Nd  Nd4  1  0.250000  0.589777  0.749886  1
  Nd  Nd5  1  0.250000  0.910223  0.249886  1
  Nd  Nd6  1  0.750000  0.410223  0.250114  1
  Nd  Nd7  1  0.750000  0.089777  0.750114  1
  Ni  Ni8  1  0.250000  0.468285  0.556837  1
  Ni  Ni9  1  0.250000  0.031715  0.056837  1
  Ni  Ni10  1  0.750000  0.531715  0.443163  1
  Ni  Ni11  1  0.750000  0.968285  0.943163  1
  Sb  Sb12  1  0.250000  0.278090  0.646657  1
  Sb  Sb13  1  0.250000  0.221910  0.146657  1
  Sb  Sb14  1  0.750000  0.721910  0.353343  1
  Sb  Sb15  1  0.750000  0.778090  0.853343  1
  Sb  Sb16  1  0.250000  0.887768  0.712589  1
  Sb  Sb17  1  0.250000  0.612232  0.212589  1
  Sb  Sb18  1  0.750000  0.112232  0.287411  1
  Sb  Sb19  1  0.750000  0.387768  0.787411  1
  Sb  Sb20  1  0.250000  0.066164  0.899772  1
  Sb  Sb21  1  0.250000  0.433836  0.399772  1
  Sb  Sb22  1  0.750000  0.933836  0.100228  1
  Sb  Sb23  1  0.750000  0.566164  0.600228  1
  Sb  Sb24  1  0.250000  0.445327  0.931778  1
  Sb  Sb25  1  0.250000  0.054673  0.431778  1
  Sb  Sb26  1  0.750000  0.554673  0.068222  1
  Sb  Sb27  1  0.750000  0.945327  0.568222  1
  Ir  Ir28  1  0.250000  0.057025  0.594515  1
  Ir  Ir29  1  0.250000  0.442975  0.094515  1
  Ir  Ir30  1  0.750000  0.942975  0.405485  1
  Ir  Ir31  1  0.750000  0.557025  0.905485  1
  Ir  Ir32  1  0.250000  0.275786  0.817500  1
  Ir  Ir33  1  0.250000  0.224214  0.317500  1
  Ir  Ir34  1  0.750000  0.724214  0.182500  1
  Ir  Ir35  1  0.750000  0.775786  0.682500  1
