# generated using pymatgen
data_TbDy7Re2(RuC4)2
_symmetry_space_group_name_H-M   'P 1'
_cell_length_a   5.11553700
_cell_length_b   6.53495711
_cell_length_c   9.84768801
_cell_angle_alpha   90.04350201
_cell_angle_beta   90.00000000
_cell_angle_gamma   90.00000000
_symmetry_Int_Tables_number   1
_chemical_formula_structural   TbDy7Re2(RuC4)2
_chemical_formula_sum   'Tb1 Dy7 Re2 Ru2 C8'
_cell_volume   329.20629252
_cell_formula_units_Z   1
loop_
 _symmetry_equiv_pos_site_id
 _symmetry_equiv_pos_as_xyz
  1  'x, y, z'
loop_
 _atom_site_type_symbol
 _atom_site_label
 _atom_site_symmetry_multiplicity
 _atom_site_fract_x
 _atom_site_fract_y
 _atom_site_fract_z
 _atom_site_occupancy
  Tb  Tb0  1  0.250000  0.529744  0.215287  1
  Dy  Dy1  1  0.750000  0.823437  0.054644  1
  Dy  Dy2  1  0.250000  0.676620  0.554728  1
  Dy  Dy3  1  0.750000  0.318437  0.443434  1
  Dy  Dy4  1  0.250000  0.181539  0.943180  1
  Dy  Dy5  1  0.750000  0.467730  0.784259  1
  Dy  Dy6  1  0.250000  0.032136  0.284329  1
  Dy  Dy7  1  0.750000  0.969925  0.715729  1
  Re  Re8  1  0.750000  0.778129  0.364679  1
  Re  Re9  1  0.250000  0.722101  0.864484  1
  Ru  Ru10  1  0.750000  0.277144  0.134573  1
  Ru  Ru11  1  0.250000  0.222486  0.634733  1
  C  C12  1  0.750000  0.176490  0.949833  1
  C  C13  1  0.250000  0.822970  0.050228  1
  C  C14  1  0.750000  0.678184  0.550656  1
  C  C15  1  0.250000  0.323068  0.450157  1
  C  C16  1  0.750000  0.042974  0.259998  1
  C  C17  1  0.250000  0.456955  0.759967  1
  C  C18  1  0.750000  0.544445  0.242691  1
  C  C19  1  0.250000  0.955487  0.742409  1
