# generated using pymatgen
data_Hf9NbCuRe3
_symmetry_space_group_name_H-M   'P 1'
_cell_length_a   8.47835400
_cell_length_b   8.70502277
_cell_length_c   8.70502201
_cell_angle_alpha   119.99448239
_cell_angle_beta   90.00000000
_cell_angle_gamma   90.00000000
_symmetry_Int_Tables_number   1
_chemical_formula_structural   Hf9NbCuRe3
_chemical_formula_sum   'Hf18 Nb2 Cu2 Re6'
_cell_volume   556.42432329
_cell_formula_units_Z   2
loop_
 _symmetry_equiv_pos_site_id
 _symmetry_equiv_pos_as_xyz
  1  'x, y, z'
loop_
 _atom_site_type_symbol
 _atom_site_label
 _atom_site_symmetry_multiplicity
 _atom_site_fract_x
 _atom_site_fract_y
 _atom_site_fract_z
 _atom_site_occupancy
  Hf  Hf0  1  0.553945  0.802570  0.605130  1
  Hf  Hf1  1  0.553936  0.802574  0.197426  1
  Hf  Hf2  1  0.553945  0.394870  0.197430  1
  Hf  Hf3  1  0.446055  0.197430  0.394870  1
  Hf  Hf4  1  0.446064  0.197426  0.802574  1
  Hf  Hf5  1  0.446055  0.605130  0.802570  1
  Hf  Hf6  1  0.053945  0.197430  0.394870  1
  Hf  Hf7  1  0.053936  0.197426  0.802574  1
  Hf  Hf8  1  0.053945  0.605130  0.802570  1
  Hf  Hf9  1  0.946055  0.802570  0.605130  1
  Hf  Hf10  1  0.946064  0.802574  0.197426  1
  Hf  Hf11  1  0.946055  0.394870  0.197430  1
  Hf  Hf12  1  0.750000  0.458839  0.917667  1
  Hf  Hf13  1  0.750000  0.458843  0.541157  1
  Hf  Hf14  1  0.750000  0.082333  0.541161  1
  Hf  Hf15  1  0.250000  0.541161  0.082333  1
  Hf  Hf16  1  0.250000  0.541157  0.458843  1
  Hf  Hf17  1  0.250000  0.917667  0.458839  1
  Nb  Nb18  1  0.500000  0.000000  0.000000  1
  Nb  Nb19  1  0.000000  0.000000  0.000000  1
  Cu  Cu20  1  0.750000  0.666682  0.333318  1
  Cu  Cu21  1  0.250000  0.333318  0.666682  1
  Re  Re22  1  0.750000  0.113877  0.227725  1
  Re  Re23  1  0.750000  0.113866  0.886134  1
  Re  Re24  1  0.750000  0.772275  0.886123  1
  Re  Re25  1  0.250000  0.886123  0.772275  1
  Re  Re26  1  0.250000  0.886134  0.113866  1
  Re  Re27  1  0.250000  0.227725  0.113877  1
