# generated using pymatgen
data_CaTbYb4(Si3Ru)8
_symmetry_space_group_name_H-M   'P 1'
_cell_length_a   10.16070983
_cell_length_b   10.16071059
_cell_length_c   8.14894059
_cell_angle_alpha   89.91947882
_cell_angle_beta   90.08052086
_cell_angle_gamma   132.70880138
_symmetry_Int_Tables_number   1
_chemical_formula_structural   CaTbYb4(Si3Ru)8
_chemical_formula_sum   'Ca1 Tb1 Yb4 Si24 Ru8'
_cell_volume   618.19298550
_cell_formula_units_Z   1
loop_
 _symmetry_equiv_pos_site_id
 _symmetry_equiv_pos_as_xyz
  1  'x, y, z'
loop_
 _atom_site_type_symbol
 _atom_site_label
 _atom_site_symmetry_multiplicity
 _atom_site_fract_x
 _atom_site_fract_y
 _atom_site_fract_z
 _atom_site_occupancy
  Ca  Ca0  1  0.501074  0.001074  0.750000  1
  Tb  Tb1  1  0.000520  0.500520  0.750000  1
  Yb  Yb2  1  0.499744  0.499732  0.499788  1
  Yb  Yb3  1  0.999732  0.999744  0.000212  1
  Yb  Yb4  1  0.999086  0.499086  0.250000  1
  Yb  Yb5  1  0.498134  0.998134  0.250000  1
  Si  Si6  1  0.793992  0.204089  0.498181  1
  Si  Si7  1  0.295295  0.706132  0.001068  1
  Si  Si8  1  0.206132  0.795295  0.498932  1
  Si  Si9  1  0.704089  0.293992  0.001819  1
  Si  Si10  1  0.332650  0.333372  0.832303  1
  Si  Si11  1  0.664790  0.667723  0.167920  1
  Si  Si12  1  0.167723  0.164790  0.332080  1
  Si  Si13  1  0.833372  0.832650  0.667697  1
  Si  Si14  1  0.123476  0.890920  0.730039  1
  Si  Si15  1  0.109355  0.876379  0.269813  1
  Si  Si16  1  0.608715  0.375598  0.230494  1
  Si  Si17  1  0.625117  0.393100  0.770112  1
  Si  Si18  1  0.875598  0.108715  0.269506  1
  Si  Si19  1  0.893100  0.125117  0.729888  1
  Si  Si20  1  0.390920  0.623476  0.769961  1
  Si  Si21  1  0.376379  0.609355  0.230187  1
  Si  Si22  1  0.347321  0.113617  0.505782  1
  Si  Si23  1  0.887283  0.654324  0.493025  1
  Si  Si24  1  0.386142  0.152963  0.008541  1
  Si  Si25  1  0.845679  0.612968  0.991952  1
  Si  Si26  1  0.652963  0.886142  0.491459  1
  Si  Si27  1  0.112968  0.345679  0.508048  1
  Si  Si28  1  0.613617  0.847321  0.994218  1
  Si  Si29  1  0.154324  0.387283  0.006975  1
  Ru  Ru30  1  0.671924  0.331778  0.500575  1
  Ru  Ru31  1  0.168384  0.829171  0.999954  1
  Ru  Ru32  1  0.329171  0.668384  0.500046  1
  Ru  Ru33  1  0.831778  0.171924  0.999425  1
  Ru  Ru34  1  0.126608  0.125699  0.624820  1
  Ru  Ru35  1  0.873350  0.873795  0.375123  1
  Ru  Ru36  1  0.373795  0.373350  0.124877  1
  Ru  Ru37  1  0.625699  0.626608  0.875180  1
