# generated using pymatgen
data_Cd21Pd4Au
_symmetry_space_group_name_H-M   'P 1'
_cell_length_a   8.82351632
_cell_length_b   8.83118124
_cell_length_c   8.83118042
_cell_angle_alpha   109.48879402
_cell_angle_beta   109.45363771
_cell_angle_gamma   109.45364481
_symmetry_Int_Tables_number   1
_chemical_formula_structural   Cd21Pd4Au
_chemical_formula_sum   'Cd21 Pd4 Au1'
_cell_volume   529.84828685
_cell_formula_units_Z   1
loop_
 _symmetry_equiv_pos_site_id
 _symmetry_equiv_pos_as_xyz
  1  'x, y, z'
loop_
 _atom_site_type_symbol
 _atom_site_label
 _atom_site_symmetry_multiplicity
 _atom_site_fract_x
 _atom_site_fract_y
 _atom_site_fract_z
 _atom_site_occupancy
  Cd  Cd0  1  0.650030  0.254430  0.000000  1
  Cd  Cd1  1  0.359405  0.357286  0.000000  1
  Cd  Cd2  1  0.644269  0.649715  0.000000  1
  Cd  Cd3  1  0.260557  0.649557  0.000000  1
  Cd  Cd4  1  0.996039  0.792747  0.000000  1
  Cd  Cd5  1  0.203292  0.207253  0.207253  1
  Cd  Cd6  1  0.650030  0.000000  0.254430  1
  Cd  Cd7  1  0.998909  0.647234  0.260269  1
  Cd  Cd8  1  0.610999  0.350443  0.350443  1
  Cd  Cd9  1  0.351675  0.613035  0.352766  1
  Cd  Cd10  1  0.359405  0.000000  0.357286  1
  Cd  Cd11  1  0.994554  0.350285  0.350285  1
  Cd  Cd12  1  0.738640  0.739731  0.386965  1
  Cd  Cd13  1  0.351675  0.352766  0.613035  1
  Cd  Cd14  1  0.644269  0.000000  0.649715  1
  Cd  Cd15  1  0.002120  0.642714  0.642714  1
  Cd  Cd16  1  0.260557  0.000000  0.649557  1
  Cd  Cd17  1  0.998909  0.260269  0.647234  1
  Cd  Cd18  1  0.395600  0.745570  0.745570  1
  Cd  Cd19  1  0.738640  0.386965  0.739731  1
  Cd  Cd20  1  0.996039  0.000000  0.792747  1
  Pd  Pd21  1  0.339160  0.000000  0.000000  1
  Pd  Pd22  1  0.005530  0.350055  0.000000  1
  Pd  Pd23  1  0.005530  0.000000  0.350055  1
  Pd  Pd24  1  0.655476  0.649945  0.649945  1
  Au  Au25  1  0.788691  0.000000  0.000000  1
