# generated using pymatgen
data_LaPr5B2(WO9)2
_symmetry_space_group_name_H-M   'P 1'
_cell_length_a   8.86146287
_cell_length_b   8.86363361
_cell_length_c   5.64362247
_cell_angle_alpha   89.98130810
_cell_angle_beta   90.19141909
_cell_angle_gamma   119.89177297
_symmetry_Int_Tables_number   1
_chemical_formula_structural   LaPr5B2(WO9)2
_chemical_formula_sum   'La1 Pr5 B2 W2 O18'
_cell_volume   384.30448857
_cell_formula_units_Z   1
loop_
 _symmetry_equiv_pos_site_id
 _symmetry_equiv_pos_as_xyz
  1  'x, y, z'
loop_
 _atom_site_type_symbol
 _atom_site_label
 _atom_site_symmetry_multiplicity
 _atom_site_fract_x
 _atom_site_fract_y
 _atom_site_fract_z
 _atom_site_occupancy
  La  La0  1  0.359790  0.081238  0.203731  1
  Pr  Pr1  1  0.919363  0.275933  0.201178  1
  Pr  Pr2  1  0.724537  0.644522  0.200473  1
  Pr  Pr3  1  0.275585  0.357141  0.701053  1
  Pr  Pr4  1  0.080568  0.723893  0.700593  1
  Pr  Pr5  1  0.644091  0.919704  0.700806  1
  B  B6  1  0.998557  0.999589  0.367096  1
  B  B7  1  0.000240  0.000366  0.865564  1
  W  W8  1  0.333064  0.665367  0.244855  1
  W  W9  1  0.668066  0.334712  0.742709  1
  O  O10  1  0.207161  0.466062  0.044361  1
  O  O11  1  0.259563  0.791719  0.044102  1
  O  O12  1  0.531525  0.739263  0.042153  1
  O  O13  1  0.124489  0.173833  0.361310  1
  O  O14  1  0.045230  0.872171  0.359242  1
  O  O15  1  0.824065  0.952335  0.357185  1
  O  O16  1  0.136417  0.519747  0.466563  1
  O  O17  1  0.479649  0.614929  0.464860  1
  O  O18  1  0.382961  0.860855  0.468904  1
  O  O19  1  0.794866  0.531941  0.539292  1
  O  O20  1  0.734980  0.204792  0.537336  1
  O  O21  1  0.467850  0.263939  0.542571  1
  O  O22  1  0.174455  0.047601  0.857251  1
  O  O23  1  0.952460  0.127160  0.858183  1
  O  O24  1  0.873250  0.826059  0.857611  1
  O  O25  1  0.618238  0.138075  0.962915  1
  O  O26  1  0.523901  0.387401  0.963496  1
  O  O27  1  0.865079  0.479659  0.963014  1
