# generated using pymatgen
data_HfNb3(SiIr)4
_symmetry_space_group_name_H-M   'P 1'
_cell_length_a   3.84717200
_cell_length_b   6.47740684
_cell_length_c   7.35411504
_cell_angle_alpha   90.18929938
_cell_angle_beta   90.00000000
_cell_angle_gamma   90.00000000
_symmetry_Int_Tables_number   1
_chemical_formula_structural   HfNb3(SiIr)4
_chemical_formula_sum   'Hf1 Nb3 Si4 Ir4'
_cell_volume   183.26132712
_cell_formula_units_Z   1
loop_
 _symmetry_equiv_pos_site_id
 _symmetry_equiv_pos_as_xyz
  1  'x, y, z'
loop_
 _atom_site_type_symbol
 _atom_site_label
 _atom_site_symmetry_multiplicity
 _atom_site_fract_x
 _atom_site_fract_y
 _atom_site_fract_z
 _atom_site_occupancy
  Hf  Hf0  1  0.750000  0.523420  0.823871  1
  Nb  Nb1  1  0.250000  0.976586  0.327170  1
  Nb  Nb2  1  0.750000  0.024469  0.671108  1
  Nb  Nb3  1  0.250000  0.476098  0.176650  1
  Si  Si4  1  0.250000  0.224839  0.878061  1
  Si  Si5  1  0.250000  0.734495  0.620361  1
  Si  Si6  1  0.750000  0.772712  0.127133  1
  Si  Si7  1  0.750000  0.270746  0.375016  1
  Ir  Ir8  1  0.250000  0.849914  0.937556  1
  Ir  Ir9  1  0.250000  0.353211  0.564559  1
  Ir  Ir10  1  0.750000  0.646747  0.436971  1
  Ir  Ir11  1  0.750000  0.146762  0.061543  1
