# generated using pymatgen
data_Tb4Gd6(GaSb)3
_symmetry_space_group_name_H-M   'P 1'
_cell_length_a   8.81116800
_cell_length_b   8.80831309
_cell_length_c   6.49071900
_cell_angle_alpha   90.00000000
_cell_angle_beta   90.00000000
_cell_angle_gamma   120.01072975
_symmetry_Int_Tables_number   1
_chemical_formula_structural   Tb4Gd6(GaSb)3
_chemical_formula_sum   'Tb4 Gd6 Ga3 Sb3'
_cell_volume   436.21711214
_cell_formula_units_Z   1
loop_
 _symmetry_equiv_pos_site_id
 _symmetry_equiv_pos_as_xyz
  1  'x, y, z'
loop_
 _atom_site_type_symbol
 _atom_site_label
 _atom_site_symmetry_multiplicity
 _atom_site_fract_x
 _atom_site_fract_y
 _atom_site_fract_z
 _atom_site_occupancy
  Tb  Tb0  1  0.327116  0.666984  0.002802  1
  Tb  Tb1  1  0.660132  0.333016  0.497198  1
  Tb  Tb2  1  0.660132  0.333016  0.002802  1
  Tb  Tb3  1  0.327116  0.666984  0.497198  1
  Gd  Gd4  1  0.235485  0.000000  0.250000  1
  Gd  Gd5  1  0.242023  0.231626  0.750000  1
  Gd  Gd6  1  0.010398  0.768374  0.750000  1
  Gd  Gd7  1  0.011509  0.247901  0.250000  1
  Gd  Gd8  1  0.763607  0.752099  0.250000  1
  Gd  Gd9  1  0.755557  0.000000  0.750000  1
  Ga  Ga10  1  0.999270  0.602562  0.250000  1
  Ga  Ga11  1  0.396708  0.397438  0.250000  1
  Ga  Ga12  1  0.399220  0.000000  0.750000  1
  Sb  Sb13  1  0.609356  0.000000  0.250000  1
  Sb  Sb14  1  0.604546  0.606716  0.750000  1
  Sb  Sb15  1  0.997830  0.393284  0.750000  1
