# generated using pymatgen
data_Ca3La13Cd4(CoRu)2
_symmetry_space_group_name_H-M   'P 1'
_cell_length_a   10.01990019
_cell_length_b   9.99969232
_cell_length_c   10.01858103
_cell_angle_alpha   60.21055703
_cell_angle_beta   60.56955041
_cell_angle_gamma   60.21657628
_symmetry_Int_Tables_number   1
_chemical_formula_structural   Ca3La13Cd4(CoRu)2
_chemical_formula_sum   'Ca3 La13 Cd4 Co2 Ru2'
_cell_volume   715.12559527
_cell_formula_units_Z   1
loop_
 _symmetry_equiv_pos_site_id
 _symmetry_equiv_pos_as_xyz
  1  'x, y, z'
loop_
 _atom_site_type_symbol
 _atom_site_label
 _atom_site_symmetry_multiplicity
 _atom_site_fract_x
 _atom_site_fract_y
 _atom_site_fract_z
 _atom_site_occupancy
  Ca  Ca0  1  0.935511  0.937400  0.563341  1
  Ca  Ca1  1  0.563563  0.936762  0.563562  1
  Ca  Ca2  1  0.563360  0.937373  0.935506  1
  La  La3  1  0.684353  0.693498  0.308810  1
  La  La4  1  0.159278  0.150315  0.538691  1
  La  La5  1  0.308814  0.693447  0.684408  1
  La  La6  1  0.157360  0.151324  0.157330  1
  La  La7  1  0.538678  0.150335  0.159235  1
  La  La8  1  0.308206  0.692648  0.308190  1
  La  La9  1  0.314232  0.310918  0.683596  1
  La  La10  1  0.689612  0.306473  0.689735  1
  La  La11  1  0.935438  0.560138  0.557337  1
  La  La12  1  0.557338  0.560152  0.935439  1
  La  La13  1  0.158898  0.533820  0.158816  1
  La  La14  1  0.683533  0.310906  0.314222  1
  La  La15  1  0.941140  0.560991  0.941164  1
  Cd  Cd16  1  0.235890  0.920921  0.923397  1
  Cd  Cd17  1  0.920796  0.922006  0.920786  1
  Cd  Cd18  1  0.923405  0.920910  0.235891  1
  Cd  Cd19  1  0.921975  0.237552  0.921978  1
  Co  Co20  1  0.362422  0.915786  0.362398  1
  Co  Co21  1  0.364675  0.356395  0.364662  1
  Ru  Ru22  1  0.910752  0.369973  0.360751  1
  Ru  Ru23  1  0.360763  0.369957  0.910750  1
