# generated using pymatgen
data_Ca3LaAl18(IrPt2)2
_symmetry_space_group_name_H-M   'P 1'
_cell_length_a   7.64979900
_cell_length_b   7.64196811
_cell_length_c   9.59474200
_cell_angle_alpha   90.00000000
_cell_angle_beta   90.00000000
_cell_angle_gamma   119.62134501
_symmetry_Int_Tables_number   1
_chemical_formula_structural   Ca3LaAl18(IrPt2)2
_chemical_formula_sum   'Ca3 La1 Al18 Ir2 Pt4'
_cell_volume   487.59994692
_cell_formula_units_Z   1
loop_
 _symmetry_equiv_pos_site_id
 _symmetry_equiv_pos_as_xyz
  1  'x, y, z'
loop_
 _atom_site_type_symbol
 _atom_site_label
 _atom_site_symmetry_multiplicity
 _atom_site_fract_x
 _atom_site_fract_y
 _atom_site_fract_z
 _atom_site_occupancy
  Ca  Ca0  1  0.993971  0.668377  0.250000  1
  Ca  Ca1  1  0.003906  0.330735  0.750000  1
  Ca  Ca2  1  0.669871  0.994926  0.250000  1
  La  La3  1  0.330657  0.003110  0.750000  1
  Al  Al4  1  0.124308  0.125883  0.250000  1
  Al  Al5  1  0.871354  0.872171  0.750000  1
  Al  Al6  1  0.999672  0.330740  0.074427  1
  Al  Al7  1  0.996633  0.665241  0.927340  1
  Al  Al8  1  0.996633  0.665241  0.572660  1
  Al  Al9  1  0.330825  0.999871  0.421264  1
  Al  Al10  1  0.999672  0.330740  0.425573  1
  Al  Al11  1  0.673038  0.001014  0.572627  1
  Al  Al12  1  0.673038  0.001014  0.927373  1
  Al  Al13  1  0.330825  0.999871  0.078736  1
  Al  Al14  1  0.329742  0.332781  0.551018  1
  Al  Al15  1  0.670861  0.671017  0.446239  1
  Al  Al16  1  0.670861  0.671017  0.053761  1
  Al  Al17  1  0.329742  0.332781  0.948982  1
  Al  Al18  1  0.338797  0.543614  0.250000  1
  Al  Al19  1  0.661265  0.458713  0.750000  1
  Al  Al20  1  0.544772  0.340787  0.250000  1
  Al  Al21  1  0.457287  0.659067  0.750000  1
  Ir  Ir22  1  0.001092  0.000066  0.999611  1
  Ir  Ir23  1  0.001092  0.000066  0.500389  1
  Pt  Pt24  1  0.670297  0.328962  0.000207  1
  Pt  Pt25  1  0.329746  0.671616  0.999855  1
  Pt  Pt26  1  0.329746  0.671616  0.500145  1
  Pt  Pt27  1  0.670297  0.328962  0.499793  1
