# generated using pymatgen
data_HfZr7Si16(Mo5W)2
_symmetry_space_group_name_H-M   'P 1'
_cell_length_a   6.62103828
_cell_length_b   6.77816805
_cell_length_c   12.67191200
_cell_angle_alpha   89.97505197
_cell_angle_beta   89.98547964
_cell_angle_gamma   90.14208976
_symmetry_Int_Tables_number   1
_chemical_formula_structural   HfZr7Si16(Mo5W)2
_chemical_formula_sum   'Hf1 Zr7 Si16 Mo10 W2'
_cell_volume   568.69471066
_cell_formula_units_Z   1
loop_
 _symmetry_equiv_pos_site_id
 _symmetry_equiv_pos_as_xyz
  1  'x, y, z'
loop_
 _atom_site_type_symbol
 _atom_site_label
 _atom_site_symmetry_multiplicity
 _atom_site_fract_x
 _atom_site_fract_y
 _atom_site_fract_z
 _atom_site_occupancy
  Hf  Hf0  1  0.505487  0.671717  0.593708  1
  Zr  Zr1  1  0.993546  0.172363  0.093305  1
  Zr  Zr2  1  0.006652  0.827509  0.906620  1
  Zr  Zr3  1  0.504205  0.671889  0.906638  1
  Zr  Zr4  1  0.006822  0.827461  0.593204  1
  Zr  Zr5  1  0.495980  0.327952  0.093713  1
  Zr  Zr6  1  0.993711  0.172715  0.406885  1
  Zr  Zr7  1  0.495758  0.328277  0.406661  1
  Si  Si8  1  0.031252  0.122691  0.749860  1
  Si  Si9  1  0.968185  0.877271  0.250083  1
  Si  Si10  1  0.466418  0.624675  0.249862  1
  Si  Si11  1  0.533039  0.375818  0.749834  1
  Si  Si12  1  0.302105  0.863114  0.749533  1
  Si  Si13  1  0.698682  0.136286  0.250226  1
  Si  Si14  1  0.200155  0.361599  0.249995  1
  Si  Si15  1  0.799399  0.638667  0.749770  1
  Si  Si16  1  0.167399  0.459148  0.542850  1
  Si  Si17  1  0.833436  0.541569  0.457541  1
  Si  Si18  1  0.333655  0.958714  0.456850  1
  Si  Si19  1  0.833827  0.541622  0.042663  1
  Si  Si20  1  0.666165  0.040338  0.543831  1
  Si  Si21  1  0.166228  0.458252  0.957182  1
  Si  Si22  1  0.666348  0.041191  0.956312  1
  Si  Si23  1  0.333753  0.958891  0.043568  1
  Mo  Mo24  1  0.333061  0.011686  0.250131  1
  Mo  Mo25  1  0.666516  0.987652  0.749414  1
  Mo  Mo26  1  0.329605  0.165402  0.623911  1
  Mo  Mo27  1  0.669315  0.833913  0.376748  1
  Mo  Mo28  1  0.168347  0.663751  0.376081  1
  Mo  Mo29  1  0.670319  0.834495  0.124051  1
  Mo  Mo30  1  0.830632  0.337332  0.623965  1
  Mo  Mo31  1  0.329738  0.165223  0.875760  1
  Mo  Mo32  1  0.831626  0.336720  0.875718  1
  Mo  Mo33  1  0.167989  0.663630  0.123969  1
  W  W34  1  0.167002  0.510273  0.749393  1
  W  W35  1  0.833644  0.490196  0.250167  1
