# generated using pymatgen
data_Eu(Al4Rh)2
_symmetry_space_group_name_H-M   'P 1'
_cell_length_a   4.10116300
_cell_length_b   12.81680600
_cell_length_c   14.86371700
_cell_angle_alpha   90.00000000
_cell_angle_beta   90.00000000
_cell_angle_gamma   90.00000000
_symmetry_Int_Tables_number   1
_chemical_formula_structural   Eu(Al4Rh)2
_chemical_formula_sum   'Eu4 Al32 Rh8'
_cell_volume   781.29360439
_cell_formula_units_Z   4
loop_
 _symmetry_equiv_pos_site_id
 _symmetry_equiv_pos_as_xyz
  1  'x, y, z'
loop_
 _atom_site_type_symbol
 _atom_site_label
 _atom_site_symmetry_multiplicity
 _atom_site_fract_x
 _atom_site_fract_y
 _atom_site_fract_z
 _atom_site_occupancy
  Eu  Eu0  1  0.000000  0.341462  0.319354  1
  Eu  Eu1  1  0.000000  0.658538  0.680646  1
  Eu  Eu2  1  0.000000  0.841462  0.180646  1
  Eu  Eu3  1  0.000000  0.158538  0.819354  1
  Al  Al4  1  0.000000  0.000000  0.000000  1
  Al  Al5  1  0.000000  0.500000  0.500000  1
  Al  Al6  1  0.500000  0.000000  0.500000  1
  Al  Al7  1  0.500000  0.500000  0.000000  1
  Al  Al8  1  0.500000  0.238098  0.175337  1
  Al  Al9  1  0.500000  0.761902  0.824663  1
  Al  Al10  1  0.500000  0.738098  0.324663  1
  Al  Al11  1  0.500000  0.261902  0.675337  1
  Al  Al12  1  0.500000  0.451507  0.182175  1
  Al  Al13  1  0.500000  0.548493  0.817825  1
  Al  Al14  1  0.500000  0.951507  0.317825  1
  Al  Al15  1  0.500000  0.048493  0.682175  1
  Al  Al16  1  0.500000  0.163668  0.377231  1
  Al  Al17  1  0.500000  0.836332  0.622769  1
  Al  Al18  1  0.500000  0.663668  0.122769  1
  Al  Al19  1  0.500000  0.336332  0.877231  1
  Al  Al20  1  0.000000  0.341066  0.044837  1
  Al  Al21  1  0.000000  0.658934  0.955163  1
  Al  Al22  1  0.000000  0.841066  0.455163  1
  Al  Al23  1  0.000000  0.158934  0.544837  1
  Al  Al24  1  0.000000  0.097097  0.251705  1
  Al  Al25  1  0.000000  0.902903  0.748295  1
  Al  Al26  1  0.000000  0.597097  0.248295  1
  Al  Al27  1  0.000000  0.402903  0.751705  1
  Al  Al28  1  0.500000  0.332639  0.488037  1
  Al  Al29  1  0.500000  0.667361  0.511963  1
  Al  Al30  1  0.500000  0.832639  0.011963  1
  Al  Al31  1  0.500000  0.167361  0.988037  1
  Al  Al32  1  0.500000  0.022808  0.132439  1
  Al  Al33  1  0.500000  0.977192  0.867561  1
  Al  Al34  1  0.500000  0.522808  0.367561  1
  Al  Al35  1  0.500000  0.477192  0.632439  1
  Rh  Rh36  1  0.000000  0.036633  0.404196  1
  Rh  Rh37  1  0.000000  0.963367  0.595804  1
  Rh  Rh38  1  0.000000  0.536633  0.095804  1
  Rh  Rh39  1  0.000000  0.463367  0.904196  1
  Rh  Rh40  1  0.000000  0.153419  0.095659  1
  Rh  Rh41  1  0.000000  0.846581  0.904341  1
  Rh  Rh42  1  0.000000  0.653419  0.404341  1
  Rh  Rh43  1  0.000000  0.346581  0.595659  1
