# generated using pymatgen
data_Nd2Si2P4Pd21
_symmetry_space_group_name_H-M   'P 1'
_cell_length_a   8.68664727
_cell_length_b   8.68665116
_cell_length_c   8.68516800
_cell_angle_alpha   60.00564642
_cell_angle_beta   60.00569654
_cell_angle_gamma   60.06292140
_symmetry_Int_Tables_number   1
_chemical_formula_structural   Nd2Si2P4Pd21
_chemical_formula_sum   'Nd2 Si2 P4 Pd21'
_cell_volume   463.67229589
_cell_formula_units_Z   1
loop_
 _symmetry_equiv_pos_site_id
 _symmetry_equiv_pos_as_xyz
  1  'x, y, z'
loop_
 _atom_site_type_symbol
 _atom_site_label
 _atom_site_symmetry_multiplicity
 _atom_site_fract_x
 _atom_site_fract_y
 _atom_site_fract_z
 _atom_site_occupancy
  Nd  Nd0  1  0.749936  0.749936  0.751181  1
  Nd  Nd1  1  0.250063  0.250063  0.251056  1
  Si  Si2  1  0.738669  0.261331  0.740245  1
  Si  Si3  1  0.261331  0.738669  0.740245  1
  P  P4  1  0.738306  0.738306  0.263620  1
  P  P5  1  0.260514  0.739486  0.262737  1
  P  P6  1  0.739486  0.260514  0.262737  1
  P  P7  1  0.261694  0.261694  0.740233  1
  Pd  Pd8  1  0.000000  0.000000  0.995906  1
  Pd  Pd9  1  0.613376  0.613376  0.159791  1
  Pd  Pd10  1  0.613628  0.158350  0.613331  1
  Pd  Pd11  1  0.158351  0.613628  0.613330  1
  Pd  Pd12  1  0.614827  0.614826  0.613252  1
  Pd  Pd13  1  0.385173  0.385173  0.842906  1
  Pd  Pd14  1  0.386372  0.841649  0.385309  1
  Pd  Pd15  1  0.841649  0.386372  0.385309  1
  Pd  Pd16  1  0.386625  0.386625  0.386542  1
  Pd  Pd17  1  0.000000  0.000000  0.343110  1
  Pd  Pd18  1  0.655545  0.001498  0.341680  1
  Pd  Pd19  1  0.001498  0.655545  0.341681  1
  Pd  Pd20  1  0.654746  0.345253  0.002458  1
  Pd  Pd21  1  0.998502  0.344456  0.998723  1
  Pd  Pd22  1  0.003271  0.344336  0.653837  1
  Pd  Pd23  1  0.345254  0.654747  0.002458  1
  Pd  Pd24  1  0.344337  0.003272  0.653837  1
  Pd  Pd25  1  0.344455  0.998502  0.998723  1
  Pd  Pd26  1  0.000000  0.000000  0.652874  1
  Pd  Pd27  1  0.996729  0.655664  0.001445  1
  Pd  Pd28  1  0.655664  0.996729  0.001445  1
