# generated using pymatgen
data_Tb4Si10RuPt5
_symmetry_space_group_name_H-M   'P 1'
_cell_length_a   8.17783208
_cell_length_b   8.17783089
_cell_length_c   8.17783227
_cell_angle_alpha   137.16704256
_cell_angle_beta   104.43008448
_cell_angle_gamma   91.00058507
_symmetry_Int_Tables_number   1
_chemical_formula_structural   Tb4Si10RuPt5
_chemical_formula_sum   'Tb4 Si10 Ru1 Pt5'
_cell_volume   343.04133757
_cell_formula_units_Z   1
loop_
 _symmetry_equiv_pos_site_id
 _symmetry_equiv_pos_as_xyz
  1  'x, y, z'
loop_
 _atom_site_type_symbol
 _atom_site_label
 _atom_site_symmetry_multiplicity
 _atom_site_fract_x
 _atom_site_fract_y
 _atom_site_fract_z
 _atom_site_occupancy
  Tb  Tb0  1  0.099412  0.868351  0.229437  1
  Tb  Tb1  1  0.900588  0.130026  0.768940  1
  Tb  Tb2  1  0.361086  0.631649  0.731060  1
  Tb  Tb3  1  0.638914  0.369974  0.270563  1
  Si  Si4  1  0.000000  0.750000  0.750000  1
  Si  Si5  1  0.000000  0.250000  0.250000  1
  Si  Si6  1  0.272612  0.022612  0.750000  1
  Si  Si7  1  0.727388  0.477388  0.750000  1
  Si  Si8  1  0.722991  0.972991  0.250000  1
  Si  Si9  1  0.277009  0.527009  0.250000  1
  Si  Si10  1  0.758955  0.613433  0.159035  1
  Si  Si11  1  0.454399  0.099919  0.340965  1
  Si  Si12  1  0.545601  0.886567  0.645521  1
  Si  Si13  1  0.241045  0.400081  0.854479  1
  Ru  Ru14  1  0.500000  0.750000  0.250000  1
  Pt  Pt15  1  0.250863  0.140654  0.114941  1
  Pt  Pt16  1  0.500000  0.250000  0.750000  1
  Pt  Pt17  1  0.025713  0.635922  0.385059  1
  Pt  Pt18  1  0.974287  0.359346  0.610209  1
  Pt  Pt19  1  0.749137  0.864078  0.889791  1
