# generated using pymatgen
data_LaTm3(MoO6)2
_symmetry_space_group_name_H-M   'P 1'
_cell_length_a   5.40141300
_cell_length_b   7.73509329
_cell_length_c   11.48729392
_cell_angle_alpha   75.61483636
_cell_angle_beta   90.00000000
_cell_angle_gamma   90.00000000
_symmetry_Int_Tables_number   1
_chemical_formula_structural   LaTm3(MoO6)2
_chemical_formula_sum   'La2 Tm6 Mo4 O24'
_cell_volume   464.89668305
_cell_formula_units_Z   2
loop_
 _symmetry_equiv_pos_site_id
 _symmetry_equiv_pos_as_xyz
  1  'x, y, z'
loop_
 _atom_site_type_symbol
 _atom_site_label
 _atom_site_symmetry_multiplicity
 _atom_site_fract_x
 _atom_site_fract_y
 _atom_site_fract_z
 _atom_site_occupancy
  La  La0  1  0.685620  0.500000  0.750000  1
  La  La1  1  0.314380  0.500000  0.250000  1
  Tm  Tm2  1  0.741261  0.000000  0.750000  1
  Tm  Tm3  1  0.258739  0.000000  0.250000  1
  Tm  Tm4  1  0.185922  0.802967  0.577094  1
  Tm  Tm5  1  0.814078  0.802967  0.077094  1
  Tm  Tm6  1  0.185922  0.197033  0.922906  1
  Tm  Tm7  1  0.814078  0.197033  0.422906  1
  Mo  Mo8  1  0.251842  0.728139  0.884910  1
  Mo  Mo9  1  0.748158  0.728139  0.384910  1
  Mo  Mo10  1  0.251842  0.271861  0.615090  1
  Mo  Mo11  1  0.748158  0.271861  0.115090  1
  O  O12  1  0.033599  0.942680  0.897065  1
  O  O13  1  0.532722  0.845166  0.929877  1
  O  O14  1  0.966401  0.942680  0.397065  1
  O  O15  1  0.460053  0.797041  0.723895  1
  O  O16  1  0.467278  0.845166  0.429877  1
  O  O17  1  0.990033  0.725749  0.766177  1
  O  O18  1  0.539947  0.797041  0.223895  1
  O  O19  1  0.858943  0.644428  0.544610  1
  O  O20  1  0.339220  0.494383  0.888162  1
  O  O21  1  0.009967  0.725749  0.266177  1
  O  O22  1  0.339220  0.505617  0.611838  1
  O  O23  1  0.858943  0.355572  0.955390  1
  O  O24  1  0.141057  0.644428  0.044610  1
  O  O25  1  0.660780  0.494383  0.388162  1
  O  O26  1  0.990033  0.274251  0.733823  1
  O  O27  1  0.660780  0.505617  0.111838  1
  O  O28  1  0.141057  0.355572  0.455390  1
  O  O29  1  0.460053  0.202959  0.776105  1
  O  O30  1  0.009967  0.274251  0.233823  1
  O  O31  1  0.532722  0.154834  0.570123  1
  O  O32  1  0.539947  0.202959  0.276105  1
  O  O33  1  0.033599  0.057320  0.602935  1
  O  O34  1  0.467278  0.154834  0.070123  1
  O  O35  1  0.966401  0.057320  0.102935  1
