# generated using pymatgen
data_Nd7UTa8(NbSi4)4
_symmetry_space_group_name_H-M   'P 1'
_cell_length_a   7.13876525
_cell_length_b   7.14608393
_cell_length_c   13.25251033
_cell_angle_alpha   89.95299329
_cell_angle_beta   90.07703334
_cell_angle_gamma   89.93041228
_symmetry_Int_Tables_number   1
_chemical_formula_structural   Nd7UTa8(NbSi4)4
_chemical_formula_sum   'Nd7 U1 Ta8 Nb4 Si16'
_cell_volume   676.06508121
_cell_formula_units_Z   1
loop_
 _symmetry_equiv_pos_site_id
 _symmetry_equiv_pos_as_xyz
  1  'x, y, z'
loop_
 _atom_site_type_symbol
 _atom_site_label
 _atom_site_symmetry_multiplicity
 _atom_site_fract_x
 _atom_site_fract_y
 _atom_site_fract_z
 _atom_site_occupancy
  Nd  Nd0  1  0.995661  0.338079  0.218041  1
  Nd  Nd1  1  0.004275  0.661842  0.717380  1
  Nd  Nd2  1  0.161065  0.495631  0.467314  1
  Nd  Nd3  1  0.504019  0.839128  0.032716  1
  Nd  Nd4  1  0.838906  0.504486  0.968457  1
  Nd  Nd5  1  0.496173  0.161375  0.531539  1
  Nd  Nd6  1  0.338183  0.995438  0.781766  1
  U  U7  1  0.661336  0.002777  0.282848  1
  Ta  Ta8  1  0.170129  0.170930  0.999697  1
  Ta  Ta9  1  0.827632  0.831266  0.497685  1
  Ta  Ta10  1  0.332809  0.673010  0.251040  1
  Ta  Ta11  1  0.670654  0.330235  0.749906  1
  Ta  Ta12  1  0.154149  0.989647  0.374028  1
  Ta  Ta13  1  0.843215  0.010395  0.875380  1
  Ta  Ta14  1  0.509292  0.656549  0.624679  1
  Ta  Ta15  1  0.342874  0.490187  0.875594  1
  Nb  Nb16  1  0.494517  0.339917  0.127349  1
  Nb  Nb17  1  0.655382  0.504367  0.374162  1
  Nb  Nb18  1  0.989658  0.158118  0.624650  1
  Nb  Nb19  1  0.007006  0.847036  0.126702  1
  Si  Si20  1  0.294279  0.042272  0.186643  1
  Si  Si21  1  0.709124  0.956969  0.685919  1
  Si  Si22  1  0.458674  0.792268  0.434757  1
  Si  Si23  1  0.211067  0.543269  0.064615  1
  Si  Si24  1  0.543560  0.209273  0.936251  1
  Si  Si25  1  0.791068  0.458134  0.563038  1
  Si  Si26  1  0.043187  0.292265  0.814039  1
  Si  Si27  1  0.954143  0.708887  0.313678  1
  Si  Si28  1  0.372142  0.292918  0.314771  1
  Si  Si29  1  0.629454  0.700353  0.814272  1
  Si  Si30  1  0.201058  0.871420  0.562867  1
  Si  Si31  1  0.128369  0.799213  0.936118  1
  Si  Si32  1  0.797678  0.128420  0.065922  1
  Si  Si33  1  0.868431  0.198771  0.433397  1
  Si  Si34  1  0.299810  0.372006  0.685699  1
  Si  Si35  1  0.701023  0.633152  0.187084  1
