# generated using pymatgen
data_Sc6AlZn5Au6
_symmetry_space_group_name_H-M   'P 1'
_cell_length_a   7.41982125
_cell_length_b   7.38609310
_cell_length_c   7.02829318
_cell_angle_alpha   89.99999895
_cell_angle_beta   89.94566993
_cell_angle_gamma   119.84974610
_symmetry_Int_Tables_number   1
_chemical_formula_structural   Sc6AlZn5Au6
_chemical_formula_sum   'Sc6 Al1 Zn5 Au6'
_cell_volume   334.07503292
_cell_formula_units_Z   1
loop_
 _symmetry_equiv_pos_site_id
 _symmetry_equiv_pos_as_xyz
  1  'x, y, z'
loop_
 _atom_site_type_symbol
 _atom_site_label
 _atom_site_symmetry_multiplicity
 _atom_site_fract_x
 _atom_site_fract_y
 _atom_site_fract_z
 _atom_site_occupancy
  Sc  Sc0  1  0.591629  0.985972  0.750776  1
  Sc  Sc1  1  0.009653  0.612200  0.753475  1
  Sc  Sc2  1  0.398371  0.403892  0.751372  1
  Sc  Sc3  1  0.990347  0.602547  0.246525  1
  Sc  Sc4  1  0.601629  0.005521  0.248628  1
  Sc  Sc5  1  0.408371  0.394343  0.249224  1
  Al  Al6  1  0.000000  0.266217  0.500000  1
  Zn  Zn7  1  0.726795  0.728170  0.000194  1
  Zn  Zn8  1  0.273205  0.001375  0.999806  1
  Zn  Zn9  1  0.000000  0.276003  0.000000  1
  Zn  Zn10  1  0.723803  0.725145  0.499995  1
  Zn  Zn11  1  0.276197  0.001342  0.500005  1
  Au  Au12  1  0.999897  0.003726  0.748490  1
  Au  Au13  1  0.000103  0.003829  0.251510  1
  Au  Au14  1  0.667280  0.332814  0.988419  1
  Au  Au15  1  0.673706  0.332536  0.511258  1
  Au  Au16  1  0.326294  0.658830  0.488742  1
  Au  Au17  1  0.332720  0.665536  0.011581  1
