# generated using pymatgen
data_Tm20Ir8OsRu3
_symmetry_space_group_name_H-M   'P 1'
_cell_length_a   10.68376600
_cell_length_b   10.68376600
_cell_length_c   6.34335100
_cell_angle_alpha   90.00000000
_cell_angle_beta   90.00000000
_cell_angle_gamma   90.00000000
_symmetry_Int_Tables_number   1
_chemical_formula_structural   Tm20Ir8OsRu3
_chemical_formula_sum   'Tm20 Ir8 Os1 Ru3'
_cell_volume   724.04819939
_cell_formula_units_Z   1
loop_
 _symmetry_equiv_pos_site_id
 _symmetry_equiv_pos_as_xyz
  1  'x, y, z'
loop_
 _atom_site_type_symbol
 _atom_site_label
 _atom_site_symmetry_multiplicity
 _atom_site_fract_x
 _atom_site_fract_y
 _atom_site_fract_z
 _atom_site_occupancy
  Tm  Tm0  1  0.293535  0.086284  0.376394  1
  Tm  Tm1  1  0.293591  0.913639  0.876782  1
  Tm  Tm2  1  0.706409  0.086361  0.876782  1
  Tm  Tm3  1  0.706465  0.913716  0.376394  1
  Tm  Tm4  1  0.586361  0.793591  0.876782  1
  Tm  Tm5  1  0.586284  0.206465  0.376394  1
  Tm  Tm6  1  0.413716  0.793535  0.376394  1
  Tm  Tm7  1  0.413639  0.206409  0.876782  1
  Tm  Tm8  1  0.206578  0.413657  0.623120  1
  Tm  Tm9  1  0.206576  0.586370  0.123349  1
  Tm  Tm10  1  0.793424  0.413630  0.123349  1
  Tm  Tm11  1  0.793422  0.586343  0.623120  1
  Tm  Tm12  1  0.913630  0.706576  0.123349  1
  Tm  Tm13  1  0.913657  0.293422  0.623120  1
  Tm  Tm14  1  0.086343  0.706578  0.623120  1
  Tm  Tm15  1  0.086370  0.293424  0.123349  1
  Tm  Tm16  1  0.000000  0.000000  0.500028  1
  Tm  Tm17  1  0.000000  0.000000  0.999932  1
  Tm  Tm18  1  0.500000  0.500000  0.999932  1
  Tm  Tm19  1  0.500000  0.500000  0.500028  1
  Ir  Ir20  1  0.847527  0.152913  0.250205  1
  Ir  Ir21  1  0.847497  0.847071  0.750079  1
  Ir  Ir22  1  0.152503  0.152929  0.750079  1
  Ir  Ir23  1  0.152473  0.847087  0.250205  1
  Ir  Ir24  1  0.652929  0.347497  0.750079  1
  Ir  Ir25  1  0.652913  0.652473  0.250205  1
  Ir  Ir26  1  0.347087  0.347527  0.250205  1
  Ir  Ir27  1  0.347071  0.652503  0.750079  1
  Os  Os28  1  0.500000  0.000000  0.122976  1
  Ru  Ru29  1  0.500000  0.000000  0.622108  1
  Ru  Ru30  1  0.000000  0.500000  0.877559  1
  Ru  Ru31  1  0.000000  0.500000  0.377721  1
