# generated using pymatgen
data_AcLa(ReH9)2
_symmetry_space_group_name_H-M   'P 1'
_cell_length_a   5.01928500
_cell_length_b   5.01928534
_cell_length_c   8.92493800
_cell_angle_alpha   90.00000000
_cell_angle_beta   90.00000000
_cell_angle_gamma   119.99999117
_symmetry_Int_Tables_number   1
_chemical_formula_structural   AcLa(ReH9)2
_chemical_formula_sum   'Ac1 La1 Re2 H18'
_cell_volume   194.72406164
_cell_formula_units_Z   1
loop_
 _symmetry_equiv_pos_site_id
 _symmetry_equiv_pos_as_xyz
  1  'x, y, z'
loop_
 _atom_site_type_symbol
 _atom_site_label
 _atom_site_symmetry_multiplicity
 _atom_site_fract_x
 _atom_site_fract_y
 _atom_site_fract_z
 _atom_site_occupancy
  Ac  Ac0  1  0.000000  0.000000  0.000000  1
  La  La1  1  0.000000  0.000000  0.500000  1
  Re  Re2  1  0.333333  0.666667  0.249407  1
  Re  Re3  1  0.666667  0.333333  0.750593  1
  H  H4  1  0.469992  0.530008  0.390015  1
  H  H5  1  0.469992  0.939983  0.390015  1
  H  H6  1  0.060017  0.530008  0.390015  1
  H  H7  1  0.955171  0.477586  0.884253  1
  H  H8  1  0.134869  0.269739  0.257168  1
  H  H9  1  0.865131  0.134869  0.742832  1
  H  H10  1  0.269739  0.134869  0.742832  1
  H  H11  1  0.730261  0.865131  0.257168  1
  H  H12  1  0.134869  0.865131  0.257168  1
  H  H13  1  0.865131  0.730261  0.742832  1
  H  H14  1  0.477586  0.955171  0.115747  1
  H  H15  1  0.530008  0.469992  0.609985  1
  H  H16  1  0.939983  0.469992  0.609985  1
  H  H17  1  0.044829  0.522414  0.115747  1
  H  H18  1  0.477586  0.522414  0.115747  1
  H  H19  1  0.522414  0.044829  0.884253  1
  H  H20  1  0.522414  0.477586  0.884253  1
  H  H21  1  0.530008  0.060017  0.609985  1
