# generated using pymatgen
data_Tb4Al18Ir3RuAu2
_symmetry_space_group_name_H-M   'P 1'
_cell_length_a   7.63161127
_cell_length_b   7.63161116
_cell_length_c   9.48739126
_cell_angle_alpha   90.01355687
_cell_angle_beta   90.01355626
_cell_angle_gamma   119.44485670
_symmetry_Int_Tables_number   1
_chemical_formula_structural   Tb4Al18Ir3RuAu2
_chemical_formula_sum   'Tb4 Al18 Ir3 Ru1 Au2'
_cell_volume   481.18516545
_cell_formula_units_Z   1
loop_
 _symmetry_equiv_pos_site_id
 _symmetry_equiv_pos_as_xyz
  1  'x, y, z'
loop_
 _atom_site_type_symbol
 _atom_site_label
 _atom_site_symmetry_multiplicity
 _atom_site_fract_x
 _atom_site_fract_y
 _atom_site_fract_z
 _atom_site_occupancy
  Tb  Tb0  1  0.995542  0.675651  0.249726  1
  Tb  Tb1  1  0.004337  0.324573  0.750101  1
  Tb  Tb2  1  0.675427  0.995663  0.249899  1
  Tb  Tb3  1  0.324349  0.004458  0.750274  1
  Al  Al4  1  0.141614  0.142035  0.249868  1
  Al  Al5  1  0.857965  0.858386  0.750132  1
  Al  Al6  1  0.998831  0.345161  0.076452  1
  Al  Al7  1  0.996879  0.652505  0.923684  1
  Al  Al8  1  0.998868  0.655256  0.577556  1
  Al  Al9  1  0.344744  0.001132  0.422444  1
  Al  Al10  1  0.000959  0.345202  0.422614  1
  Al  Al11  1  0.654798  0.999041  0.577386  1
  Al  Al12  1  0.654839  0.001169  0.923548  1
  Al  Al13  1  0.347495  0.003121  0.076316  1
  Al  Al14  1  0.342048  0.342229  0.558386  1
  Al  Al15  1  0.657771  0.657952  0.441614  1
  Al  Al16  1  0.658308  0.655630  0.056978  1
  Al  Al17  1  0.344370  0.341692  0.943022  1
  Al  Al18  1  0.337338  0.551204  0.249690  1
  Al  Al19  1  0.662236  0.447087  0.751824  1
  Al  Al20  1  0.552913  0.337764  0.248176  1
  Al  Al21  1  0.448796  0.662662  0.750310  1
  Ir  Ir22  1  0.328523  0.671477  0.000000  1
  Ir  Ir23  1  0.328277  0.671723  0.500000  1
  Ir  Ir24  1  0.671309  0.328691  0.500000  1
  Ru  Ru25  1  0.671615  0.328385  0.000000  1
  Au  Au26  1  0.000047  0.999953  0.000000  1
  Au  Au27  1  0.999800  0.000200  0.500000  1
