# generated using pymatgen
data_Ba3Sr2Al3Ga2Sn
_symmetry_space_group_name_H-M   'P 1'
_cell_length_a   5.93230100
_cell_length_b   5.93229993
_cell_length_c   11.04811700
_cell_angle_alpha   90.00000000
_cell_angle_beta   90.00000000
_cell_angle_gamma   119.99998923
_symmetry_Int_Tables_number   1
_chemical_formula_structural   Ba3Sr2Al3Ga2Sn
_chemical_formula_sum   'Ba3 Sr2 Al3 Ga2 Sn1'
_cell_volume   336.71713896
_cell_formula_units_Z   1
loop_
 _symmetry_equiv_pos_site_id
 _symmetry_equiv_pos_as_xyz
  1  'x, y, z'
loop_
 _atom_site_type_symbol
 _atom_site_label
 _atom_site_symmetry_multiplicity
 _atom_site_fract_x
 _atom_site_fract_y
 _atom_site_fract_z
 _atom_site_occupancy
  Ba  Ba0  1  0.666667  0.333333  0.802137  1
  Ba  Ba1  1  0.666667  0.333333  0.199024  1
  Ba  Ba2  1  0.000000  0.000000  0.324553  1
  Sr  Sr3  1  0.000000  0.000000  0.668903  1
  Sr  Sr4  1  0.333333  0.666667  0.997830  1
  Al  Al5  1  0.507778  0.492222  0.502451  1
  Al  Al6  1  0.984444  0.492222  0.502451  1
  Al  Al7  1  0.507778  0.015556  0.502451  1
  Ga  Ga8  1  0.333333  0.666667  0.685771  1
  Ga  Ga9  1  0.333333  0.666667  0.319234  1
  Sn  Sn10  1  0.000000  0.000000  0.995195  1
