# generated using pymatgen
data_Sc6Zn16GePd7
_symmetry_space_group_name_H-M   'P 1'
_cell_length_a   8.84205590
_cell_length_b   8.84205568
_cell_length_c   8.84205500
_cell_angle_alpha   59.99999881
_cell_angle_beta   59.99999962
_cell_angle_gamma   59.99999678
_symmetry_Int_Tables_number   1
_chemical_formula_structural   Sc6Zn16GePd7
_chemical_formula_sum   'Sc6 Zn16 Ge1 Pd7'
_cell_volume   488.81519780
_cell_formula_units_Z   1
loop_
 _symmetry_equiv_pos_site_id
 _symmetry_equiv_pos_as_xyz
  1  'x, y, z'
loop_
 _atom_site_type_symbol
 _atom_site_label
 _atom_site_symmetry_multiplicity
 _atom_site_fract_x
 _atom_site_fract_y
 _atom_site_fract_z
 _atom_site_occupancy
  Sc  Sc0  1  0.718889  0.281111  0.281111  1
  Sc  Sc1  1  0.281111  0.718889  0.718889  1
  Sc  Sc2  1  0.281111  0.718889  0.281111  1
  Sc  Sc3  1  0.718889  0.281111  0.718889  1
  Sc  Sc4  1  0.281111  0.281111  0.718889  1
  Sc  Sc5  1  0.718889  0.718889  0.281111  1
  Zn  Zn6  1  0.122838  0.122838  0.122838  1
  Zn  Zn7  1  0.877162  0.877162  0.877162  1
  Zn  Zn8  1  0.122838  0.122838  0.631486  1
  Zn  Zn9  1  0.122838  0.631486  0.122838  1
  Zn  Zn10  1  0.877162  0.877162  0.368514  1
  Zn  Zn11  1  0.877162  0.368514  0.877162  1
  Zn  Zn12  1  0.631486  0.122838  0.122838  1
  Zn  Zn13  1  0.368514  0.877162  0.877162  1
  Zn  Zn14  1  0.340774  0.340774  0.340774  1
  Zn  Zn15  1  0.659226  0.659226  0.659226  1
  Zn  Zn16  1  0.340774  0.340774  0.977680  1
  Zn  Zn17  1  0.340774  0.977680  0.340774  1
  Zn  Zn18  1  0.659226  0.659226  0.022320  1
  Zn  Zn19  1  0.659226  0.022320  0.659226  1
  Zn  Zn20  1  0.977680  0.340774  0.340774  1
  Zn  Zn21  1  0.022320  0.659226  0.659226  1
  Ge  Ge22  1  0.500000  0.500000  0.500000  1
  Pd  Pd23  1  0.500000  0.000000  0.000000  1
  Pd  Pd24  1  0.000000  0.500000  0.500000  1
  Pd  Pd25  1  0.000000  0.500000  0.000000  1
  Pd  Pd26  1  0.500000  0.000000  0.500000  1
  Pd  Pd27  1  0.000000  0.000000  0.500000  1
  Pd  Pd28  1  0.500000  0.500000  0.000000  1
  Pd  Pd29  1  0.000000  0.000000  0.000000  1
