# generated using pymatgen
data_TiMn4Nb3SiP3
_symmetry_space_group_name_H-M   'P 1'
_cell_length_a   3.52299100
_cell_length_b   6.25511608
_cell_length_c   7.30461564
_cell_angle_alpha   89.92620085
_cell_angle_beta   90.00000000
_cell_angle_gamma   90.00000000
_symmetry_Int_Tables_number   1
_chemical_formula_structural   TiMn4Nb3SiP3
_chemical_formula_sum   'Ti1 Mn4 Nb3 Si1 P3'
_cell_volume   160.96961896
_cell_formula_units_Z   1
loop_
 _symmetry_equiv_pos_site_id
 _symmetry_equiv_pos_as_xyz
  1  'x, y, z'
loop_
 _atom_site_type_symbol
 _atom_site_label
 _atom_site_symmetry_multiplicity
 _atom_site_fract_x
 _atom_site_fract_y
 _atom_site_fract_z
 _atom_site_occupancy
  Ti  Ti0  1  0.250000  0.529602  0.673612  1
  Mn  Mn1  1  0.750000  0.860527  0.560705  1
  Mn  Mn2  1  0.250000  0.136043  0.444904  1
  Mn  Mn3  1  0.750000  0.365916  0.933680  1
  Mn  Mn4  1  0.250000  0.643757  0.057911  1
  Nb  Nb5  1  0.750000  0.470986  0.331740  1
  Nb  Nb6  1  0.250000  0.029904  0.826183  1
  Nb  Nb7  1  0.750000  0.962884  0.173035  1
  Si  Si8  1  0.250000  0.268593  0.130242  1
  P  P9  1  0.750000  0.728637  0.863169  1
  P  P10  1  0.250000  0.766678  0.374582  1
  P  P11  1  0.750000  0.236470  0.630236  1
