# generated using pymatgen
data_Ce3Nd(InRh2)2
_symmetry_space_group_name_H-M   'P 1'
_cell_length_a   7.70433533
_cell_length_b   7.70433533
_cell_length_c   3.75665600
_cell_angle_alpha   90.00000000
_cell_angle_beta   90.00000000
_cell_angle_gamma   91.53957283
_symmetry_Int_Tables_number   1
_chemical_formula_structural   Ce3Nd(InRh2)2
_chemical_formula_sum   'Ce3 Nd1 In2 Rh4'
_cell_volume   222.90251944
_cell_formula_units_Z   1
loop_
 _symmetry_equiv_pos_site_id
 _symmetry_equiv_pos_as_xyz
  1  'x, y, z'
loop_
 _atom_site_type_symbol
 _atom_site_label
 _atom_site_symmetry_multiplicity
 _atom_site_fract_x
 _atom_site_fract_y
 _atom_site_fract_z
 _atom_site_occupancy
  Ce  Ce0  1  0.668137  0.171948  0.500000  1
  Ce  Ce1  1  0.328052  0.831863  0.500000  1
  Ce  Ce2  1  0.829195  0.670805  0.500000  1
  Nd  Nd3  1  0.170491  0.329509  0.500000  1
  In  In4  1  0.496944  0.501502  0.000000  1
  In  In5  1  0.998498  0.003056  0.000000  1
  Rh  Rh6  1  0.381098  0.118902  0.000000  1
  Rh  Rh7  1  0.132486  0.648187  0.000000  1
  Rh  Rh8  1  0.851813  0.367514  0.000000  1
  Rh  Rh9  1  0.643285  0.856715  0.000000  1
