# generated using pymatgen
data_Tm3Lu9InCo5
_symmetry_space_group_name_H-M   'P 1'
_cell_length_a   8.10868942
_cell_length_b   8.10725387
_cell_length_c   8.10868911
_cell_angle_alpha   111.02816513
_cell_angle_beta   111.02404602
_cell_angle_gamma   106.41108941
_symmetry_Int_Tables_number   1
_chemical_formula_structural   Tm3Lu9InCo5
_chemical_formula_sum   'Tm3 Lu9 In1 Co5'
_cell_volume   409.44058793
_cell_formula_units_Z   1
loop_
 _symmetry_equiv_pos_site_id
 _symmetry_equiv_pos_as_xyz
  1  'x, y, z'
loop_
 _atom_site_type_symbol
 _atom_site_label
 _atom_site_symmetry_multiplicity
 _atom_site_fract_x
 _atom_site_fract_y
 _atom_site_fract_z
 _atom_site_occupancy
  Tm  Tm0  1  0.785217  0.592458  0.807240  1
  Tm  Tm1  1  0.214731  0.022309  0.807578  1
  Tm  Tm2  1  0.785317  0.978375  0.193057  1
  Lu  Lu3  1  0.287023  0.184896  0.471619  1
  Lu  Lu4  1  0.712119  0.814616  0.527209  1
  Lu  Lu5  1  0.287406  0.814616  0.102496  1
  Lu  Lu6  1  0.713277  0.184896  0.897875  1
  Lu  Lu7  1  0.619263  0.314894  0.305057  1
  Lu  Lu8  1  0.380101  0.684899  0.694442  1
  Lu  Lu9  1  0.009837  0.314894  0.695631  1
  Lu  Lu10  1  0.990456  0.684899  0.304798  1
  Lu  Lu11  1  0.214578  0.407615  0.193038  1
  In  In12  1  0.500229  0.500286  0.000057  1
  Co  Co13  1  0.000285  0.375828  0.375544  1
  Co  Co14  1  0.999815  0.623777  0.623962  1
  Co  Co15  1  0.386521  0.886145  0.499624  1
  Co  Co16  1  0.613330  0.113342  0.500012  1
  Co  Co17  1  0.000494  0.001255  0.000762  1
