# generated using pymatgen
data_Pr12Pt3RhCl12
_symmetry_space_group_name_H-M   'P 1'
_cell_length_a   10.34366835
_cell_length_b   10.34366975
_cell_length_c   10.34366944
_cell_angle_alpha   109.31662336
_cell_angle_beta   109.31663206
_cell_angle_gamma   109.31662908
_symmetry_Int_Tables_number   1
_chemical_formula_structural   Pr12Pt3RhCl12
_chemical_formula_sum   'Pr12 Pt3 Rh1 Cl12'
_cell_volume   856.76762309
_cell_formula_units_Z   1
loop_
 _symmetry_equiv_pos_site_id
 _symmetry_equiv_pos_as_xyz
  1  'x, y, z'
loop_
 _atom_site_type_symbol
 _atom_site_label
 _atom_site_symmetry_multiplicity
 _atom_site_fract_x
 _atom_site_fract_y
 _atom_site_fract_z
 _atom_site_occupancy
  Pr  Pr0  1  0.478642  0.487577  0.240777  1
  Pr  Pr1  1  0.750000  0.240184  0.259816  1
  Pr  Pr2  1  0.750000  0.009969  0.490031  1
  Pr  Pr3  1  0.240777  0.478642  0.487577  1
  Pr  Pr4  1  0.259816  0.750000  0.240184  1
  Pr  Pr5  1  0.021358  0.259223  0.012423  1
  Pr  Pr6  1  0.012423  0.021358  0.259223  1
  Pr  Pr7  1  0.490031  0.750000  0.009969  1
  Pr  Pr8  1  0.487577  0.240777  0.478642  1
  Pr  Pr9  1  0.009969  0.490031  0.750000  1
  Pr  Pr10  1  0.259223  0.012423  0.021358  1
  Pr  Pr11  1  0.240184  0.259816  0.750000  1
  Pt  Pt12  1  0.499664  0.000336  0.250000  1
  Pt  Pt13  1  0.000336  0.250000  0.499664  1
  Pt  Pt14  1  0.250000  0.499664  0.000336  1
  Rh  Rh15  1  0.250000  0.250000  0.250000  1
  Cl  Cl16  1  0.250000  0.749632  0.750368  1
  Cl  Cl17  1  0.499247  0.499975  0.750010  1
  Cl  Cl18  1  0.000753  0.749990  0.000025  1
  Cl  Cl19  1  0.750368  0.250000  0.749632  1
  Cl  Cl20  1  0.000025  0.000753  0.749990  1
  Cl  Cl21  1  0.250000  0.000291  0.499709  1
  Cl  Cl22  1  0.750010  0.499247  0.499975  1
  Cl  Cl23  1  0.499709  0.250000  0.000291  1
  Cl  Cl24  1  0.749632  0.750368  0.250000  1
  Cl  Cl25  1  0.749990  0.000025  0.000753  1
  Cl  Cl26  1  0.000291  0.499709  0.250000  1
  Cl  Cl27  1  0.499975  0.750010  0.499247  1
