# generated using pymatgen
data_DyMgCd2(Ni3B)2
_symmetry_space_group_name_H-M   'P 1'
_cell_length_a   5.10977237
_cell_length_b   5.10830967
_cell_length_c   14.09292300
_cell_angle_alpha   90.00000000
_cell_angle_beta   90.00000000
_cell_angle_gamma   119.93920247
_symmetry_Int_Tables_number   1
_chemical_formula_structural   DyMgCd2(Ni3B)2
_chemical_formula_sum   'Dy2 Mg2 Cd4 Ni12 B4'
_cell_volume   318.76910270
_cell_formula_units_Z   2
loop_
 _symmetry_equiv_pos_site_id
 _symmetry_equiv_pos_as_xyz
  1  'x, y, z'
loop_
 _atom_site_type_symbol
 _atom_site_label
 _atom_site_symmetry_multiplicity
 _atom_site_fract_x
 _atom_site_fract_y
 _atom_site_fract_z
 _atom_site_occupancy
  Dy  Dy0  1  0.666636  0.333359  0.750000  1
  Dy  Dy1  1  0.333364  0.666641  0.250000  1
  Mg  Mg2  1  0.000000  0.000000  0.000000  1
  Mg  Mg3  1  0.000000  0.000000  0.500000  1
  Cd  Cd4  1  0.333391  0.666643  0.470464  1
  Cd  Cd5  1  0.666609  0.333357  0.970464  1
  Cd  Cd6  1  0.666609  0.333357  0.529536  1
  Cd  Cd7  1  0.333391  0.666643  0.029536  1
  Ni  Ni8  1  0.832283  0.664505  0.348267  1
  Ni  Ni9  1  0.335516  0.167747  0.348176  1
  Ni  Ni10  1  0.832241  0.167785  0.151563  1
  Ni  Ni11  1  0.664484  0.832253  0.651824  1
  Ni  Ni12  1  0.167717  0.335495  0.651733  1
  Ni  Ni13  1  0.832283  0.664505  0.151733  1
  Ni  Ni14  1  0.335516  0.167747  0.151824  1
  Ni  Ni15  1  0.664484  0.832253  0.848176  1
  Ni  Ni16  1  0.167717  0.335495  0.848267  1
  Ni  Ni17  1  0.167759  0.832215  0.651563  1
  Ni  Ni18  1  0.167759  0.832215  0.848437  1
  Ni  Ni19  1  0.832241  0.167785  0.348437  1
  B  B20  1  0.666716  0.333362  0.250000  1
  B  B21  1  0.333284  0.666638  0.750000  1
  B  B22  1  0.000064  0.999984  0.750000  1
  B  B23  1  0.999936  0.000016  0.250000  1
