# generated using pymatgen
data_Nd3Th(AlPd2)4
_symmetry_space_group_name_H-M   'P 1'
_cell_length_a   5.92300110
_cell_length_b   7.07174400
_cell_length_c   7.55434877
_cell_angle_alpha   90.00000000
_cell_angle_beta   89.68534497
_cell_angle_gamma   90.00000000
_symmetry_Int_Tables_number   1
_chemical_formula_structural   Nd3Th(AlPd2)4
_chemical_formula_sum   'Nd3 Th1 Al4 Pd8'
_cell_volume   316.41628451
_cell_formula_units_Z   1
loop_
 _symmetry_equiv_pos_site_id
 _symmetry_equiv_pos_as_xyz
  1  'x, y, z'
loop_
 _atom_site_type_symbol
 _atom_site_label
 _atom_site_symmetry_multiplicity
 _atom_site_fract_x
 _atom_site_fract_y
 _atom_site_fract_z
 _atom_site_occupancy
  Nd  Nd0  1  0.153646  0.750000  0.531809  1
  Nd  Nd1  1  0.656259  0.250000  0.967847  1
  Nd  Nd2  1  0.845489  0.250000  0.467125  1
  Th  Th3  1  0.339591  0.750000  0.034540  1
  Al  Al4  1  0.656117  0.750000  0.384321  1
  Al  Al5  1  0.842101  0.750000  0.879889  1
  Al  Al6  1  0.346015  0.250000  0.617851  1
  Al  Al7  1  0.153518  0.250000  0.118555  1
  Pd  Pd8  1  0.914237  0.553879  0.177162  1
  Pd  Pd9  1  0.584291  0.947434  0.679223  1
  Pd  Pd10  1  0.092225  0.050389  0.824286  1
  Pd  Pd11  1  0.412879  0.449793  0.318360  1
  Pd  Pd12  1  0.092225  0.449611  0.824286  1
  Pd  Pd13  1  0.412879  0.050207  0.318360  1
  Pd  Pd14  1  0.914237  0.946121  0.177162  1
  Pd  Pd15  1  0.584291  0.552566  0.679223  1
