# generated using pymatgen
data_Cs2AcI5
_symmetry_space_group_name_H-M   'P 1'
_cell_length_a   9.91916000
_cell_length_b   10.47967100
_cell_length_c   15.83685500
_cell_angle_alpha   90.00000000
_cell_angle_beta   90.00000000
_cell_angle_gamma   90.00000000
_symmetry_Int_Tables_number   1
_chemical_formula_structural   Cs2AcI5
_chemical_formula_sum   'Cs8 Ac4 I20'
_cell_volume   1646.23368772
_cell_formula_units_Z   4
loop_
 _symmetry_equiv_pos_site_id
 _symmetry_equiv_pos_as_xyz
  1  'x, y, z'
loop_
 _atom_site_type_symbol
 _atom_site_label
 _atom_site_symmetry_multiplicity
 _atom_site_fract_x
 _atom_site_fract_y
 _atom_site_fract_z
 _atom_site_occupancy
  Cs  Cs0  1  0.945267  0.004008  0.828322  1
  Cs  Cs1  1  0.054733  0.995992  0.171678  1
  Cs  Cs2  1  0.445267  0.995992  0.671678  1
  Cs  Cs3  1  0.054733  0.504008  0.171678  1
  Cs  Cs4  1  0.554733  0.004008  0.328322  1
  Cs  Cs5  1  0.945267  0.495992  0.828322  1
  Cs  Cs6  1  0.554733  0.495992  0.328322  1
  Cs  Cs7  1  0.445267  0.504008  0.671678  1
  Ac  Ac8  1  0.930378  0.750000  0.504168  1
  Ac  Ac9  1  0.069622  0.250000  0.495832  1
  Ac  Ac10  1  0.430378  0.250000  0.995832  1
  Ac  Ac11  1  0.569622  0.750000  0.004168  1
  I  I12  1  0.120986  0.750000  0.676803  1
  I  I13  1  0.879014  0.250000  0.323197  1
  I  I14  1  0.620986  0.250000  0.823197  1
  I  I15  1  0.379014  0.750000  0.176803  1
  I  I16  1  0.838074  0.042525  0.573452  1
  I  I17  1  0.161926  0.957475  0.426548  1
  I  I18  1  0.338074  0.957475  0.926548  1
  I  I19  1  0.161926  0.542525  0.426548  1
  I  I20  1  0.661926  0.042525  0.073452  1
  I  I21  1  0.838074  0.457475  0.573452  1
  I  I22  1  0.661926  0.457475  0.073452  1
  I  I23  1  0.338074  0.542525  0.926548  1
  I  I24  1  0.592244  0.750000  0.511744  1
  I  I25  1  0.407756  0.250000  0.488256  1
  I  I26  1  0.092244  0.250000  0.988256  1
  I  I27  1  0.907756  0.750000  0.011744  1
  I  I28  1  0.655789  0.750000  0.801340  1
  I  I29  1  0.344211  0.250000  0.198660  1
  I  I30  1  0.155789  0.250000  0.698660  1
  I  I31  1  0.844211  0.750000  0.301340  1
