# generated using pymatgen
data_Ce3Dy(Sn5Rh3)2
_symmetry_space_group_name_H-M   'P 1'
_cell_length_a   13.53798469
_cell_length_b   13.53798496
_cell_length_c   7.26917171
_cell_angle_alpha   89.64376930
_cell_angle_beta   90.35623195
_cell_angle_gamma   160.91900032
_symmetry_Int_Tables_number   1
_chemical_formula_structural   Ce3Dy(Sn5Rh3)2
_chemical_formula_sum   'Ce3 Dy1 Sn10 Rh6'
_cell_volume   435.51715444
_cell_formula_units_Z   1
loop_
 _symmetry_equiv_pos_site_id
 _symmetry_equiv_pos_as_xyz
  1  'x, y, z'
loop_
 _atom_site_type_symbol
 _atom_site_label
 _atom_site_symmetry_multiplicity
 _atom_site_fract_x
 _atom_site_fract_y
 _atom_site_fract_z
 _atom_site_occupancy
  Ce  Ce0  1  0.171078  0.828922  0.757349  1
  Ce  Ce1  1  0.828573  0.171427  0.260152  1
  Ce  Ce2  1  0.475583  0.524417  0.732869  1
  Dy  Dy3  1  0.524857  0.475143  0.234560  1
  Sn  Sn4  1  0.878731  0.121269  0.733535  1
  Sn  Sn5  1  0.120055  0.879945  0.233383  1
  Sn  Sn6  1  0.705154  0.294846  0.049844  1
  Sn  Sn7  1  0.294671  0.705329  0.550634  1
  Sn  Sn8  1  0.595949  0.404051  0.608789  1
  Sn  Sn9  1  0.404325  0.595675  0.112758  1
  Sn  Sn10  1  0.953295  0.046705  0.393876  1
  Sn  Sn11  1  0.047792  0.952208  0.899502  1
  Sn  Sn12  1  0.290188  0.709812  0.977959  1
  Sn  Sn13  1  0.708857  0.291143  0.476601  1
  Rh  Rh14  1  0.050113  0.949887  0.515643  1
  Rh  Rh15  1  0.949409  0.050591  0.014647  1
  Rh  Rh16  1  0.776679  0.223321  0.765116  1
  Rh  Rh17  1  0.222526  0.777474  0.264667  1
  Rh  Rh18  1  0.396671  0.603329  0.490961  1
  Rh  Rh19  1  0.605494  0.394506  0.983152  1
