# generated using pymatgen
data_Ac3Ga11Ag
_symmetry_space_group_name_H-M   'P 1'
_cell_length_a   8.91677360
_cell_length_b   8.91677302
_cell_length_c   8.91677244
_cell_angle_alpha   149.61802999
_cell_angle_beta   107.32657266
_cell_angle_gamma   80.76462587
_symmetry_Int_Tables_number   1
_chemical_formula_structural   Ac3Ga11Ag
_chemical_formula_sum   'Ac3 Ga11 Ag1'
_cell_volume   335.39924651
_cell_formula_units_Z   1
loop_
 _symmetry_equiv_pos_site_id
 _symmetry_equiv_pos_as_xyz
  1  'x, y, z'
loop_
 _atom_site_type_symbol
 _atom_site_label
 _atom_site_symmetry_multiplicity
 _atom_site_fract_x
 _atom_site_fract_y
 _atom_site_fract_z
 _atom_site_occupancy
  Ac  Ac0  1  0.997720  0.000000  0.997720  1
  Ac  Ac1  1  0.332603  0.332841  0.999762  1
  Ac  Ac2  1  0.666919  0.667159  0.999762  1
  Ga  Ga3  1  0.378779  0.000000  0.378779  1
  Ga  Ga4  1  0.249824  0.500000  0.749824  1
  Ga  Ga5  1  0.749199  0.500000  0.249199  1
  Ga  Ga6  1  0.588219  0.833735  0.754484  1
  Ga  Ga7  1  0.920749  0.166265  0.754484  1
  Ga  Ga8  1  0.291408  0.668279  0.623128  1
  Ga  Ga9  1  0.954850  0.331721  0.623128  1
  Ga  Ga10  1  0.045379  0.666602  0.378777  1
  Ga  Ga11  1  0.712173  0.333398  0.378777  1
  Ga  Ga12  1  0.083721  0.834018  0.249704  1
  Ga  Ga13  1  0.415685  0.165982  0.249704  1
  Ag  Ag14  1  0.623771  0.000000  0.623771  1
