# generated using pymatgen
data_Ba6SmNi(BO3)6
_symmetry_space_group_name_H-M   'P 1'
_cell_length_a   8.18599618
_cell_length_b   8.18599669
_cell_length_c   8.18599500
_cell_angle_alpha   105.81566022
_cell_angle_beta   105.81566850
_cell_angle_gamma   105.81566324
_symmetry_Int_Tables_number   1
_chemical_formula_structural   Ba6SmNi(BO3)6
_chemical_formula_sum   'Ba6 Sm1 Ni1 B6 O18'
_cell_volume   470.81632551
_cell_formula_units_Z   1
loop_
 _symmetry_equiv_pos_site_id
 _symmetry_equiv_pos_as_xyz
  1  'x, y, z'
loop_
 _atom_site_type_symbol
 _atom_site_label
 _atom_site_symmetry_multiplicity
 _atom_site_fract_x
 _atom_site_fract_y
 _atom_site_fract_z
 _atom_site_occupancy
  Ba  Ba0  1  0.348777  0.727451  0.829412  1
  Ba  Ba1  1  0.829412  0.348777  0.727451  1
  Ba  Ba2  1  0.727451  0.829412  0.348777  1
  Ba  Ba3  1  0.651223  0.272549  0.170588  1
  Ba  Ba4  1  0.170588  0.651223  0.272549  1
  Ba  Ba5  1  0.272549  0.170588  0.651223  1
  Sm  Sm6  1  0.000000  0.000000  0.000000  1
  Ni  Ni7  1  0.500000  0.500000  0.500000  1
  B  B8  1  0.702390  0.622542  0.945388  1
  B  B9  1  0.945388  0.702390  0.622542  1
  B  B10  1  0.622542  0.945388  0.702390  1
  B  B11  1  0.054612  0.297610  0.377458  1
  B  B12  1  0.377458  0.054612  0.297610  1
  B  B13  1  0.297610  0.377458  0.054612  1
  O  O14  1  0.057905  0.796447  0.552250  1
  O  O15  1  0.552250  0.057905  0.796447  1
  O  O16  1  0.428026  0.495241  0.227407  1
  O  O17  1  0.495241  0.227407  0.428026  1
  O  O18  1  0.227407  0.428026  0.495241  1
  O  O19  1  0.772593  0.571974  0.504759  1
  O  O20  1  0.571974  0.504759  0.772593  1
  O  O21  1  0.504759  0.772593  0.571974  1
  O  O22  1  0.269087  0.191318  0.990980  1
  O  O23  1  0.191318  0.990980  0.269087  1
  O  O24  1  0.990980  0.269087  0.191318  1
  O  O25  1  0.730913  0.808682  0.009020  1
  O  O26  1  0.808682  0.009020  0.730913  1
  O  O27  1  0.009020  0.730913  0.808682  1
  O  O28  1  0.203553  0.447750  0.942095  1
  O  O29  1  0.447750  0.942095  0.203553  1
  O  O30  1  0.942095  0.203553  0.447750  1
  O  O31  1  0.796447  0.552250  0.057905  1
