# generated using pymatgen
data_Dy8Re3RuC8
_symmetry_space_group_name_H-M   'P 1'
_cell_length_a   5.11688600
_cell_length_b   6.56138010
_cell_length_c   9.85281665
_cell_angle_alpha   89.88868641
_cell_angle_beta   90.00000000
_cell_angle_gamma   90.00000000
_symmetry_Int_Tables_number   1
_chemical_formula_structural   Dy8Re3RuC8
_chemical_formula_sum   'Dy8 Re3 Ru1 C8'
_cell_volume   330.79620584
_cell_formula_units_Z   1
loop_
 _symmetry_equiv_pos_site_id
 _symmetry_equiv_pos_as_xyz
  1  'x, y, z'
loop_
 _atom_site_type_symbol
 _atom_site_label
 _atom_site_symmetry_multiplicity
 _atom_site_fract_x
 _atom_site_fract_y
 _atom_site_fract_z
 _atom_site_occupancy
  Dy  Dy0  1  0.250000  0.823647  0.945400  1
  Dy  Dy1  1  0.250000  0.318653  0.556557  1
  Dy  Dy2  1  0.750000  0.180728  0.056532  1
  Dy  Dy3  1  0.750000  0.680643  0.443879  1
  Dy  Dy4  1  0.250000  0.468418  0.216136  1
  Dy  Dy5  1  0.250000  0.969224  0.282869  1
  Dy  Dy6  1  0.750000  0.530792  0.785655  1
  Dy  Dy7  1  0.750000  0.032558  0.715898  1
  Re  Re8  1  0.250000  0.778865  0.634934  1
  Re  Re9  1  0.750000  0.721968  0.133838  1
  Re  Re10  1  0.750000  0.221610  0.366510  1
  Ru  Ru11  1  0.250000  0.278225  0.865310  1
  C  C12  1  0.250000  0.043328  0.740463  1
  C  C13  1  0.250000  0.545651  0.756766  1
  C  C14  1  0.750000  0.954992  0.259162  1
  C  C15  1  0.750000  0.455526  0.241129  1
  C  C16  1  0.250000  0.676624  0.450382  1
  C  C17  1  0.250000  0.174719  0.048892  1
  C  C18  1  0.750000  0.322080  0.551155  1
  C  C19  1  0.750000  0.821748  0.948534  1
