# generated using pymatgen
data_Dy5Lu(MoO6)2
_symmetry_space_group_name_H-M   'P 1'
_cell_length_a   6.64037334
_cell_length_b   6.63785331
_cell_length_c   6.63968000
_cell_angle_alpha   92.11116343
_cell_angle_beta   92.13586767
_cell_angle_gamma   92.13848487
_symmetry_Int_Tables_number   1
_chemical_formula_structural   Dy5Lu(MoO6)2
_chemical_formula_sum   'Dy5 Lu1 Mo2 O12'
_cell_volume   292.04140639
_cell_formula_units_Z   1
loop_
 _symmetry_equiv_pos_site_id
 _symmetry_equiv_pos_as_xyz
  1  'x, y, z'
loop_
 _atom_site_type_symbol
 _atom_site_label
 _atom_site_symmetry_multiplicity
 _atom_site_fract_x
 _atom_site_fract_y
 _atom_site_fract_z
 _atom_site_occupancy
  Dy  Dy0  1  0.747259  0.932487  0.438529  1
  Dy  Dy1  1  0.930113  0.439668  0.747871  1
  Dy  Dy2  1  0.441028  0.746702  0.932121  1
  Dy  Dy3  1  0.254348  0.069415  0.560870  1
  Dy  Dy4  1  0.068801  0.558700  0.253423  1
  Lu  Lu5  1  0.559748  0.252934  0.068874  1
  Mo  Mo6  1  0.500432  0.498198  0.499370  1
  Mo  Mo7  1  0.000506  0.002046  0.000861  1
  O  O8  1  0.594265  0.460710  0.812419  1
  O  O9  1  0.467065  0.810384  0.597354  1
  O  O10  1  0.811117  0.597113  0.467456  1
  O  O11  1  0.405940  0.527506  0.186796  1
  O  O12  1  0.532490  0.189038  0.395997  1
  O  O13  1  0.189054  0.403344  0.533465  1
  O  O14  1  0.069528  0.908931  0.310442  1
  O  O15  1  0.902285  0.310797  0.071132  1
  O  O16  1  0.689165  0.936347  0.088530  1
  O  O17  1  0.091520  0.691002  0.931245  1
  O  O18  1  0.932142  0.090779  0.689739  1
  O  O19  1  0.313198  0.073897  0.913508  1
