# generated using pymatgen
data_SmZn2CdPt2
_symmetry_space_group_name_H-M   'P 1'
_cell_length_a   5.28019266
_cell_length_b   5.33884343
_cell_length_c   5.33884449
_cell_angle_alpha   63.10320089
_cell_angle_beta   60.36275814
_cell_angle_gamma   60.36275182
_symmetry_Int_Tables_number   1
_chemical_formula_structural   SmZn2CdPt2
_chemical_formula_sum   'Sm1 Zn2 Cd1 Pt2'
_cell_volume   109.31131137
_cell_formula_units_Z   1
loop_
 _symmetry_equiv_pos_site_id
 _symmetry_equiv_pos_as_xyz
  1  'x, y, z'
loop_
 _atom_site_type_symbol
 _atom_site_label
 _atom_site_symmetry_multiplicity
 _atom_site_fract_x
 _atom_site_fract_y
 _atom_site_fract_z
 _atom_site_occupancy
  Sm  Sm0  1  0.256594  0.243406  0.243406  1
  Zn  Zn1  1  0.121072  0.629256  0.629256  1
  Zn  Zn2  1  0.620417  0.629256  0.629256  1
  Cd  Cd3  1  0.004228  0.995772  0.995772  1
  Pt  Pt4  1  0.623845  0.627082  0.125230  1
  Pt  Pt5  1  0.623845  0.125230  0.627082  1
