# generated using pymatgen
data_Nd2Ho6AlPd24
_symmetry_space_group_name_H-M   'P 1'
_cell_length_a   8.37277258
_cell_length_b   8.37277261
_cell_length_c   8.37277357
_cell_angle_alpha   90.10522953
_cell_angle_beta   89.89477050
_cell_angle_gamma   89.89476402
_symmetry_Int_Tables_number   1
_chemical_formula_structural   Nd2Ho6AlPd24
_chemical_formula_sum   'Nd2 Ho6 Al1 Pd24'
_cell_volume   586.95625884
_cell_formula_units_Z   1
loop_
 _symmetry_equiv_pos_site_id
 _symmetry_equiv_pos_as_xyz
  1  'x, y, z'
loop_
 _atom_site_type_symbol
 _atom_site_label
 _atom_site_symmetry_multiplicity
 _atom_site_fract_x
 _atom_site_fract_y
 _atom_site_fract_z
 _atom_site_occupancy
  Nd  Nd0  1  0.252436  0.747564  0.747564  1
  Nd  Nd1  1  0.747564  0.252436  0.252436  1
  Ho  Ho2  1  0.252094  0.251963  0.251963  1
  Ho  Ho3  1  0.747906  0.748037  0.748037  1
  Ho  Ho4  1  0.748037  0.747906  0.251963  1
  Ho  Ho5  1  0.748037  0.251963  0.747906  1
  Ho  Ho6  1  0.251963  0.252094  0.748037  1
  Ho  Ho7  1  0.251963  0.748037  0.252094  1
  Al  Al8  1  0.000000  0.000000  0.000000  1
  Pd  Pd9  1  0.259694  0.497780  0.003166  1
  Pd  Pd10  1  0.740306  0.502220  0.996834  1
  Pd  Pd11  1  0.003166  0.259694  0.502220  1
  Pd  Pd12  1  0.497780  0.259694  0.996834  1
  Pd  Pd13  1  0.996834  0.740306  0.497780  1
  Pd  Pd14  1  0.502220  0.740306  0.003166  1
  Pd  Pd15  1  0.497780  0.996834  0.259694  1
  Pd  Pd16  1  0.259694  0.003166  0.497780  1
  Pd  Pd17  1  0.502220  0.003166  0.740306  1
  Pd  Pd18  1  0.740306  0.996834  0.502220  1
  Pd  Pd19  1  0.003166  0.502220  0.259694  1
  Pd  Pd20  1  0.996834  0.497780  0.740306  1
  Pd  Pd21  1  0.252953  0.496680  0.496680  1
  Pd  Pd22  1  0.747047  0.503320  0.503320  1
  Pd  Pd23  1  0.496680  0.252953  0.503320  1
  Pd  Pd24  1  0.503320  0.747047  0.496680  1
  Pd  Pd25  1  0.496680  0.503320  0.252953  1
  Pd  Pd26  1  0.503320  0.496680  0.747047  1
  Pd  Pd27  1  0.289321  0.002606  0.002606  1
  Pd  Pd28  1  0.710679  0.997394  0.997394  1
  Pd  Pd29  1  0.002606  0.289321  0.997394  1
  Pd  Pd30  1  0.997394  0.710679  0.002606  1
  Pd  Pd31  1  0.002606  0.997394  0.289321  1
  Pd  Pd32  1  0.997394  0.002606  0.710679  1
