# generated using pymatgen
data_Hf3Zn3Ir2Pd
_symmetry_space_group_name_H-M   'P 1'
_cell_length_a   7.17881300
_cell_length_b   7.17881188
_cell_length_c   6.92087000
_cell_angle_alpha   90.00000000
_cell_angle_beta   90.00000000
_cell_angle_gamma   119.99999134
_symmetry_Int_Tables_number   1
_chemical_formula_structural   Hf3Zn3Ir2Pd
_chemical_formula_sum   'Hf6 Zn6 Ir4 Pd2'
_cell_volume   308.88482645
_cell_formula_units_Z   2
loop_
 _symmetry_equiv_pos_site_id
 _symmetry_equiv_pos_as_xyz
  1  'x, y, z'
loop_
 _atom_site_type_symbol
 _atom_site_label
 _atom_site_symmetry_multiplicity
 _atom_site_fract_x
 _atom_site_fract_y
 _atom_site_fract_z
 _atom_site_occupancy
  Hf  Hf0  1  0.602879  0.588670  0.250000  1
  Hf  Hf1  1  0.014209  0.411330  0.750000  1
  Hf  Hf2  1  0.411330  0.014209  0.250000  1
  Hf  Hf3  1  0.985791  0.397121  0.250000  1
  Hf  Hf4  1  0.397121  0.985791  0.750000  1
  Hf  Hf5  1  0.588670  0.602879  0.750000  1
  Zn  Zn6  1  0.265917  0.265917  0.500000  1
  Zn  Zn7  1  0.734083  0.000000  0.500000  1
  Zn  Zn8  1  0.000000  0.734083  0.500000  1
  Zn  Zn9  1  0.734083  0.000000  0.000000  1
  Zn  Zn10  1  0.265917  0.265917  0.000000  1
  Zn  Zn11  1  0.000000  0.734083  0.000000  1
  Ir  Ir12  1  0.333333  0.666667  0.484363  1
  Ir  Ir13  1  0.333333  0.666667  0.015637  1
  Ir  Ir14  1  0.666667  0.333333  0.515637  1
  Ir  Ir15  1  0.666667  0.333333  0.984363  1
  Pd  Pd16  1  0.000000  0.000000  0.750000  1
  Pd  Pd17  1  0.000000  0.000000  0.250000  1
