# generated using pymatgen
data_TbYb6Dy3Ge8
_symmetry_space_group_name_H-M   'P 1'
_cell_length_a   7.45122700
_cell_length_b   7.88540900
_cell_length_c   15.20703800
_cell_angle_alpha   89.99867944
_cell_angle_beta   90.00001523
_cell_angle_gamma   90.00005982
_symmetry_Int_Tables_number   1
_chemical_formula_structural   TbYb6Dy3Ge8
_chemical_formula_sum   'Tb2 Yb12 Dy6 Ge16'
_cell_volume   893.50430561
_cell_formula_units_Z   2
loop_
 _symmetry_equiv_pos_site_id
 _symmetry_equiv_pos_as_xyz
  1  'x, y, z'
loop_
 _atom_site_type_symbol
 _atom_site_label
 _atom_site_symmetry_multiplicity
 _atom_site_fract_x
 _atom_site_fract_y
 _atom_site_fract_z
 _atom_site_occupancy
  Tb  Tb0  1  0.182684  0.672427  0.621311  1
  Tb  Tb1  1  0.682684  0.827573  0.878689  1
  Yb  Yb2  1  0.977673  0.812775  0.404567  1
  Yb  Yb3  1  0.477673  0.687225  0.095433  1
  Yb  Yb4  1  0.522333  0.312753  0.595413  1
  Yb  Yb5  1  0.022333  0.187247  0.904587  1
  Yb  Yb6  1  0.022294  0.187226  0.595416  1
  Yb  Yb7  1  0.522294  0.312774  0.904583  1
  Yb  Yb8  1  0.477707  0.687239  0.404571  1
  Yb  Yb9  1  0.977707  0.812761  0.095429  1
  Yb  Yb10  1  0.346554  0.020017  0.750004  1
  Yb  Yb11  1  0.846554  0.479983  0.749996  1
  Yb  Yb12  1  0.153429  0.519972  0.249996  1
  Yb  Yb13  1  0.653429  0.980028  0.250004  1
  Dy  Dy14  1  0.317299  0.172392  0.121337  1
  Dy  Dy15  1  0.817299  0.327608  0.378663  1
  Dy  Dy16  1  0.182699  0.672342  0.878704  1
  Dy  Dy17  1  0.682699  0.827658  0.621296  1
  Dy  Dy18  1  0.317313  0.172391  0.378669  1
  Dy  Dy19  1  0.817312  0.327609  0.121332  1
  Ge  Ge20  1  0.846768  0.533196  0.540242  1
  Ge  Ge21  1  0.346768  0.966804  0.959758  1
  Ge  Ge22  1  0.653128  0.033253  0.459727  1
  Ge  Ge23  1  0.153128  0.466747  0.040272  1
  Ge  Ge24  1  0.153088  0.466688  0.459669  1
  Ge  Ge25  1  0.653088  0.033312  0.040332  1
  Ge  Ge26  1  0.346996  0.966844  0.540235  1
  Ge  Ge27  1  0.846996  0.533156  0.959765  1
  Ge  Ge28  1  0.978899  0.882319  0.749977  1
  Ge  Ge29  1  0.478899  0.617681  0.750023  1
  Ge  Ge30  1  0.521099  0.382206  0.250001  1
  Ge  Ge31  1  0.021099  0.117795  0.249999  1
  Ge  Ge32  1  0.237318  0.384690  0.750035  1
  Ge  Ge33  1  0.737318  0.115309  0.749965  1
  Ge  Ge34  1  0.262718  0.884756  0.250000  1
  Ge  Ge35  1  0.762718  0.615244  0.250000  1
