# generated using pymatgen
data_Y4Ga4Pd3Ru
_symmetry_space_group_name_H-M   'P 1'
_cell_length_a   4.45647800
_cell_length_b   6.92833207
_cell_length_c   7.66599568
_cell_angle_alpha   89.64572275
_cell_angle_beta   90.00000000
_cell_angle_gamma   90.00000000
_symmetry_Int_Tables_number   1
_chemical_formula_structural   Y4Ga4Pd3Ru
_chemical_formula_sum   'Y4 Ga4 Pd3 Ru1'
_cell_volume   236.69044703
_cell_formula_units_Z   1
loop_
 _symmetry_equiv_pos_site_id
 _symmetry_equiv_pos_as_xyz
  1  'x, y, z'
loop_
 _atom_site_type_symbol
 _atom_site_label
 _atom_site_symmetry_multiplicity
 _atom_site_fract_x
 _atom_site_fract_y
 _atom_site_fract_z
 _atom_site_occupancy
  Y  Y0  1  0.250000  0.980293  0.306093  1
  Y  Y1  1  0.250000  0.476753  0.189555  1
  Y  Y2  1  0.750000  0.018780  0.701036  1
  Y  Y3  1  0.750000  0.511476  0.803820  1
  Ga  Ga4  1  0.250000  0.324951  0.577351  1
  Ga  Ga5  1  0.250000  0.834518  0.925280  1
  Ga  Ga6  1  0.750000  0.672898  0.425947  1
  Ga  Ga7  1  0.750000  0.175382  0.072721  1
  Pd  Pd8  1  0.250000  0.715284  0.599907  1
  Pd  Pd9  1  0.750000  0.783504  0.098559  1
  Pd  Pd10  1  0.750000  0.283167  0.399797  1
  Ru  Ru11  1  0.250000  0.222995  0.899934  1
