# generated using pymatgen
data_La2YSi5PPd20
_symmetry_space_group_name_H-M   'P 1'
_cell_length_a   8.76981347
_cell_length_b   8.76981419
_cell_length_c   8.77291500
_cell_angle_alpha   59.98829929
_cell_angle_beta   59.98829659
_cell_angle_gamma   60.02340282
_symmetry_Int_Tables_number   1
_chemical_formula_structural   La2YSi5PPd20
_chemical_formula_sum   'La2 Y1 Si5 P1 Pd20'
_cell_volume   477.10015657
_cell_formula_units_Z   1
loop_
 _symmetry_equiv_pos_site_id
 _symmetry_equiv_pos_as_xyz
  1  'x, y, z'
loop_
 _atom_site_type_symbol
 _atom_site_label
 _atom_site_symmetry_multiplicity
 _atom_site_fract_x
 _atom_site_fract_y
 _atom_site_fract_z
 _atom_site_occupancy
  La  La0  1  0.249482  0.249482  0.250518  1
  La  La1  1  0.749482  0.749482  0.750518  1
  Y  Y2  1  0.000540  0.000540  0.999460  1
  Si  Si3  1  0.734208  0.264232  0.265792  1
  Si  Si4  1  0.264232  0.734208  0.735768  1
  Si  Si5  1  0.264232  0.734208  0.265792  1
  Si  Si6  1  0.734208  0.264232  0.735768  1
  Si  Si7  1  0.265839  0.265839  0.734161  1
  P  P8  1  0.736158  0.736158  0.263842  1
  Pd  Pd9  1  0.385699  0.385699  0.385503  1
  Pd  Pd10  1  0.614437  0.614437  0.612941  1
  Pd  Pd11  1  0.385699  0.385699  0.843096  1
  Pd  Pd12  1  0.387059  0.841813  0.385563  1
  Pd  Pd13  1  0.614437  0.614437  0.158187  1
  Pd  Pd14  1  0.614497  0.156904  0.614301  1
  Pd  Pd15  1  0.841813  0.387059  0.385563  1
  Pd  Pd16  1  0.156904  0.614497  0.614301  1
  Pd  Pd17  1  0.346029  0.000284  0.999716  1
  Pd  Pd18  1  0.654287  0.998197  0.001803  1
  Pd  Pd19  1  0.000284  0.346029  0.653971  1
  Pd  Pd20  1  0.998197  0.654287  0.345713  1
  Pd  Pd21  1  0.000284  0.346029  0.999716  1
  Pd  Pd22  1  0.654287  0.998197  0.345713  1
  Pd  Pd23  1  0.998197  0.654287  0.001803  1
  Pd  Pd24  1  0.346029  0.000284  0.653971  1
  Pd  Pd25  1  0.000870  0.000870  0.345525  1
  Pd  Pd26  1  0.000870  0.000870  0.652734  1
  Pd  Pd27  1  0.654475  0.347266  0.999130  1
  Pd  Pd28  1  0.347266  0.654475  0.999130  1
