# generated using pymatgen
data_Tb2Nd4InHg9
_symmetry_space_group_name_H-M   'P 1'
_cell_length_a   6.50477028
_cell_length_b   6.48222551
_cell_length_c   10.43024500
_cell_angle_alpha   90.00000000
_cell_angle_beta   90.00000000
_cell_angle_gamma   103.66600725
_symmetry_Int_Tables_number   1
_chemical_formula_structural   Tb2Nd4InHg9
_chemical_formula_sum   'Tb2 Nd4 In1 Hg9'
_cell_volume   427.34448380
_cell_formula_units_Z   1
loop_
 _symmetry_equiv_pos_site_id
 _symmetry_equiv_pos_as_xyz
  1  'x, y, z'
loop_
 _atom_site_type_symbol
 _atom_site_label
 _atom_site_symmetry_multiplicity
 _atom_site_fract_x
 _atom_site_fract_y
 _atom_site_fract_z
 _atom_site_occupancy
  Tb  Tb0  1  0.577544  0.582040  0.250000  1
  Tb  Tb1  1  0.430901  0.422788  0.750000  1
  Nd  Nd2  1  0.209606  0.790755  0.505655  1
  Nd  Nd3  1  0.209606  0.790755  0.994345  1
  Nd  Nd4  1  0.786077  0.203172  0.496389  1
  Nd  Nd5  1  0.786077  0.203172  0.003611  1
  In  In6  1  0.050589  0.477294  0.250000  1
  Hg  Hg7  1  0.965674  0.962723  0.250000  1
  Hg  Hg8  1  0.035443  0.042103  0.750000  1
  Hg  Hg9  1  0.297570  0.303297  0.031857  1
  Hg  Hg10  1  0.699738  0.694570  0.970306  1
  Hg  Hg11  1  0.297570  0.303297  0.468143  1
  Hg  Hg12  1  0.699738  0.694570  0.529694  1
  Hg  Hg13  1  0.460971  0.046584  0.250000  1
  Hg  Hg14  1  0.956880  0.525911  0.750000  1
  Hg  Hg15  1  0.536017  0.956970  0.750000  1
