# generated using pymatgen
data_Y4ReTc3B8
_symmetry_space_group_name_H-M   'P 1'
_cell_length_a   5.96310649
_cell_length_b   5.30424900
_cell_length_c   6.46009556
_cell_angle_alpha   90.00000000
_cell_angle_beta   90.18290593
_cell_angle_gamma   90.00000000
_symmetry_Int_Tables_number   1
_chemical_formula_structural   Y4ReTc3B8
_chemical_formula_sum   'Y4 Re1 Tc3 B8'
_cell_volume   204.33049991
_cell_formula_units_Z   1
loop_
 _symmetry_equiv_pos_site_id
 _symmetry_equiv_pos_as_xyz
  1  'x, y, z'
loop_
 _atom_site_type_symbol
 _atom_site_label
 _atom_site_symmetry_multiplicity
 _atom_site_fract_x
 _atom_site_fract_y
 _atom_site_fract_z
 _atom_site_occupancy
  Y  Y0  1  0.014133  0.250000  0.338843  1
  Y  Y1  1  0.514697  0.250000  0.160485  1
  Y  Y2  1  0.984785  0.750000  0.662234  1
  Y  Y3  1  0.485343  0.750000  0.838297  1
  Re  Re4  1  0.318102  0.750000  0.314804  1
  Tc  Tc5  1  0.181081  0.250000  0.815254  1
  Tc  Tc6  1  0.680534  0.250000  0.684438  1
  Tc  Tc7  1  0.818938  0.750000  0.184750  1
  B  B8  1  0.369613  0.077732  0.535607  1
  B  B9  1  0.871446  0.421206  0.963890  1
  B  B10  1  0.629334  0.578505  0.463755  1
  B  B11  1  0.130800  0.922215  0.037195  1
  B  B12  1  0.629334  0.921495  0.463755  1
  B  B13  1  0.130800  0.577785  0.037195  1
  B  B14  1  0.369613  0.422268  0.535607  1
  B  B15  1  0.871446  0.078794  0.963890  1
