# generated using pymatgen
data_Y15Ho(CdCo)4
_symmetry_space_group_name_H-M   'P 1'
_cell_length_a   9.53531077
_cell_length_b   9.53027709
_cell_length_c   9.53027700
_cell_angle_alpha   60.00000378
_cell_angle_beta   60.01746498
_cell_angle_gamma   60.01746608
_symmetry_Int_Tables_number   1
_chemical_formula_structural   Y15Ho(CdCo)4
_chemical_formula_sum   'Y15 Ho1 Cd4 Co4'
_cell_volume   612.55560395
_cell_formula_units_Z   1
loop_
 _symmetry_equiv_pos_site_id
 _symmetry_equiv_pos_as_xyz
  1  'x, y, z'
loop_
 _atom_site_type_symbol
 _atom_site_label
 _atom_site_symmetry_multiplicity
 _atom_site_fract_x
 _atom_site_fract_y
 _atom_site_fract_z
 _atom_site_occupancy
  Y  Y0  1  0.937654  0.937995  0.562175  1
  Y  Y1  1  0.812063  0.188115  0.188115  1
  Y  Y2  1  0.937654  0.562175  0.562175  1
  Y  Y3  1  0.937654  0.562175  0.937995  1
  Y  Y4  1  0.812063  0.811708  0.188115  1
  Y  Y5  1  0.346593  0.346753  0.346753  1
  Y  Y6  1  0.562514  0.937578  0.937578  1
  Y  Y7  1  0.562514  0.937578  0.562330  1
  Y  Y8  1  0.187948  0.812000  0.812000  1
  Y  Y9  1  0.187948  0.188053  0.812000  1
  Y  Y10  1  0.346593  0.346753  0.959901  1
  Y  Y11  1  0.346593  0.959901  0.346753  1
  Y  Y12  1  0.812063  0.188115  0.811708  1
  Y  Y13  1  0.562514  0.562330  0.937578  1
  Y  Y14  1  0.187948  0.812000  0.188053  1
  Ho  Ho15  1  0.961089  0.346304  0.346304  1
  Cd  Cd16  1  0.580164  0.580036  0.259766  1
  Cd  Cd17  1  0.259736  0.580088  0.580088  1
  Cd  Cd18  1  0.580164  0.580036  0.580036  1
  Cd  Cd19  1  0.580164  0.259766  0.580036  1
  Co  Co20  1  0.576816  0.141062  0.141062  1
  Co  Co21  1  0.140519  0.141820  0.141820  1
  Co  Co22  1  0.140519  0.575842  0.141820  1
  Co  Co23  1  0.140519  0.141820  0.575842  1
