# generated using pymatgen
data_YSb2O6F
_symmetry_space_group_name_H-M   'P 1'
_cell_length_a   7.33454871
_cell_length_b   7.33454934
_cell_length_c   7.33455000
_cell_angle_alpha   120.40922395
_cell_angle_beta   119.40816444
_cell_angle_gamma   90.16040263
_symmetry_Int_Tables_number   1
_chemical_formula_structural   YSb2O6F
_chemical_formula_sum   'Y2 Sb4 O12 F2'
_cell_volume   279.35800013
_cell_formula_units_Z   2
loop_
 _symmetry_equiv_pos_site_id
 _symmetry_equiv_pos_as_xyz
  1  'x, y, z'
loop_
 _atom_site_type_symbol
 _atom_site_label
 _atom_site_symmetry_multiplicity
 _atom_site_fract_x
 _atom_site_fract_y
 _atom_site_fract_z
 _atom_site_occupancy
  Y  Y0  1  0.500000  0.500000  0.000000  1
  Y  Y1  1  0.000000  0.500000  0.500000  1
  Sb  Sb2  1  0.000000  0.000000  0.000000  1
  Sb  Sb3  1  0.500000  0.000000  0.500000  1
  Sb  Sb4  1  0.500000  0.000000  0.000000  1
  Sb  Sb5  1  0.500000  0.500000  0.500000  1
  O  O6  1  0.182091  0.932091  0.250000  1
  O  O7  1  0.579572  0.329572  0.250000  1
  O  O8  1  0.175554  0.905877  0.843931  1
  O  O9  1  0.561948  0.331623  0.656069  1
  O  O10  1  0.561948  0.905877  0.230324  1
  O  O11  1  0.175554  0.331623  0.269676  1
  O  O12  1  0.817909  0.067909  0.750000  1
  O  O13  1  0.420428  0.670428  0.750000  1
  O  O14  1  0.824446  0.094123  0.156069  1
  O  O15  1  0.438052  0.668377  0.343931  1
  O  O16  1  0.438052  0.094123  0.769676  1
  O  O17  1  0.824446  0.668377  0.730324  1
  F  F18  1  0.856177  0.606177  0.250000  1
  F  F19  1  0.143823  0.393823  0.750000  1
