# generated using pymatgen
data_Gd4Dy(GaSb)2
_symmetry_space_group_name_H-M   'P 1'
_cell_length_a   8.68789800
_cell_length_b   8.68789658
_cell_length_c   7.96791000
_cell_angle_alpha   90.00000000
_cell_angle_beta   90.00000000
_cell_angle_gamma   125.39360123
_symmetry_Int_Tables_number   1
_chemical_formula_structural   Gd4Dy(GaSb)2
_chemical_formula_sum   'Gd8 Dy2 Ga4 Sb4'
_cell_volume   490.26844651
_cell_formula_units_Z   2
loop_
 _symmetry_equiv_pos_site_id
 _symmetry_equiv_pos_as_xyz
  1  'x, y, z'
loop_
 _atom_site_type_symbol
 _atom_site_label
 _atom_site_symmetry_multiplicity
 _atom_site_fract_x
 _atom_site_fract_y
 _atom_site_fract_z
 _atom_site_occupancy
  Gd  Gd0  1  0.038391  0.301101  0.332049  1
  Gd  Gd1  1  0.961609  0.698899  0.667951  1
  Gd  Gd2  1  0.461609  0.198899  0.832049  1
  Gd  Gd3  1  0.801101  0.538391  0.167951  1
  Gd  Gd4  1  0.538391  0.801101  0.167951  1
  Gd  Gd5  1  0.198899  0.461609  0.832049  1
  Gd  Gd6  1  0.698899  0.961609  0.667951  1
  Gd  Gd7  1  0.301101  0.038391  0.332049  1
  Dy  Dy8  1  0.000000  0.000000  0.000000  1
  Dy  Dy9  1  0.500000  0.500000  0.500000  1
  Ga  Ga10  1  0.375760  0.375760  0.124036  1
  Ga  Ga11  1  0.624240  0.624240  0.875964  1
  Ga  Ga12  1  0.124240  0.124240  0.624036  1
  Ga  Ga13  1  0.875760  0.875760  0.375964  1
  Sb  Sb14  1  0.795137  0.204863  0.000000  1
  Sb  Sb15  1  0.204863  0.795137  0.000000  1
  Sb  Sb16  1  0.704863  0.295137  0.500000  1
  Sb  Sb17  1  0.295137  0.704863  0.500000  1
