# generated using pymatgen
data_SmErAl20Fe3Rh
_symmetry_space_group_name_H-M   'P 1'
_cell_length_a   6.79262421
_cell_length_b   6.78263846
_cell_length_c   9.02624214
_cell_angle_alpha   90.17481896
_cell_angle_beta   89.97822596
_cell_angle_gamma   97.02286016
_symmetry_Int_Tables_number   1
_chemical_formula_structural   SmErAl20Fe3Rh
_chemical_formula_sum   'Sm1 Er1 Al20 Fe3 Rh1'
_cell_volume   412.73434927
_cell_formula_units_Z   1
loop_
 _symmetry_equiv_pos_site_id
 _symmetry_equiv_pos_as_xyz
  1  'x, y, z'
loop_
 _atom_site_type_symbol
 _atom_site_label
 _atom_site_symmetry_multiplicity
 _atom_site_fract_x
 _atom_site_fract_y
 _atom_site_fract_z
 _atom_site_occupancy
  Sm  Sm0  1  0.875708  0.125842  0.748571  1
  Er  Er1  1  0.125938  0.871880  0.251688  1
  Al  Al2  1  0.625136  0.376203  0.548220  1
  Al  Al3  1  0.374206  0.624361  0.450157  1
  Al  Al4  1  0.372460  0.619471  0.052413  1
  Al  Al5  1  0.627038  0.381317  0.949190  1
  Al  Al6  1  0.226452  0.227630  0.497888  1
  Al  Al7  1  0.774032  0.771771  0.499331  1
  Al  Al8  1  0.777529  0.768177  0.004200  1
  Al  Al9  1  0.223424  0.231879  0.998519  1
  Al  Al10  1  0.846889  0.162142  0.101178  1
  Al  Al11  1  0.154470  0.836730  0.900542  1
  Al  Al12  1  0.159091  0.841154  0.596444  1
  Al  Al13  1  0.841775  0.157807  0.401785  1
  Al  Al14  1  0.864906  0.586775  0.748929  1
  Al  Al15  1  0.135592  0.416411  0.251111  1
  Al  Al16  1  0.411149  0.137593  0.744991  1
  Al  Al17  1  0.585697  0.861672  0.254988  1
  Al  Al18  1  0.220089  0.480757  0.748800  1
  Al  Al19  1  0.780963  0.520461  0.251156  1
  Al  Al20  1  0.519928  0.776705  0.743971  1
  Al  Al21  1  0.478666  0.222082  0.255764  1
  Fe  Fe22  1  0.000004  0.500732  0.498905  1
  Fe  Fe23  1  0.000118  0.500568  0.001244  1
  Fe  Fe24  1  0.499215  0.999848  0.499067  1
  Rh  Rh25  1  0.499525  0.000032  0.000948  1
