# generated using pymatgen
data_Er10InPb5
_symmetry_space_group_name_H-M   'P 1'
_cell_length_a   8.97287076
_cell_length_b   8.97287080
_cell_length_c   6.60942000
_cell_angle_alpha   90.00000000
_cell_angle_beta   90.00000000
_cell_angle_gamma   120.04725737
_symmetry_Int_Tables_number   1
_chemical_formula_structural   Er10InPb5
_chemical_formula_sum   'Er10 In1 Pb5'
_cell_volume   460.62743651
_cell_formula_units_Z   1
loop_
 _symmetry_equiv_pos_site_id
 _symmetry_equiv_pos_as_xyz
  1  'x, y, z'
loop_
 _atom_site_type_symbol
 _atom_site_label
 _atom_site_symmetry_multiplicity
 _atom_site_fract_x
 _atom_site_fract_y
 _atom_site_fract_z
 _atom_site_occupancy
  Er  Er0  1  0.664129  0.333627  0.998058  1
  Er  Er1  1  0.333627  0.664129  0.998058  1
  Er  Er2  1  0.333627  0.664129  0.501942  1
  Er  Er3  1  0.664129  0.333627  0.501942  1
  Er  Er4  1  0.760270  0.760270  0.750000  1
  Er  Er5  1  0.239184  0.004567  0.750000  1
  Er  Er6  1  0.004567  0.239184  0.750000  1
  Er  Er7  1  0.238190  0.238190  0.250000  1
  Er  Er8  1  0.762192  0.999583  0.250000  1
  Er  Er9  1  0.999583  0.762192  0.250000  1
  In  In10  1  0.395255  0.395255  0.750000  1
  Pb  Pb11  1  0.606868  0.000238  0.750000  1
  Pb  Pb12  1  0.000238  0.606868  0.750000  1
  Pb  Pb13  1  0.605579  0.605579  0.250000  1
  Pb  Pb14  1  0.393549  0.999012  0.250000  1
  Pb  Pb15  1  0.999012  0.393549  0.250000  1
