# generated using pymatgen
data_KBa4Sb2P
_symmetry_space_group_name_H-M   'P 1'
_cell_length_a   8.95343700
_cell_length_b   10.36792200
_cell_length_c   14.11136500
_cell_angle_alpha   90.00000000
_cell_angle_beta   90.00000000
_cell_angle_gamma   90.00000000
_symmetry_Int_Tables_number   1
_chemical_formula_structural   KBa4Sb2P
_chemical_formula_sum   'K4 Ba16 Sb8 P4'
_cell_volume   1309.93736023
_cell_formula_units_Z   4
loop_
 _symmetry_equiv_pos_site_id
 _symmetry_equiv_pos_as_xyz
  1  'x, y, z'
loop_
 _atom_site_type_symbol
 _atom_site_label
 _atom_site_symmetry_multiplicity
 _atom_site_fract_x
 _atom_site_fract_y
 _atom_site_fract_z
 _atom_site_occupancy
  K  K0  1  0.013284  0.750000  0.499997  1
  K  K1  1  0.986716  0.250000  0.500003  1
  K  K2  1  0.513284  0.250000  0.000003  1
  K  K3  1  0.486716  0.750000  0.999997  1
  Ba  Ba4  1  0.842162  0.750000  0.800416  1
  Ba  Ba5  1  0.157838  0.250000  0.199584  1
  Ba  Ba6  1  0.342162  0.250000  0.699584  1
  Ba  Ba7  1  0.657838  0.750000  0.300416  1
  Ba  Ba8  1  0.690623  0.504155  0.573661  1
  Ba  Ba9  1  0.309377  0.495845  0.426339  1
  Ba  Ba10  1  0.190623  0.495845  0.926339  1
  Ba  Ba11  1  0.309377  0.004155  0.426339  1
  Ba  Ba12  1  0.809377  0.504155  0.073661  1
  Ba  Ba13  1  0.690623  0.995845  0.573661  1
  Ba  Ba14  1  0.809377  0.995845  0.073661  1
  Ba  Ba15  1  0.190623  0.004155  0.926339  1
  Ba  Ba16  1  0.338261  0.750000  0.702148  1
  Ba  Ba17  1  0.661739  0.250000  0.297852  1
  Ba  Ba18  1  0.838261  0.250000  0.797852  1
  Ba  Ba19  1  0.161739  0.750000  0.202148  1
  Sb  Sb20  1  0.558025  0.500857  0.823813  1
  Sb  Sb21  1  0.441975  0.499143  0.176187  1
  Sb  Sb22  1  0.058025  0.499143  0.676187  1
  Sb  Sb23  1  0.441975  0.000857  0.176187  1
  Sb  Sb24  1  0.941975  0.500857  0.323813  1
  Sb  Sb25  1  0.558025  0.999143  0.823813  1
  Sb  Sb26  1  0.941975  0.999143  0.323813  1
  Sb  Sb27  1  0.058025  0.000857  0.676187  1
  P  P28  1  0.009437  0.750000  0.998630  1
  P  P29  1  0.990563  0.250000  0.001370  1
  P  P30  1  0.509437  0.250000  0.501370  1
  P  P31  1  0.490563  0.750000  0.498630  1
