# generated using pymatgen
data_Na5Yb(Si3Rh)8
_symmetry_space_group_name_H-M   'P 1'
_cell_length_a   10.10180659
_cell_length_b   10.10180686
_cell_length_c   8.16266200
_cell_angle_alpha   90.10066378
_cell_angle_beta   89.89933622
_cell_angle_gamma   132.39577719
_symmetry_Int_Tables_number   1
_chemical_formula_structural   Na5Yb(Si3Rh)8
_chemical_formula_sum   'Na5 Yb1 Si24 Rh8'
_cell_volume   615.15220383
_cell_formula_units_Z   1
loop_
 _symmetry_equiv_pos_site_id
 _symmetry_equiv_pos_as_xyz
  1  'x, y, z'
loop_
 _atom_site_type_symbol
 _atom_site_label
 _atom_site_symmetry_multiplicity
 _atom_site_fract_x
 _atom_site_fract_y
 _atom_site_fract_z
 _atom_site_occupancy
  Na  Na0  1  0.000450  0.500450  0.750000  1
  Na  Na1  1  0.500437  0.000437  0.750000  1
  Na  Na2  1  0.999348  0.499348  0.250000  1
  Na  Na3  1  0.500127  0.500085  0.499890  1
  Na  Na4  1  0.000085  0.000127  0.000110  1
  Yb  Yb5  1  0.498892  0.998892  0.250000  1
  Si  Si6  1  0.389715  0.157099  0.999880  1
  Si  Si7  1  0.657099  0.889715  0.500120  1
  Si  Si8  1  0.111833  0.345163  0.500513  1
  Si  Si9  1  0.845163  0.611833  0.999487  1
  Si  Si10  1  0.609874  0.843041  0.998042  1
  Si  Si11  1  0.343041  0.109874  0.501958  1
  Si  Si12  1  0.888247  0.654352  0.498452  1
  Si  Si13  1  0.154352  0.388247  0.001548  1
  Si  Si14  1  0.613971  0.381215  0.226787  1
  Si  Si15  1  0.881215  0.113971  0.273213  1
  Si  Si16  1  0.885892  0.119318  0.728719  1
  Si  Si17  1  0.619318  0.385892  0.771281  1
  Si  Si18  1  0.387124  0.620707  0.770994  1
  Si  Si19  1  0.120707  0.887124  0.729006  1
  Si  Si20  1  0.708132  0.296968  0.997307  1
  Si  Si21  1  0.796968  0.208132  0.502693  1
  Si  Si22  1  0.291401  0.702881  0.997139  1
  Si  Si23  1  0.202881  0.791401  0.502861  1
  Si  Si24  1  0.168751  0.167792  0.331318  1
  Si  Si25  1  0.667792  0.668751  0.168682  1
  Si  Si26  1  0.331352  0.333846  0.831164  1
  Si  Si27  1  0.833846  0.831352  0.668836  1
  Si  Si28  1  0.378782  0.612487  0.227011  1
  Si  Si29  1  0.112487  0.878782  0.272989  1
  Rh  Rh30  1  0.626438  0.625704  0.874954  1
  Rh  Rh31  1  0.125704  0.126438  0.625046  1
  Rh  Rh32  1  0.874679  0.874547  0.375367  1
  Rh  Rh33  1  0.374547  0.374679  0.124633  1
  Rh  Rh34  1  0.334786  0.668745  0.498494  1
  Rh  Rh35  1  0.168745  0.834786  0.001506  1
  Rh  Rh36  1  0.665046  0.330774  0.497836  1
  Rh  Rh37  1  0.830774  0.165046  0.002164  1
