# generated using pymatgen
data_NaYb3(U2S5)4
_symmetry_space_group_name_H-M   'P 1'
_cell_length_a   7.33428480
_cell_length_b   8.03471834
_cell_length_c   11.57839240
_cell_angle_alpha   89.64012596
_cell_angle_beta   89.90514788
_cell_angle_gamma   89.95443106
_symmetry_Int_Tables_number   1
_chemical_formula_structural   NaYb3(U2S5)4
_chemical_formula_sum   'Na1 Yb3 U8 S20'
_cell_volume   682.28747058
_cell_formula_units_Z   1
loop_
 _symmetry_equiv_pos_site_id
 _symmetry_equiv_pos_as_xyz
  1  'x, y, z'
loop_
 _atom_site_type_symbol
 _atom_site_label
 _atom_site_symmetry_multiplicity
 _atom_site_fract_x
 _atom_site_fract_y
 _atom_site_fract_z
 _atom_site_occupancy
  Na  Na0  1  0.023269  0.999769  0.322193  1
  Yb  Yb1  1  0.521731  0.000059  0.179511  1
  Yb  Yb2  1  0.976365  0.000025  0.674586  1
  Yb  Yb3  1  0.474855  0.999761  0.824784  1
  U  U4  1  0.020063  0.498744  0.320799  1
  U  U5  1  0.522358  0.501308  0.179130  1
  U  U6  1  0.980828  0.501485  0.680182  1
  U  U7  1  0.480230  0.498356  0.820986  1
  U  U8  1  0.074279  0.750306  0.009509  1
  U  U9  1  0.576406  0.250143  0.491508  1
  U  U10  1  0.924680  0.247980  0.992025  1
  U  U11  1  0.422284  0.752578  0.507418  1
  S  S12  1  0.164249  0.452463  0.096441  1
  S  S13  1  0.664501  0.548394  0.403588  1
  S  S14  1  0.836070  0.545780  0.902458  1
  S  S15  1  0.337721  0.453748  0.598250  1
  S  S16  1  0.458157  0.730712  0.999603  1
  S  S17  1  0.957574  0.275021  0.502340  1
  S  S18  1  0.541758  0.266920  0.998538  1
  S  S19  1  0.042597  0.726984  0.504300  1
  S  S20  1  0.336414  0.273587  0.313283  1
  S  S21  1  0.825877  0.724023  0.183046  1
  S  S22  1  0.667300  0.732121  0.686890  1
  S  S23  1  0.168478  0.268154  0.812736  1
  S  S24  1  0.660102  0.958896  0.407556  1
  S  S25  1  0.168956  0.042683  0.086723  1
  S  S26  1  0.337307  0.042965  0.595651  1
  S  S27  1  0.835896  0.957342  0.906122  1
  S  S28  1  0.303494  0.735399  0.280654  1
  S  S29  1  0.800205  0.264708  0.217641  1
  S  S30  1  0.698143  0.258447  0.718338  1
  S  S31  1  0.197853  0.741138  0.783209  1
