# generated using pymatgen
data_Yb3(SbRh)2
_symmetry_space_group_name_H-M   'P 1'
_cell_length_a   5.71454200
_cell_length_b   8.43067300
_cell_length_c   13.67767700
_cell_angle_alpha   90.00000000
_cell_angle_beta   90.00000000
_cell_angle_gamma   90.00000000
_symmetry_Int_Tables_number   1
_chemical_formula_structural   Yb3(SbRh)2
_chemical_formula_sum   'Yb12 Sb8 Rh8'
_cell_volume   658.95539389
_cell_formula_units_Z   4
loop_
 _symmetry_equiv_pos_site_id
 _symmetry_equiv_pos_as_xyz
  1  'x, y, z'
loop_
 _atom_site_type_symbol
 _atom_site_label
 _atom_site_symmetry_multiplicity
 _atom_site_fract_x
 _atom_site_fract_y
 _atom_site_fract_z
 _atom_site_occupancy
  Yb  Yb0  1  0.157812  0.601248  0.095798  1
  Yb  Yb1  1  0.157812  0.898752  0.904202  1
  Yb  Yb2  1  0.842188  0.101248  0.404202  1
  Yb  Yb3  1  0.842188  0.398752  0.595798  1
  Yb  Yb4  1  0.842188  0.398752  0.904202  1
  Yb  Yb5  1  0.842188  0.101248  0.095798  1
  Yb  Yb6  1  0.157812  0.898752  0.595798  1
  Yb  Yb7  1  0.157812  0.601248  0.404202  1
  Yb  Yb8  1  0.369600  0.232775  0.250000  1
  Yb  Yb9  1  0.369600  0.267225  0.750000  1
  Yb  Yb10  1  0.630400  0.732775  0.250000  1
  Yb  Yb11  1  0.630400  0.767225  0.750000  1
  Sb  Sb12  1  0.363518  0.250000  0.000000  1
  Sb  Sb13  1  0.636482  0.750000  0.500000  1
  Sb  Sb14  1  0.636482  0.750000  0.000000  1
  Sb  Sb15  1  0.363518  0.250000  0.500000  1
  Sb  Sb16  1  0.869177  0.388866  0.250000  1
  Sb  Sb17  1  0.869177  0.111134  0.750000  1
  Sb  Sb18  1  0.130823  0.888866  0.250000  1
  Sb  Sb19  1  0.130823  0.611134  0.750000  1
  Rh  Rh20  1  0.632433  0.467552  0.088209  1
  Rh  Rh21  1  0.632433  0.032448  0.911791  1
  Rh  Rh22  1  0.367567  0.967552  0.411791  1
  Rh  Rh23  1  0.367567  0.532448  0.588209  1
  Rh  Rh24  1  0.367567  0.532448  0.911791  1
  Rh  Rh25  1  0.367567  0.967552  0.088209  1
  Rh  Rh26  1  0.632433  0.032448  0.588209  1
  Rh  Rh27  1  0.632433  0.467552  0.411791  1
