# generated using pymatgen
data_LuTh6Fe2Co
_symmetry_space_group_name_H-M   'P 1'
_cell_length_a   9.70296112
_cell_length_b   9.73896220
_cell_length_c   6.15377614
_cell_angle_alpha   89.92616470
_cell_angle_beta   90.14821274
_cell_angle_gamma   119.87778910
_symmetry_Int_Tables_number   1
_chemical_formula_structural   LuTh6Fe2Co
_chemical_formula_sum   'Lu2 Th12 Fe4 Co2'
_cell_volume   504.22149075
_cell_formula_units_Z   2
loop_
 _symmetry_equiv_pos_site_id
 _symmetry_equiv_pos_as_xyz
  1  'x, y, z'
loop_
 _atom_site_type_symbol
 _atom_site_label
 _atom_site_symmetry_multiplicity
 _atom_site_fract_x
 _atom_site_fract_y
 _atom_site_fract_z
 _atom_site_occupancy
  Lu  Lu0  1  0.333190  0.666752  0.043831  1
  Lu  Lu1  1  0.666438  0.333248  0.543831  1
  Th  Th2  1  0.125484  0.870744  0.240150  1
  Th  Th3  1  0.254740  0.129256  0.740150  1
  Th  Th4  1  0.870373  0.744762  0.739812  1
  Th  Th5  1  0.125610  0.255238  0.239812  1
  Th  Th6  1  0.747895  0.873814  0.239008  1
  Th  Th7  1  0.874082  0.126186  0.739008  1
  Th  Th8  1  0.543679  0.459495  0.069599  1
  Th  Th9  1  0.084182  0.540505  0.569599  1
  Th  Th10  1  0.459891  0.914509  0.568802  1
  Th  Th11  1  0.545382  0.085491  0.068802  1
  Th  Th12  1  0.913479  0.456012  0.068169  1
  Th  Th13  1  0.457466  0.543988  0.568169  1
  Fe  Fe14  1  0.815229  0.181608  0.285810  1
  Fe  Fe15  1  0.633622  0.818392  0.785810  1
  Fe  Fe16  1  0.182310  0.364993  0.784696  1
  Fe  Fe17  1  0.817316  0.635007  0.284696  1
  Co  Co18  1  0.365661  0.181692  0.290123  1
  Co  Co19  1  0.183970  0.818308  0.790123  1
