# generated using pymatgen
data_K(PaTe3)4
_symmetry_space_group_name_H-M   'P 1'
_cell_length_a   7.47742903
_cell_length_b   7.47742902
_cell_length_c   13.15303574
_cell_angle_alpha   75.28732956
_cell_angle_beta   75.28732966
_cell_angle_gamma   68.45700686
_symmetry_Int_Tables_number   1
_chemical_formula_structural   K(PaTe3)4
_chemical_formula_sum   'K1 Pa4 Te12'
_cell_volume   650.96668085
_cell_formula_units_Z   1
loop_
 _symmetry_equiv_pos_site_id
 _symmetry_equiv_pos_as_xyz
  1  'x, y, z'
loop_
 _atom_site_type_symbol
 _atom_site_label
 _atom_site_symmetry_multiplicity
 _atom_site_fract_x
 _atom_site_fract_y
 _atom_site_fract_z
 _atom_site_occupancy
  K  K0  1  0.839987  0.839987  0.516827  1
  Pa  Pa1  1  0.794840  0.794840  0.864320  1
  Pa  Pa2  1  0.296863  0.296863  0.862864  1
  Pa  Pa3  1  0.699362  0.203326  0.139158  1
  Pa  Pa4  1  0.203326  0.699362  0.139158  1
  Te  Te5  1  0.039135  0.039135  0.266139  1
  Te  Te6  1  0.531292  0.531292  0.274561  1
  Te  Te7  1  0.456995  0.963583  0.732583  1
  Te  Te8  1  0.963583  0.456995  0.732583  1
  Te  Te9  1  0.282844  0.282844  0.274402  1
  Te  Te10  1  0.780584  0.780584  0.268639  1
  Te  Te11  1  0.212158  0.716247  0.729100  1
  Te  Te12  1  0.716247  0.212158  0.729100  1
  Te  Te13  1  0.013962  0.013962  0.955819  1
  Te  Te14  1  0.514692  0.514692  0.953571  1
  Te  Te15  1  0.482161  0.983270  0.047790  1
  Te  Te16  1  0.983270  0.482161  0.047790  1
