# generated using pymatgen
data_Dy2(ThTc)3
_symmetry_space_group_name_H-M   'P 1'
_cell_length_a   6.48480700
_cell_length_b   8.27137770
_cell_length_c   8.27142100
_cell_angle_alpha   119.99982971
_cell_angle_beta   90.00000000
_cell_angle_gamma   90.00000000
_symmetry_Int_Tables_number   1
_chemical_formula_structural   Dy2(ThTc)3
_chemical_formula_sum   'Dy4 Th6 Tc6'
_cell_volume   384.22570047
_cell_formula_units_Z   2
loop_
 _symmetry_equiv_pos_site_id
 _symmetry_equiv_pos_as_xyz
  1  'x, y, z'
loop_
 _atom_site_type_symbol
 _atom_site_label
 _atom_site_symmetry_multiplicity
 _atom_site_fract_x
 _atom_site_fract_y
 _atom_site_fract_z
 _atom_site_occupancy
  Dy  Dy0  1  0.500000  0.333356  0.666719  1
  Dy  Dy1  1  0.500000  0.666638  0.333281  1
  Dy  Dy2  1  0.000000  0.666644  0.333281  1
  Dy  Dy3  1  0.000000  0.333363  0.666719  1
  Th  Th4  1  0.750001  0.247364  0.000000  1
  Th  Th5  1  0.749999  0.752631  0.752634  1
  Th  Th6  1  0.749999  0.999996  0.247366  1
  Th  Th7  1  0.250001  0.752636  0.000000  1
  Th  Th8  1  0.249999  0.247369  0.247366  1
  Th  Th9  1  0.249999  0.000004  0.752634  1
  Tc  Tc10  1  0.749997  0.616190  0.000000  1
  Tc  Tc11  1  0.750002  0.383814  0.383815  1
  Tc  Tc12  1  0.750002  0.999999  0.616185  1
  Tc  Tc13  1  0.249997  0.383810  0.000000  1
  Tc  Tc14  1  0.250002  0.616186  0.616185  1
  Tc  Tc15  1  0.250002  0.000001  0.383815  1
