# generated using pymatgen
data_Ta6MnNb2Os3
_symmetry_space_group_name_H-M   'P 1'
_cell_length_a   4.50691200
_cell_length_b   6.40666700
_cell_length_c   13.65286700
_cell_angle_alpha   90.00000000
_cell_angle_beta   90.00000000
_cell_angle_gamma   90.00000000
_symmetry_Int_Tables_number   1
_chemical_formula_structural   Ta6MnNb2Os3
_chemical_formula_sum   'Ta12 Mn2 Nb4 Os6'
_cell_volume   394.21676439
_cell_formula_units_Z   2
loop_
 _symmetry_equiv_pos_site_id
 _symmetry_equiv_pos_as_xyz
  1  'x, y, z'
loop_
 _atom_site_type_symbol
 _atom_site_label
 _atom_site_symmetry_multiplicity
 _atom_site_fract_x
 _atom_site_fract_y
 _atom_site_fract_z
 _atom_site_occupancy
  Ta  Ta0  1  0.500066  0.246633  0.996121  1
  Ta  Ta1  1  0.500066  0.753368  0.996121  1
  Ta  Ta2  1  0.000084  0.251148  0.165719  1
  Ta  Ta3  1  0.000084  0.748853  0.165719  1
  Ta  Ta4  1  0.500085  0.248851  0.334281  1
  Ta  Ta5  1  0.500085  0.751148  0.334281  1
  Ta  Ta6  1  0.000065  0.253368  0.503879  1
  Ta  Ta7  1  0.000065  0.746633  0.503879  1
  Ta  Ta8  1  0.500014  0.252012  0.669481  1
  Ta  Ta9  1  0.500014  0.747987  0.669481  1
  Ta  Ta10  1  0.000015  0.247987  0.830519  1
  Ta  Ta11  1  0.000015  0.752014  0.830519  1
  Mn  Mn12  1  0.999514  0.500000  0.669553  1
  Mn  Mn13  1  0.499513  0.000000  0.830447  1
  Nb  Nb14  1  0.000061  0.500000  0.995253  1
  Nb  Nb15  1  0.500090  0.000000  0.164046  1
  Nb  Nb16  1  0.000089  0.500000  0.335954  1
  Nb  Nb17  1  0.500062  0.000000  0.504747  1
  Os  Os18  1  0.000030  0.000000  0.993099  1
  Os  Os19  1  0.500056  0.500000  0.165080  1
  Os  Os20  1  0.000057  0.000000  0.334920  1
  Os  Os21  1  0.500031  0.500000  0.506901  1
  Os  Os22  1  0.999919  0.000000  0.671466  1
  Os  Os23  1  0.499920  0.500000  0.828534  1
