# generated using pymatgen
data_Dy11Er(InSi2)2
_symmetry_space_group_name_H-M   'P 1'
_cell_length_a   8.51784999
_cell_length_b   8.51535647
_cell_length_c   8.51535581
_cell_angle_alpha   112.31918363
_cell_angle_beta   110.85997777
_cell_angle_gamma   105.30558959
_symmetry_Int_Tables_number   1
_chemical_formula_structural   Dy11Er(InSi2)2
_chemical_formula_sum   'Dy11 Er1 In2 Si4'
_cell_volume   473.57762199
_cell_formula_units_Z   1
loop_
 _symmetry_equiv_pos_site_id
 _symmetry_equiv_pos_as_xyz
  1  'x, y, z'
loop_
 _atom_site_type_symbol
 _atom_site_label
 _atom_site_symmetry_multiplicity
 _atom_site_fract_x
 _atom_site_fract_y
 _atom_site_fract_z
 _atom_site_occupancy
  Dy  Dy0  1  0.557147  0.761436  0.795710  1
  Dy  Dy1  1  0.034378  0.238533  0.795846  1
  Dy  Dy2  1  0.965717  0.761434  0.204282  1
  Dy  Dy3  1  0.185949  0.277908  0.463772  1
  Dy  Dy4  1  0.813930  0.721923  0.535994  1
  Dy  Dy5  1  0.185949  0.722177  0.908040  1
  Dy  Dy6  1  0.813930  0.277937  0.092008  1
  Dy  Dy7  1  0.319915  0.616706  0.296887  1
  Dy  Dy8  1  0.680001  0.383119  0.702901  1
  Dy  Dy9  1  0.319915  0.023029  0.703209  1
  Dy  Dy10  1  0.680001  0.977099  0.296882  1
  Er  Er11  1  0.442807  0.238392  0.204417  1
  In  In12  1  0.500022  0.499908  0.000115  1
  In  In13  1  0.000306  0.000177  0.000129  1
  Si  Si14  1  0.369203  0.000233  0.368970  1
  Si  Si15  1  0.630889  0.000017  0.630872  1
  Si  Si16  1  0.115310  0.615309  0.500000  1
  Si  Si17  1  0.884631  0.384663  0.499968  1
