# generated using pymatgen
data_Ac2Th(InIr)3
_symmetry_space_group_name_H-M   'P 1'
_cell_length_a   7.83109397
_cell_length_b   7.85736537
_cell_length_c   4.17017900
_cell_angle_alpha   90.00000000
_cell_angle_beta   90.00000000
_cell_angle_gamma   120.11103012
_symmetry_Int_Tables_number   1
_chemical_formula_structural   Ac2Th(InIr)3
_chemical_formula_sum   'Ac2 Th1 In3 Ir3'
_cell_volume   221.97176224
_cell_formula_units_Z   1
loop_
 _symmetry_equiv_pos_site_id
 _symmetry_equiv_pos_as_xyz
  1  'x, y, z'
loop_
 _atom_site_type_symbol
 _atom_site_label
 _atom_site_symmetry_multiplicity
 _atom_site_fract_x
 _atom_site_fract_y
 _atom_site_fract_z
 _atom_site_occupancy
  Ac  Ac0  1  0.585069  0.586154  0.000000  1
  Ac  Ac1  1  0.414931  0.001085  0.000000  1
  Th  Th2  1  0.000000  0.415543  0.000000  1
  In  In3  1  0.000000  0.760568  0.500000  1
  In  In4  1  0.241334  0.243858  0.500000  1
  In  In5  1  0.758666  0.002524  0.500000  1
  Ir  Ir6  1  0.000000  0.012816  0.000000  1
  Ir  Ir7  1  0.702299  0.339875  0.500000  1
  Ir  Ir8  1  0.297701  0.637577  0.500000  1
