# generated using pymatgen
data_KPPt
_symmetry_space_group_name_H-M   'P 1'
_cell_length_a   6.52548935
_cell_length_b   6.52576000
_cell_length_c   6.52158723
_cell_angle_alpha   90.00000000
_cell_angle_beta   89.82311575
_cell_angle_gamma   90.00000000
_symmetry_Int_Tables_number   1
_chemical_formula_structural   KPPt
_chemical_formula_sum   'K4 P4 Pt4'
_cell_volume   277.71249558
_cell_formula_units_Z   4
loop_
 _symmetry_equiv_pos_site_id
 _symmetry_equiv_pos_as_xyz
  1  'x, y, z'
loop_
 _atom_site_type_symbol
 _atom_site_label
 _atom_site_symmetry_multiplicity
 _atom_site_fract_x
 _atom_site_fract_y
 _atom_site_fract_z
 _atom_site_occupancy
  K  K0  1  0.625061  0.374459  0.874146  1
  K  K1  1  0.374939  0.874459  0.625854  1
  K  K2  1  0.126246  0.125480  0.124689  1
  K  K3  1  0.873754  0.625480  0.375311  1
  P  P4  1  0.597123  0.902745  0.097547  1
  P  P5  1  0.096735  0.597017  0.903355  1
  P  P6  1  0.903265  0.097017  0.596645  1
  P  P7  1  0.402877  0.402745  0.402453  1
  Pt  Pt8  1  0.147844  0.352131  0.648003  1
  Pt  Pt9  1  0.648443  0.148164  0.351938  1
  Pt  Pt10  1  0.852156  0.852131  0.851997  1
  Pt  Pt11  1  0.351557  0.648164  0.148062  1
