# generated using pymatgen
data_Tm3Zn3CuPd2
_symmetry_space_group_name_H-M   'P 1'
_cell_length_a   7.31820500
_cell_length_b   7.31820387
_cell_length_c   3.66978300
_cell_angle_alpha   90.00000000
_cell_angle_beta   90.00000000
_cell_angle_gamma   119.99999155
_symmetry_Int_Tables_number   1
_chemical_formula_structural   Tm3Zn3CuPd2
_chemical_formula_sum   'Tm3 Zn3 Cu1 Pd2'
_cell_volume   170.20806241
_cell_formula_units_Z   1
loop_
 _symmetry_equiv_pos_site_id
 _symmetry_equiv_pos_as_xyz
  1  'x, y, z'
loop_
 _atom_site_type_symbol
 _atom_site_label
 _atom_site_symmetry_multiplicity
 _atom_site_fract_x
 _atom_site_fract_y
 _atom_site_fract_z
 _atom_site_occupancy
  Tm  Tm0  1  0.406093  0.406093  0.000000  1
  Tm  Tm1  1  0.593907  0.000000  0.000000  1
  Tm  Tm2  1  0.000000  0.593907  0.000000  1
  Zn  Zn3  1  0.751688  0.751688  0.500000  1
  Zn  Zn4  1  0.248312  0.000000  0.500000  1
  Zn  Zn5  1  0.000000  0.248312  0.500000  1
  Cu  Cu6  1  0.000000  0.000000  0.000000  1
  Pd  Pd7  1  0.666667  0.333333  0.500000  1
  Pd  Pd8  1  0.333333  0.666667  0.500000  1
