# generated using pymatgen
data_Ta6Ti18P8H
_symmetry_space_group_name_H-M   'P 1'
_cell_length_a   5.04018000
_cell_length_b   9.97643436
_cell_length_c   9.97756733
_cell_angle_alpha   89.98475037
_cell_angle_beta   90.00000000
_cell_angle_gamma   90.00000000
_symmetry_Int_Tables_number   1
_chemical_formula_structural   Ta6Ti18P8H
_chemical_formula_sum   'Ta6 Ti18 P8 H1'
_cell_volume   501.70224908
_cell_formula_units_Z   1
loop_
 _symmetry_equiv_pos_site_id
 _symmetry_equiv_pos_as_xyz
  1  'x, y, z'
loop_
 _atom_site_type_symbol
 _atom_site_label
 _atom_site_symmetry_multiplicity
 _atom_site_fract_x
 _atom_site_fract_y
 _atom_site_fract_z
 _atom_site_occupancy
  Ta  Ta0  1  0.787508  0.394305  0.914278  1
  Ta  Ta1  1  0.787508  0.605695  0.085722  1
  Ta  Ta2  1  0.286543  0.586165  0.894461  1
  Ta  Ta3  1  0.286543  0.413835  0.105539  1
  Ta  Ta4  1  0.226143  0.109117  0.586863  1
  Ta  Ta5  1  0.226143  0.890883  0.413137  1
  Ti  Ti6  1  0.706185  0.911111  0.608487  1
  Ti  Ti7  1  0.706185  0.088889  0.391513  1
  Ti  Ti8  1  0.978446  0.028529  0.859641  1
  Ti  Ti9  1  0.978446  0.971471  0.140359  1
  Ti  Ti10  1  0.476791  0.642212  0.527917  1
  Ti  Ti11  1  0.476791  0.357788  0.472083  1
  Ti  Ti12  1  0.027763  0.471956  0.640655  1
  Ti  Ti13  1  0.027763  0.528044  0.359345  1
  Ti  Ti14  1  0.526919  0.858507  0.971946  1
  Ti  Ti15  1  0.526919  0.141493  0.028054  1
  Ti  Ti16  1  0.268071  0.283546  0.819839  1
  Ti  Ti17  1  0.268071  0.716454  0.180161  1
  Ti  Ti18  1  0.765309  0.680697  0.784203  1
  Ti  Ti19  1  0.765309  0.319303  0.215797  1
  Ti  Ti20  1  0.742107  0.217140  0.683055  1
  Ti  Ti21  1  0.742107  0.782860  0.316945  1
  Ti  Ti22  1  0.238322  0.817865  0.717856  1
  Ti  Ti23  1  0.238322  0.182135  0.282144  1
  P  P24  1  0.472747  0.038672  0.796265  1
  P  P25  1  0.472747  0.961328  0.203735  1
  P  P26  1  0.966157  0.705638  0.540200  1
  P  P27  1  0.966157  0.294362  0.459800  1
  P  P28  1  0.535187  0.461154  0.703294  1
  P  P29  1  0.535187  0.538846  0.296706  1
  P  P30  1  0.034289  0.797197  0.960703  1
  P  P31  1  0.034289  0.202803  0.039297  1
  H  H32  1  0.958626  0.000000  0.500000  1
