# generated using pymatgen
data_Sc2CdFe3(BO5)2
_symmetry_space_group_name_H-M   'P 1'
_cell_length_a   3.21560300
_cell_length_b   9.85899900
_cell_length_c   12.74068900
_cell_angle_alpha   90.00000000
_cell_angle_beta   90.00000000
_cell_angle_gamma   90.00000000
_symmetry_Int_Tables_number   1
_chemical_formula_structural   Sc2CdFe3(BO5)2
_chemical_formula_sum   'Sc4 Cd2 Fe6 B4 O20'
_cell_volume   403.91330805
_cell_formula_units_Z   2
loop_
 _symmetry_equiv_pos_site_id
 _symmetry_equiv_pos_as_xyz
  1  'x, y, z'
loop_
 _atom_site_type_symbol
 _atom_site_label
 _atom_site_symmetry_multiplicity
 _atom_site_fract_x
 _atom_site_fract_y
 _atom_site_fract_z
 _atom_site_occupancy
  Sc  Sc0  1  0.000000  0.748667  0.379519  1
  Sc  Sc1  1  0.000000  0.251333  0.620481  1
  Sc  Sc2  1  0.000000  0.248667  0.120481  1
  Sc  Sc3  1  0.000000  0.751333  0.879519  1
  Cd  Cd4  1  0.500000  0.500000  0.500000  1
  Cd  Cd5  1  0.500000  0.000000  0.000000  1
  Fe  Fe6  1  0.500000  0.504251  0.221349  1
  Fe  Fe7  1  0.500000  0.495749  0.778651  1
  Fe  Fe8  1  0.500000  0.004251  0.278651  1
  Fe  Fe9  1  0.500000  0.995749  0.721349  1
  Fe  Fe10  1  0.000000  0.000000  0.500000  1
  Fe  Fe11  1  0.000000  0.500000  0.000000  1
  B  B12  1  0.000000  0.766241  0.136924  1
  B  B13  1  0.000000  0.233759  0.863076  1
  B  B14  1  0.000000  0.266241  0.363076  1
  B  B15  1  0.000000  0.733759  0.636924  1
  O  O16  1  0.000000  0.830646  0.039567  1
  O  O17  1  0.000000  0.169354  0.960433  1
  O  O18  1  0.000000  0.330646  0.460433  1
  O  O19  1  0.000000  0.669354  0.539567  1
  O  O20  1  0.500000  0.618917  0.349794  1
  O  O21  1  0.500000  0.381083  0.650206  1
  O  O22  1  0.500000  0.118917  0.150206  1
  O  O23  1  0.500000  0.881083  0.849794  1
  O  O24  1  0.000000  0.625163  0.140184  1
  O  O25  1  0.000000  0.374837  0.859816  1
  O  O26  1  0.000000  0.125163  0.359816  1
  O  O27  1  0.000000  0.874837  0.640184  1
  O  O28  1  0.500000  0.889705  0.415471  1
  O  O29  1  0.500000  0.110295  0.584529  1
  O  O30  1  0.500000  0.389705  0.084529  1
  O  O31  1  0.500000  0.610295  0.915471  1
  O  O32  1  0.000000  0.843673  0.228656  1
  O  O33  1  0.000000  0.156327  0.771344  1
  O  O34  1  0.000000  0.343673  0.271344  1
  O  O35  1  0.000000  0.656327  0.728656  1
