# generated using pymatgen
data_Ce5(NdAu5)2
_symmetry_space_group_name_H-M   'P 1'
_cell_length_a   9.02427500
_cell_length_b   9.02427462
_cell_length_c   10.74061700
_cell_angle_alpha   90.00000000
_cell_angle_beta   90.00000000
_cell_angle_gamma   107.05095227
_symmetry_Int_Tables_number   1
_chemical_formula_structural   Ce5(NdAu5)2
_chemical_formula_sum   'Ce10 Nd4 Au20'
_cell_volume   836.24186456
_cell_formula_units_Z   2
loop_
 _symmetry_equiv_pos_site_id
 _symmetry_equiv_pos_as_xyz
  1  'x, y, z'
loop_
 _atom_site_type_symbol
 _atom_site_label
 _atom_site_symmetry_multiplicity
 _atom_site_fract_x
 _atom_site_fract_y
 _atom_site_fract_z
 _atom_site_occupancy
  Ce  Ce0  1  0.692649  0.307351  0.000000  1
  Ce  Ce1  1  0.307351  0.692649  0.000000  1
  Ce  Ce2  1  0.807351  0.192649  0.500000  1
  Ce  Ce3  1  0.192649  0.807351  0.500000  1
  Ce  Ce4  1  0.000000  0.000000  0.000000  1
  Ce  Ce5  1  0.500000  0.500000  0.500000  1
  Ce  Ce6  1  0.004132  0.504132  0.250000  1
  Ce  Ce7  1  0.995868  0.495868  0.750000  1
  Ce  Ce8  1  0.495868  0.995868  0.750000  1
  Ce  Ce9  1  0.504132  0.004132  0.250000  1
  Nd  Nd10  1  0.312681  0.312681  0.189124  1
  Nd  Nd11  1  0.687319  0.687319  0.810876  1
  Nd  Nd12  1  0.187319  0.187319  0.689124  1
  Nd  Nd13  1  0.812681  0.812681  0.310876  1
  Au  Au14  1  0.859410  0.154164  0.209612  1
  Au  Au15  1  0.140590  0.845836  0.790388  1
  Au  Au16  1  0.640590  0.345836  0.709612  1
  Au  Au17  1  0.654164  0.359410  0.290388  1
  Au  Au18  1  0.359410  0.654164  0.290388  1
  Au  Au19  1  0.345836  0.640590  0.709612  1
  Au  Au20  1  0.845836  0.140590  0.790388  1
  Au  Au21  1  0.154164  0.859410  0.209612  1
  Au  Au22  1  0.939468  0.642789  0.004498  1
  Au  Au23  1  0.060532  0.357211  0.995502  1
  Au  Au24  1  0.560532  0.857211  0.504498  1
  Au  Au25  1  0.142789  0.439468  0.495502  1
  Au  Au26  1  0.439468  0.142789  0.495502  1
  Au  Au27  1  0.857211  0.560532  0.504498  1
  Au  Au28  1  0.357211  0.060532  0.995502  1
  Au  Au29  1  0.642789  0.939468  0.004498  1
  Au  Au30  1  0.101741  0.101741  0.400894  1
  Au  Au31  1  0.898259  0.898259  0.599106  1
  Au  Au32  1  0.398259  0.398259  0.900894  1
  Au  Au33  1  0.601741  0.601741  0.099106  1
