# generated using pymatgen
data_Lu10HgIr4Pb
_symmetry_space_group_name_H-M   'P 1'
_cell_length_a   8.62825331
_cell_length_b   8.62825296
_cell_length_c   8.62825500
_cell_angle_alpha   127.70919061
_cell_angle_beta   127.70919721
_cell_angle_gamma   77.09659203
_symmetry_Int_Tables_number   1
_chemical_formula_structural   Lu10HgIr4Pb
_chemical_formula_sum   'Lu10 Hg1 Ir4 Pb1'
_cell_volume   390.18492987
_cell_formula_units_Z   1
loop_
 _symmetry_equiv_pos_site_id
 _symmetry_equiv_pos_as_xyz
  1  'x, y, z'
loop_
 _atom_site_type_symbol
 _atom_site_label
 _atom_site_symmetry_multiplicity
 _atom_site_fract_x
 _atom_site_fract_y
 _atom_site_fract_z
 _atom_site_occupancy
  Lu  Lu0  1  0.996943  0.996898  0.000005  1
  Lu  Lu1  1  0.503102  0.503057  0.999995  1
  Lu  Lu2  1  0.794315  0.287893  0.816574  1
  Lu  Lu3  1  0.212107  0.705685  0.183426  1
  Lu  Lu4  1  0.471358  0.977701  0.183439  1
  Lu  Lu5  1  0.287897  0.471335  0.493613  1
  Lu  Lu6  1  0.028665  0.212103  0.506387  1
  Lu  Lu7  1  0.522299  0.028642  0.816561  1
  Lu  Lu8  1  0.705756  0.522251  0.493637  1
  Lu  Lu9  1  0.977749  0.794244  0.506363  1
  Hg  Hg10  1  0.249916  0.250084  0.000000  1
  Ir  Ir11  1  0.141649  0.641689  0.783334  1
  Ir  Ir12  1  0.858311  0.358351  0.216666  1
  Ir  Ir13  1  0.641695  0.858305  0.500000  1
  Ir  Ir14  1  0.358343  0.141657  0.500000  1
  Pb  Pb15  1  0.749894  0.750106  0.000000  1
