# generated using pymatgen
data_Tb6Dy10Cd4NiRu3
_symmetry_space_group_name_H-M   'P 1'
_cell_length_a   9.55758574
_cell_length_b   9.69280946
_cell_length_c   9.69281000
_cell_angle_alpha   59.99999817
_cell_angle_beta   59.53086157
_cell_angle_gamma   59.53085493
_symmetry_Int_Tables_number   1
_chemical_formula_structural   Tb6Dy10Cd4NiRu3
_chemical_formula_sum   'Tb6 Dy10 Cd4 Ni1 Ru3'
_cell_volume   630.40011654
_cell_formula_units_Z   1
loop_
 _symmetry_equiv_pos_site_id
 _symmetry_equiv_pos_as_xyz
  1  'x, y, z'
loop_
 _atom_site_type_symbol
 _atom_site_label
 _atom_site_symmetry_multiplicity
 _atom_site_fract_x
 _atom_site_fract_y
 _atom_site_fract_z
 _atom_site_occupancy
  Tb  Tb0  1  0.936900  0.561810  0.561810  1
  Tb  Tb1  1  0.558503  0.937804  0.937804  1
  Tb  Tb2  1  0.558503  0.937804  0.565888  1
  Tb  Tb3  1  0.936900  0.561810  0.939480  1
  Tb  Tb4  1  0.558503  0.565888  0.937804  1
  Tb  Tb5  1  0.936900  0.939480  0.561810  1
  Dy  Dy6  1  0.350334  0.345601  0.345601  1
  Dy  Dy7  1  0.350334  0.345601  0.958465  1
  Dy  Dy8  1  0.350334  0.958465  0.345601  1
  Dy  Dy9  1  0.962841  0.345720  0.345720  1
  Dy  Dy10  1  0.811200  0.187980  0.187980  1
  Dy  Dy11  1  0.187126  0.812218  0.812218  1
  Dy  Dy12  1  0.187126  0.812218  0.188437  1
  Dy  Dy13  1  0.811200  0.187980  0.812841  1
  Dy  Dy14  1  0.187126  0.188437  0.812218  1
  Dy  Dy15  1  0.811200  0.812841  0.187980  1
  Cd  Cd16  1  0.578884  0.580045  0.580045  1
  Cd  Cd17  1  0.578884  0.580045  0.261025  1
  Cd  Cd18  1  0.578884  0.261025  0.580045  1
  Cd  Cd19  1  0.258013  0.580662  0.580662  1
  Ni  Ni20  1  0.576733  0.141089  0.141089  1
  Ru  Ru21  1  0.144524  0.138774  0.138774  1
  Ru  Ru22  1  0.144524  0.138774  0.577927  1
  Ru  Ru23  1  0.144524  0.577927  0.138774  1
