# generated using pymatgen
data_LaNd2CBr5
_symmetry_space_group_name_H-M   'P 1'
_cell_length_a   7.70527649
_cell_length_b   9.24777785
_cell_length_c   9.38469190
_cell_angle_alpha   107.82078925
_cell_angle_beta   96.78130226
_cell_angle_gamma   105.74858679
_symmetry_Int_Tables_number   1
_chemical_formula_structural   LaNd2CBr5
_chemical_formula_sum   'La2 Nd4 C2 Br10'
_cell_volume   597.79136200
_cell_formula_units_Z   2
loop_
 _symmetry_equiv_pos_site_id
 _symmetry_equiv_pos_as_xyz
  1  'x, y, z'
loop_
 _atom_site_type_symbol
 _atom_site_label
 _atom_site_symmetry_multiplicity
 _atom_site_fract_x
 _atom_site_fract_y
 _atom_site_fract_z
 _atom_site_occupancy
  La  La0  1  0.883203  0.953994  0.233048  1
  La  La1  1  0.116797  0.046006  0.766952  1
  Nd  Nd2  1  0.027394  0.722946  0.916978  1
  Nd  Nd3  1  0.972606  0.277054  0.083022  1
  Nd  Nd4  1  0.613614  0.850873  0.804060  1
  Nd  Nd5  1  0.386386  0.149127  0.195940  1
  C  C6  1  0.909311  0.967311  0.955235  1
  C  C7  1  0.090689  0.032689  0.044765  1
  Br  Br8  1  0.745108  0.913757  0.538502  1
  Br  Br9  1  0.254892  0.086243  0.461498  1
  Br  Br10  1  0.453450  0.819104  0.082052  1
  Br  Br11  1  0.546550  0.180896  0.917948  1
  Br  Br12  1  0.816215  0.269643  0.354110  1
  Br  Br13  1  0.183785  0.730357  0.645890  1
  Br  Br14  1  0.911740  0.624695  0.170520  1
  Br  Br15  1  0.088260  0.375305  0.829480  1
  Br  Br16  1  0.654974  0.538181  0.723312  1
  Br  Br17  1  0.345026  0.461819  0.276688  1
