# generated using pymatgen
data_Dy6ScCo16P12W
_symmetry_space_group_name_H-M   'P 1'
_cell_length_a   3.71730700
_cell_length_b   10.61877900
_cell_length_c   12.30744900
_cell_angle_alpha   90.00000000
_cell_angle_beta   90.00000000
_cell_angle_gamma   90.00000000
_symmetry_Int_Tables_number   1
_chemical_formula_structural   Dy6ScCo16P12W
_chemical_formula_sum   'Dy6 Sc1 Co16 P12 W1'
_cell_volume   485.81515288
_cell_formula_units_Z   1
loop_
 _symmetry_equiv_pos_site_id
 _symmetry_equiv_pos_as_xyz
  1  'x, y, z'
loop_
 _atom_site_type_symbol
 _atom_site_label
 _atom_site_symmetry_multiplicity
 _atom_site_fract_x
 _atom_site_fract_y
 _atom_site_fract_z
 _atom_site_occupancy
  Dy  Dy0  1  0.000000  0.500000  0.527313  1
  Dy  Dy1  1  0.500000  0.000000  0.475446  1
  Dy  Dy2  1  0.500000  0.821246  0.205594  1
  Dy  Dy3  1  0.500000  0.178754  0.205594  1
  Dy  Dy4  1  0.000000  0.680897  0.795230  1
  Dy  Dy5  1  0.000000  0.319103  0.795230  1
  Sc  Sc6  1  0.500000  0.500000  0.153709  1
  Co  Co7  1  0.500000  0.500000  0.702828  1
  Co  Co8  1  0.000000  0.000000  0.297937  1
  Co  Co9  1  0.000000  0.500000  0.984299  1
  Co  Co10  1  0.500000  0.000000  0.010801  1
  Co  Co11  1  0.500000  0.327999  0.990397  1
  Co  Co12  1  0.500000  0.672001  0.990397  1
  Co  Co13  1  0.000000  0.163891  0.005293  1
  Co  Co14  1  0.000000  0.836109  0.005293  1
  Co  Co15  1  0.500000  0.294434  0.434156  1
  Co  Co16  1  0.500000  0.705566  0.434156  1
  Co  Co17  1  0.000000  0.203303  0.569870  1
  Co  Co18  1  0.000000  0.796697  0.569870  1
  Co  Co19  1  0.500000  0.879278  0.706502  1
  Co  Co20  1  0.500000  0.120722  0.706502  1
  Co  Co21  1  0.000000  0.622903  0.296792  1
  Co  Co22  1  0.000000  0.377097  0.296792  1
  P  P23  1  0.500000  0.500000  0.883043  1
  P  P24  1  0.000000  0.000000  0.117829  1
  P  P25  1  0.500000  0.500000  0.357818  1
  P  P26  1  0.000000  0.000000  0.648238  1
  P  P27  1  0.500000  0.309821  0.616956  1
  P  P28  1  0.500000  0.690179  0.616956  1
  P  P29  1  0.000000  0.189205  0.385655  1
  P  P30  1  0.000000  0.810795  0.385655  1
  P  P31  1  0.500000  0.845235  0.889614  1
  P  P32  1  0.500000  0.154765  0.889614  1
  P  P33  1  0.000000  0.661543  0.103745  1
  P  P34  1  0.000000  0.338457  0.103745  1
  W  W35  1  0.000000  0.000000  0.841131  1
