# generated using pymatgen
data_Dy2U6CrSe17
_symmetry_space_group_name_H-M   'P 1'
_cell_length_a   8.19281612
_cell_length_b   8.19281604
_cell_length_c   10.90741695
_cell_angle_alpha   80.33011687
_cell_angle_beta   80.33011550
_cell_angle_gamma   64.91614568
_symmetry_Int_Tables_number   1
_chemical_formula_structural   Dy2U6CrSe17
_chemical_formula_sum   'Dy2 U6 Cr1 Se17'
_cell_volume   649.81050921
_cell_formula_units_Z   1
loop_
 _symmetry_equiv_pos_site_id
 _symmetry_equiv_pos_as_xyz
  1  'x, y, z'
loop_
 _atom_site_type_symbol
 _atom_site_label
 _atom_site_symmetry_multiplicity
 _atom_site_fract_x
 _atom_site_fract_y
 _atom_site_fract_z
 _atom_site_occupancy
  Dy  Dy0  1  0.816390  0.307839  0.296490  1
  Dy  Dy1  1  0.307839  0.816390  0.296490  1
  U  U2  1  0.178827  0.697920  0.703044  1
  U  U3  1  0.697920  0.178827  0.703044  1
  U  U4  1  0.201677  0.201677  0.539098  1
  U  U5  1  0.797236  0.797236  0.457212  1
  U  U6  1  0.676961  0.676961  0.986447  1
  U  U7  1  0.321553  0.321553  0.015303  1
  Cr  Cr8  1  0.000275  0.000275  0.000884  1
  Se  Se9  1  0.819242  0.433813  0.539073  1
  Se  Se10  1  0.433813  0.819242  0.539073  1
  Se  Se11  1  0.179119  0.566729  0.467149  1
  Se  Se12  1  0.566729  0.179119  0.467149  1
  Se  Se13  1  0.948869  0.322615  0.022190  1
  Se  Se14  1  0.322615  0.948869  0.022190  1
  Se  Se15  1  0.052320  0.679263  0.971428  1
  Se  Se16  1  0.679263  0.052320  0.971428  1
  Se  Se17  1  0.215333  0.215333  0.278214  1
  Se  Se18  1  0.783092  0.783092  0.724809  1
  Se  Se19  1  0.057340  0.057340  0.773839  1
  Se  Se20  1  0.946387  0.946387  0.229024  1
  Se  Se21  1  0.300739  0.300739  0.754228  1
  Se  Se22  1  0.701287  0.701287  0.242854  1
  Se  Se23  1  0.520758  0.520758  0.828823  1
  Se  Se24  1  0.478214  0.478214  0.160821  1
  Se  Se25  1  0.996201  0.996201  0.509693  1
