# generated using pymatgen
data_Np4ReB12Ru
_symmetry_space_group_name_H-M   'P 1'
_cell_length_a   3.55157200
_cell_length_b   9.31588946
_cell_length_c   11.33718200
_cell_angle_alpha   89.87417648
_cell_angle_beta   90.00000000
_cell_angle_gamma   90.00000000
_symmetry_Int_Tables_number   1
_chemical_formula_structural   Np4ReB12Ru
_chemical_formula_sum   'Np8 Re2 B24 Ru2'
_cell_volume   375.10169067
_cell_formula_units_Z   2
loop_
 _symmetry_equiv_pos_site_id
 _symmetry_equiv_pos_as_xyz
  1  'x, y, z'
loop_
 _atom_site_type_symbol
 _atom_site_label
 _atom_site_symmetry_multiplicity
 _atom_site_fract_x
 _atom_site_fract_y
 _atom_site_fract_z
 _atom_site_occupancy
  Np  Np0  1  0.000000  0.837535  0.093816  1
  Np  Np1  1  0.000000  0.162465  0.906184  1
  Np  Np2  1  0.000000  0.339143  0.407420  1
  Np  Np3  1  0.000000  0.660857  0.592580  1
  Np  Np4  1  0.000000  0.460483  0.099787  1
  Np  Np5  1  0.000000  0.539517  0.900213  1
  Np  Np6  1  0.000000  0.958426  0.401078  1
  Np  Np7  1  0.000000  0.041574  0.598922  1
  Re  Re8  1  0.000000  0.646483  0.319365  1
  Re  Re9  1  0.000000  0.353517  0.680635  1
  B  B10  1  0.500000  0.051891  0.067894  1
  B  B11  1  0.500000  0.948109  0.932106  1
  B  B12  1  0.500000  0.552063  0.432393  1
  B  B13  1  0.500000  0.447937  0.567607  1
  B  B14  1  0.500000  0.242975  0.076588  1
  B  B15  1  0.500000  0.757025  0.923412  1
  B  B16  1  0.500000  0.743863  0.424100  1
  B  B17  1  0.500000  0.256137  0.575900  1
  B  B18  1  0.500000  0.306485  0.226000  1
  B  B19  1  0.500000  0.693515  0.774000  1
  B  B20  1  0.500000  0.806694  0.274302  1
  B  B21  1  0.500000  0.193306  0.725698  1
  B  B22  1  0.500000  0.147266  0.311359  1
  B  B23  1  0.500000  0.852734  0.688641  1
  B  B24  1  0.500000  0.647091  0.187777  1
  B  B25  1  0.500000  0.352909  0.812223  1
  B  B26  1  0.500000  0.488309  0.279009  1
  B  B27  1  0.500000  0.511691  0.720991  1
  B  B28  1  0.500000  0.989148  0.220684  1
  B  B29  1  0.500000  0.010852  0.779316  1
  B  B30  1  0.500000  0.144186  0.459473  1
  B  B31  1  0.500000  0.855814  0.540527  1
  B  B32  1  0.500000  0.644149  0.039205  1
  B  B33  1  0.500000  0.355851  0.960795  1
  Ru  Ru34  1  0.000000  0.147370  0.180860  1
  Ru  Ru35  1  0.000000  0.852630  0.819140  1
