# generated using pymatgen
data_Dy4CrFe19P12
_symmetry_space_group_name_H-M   'P 1'
_cell_length_a   3.65868700
_cell_length_b   10.31368529
_cell_length_c   11.84833834
_cell_angle_alpha   89.97282144
_cell_angle_beta   90.00000000
_cell_angle_gamma   90.00000000
_symmetry_Int_Tables_number   1
_chemical_formula_structural   Dy4CrFe19P12
_chemical_formula_sum   'Dy4 Cr1 Fe19 P12'
_cell_volume   447.09162103
_cell_formula_units_Z   1
loop_
 _symmetry_equiv_pos_site_id
 _symmetry_equiv_pos_as_xyz
  1  'x, y, z'
loop_
 _atom_site_type_symbol
 _atom_site_label
 _atom_site_symmetry_multiplicity
 _atom_site_fract_x
 _atom_site_fract_y
 _atom_site_fract_z
 _atom_site_occupancy
  Dy  Dy0  1  0.250000  0.581119  0.704350  1
  Dy  Dy1  1  0.250000  0.918922  0.204735  1
  Dy  Dy2  1  0.750000  0.419923  0.296103  1
  Dy  Dy3  1  0.750000  0.080913  0.794720  1
  Cr  Cr4  1  0.250000  0.703245  0.989675  1
  Fe  Fe5  1  0.250000  0.791993  0.488793  1
  Fe  Fe6  1  0.750000  0.292945  0.011592  1
  Fe  Fe7  1  0.750000  0.207915  0.511274  1
  Fe  Fe8  1  0.250000  0.404966  0.490359  1
  Fe  Fe9  1  0.250000  0.095316  0.990224  1
  Fe  Fe10  1  0.750000  0.594531  0.510053  1
  Fe  Fe11  1  0.750000  0.905261  0.009229  1
  Fe  Fe12  1  0.250000  0.219788  0.176214  1
  Fe  Fe13  1  0.250000  0.280914  0.676355  1
  Fe  Fe14  1  0.750000  0.782078  0.823093  1
  Fe  Fe15  1  0.750000  0.719357  0.325068  1
  Fe  Fe16  1  0.250000  0.876325  0.700416  1
  Fe  Fe17  1  0.250000  0.624549  0.201947  1
  Fe  Fe18  1  0.750000  0.124383  0.299161  1
  Fe  Fe19  1  0.750000  0.375521  0.799193  1
  Fe  Fe20  1  0.250000  0.462184  0.932550  1
  Fe  Fe21  1  0.250000  0.036958  0.432268  1
  Fe  Fe22  1  0.750000  0.534194  0.066474  1
  Fe  Fe23  1  0.750000  0.963600  0.567037  1
  P  P24  1  0.250000  0.422915  0.113284  1
  P  P25  1  0.250000  0.077731  0.612013  1
  P  P26  1  0.750000  0.578240  0.886924  1
  P  P27  1  0.750000  0.921996  0.387604  1
  P  P28  1  0.250000  0.265240  0.871393  1
  P  P29  1  0.250000  0.233698  0.371533  1
  P  P30  1  0.750000  0.732427  0.131213  1
  P  P31  1  0.750000  0.766540  0.627839  1
  P  P32  1  0.250000  0.601631  0.396027  1
  P  P33  1  0.250000  0.902222  0.894260  1
  P  P34  1  0.750000  0.398825  0.603262  1
  P  P35  1  0.750000  0.101632  0.103763  1
