# generated using pymatgen
data_Lu6IO12
_symmetry_space_group_name_H-M   'P 1'
_cell_length_a   6.38152062
_cell_length_b   6.38151950
_cell_length_c   6.38152058
_cell_angle_alpha   98.81546157
_cell_angle_beta   98.81546556
_cell_angle_gamma   98.81547275
_symmetry_Int_Tables_number   1
_chemical_formula_structural   Lu6IO12
_chemical_formula_sum   'Lu6 I1 O12'
_cell_volume   249.58501041
_cell_formula_units_Z   1
loop_
 _symmetry_equiv_pos_site_id
 _symmetry_equiv_pos_as_xyz
  1  'x, y, z'
loop_
 _atom_site_type_symbol
 _atom_site_label
 _atom_site_symmetry_multiplicity
 _atom_site_fract_x
 _atom_site_fract_y
 _atom_site_fract_z
 _atom_site_occupancy
  Lu  Lu0  1  0.322043  0.145532  0.610121  1
  Lu  Lu1  1  0.854468  0.389879  0.677957  1
  Lu  Lu2  1  0.610121  0.322043  0.145532  1
  Lu  Lu3  1  0.389879  0.677957  0.854468  1
  Lu  Lu4  1  0.145532  0.610121  0.322043  1
  Lu  Lu5  1  0.677957  0.854468  0.389879  1
  I  I6  1  0.000000  0.000000  0.000000  1
  O  O7  1  0.922592  0.041384  0.691320  1
  O  O8  1  0.308680  0.077408  0.958616  1
  O  O9  1  0.590281  0.177569  0.427896  1
  O  O10  1  0.958616  0.308680  0.077408  1
  O  O11  1  0.572104  0.409719  0.822431  1
  O  O12  1  0.177569  0.427896  0.590281  1
  O  O13  1  0.822431  0.572104  0.409719  1
  O  O14  1  0.427896  0.590281  0.177569  1
  O  O15  1  0.041384  0.691320  0.922592  1
  O  O16  1  0.409719  0.822431  0.572104  1
  O  O17  1  0.691320  0.922592  0.041384  1
  O  O18  1  0.077408  0.958616  0.308680  1
