# generated using pymatgen
data_La2CeTh(Cu5Sn)4
_symmetry_space_group_name_H-M   'P 1'
_cell_length_a   5.11834400
_cell_length_b   8.31945783
_cell_length_c   10.63741868
_cell_angle_alpha   90.07020063
_cell_angle_beta   90.00000000
_cell_angle_gamma   90.00000000
_symmetry_Int_Tables_number   1
_chemical_formula_structural   La2CeTh(Cu5Sn)4
_chemical_formula_sum   'La2 Ce1 Th1 Cu20 Sn4'
_cell_volume   452.96059539
_cell_formula_units_Z   1
loop_
 _symmetry_equiv_pos_site_id
 _symmetry_equiv_pos_as_xyz
  1  'x, y, z'
loop_
 _atom_site_type_symbol
 _atom_site_label
 _atom_site_symmetry_multiplicity
 _atom_site_fract_x
 _atom_site_fract_y
 _atom_site_fract_z
 _atom_site_occupancy
  La  La0  1  0.250000  0.752863  0.057818  1
  La  La1  1  0.750000  0.746566  0.558887  1
  Ce  Ce2  1  0.750000  0.245779  0.941246  1
  Th  Th3  1  0.250000  0.251688  0.440778  1
  Cu  Cu4  1  0.000540  0.427767  0.187929  1
  Cu  Cu5  1  0.501042  0.571459  0.813125  1
  Cu  Cu6  1  0.499014  0.929654  0.312301  1
  Cu  Cu7  1  0.999633  0.072175  0.687404  1
  Cu  Cu8  1  0.998958  0.571459  0.813125  1
  Cu  Cu9  1  0.499460  0.427767  0.187929  1
  Cu  Cu10  1  0.500367  0.072175  0.687404  1
  Cu  Cu11  1  0.000986  0.929654  0.312301  1
  Cu  Cu12  1  0.750000  0.431019  0.395436  1
  Cu  Cu13  1  0.250000  0.563615  0.605146  1
  Cu  Cu14  1  0.750000  0.936216  0.105644  1
  Cu  Cu15  1  0.250000  0.070419  0.893870  1
  Cu  Cu16  1  0.750000  0.178810  0.255307  1
  Cu  Cu17  1  0.250000  0.821961  0.745324  1
  Cu  Cu18  1  0.750000  0.678380  0.244482  1
  Cu  Cu19  1  0.250000  0.322237  0.754865  1
  Cu  Cu20  1  0.750000  0.083811  0.482746  1
  Cu  Cu21  1  0.250000  0.920773  0.516812  1
  Cu  Cu22  1  0.750000  0.575679  0.016473  1
  Cu  Cu23  1  0.250000  0.414710  0.982183  1
  Sn  Sn24  1  0.750000  0.360429  0.642714  1
  Sn  Sn25  1  0.250000  0.637325  0.359404  1
  Sn  Sn26  1  0.750000  0.865329  0.860593  1
  Sn  Sn27  1  0.250000  0.140279  0.138754  1
