# generated using pymatgen
data_Er2(TcB2)3
_symmetry_space_group_name_H-M   'P 1'
_cell_length_a   6.17365244
_cell_length_b   6.17365250
_cell_length_c   7.47575017
_cell_angle_alpha   90.65963292
_cell_angle_beta   90.65963598
_cell_angle_gamma   113.47666218
_symmetry_Int_Tables_number   1
_chemical_formula_structural   Er2(TcB2)3
_chemical_formula_sum   'Er4 Tc6 B12'
_cell_volume   261.28717911
_cell_formula_units_Z   2
loop_
 _symmetry_equiv_pos_site_id
 _symmetry_equiv_pos_as_xyz
  1  'x, y, z'
loop_
 _atom_site_type_symbol
 _atom_site_label
 _atom_site_symmetry_multiplicity
 _atom_site_fract_x
 _atom_site_fract_y
 _atom_site_fract_z
 _atom_site_occupancy
  Er  Er0  1  0.102216  0.442127  0.321406  1
  Er  Er1  1  0.557873  0.897784  0.178594  1
  Er  Er2  1  0.897784  0.557873  0.678594  1
  Er  Er3  1  0.442127  0.102216  0.821406  1
  Tc  Tc4  1  0.589113  0.410887  0.250000  1
  Tc  Tc5  1  0.410887  0.589113  0.750000  1
  Tc  Tc6  1  0.989917  0.805295  0.089412  1
  Tc  Tc7  1  0.194705  0.010083  0.410588  1
  Tc  Tc8  1  0.010083  0.194705  0.910588  1
  Tc  Tc9  1  0.805295  0.989917  0.589412  1
  B  B10  1  0.248163  0.150958  0.129051  1
  B  B11  1  0.849042  0.751837  0.370949  1
  B  B12  1  0.751837  0.849042  0.870949  1
  B  B13  1  0.150958  0.248163  0.629051  1
  B  B14  1  0.585313  0.158783  0.481673  1
  B  B15  1  0.841217  0.414687  0.018327  1
  B  B16  1  0.414687  0.841217  0.518327  1
  B  B17  1  0.158783  0.585313  0.981673  1
  B  B18  1  0.443463  0.350667  0.535089  1
  B  B19  1  0.649333  0.556537  0.964911  1
  B  B20  1  0.556537  0.649333  0.464911  1
  B  B21  1  0.350667  0.443463  0.035089  1
