# generated using pymatgen
data_Sc2Co2OsRu
_symmetry_space_group_name_H-M   'P 1'
_cell_length_a   4.96668000
_cell_length_b   4.97397070
_cell_length_c   8.41633900
_cell_angle_alpha   90.00000000
_cell_angle_beta   90.00000000
_cell_angle_gamma   119.95153780
_symmetry_Int_Tables_number   1
_chemical_formula_structural   Sc2Co2OsRu
_chemical_formula_sum   'Sc4 Co4 Os2 Ru2'
_cell_volume   180.15035794
_cell_formula_units_Z   2
loop_
 _symmetry_equiv_pos_site_id
 _symmetry_equiv_pos_as_xyz
  1  'x, y, z'
loop_
 _atom_site_type_symbol
 _atom_site_label
 _atom_site_symmetry_multiplicity
 _atom_site_fract_x
 _atom_site_fract_y
 _atom_site_fract_z
 _atom_site_occupancy
  Sc  Sc0  1  0.329804  0.665428  0.433014  1
  Sc  Sc1  1  0.664377  0.334572  0.566986  1
  Sc  Sc2  1  0.664377  0.334572  0.933014  1
  Sc  Sc3  1  0.329804  0.665428  0.066986  1
  Co  Co4  1  0.175304  0.341230  0.750000  1
  Co  Co5  1  0.178989  0.832473  0.750000  1
  Co  Co6  1  0.346517  0.167527  0.250000  1
  Co  Co7  1  0.834075  0.658770  0.250000  1
  Os  Os8  1  0.656337  0.828345  0.750000  1
  Os  Os9  1  0.827993  0.171655  0.250000  1
  Ru  Ru10  1  0.996211  0.000000  0.000000  1
  Ru  Ru11  1  0.996211  0.000000  0.500000  1
