# generated using pymatgen
data_Hf6ZrAs4
_symmetry_space_group_name_H-M   'P 1'
_cell_length_a   8.30969286
_cell_length_b   8.30969297
_cell_length_c   15.06533100
_cell_angle_alpha   75.89018911
_cell_angle_beta   75.89018947
_cell_angle_gamma   25.19009630
_symmetry_Int_Tables_number   1
_chemical_formula_structural   Hf6ZrAs4
_chemical_formula_sum   'Hf12 Zr2 As8'
_cell_volume   428.72942594
_cell_formula_units_Z   2
loop_
 _symmetry_equiv_pos_site_id
 _symmetry_equiv_pos_as_xyz
  1  'x, y, z'
loop_
 _atom_site_type_symbol
 _atom_site_label
 _atom_site_symmetry_multiplicity
 _atom_site_fract_x
 _atom_site_fract_y
 _atom_site_fract_z
 _atom_site_occupancy
  Hf  Hf0  1  0.000000  0.000000  0.000000  1
  Hf  Hf1  1  0.500000  0.500000  0.500000  1
  Hf  Hf2  1  0.430353  0.430353  0.169436  1
  Hf  Hf3  1  0.569647  0.569647  0.830564  1
  Hf  Hf4  1  0.196742  0.196742  0.691800  1
  Hf  Hf5  1  0.803258  0.803258  0.308200  1
  Hf  Hf6  1  0.207384  0.207384  0.202454  1
  Hf  Hf7  1  0.792616  0.792616  0.797546  1
  Hf  Hf8  1  0.337532  0.337532  0.969431  1
  Hf  Hf9  1  0.662468  0.662468  0.030569  1
  Hf  Hf10  1  0.002210  0.002210  0.333006  1
  Hf  Hf11  1  0.997790  0.997790  0.666994  1
  Zr  Zr12  1  0.177271  0.177271  0.456500  1
  Zr  Zr13  1  0.822729  0.822729  0.543500  1
  As  As14  1  0.176200  0.176200  0.891010  1
  As  As15  1  0.823800  0.823800  0.108990  1
  As  As16  1  0.373948  0.373948  0.398850  1
  As  As17  1  0.626052  0.626052  0.601150  1
  As  As18  1  0.371074  0.371074  0.663343  1
  As  As19  1  0.628926  0.628926  0.336657  1
  As  As20  1  0.063500  0.063500  0.149194  1
  As  As21  1  0.936500  0.936500  0.850806  1
