# generated using pymatgen
data_Tb2Y3Th3(ReB6)4
_symmetry_space_group_name_H-M   'P 1'
_cell_length_a   3.75783400
_cell_length_b   9.26182729
_cell_length_c   11.67468400
_cell_angle_alpha   89.91604195
_cell_angle_beta   90.00000000
_cell_angle_gamma   90.00000000
_symmetry_Int_Tables_number   1
_chemical_formula_structural   Tb2Y3Th3(ReB6)4
_chemical_formula_sum   'Tb2 Y3 Th3 Re4 B24'
_cell_volume   406.33004645
_cell_formula_units_Z   1
loop_
 _symmetry_equiv_pos_site_id
 _symmetry_equiv_pos_as_xyz
  1  'x, y, z'
loop_
 _atom_site_type_symbol
 _atom_site_label
 _atom_site_symmetry_multiplicity
 _atom_site_fract_x
 _atom_site_fract_y
 _atom_site_fract_z
 _atom_site_occupancy
  Tb  Tb0  1  0.000000  0.677442  0.586330  1
  Tb  Tb1  1  0.000000  0.444429  0.127546  1
  Y  Y2  1  0.000000  0.556702  0.871093  1
  Y  Y3  1  0.000000  0.942167  0.373074  1
  Y  Y4  1  0.000000  0.055418  0.627881  1
  Th  Th5  1  0.000000  0.821334  0.085619  1
  Th  Th6  1  0.000000  0.178558  0.913420  1
  Th  Th7  1  0.000000  0.323719  0.414759  1
  Re  Re8  1  0.000000  0.138165  0.179900  1
  Re  Re9  1  0.000000  0.862140  0.820185  1
  Re  Re10  1  0.000000  0.638891  0.321074  1
  Re  Re11  1  0.000000  0.361457  0.679056  1
  B  B12  1  0.500000  0.055412  0.070253  1
  B  B13  1  0.500000  0.944288  0.929474  1
  B  B14  1  0.500000  0.555793  0.432335  1
  B  B15  1  0.500000  0.446515  0.569086  1
  B  B16  1  0.500000  0.248840  0.083295  1
  B  B17  1  0.500000  0.750773  0.915774  1
  B  B18  1  0.500000  0.748137  0.419140  1
  B  B19  1  0.500000  0.252324  0.583303  1
  B  B20  1  0.500000  0.289814  0.233548  1
  B  B21  1  0.500000  0.708648  0.764949  1
  B  B22  1  0.500000  0.789798  0.267985  1
  B  B23  1  0.500000  0.210225  0.732767  1
  B  B24  1  0.500000  0.130087  0.313906  1
  B  B25  1  0.500000  0.868101  0.684997  1
  B  B26  1  0.500000  0.630781  0.187250  1
  B  B27  1  0.500000  0.370568  0.812556  1
  B  B28  1  0.500000  0.485702  0.287597  1
  B  B29  1  0.500000  0.517560  0.712289  1
  B  B30  1  0.500000  0.984526  0.213951  1
  B  B31  1  0.500000  0.014556  0.785803  1
  B  B32  1  0.500000  0.101487  0.471748  1
  B  B33  1  0.500000  0.895049  0.529389  1
  B  B34  1  0.500000  0.604077  0.028011  1
  B  B35  1  0.500000  0.396518  0.970657  1
