# generated using pymatgen
data_Hf3Si4Mo(IrRh)2
_symmetry_space_group_name_H-M   'P 1'
_cell_length_a   3.90045500
_cell_length_b   6.45717273
_cell_length_c   7.39255825
_cell_angle_alpha   90.47362097
_cell_angle_beta   90.00000000
_cell_angle_gamma   90.00000000
_symmetry_Int_Tables_number   1
_chemical_formula_structural   Hf3Si4Mo(IrRh)2
_chemical_formula_sum   'Hf3 Si4 Mo1 Ir2 Rh2'
_cell_volume   186.18195798
_cell_formula_units_Z   1
loop_
 _symmetry_equiv_pos_site_id
 _symmetry_equiv_pos_as_xyz
  1  'x, y, z'
loop_
 _atom_site_type_symbol
 _atom_site_label
 _atom_site_symmetry_multiplicity
 _atom_site_fract_x
 _atom_site_fract_y
 _atom_site_fract_z
 _atom_site_occupancy
  Hf  Hf0  1  0.750000  0.478624  0.823857  1
  Hf  Hf1  1  0.250000  0.020170  0.312499  1
  Hf  Hf2  1  0.750000  0.970765  0.681996  1
  Si  Si3  1  0.250000  0.768854  0.892314  1
  Si  Si4  1  0.750000  0.243992  0.124558  1
  Si  Si5  1  0.250000  0.272697  0.619345  1
  Si  Si6  1  0.750000  0.710468  0.365818  1
  Mo  Mo7  1  0.250000  0.525084  0.176705  1
  Ir  Ir8  1  0.250000  0.151380  0.933320  1
  Ir  Ir9  1  0.250000  0.652728  0.561569  1
  Rh  Rh10  1  0.750000  0.860075  0.067290  1
  Rh  Rh11  1  0.750000  0.345163  0.440729  1
