# generated using pymatgen
data_LuZn3Co2
_symmetry_space_group_name_H-M   'P 1'
_cell_length_a   8.84606300
_cell_length_b   8.84606251
_cell_length_c   4.00246900
_cell_angle_alpha   90.00000000
_cell_angle_beta   90.00000000
_cell_angle_gamma   119.99999811
_symmetry_Int_Tables_number   1
_chemical_formula_structural   LuZn3Co2
_chemical_formula_sum   'Lu3 Zn9 Co6'
_cell_volume   271.24306842
_cell_formula_units_Z   3
loop_
 _symmetry_equiv_pos_site_id
 _symmetry_equiv_pos_as_xyz
  1  'x, y, z'
loop_
 _atom_site_type_symbol
 _atom_site_label
 _atom_site_symmetry_multiplicity
 _atom_site_fract_x
 _atom_site_fract_y
 _atom_site_fract_z
 _atom_site_occupancy
  Lu  Lu0  1  0.000000  0.000000  0.500000  1
  Lu  Lu1  1  0.333333  0.666667  0.000000  1
  Lu  Lu2  1  0.666667  0.333333  0.000000  1
  Zn  Zn3  1  0.500000  0.000000  0.500000  1
  Zn  Zn4  1  0.500000  0.500000  0.500000  1
  Zn  Zn5  1  0.000000  0.500000  0.500000  1
  Zn  Zn6  1  0.294477  0.000000  0.000000  1
  Zn  Zn7  1  0.294477  0.294477  0.000000  1
  Zn  Zn8  1  0.000000  0.705523  0.000000  1
  Zn  Zn9  1  0.000000  0.294477  0.000000  1
  Zn  Zn10  1  0.705523  0.705523  0.000000  1
  Zn  Zn11  1  0.705523  0.000000  0.000000  1
  Co  Co12  1  0.182415  0.364829  0.500000  1
  Co  Co13  1  0.817585  0.182415  0.500000  1
  Co  Co14  1  0.364829  0.182415  0.500000  1
  Co  Co15  1  0.635171  0.817585  0.500000  1
  Co  Co16  1  0.182415  0.817585  0.500000  1
  Co  Co17  1  0.817585  0.635171  0.500000  1
