# generated using pymatgen
data_Sr3La4P12Pd17
_symmetry_space_group_name_H-M   'P 1'
_cell_length_a   12.54489745
_cell_length_b   12.54489765
_cell_length_c   13.82678287
_cell_angle_alpha   68.19307674
_cell_angle_beta   68.19307580
_cell_angle_gamma   18.83020203
_symmetry_Int_Tables_number   1
_chemical_formula_structural   Sr3La4P12Pd17
_chemical_formula_sum   'Sr3 La4 P12 Pd17'
_cell_volume   650.63537789
_cell_formula_units_Z   1
loop_
 _symmetry_equiv_pos_site_id
 _symmetry_equiv_pos_as_xyz
  1  'x, y, z'
loop_
 _atom_site_type_symbol
 _atom_site_label
 _atom_site_symmetry_multiplicity
 _atom_site_fract_x
 _atom_site_fract_y
 _atom_site_fract_z
 _atom_site_occupancy
  Sr  Sr0  1  0.500000  0.500000  0.500000  1
  Sr  Sr1  1  0.366641  0.366641  0.999009  1
  Sr  Sr2  1  0.633359  0.633359  0.000991  1
  La  La3  1  0.234009  0.234009  0.314563  1
  La  La4  1  0.765991  0.765991  0.685437  1
  La  La5  1  0.418536  0.418536  0.260652  1
  La  La6  1  0.581464  0.581464  0.739348  1
  P  P7  1  0.059764  0.059764  0.927142  1
  P  P8  1  0.940236  0.940236  0.072858  1
  P  P9  1  0.887791  0.887791  0.824013  1
  P  P10  1  0.112209  0.112209  0.175987  1
  P  P11  1  0.188954  0.188954  0.616957  1
  P  P12  1  0.811046  0.811046  0.383043  1
  P  P13  1  0.364601  0.364601  0.580969  1
  P  P14  1  0.635399  0.635399  0.419031  1
  P  P15  1  0.010635  0.010635  0.675910  1
  P  P16  1  0.989365  0.989365  0.324090  1
  P  P17  1  0.234194  0.234194  0.882996  1
  P  P18  1  0.765806  0.765806  0.117004  1
  Pd  Pd19  1  0.837794  0.837794  0.194151  1
  Pd  Pd20  1  0.162206  0.162206  0.805849  1
  Pd  Pd21  1  0.025166  0.025166  0.126757  1
  Pd  Pd22  1  0.974834  0.974834  0.873243  1
  Pd  Pd23  1  0.888315  0.888315  0.458727  1
  Pd  Pd24  1  0.111685  0.111685  0.541273  1
  Pd  Pd25  1  0.500000  0.500000  0.000000  1
  Pd  Pd26  1  0.548219  0.548219  0.256146  1
  Pd  Pd27  1  0.451781  0.451781  0.743854  1
  Pd  Pd28  1  0.298246  0.298246  0.487696  1
  Pd  Pd29  1  0.701754  0.701754  0.512304  1
  Pd  Pd30  1  0.666089  0.666089  0.222145  1
  Pd  Pd31  1  0.333911  0.333911  0.777855  1
  Pd  Pd32  1  0.904468  0.904468  0.643630  1
  Pd  Pd33  1  0.095532  0.095532  0.356370  1
  Pd  Pd34  1  0.219669  0.219669  0.070823  1
  Pd  Pd35  1  0.780331  0.780331  0.929177  1
