# generated using pymatgen
data_Ho3Lu17(Ir2Ru)4
_symmetry_space_group_name_H-M   'P 1'
_cell_length_a   10.62508215
_cell_length_b   10.63001644
_cell_length_c   6.32831717
_cell_angle_alpha   89.97320964
_cell_angle_beta   89.99821169
_cell_angle_gamma   89.98106033
_symmetry_Int_Tables_number   1
_chemical_formula_structural   Ho3Lu17(Ir2Ru)4
_chemical_formula_sum   'Ho3 Lu17 Ir8 Ru4'
_cell_volume   714.75038637
_cell_formula_units_Z   1
loop_
 _symmetry_equiv_pos_site_id
 _symmetry_equiv_pos_as_xyz
  1  'x, y, z'
loop_
 _atom_site_type_symbol
 _atom_site_label
 _atom_site_symmetry_multiplicity
 _atom_site_fract_x
 _atom_site_fract_y
 _atom_site_fract_z
 _atom_site_occupancy
  Ho  Ho0  1  0.913131  0.292744  0.624064  1
  Ho  Ho1  1  0.086500  0.707319  0.624081  1
  Ho  Ho2  1  0.086857  0.292805  0.123989  1
  Lu  Lu3  1  0.293866  0.085852  0.377203  1
  Lu  Lu4  1  0.293882  0.914041  0.877190  1
  Lu  Lu5  1  0.706042  0.085815  0.877063  1
  Lu  Lu6  1  0.706459  0.913736  0.376908  1
  Lu  Lu7  1  0.586268  0.793592  0.876878  1
  Lu  Lu8  1  0.586155  0.206329  0.376743  1
  Lu  Lu9  1  0.413793  0.793647  0.376753  1
  Lu  Lu10  1  0.413912  0.206406  0.876694  1
  Lu  Lu11  1  0.207435  0.413786  0.623120  1
  Lu  Lu12  1  0.206953  0.586616  0.123175  1
  Lu  Lu13  1  0.792802  0.414235  0.123188  1
  Lu  Lu14  1  0.792696  0.586645  0.623121  1
  Lu  Lu15  1  0.913305  0.706601  0.123089  1
  Lu  Lu16  1  0.999926  0.999845  0.499504  1
  Lu  Lu17  1  0.999699  0.999454  0.000076  1
  Lu  Lu18  1  0.500046  0.500147  0.999790  1
  Lu  Lu19  1  0.500073  0.500087  0.500093  1
  Ir  Ir20  1  0.846241  0.151605  0.248561  1
  Ir  Ir21  1  0.846696  0.847865  0.750306  1
  Ir  Ir22  1  0.153634  0.151546  0.748484  1
  Ir  Ir23  1  0.153028  0.847953  0.248100  1
  Ir  Ir24  1  0.651564  0.347590  0.750489  1
  Ir  Ir25  1  0.652517  0.652535  0.249954  1
  Ir  Ir26  1  0.348541  0.347549  0.250525  1
  Ir  Ir27  1  0.348460  0.652436  0.750464  1
  Ru  Ru28  1  0.500088  0.000005  0.123334  1
  Ru  Ru29  1  0.500023  0.999986  0.623112  1
  Ru  Ru30  1  0.999715  0.500696  0.877784  1
  Ru  Ru31  1  0.999693  0.500534  0.376167  1
