# generated using pymatgen
data_Er2Lu2Re7W
_symmetry_space_group_name_H-M   'P 1'
_cell_length_a   5.41877600
_cell_length_b   5.41877542
_cell_length_c   8.77784500
_cell_angle_alpha   90.00000000
_cell_angle_beta   90.00000000
_cell_angle_gamma   120.00000356
_symmetry_Int_Tables_number   1
_chemical_formula_structural   Er2Lu2Re7W
_chemical_formula_sum   'Er2 Lu2 Re7 W1'
_cell_volume   223.21371438
_cell_formula_units_Z   1
loop_
 _symmetry_equiv_pos_site_id
 _symmetry_equiv_pos_as_xyz
  1  'x, y, z'
loop_
 _atom_site_type_symbol
 _atom_site_label
 _atom_site_symmetry_multiplicity
 _atom_site_fract_x
 _atom_site_fract_y
 _atom_site_fract_z
 _atom_site_occupancy
  Er  Er0  1  0.666667  0.333333  0.938323  1
  Er  Er1  1  0.333333  0.666667  0.061677  1
  Lu  Lu2  1  0.333333  0.666667  0.437029  1
  Lu  Lu3  1  0.666667  0.333333  0.562971  1
  Re  Re4  1  0.000000  0.000000  0.000000  1
  Re  Re5  1  0.828494  0.171506  0.250403  1
  Re  Re6  1  0.828494  0.656989  0.250403  1
  Re  Re7  1  0.343011  0.171506  0.250403  1
  Re  Re8  1  0.171506  0.828494  0.749597  1
  Re  Re9  1  0.171506  0.343011  0.749597  1
  Re  Re10  1  0.656989  0.828494  0.749597  1
  W  W11  1  0.000000  0.000000  0.500000  1
