# generated using pymatgen
data_MnV(NiP)2
_symmetry_space_group_name_H-M   'P 1'
_cell_length_a   3.47974600
_cell_length_b   5.86732600
_cell_length_c   6.82560200
_cell_angle_alpha   90.00000000
_cell_angle_beta   90.00000000
_cell_angle_gamma   90.00000000
_symmetry_Int_Tables_number   1
_chemical_formula_structural   MnV(NiP)2
_chemical_formula_sum   'Mn2 V2 Ni4 P4'
_cell_volume   139.35697944
_cell_formula_units_Z   2
loop_
 _symmetry_equiv_pos_site_id
 _symmetry_equiv_pos_as_xyz
  1  'x, y, z'
loop_
 _atom_site_type_symbol
 _atom_site_label
 _atom_site_symmetry_multiplicity
 _atom_site_fract_x
 _atom_site_fract_y
 _atom_site_fract_z
 _atom_site_occupancy
  Mn  Mn0  1  0.750000  0.470511  0.662838  1
  Mn  Mn1  1  0.750000  0.970511  0.837162  1
  V  V2  1  0.250000  0.529731  0.332816  1
  V  V3  1  0.250000  0.029731  0.167184  1
  Ni  Ni4  1  0.750000  0.358415  0.061422  1
  Ni  Ni5  1  0.750000  0.858415  0.438578  1
  Ni  Ni6  1  0.250000  0.643421  0.932848  1
  Ni  Ni7  1  0.250000  0.143421  0.567152  1
  P  P8  1  0.750000  0.736989  0.129381  1
  P  P9  1  0.750000  0.236989  0.370619  1
  P  P10  1  0.250000  0.260933  0.872878  1
  P  P11  1  0.250000  0.760933  0.627122  1
