# generated using pymatgen
data_Na2MoF6
_symmetry_space_group_name_H-M   'P 1'
_cell_length_a   5.15012500
_cell_length_b   5.15012500
_cell_length_c   10.28424300
_cell_angle_alpha   90.00000000
_cell_angle_beta   90.00000000
_cell_angle_gamma   90.00000000
_symmetry_Int_Tables_number   1
_chemical_formula_structural   Na2MoF6
_chemical_formula_sum   'Na4 Mo2 F12'
_cell_volume   272.77707609
_cell_formula_units_Z   2
loop_
 _symmetry_equiv_pos_site_id
 _symmetry_equiv_pos_as_xyz
  1  'x, y, z'
loop_
 _atom_site_type_symbol
 _atom_site_label
 _atom_site_symmetry_multiplicity
 _atom_site_fract_x
 _atom_site_fract_y
 _atom_site_fract_z
 _atom_site_occupancy
  Na  Na0  1  0.000000  0.000000  0.335774  1
  Na  Na1  1  0.500000  0.500000  0.835774  1
  Na  Na2  1  0.000000  0.000000  0.664226  1
  Na  Na3  1  0.500000  0.500000  0.164226  1
  Mo  Mo4  1  0.000000  0.000000  0.000000  1
  Mo  Mo5  1  0.500000  0.500000  0.500000  1
  F  F6  1  0.726586  0.726586  0.000000  1
  F  F7  1  0.773414  0.226586  0.500000  1
  F  F8  1  0.226586  0.773414  0.500000  1
  F  F9  1  0.273414  0.273414  0.000000  1
  F  F10  1  0.686987  0.686987  0.355311  1
  F  F11  1  0.313013  0.313013  0.355311  1
  F  F12  1  0.313013  0.313013  0.644689  1
  F  F13  1  0.186987  0.813013  0.144689  1
  F  F14  1  0.813013  0.186987  0.144689  1
  F  F15  1  0.813013  0.186987  0.855311  1
  F  F16  1  0.186987  0.813013  0.855311  1
  F  F17  1  0.686987  0.686987  0.644689  1
