# generated using pymatgen
data_HoScTa2(SbRh)4
_symmetry_space_group_name_H-M   'P 1'
_cell_length_a   6.30362172
_cell_length_b   4.45230500
_cell_length_c   8.91737165
_cell_angle_alpha   90.00000000
_cell_angle_beta   90.14010902
_cell_angle_gamma   90.00000000
_symmetry_Int_Tables_number   1
_chemical_formula_structural   HoScTa2(SbRh)4
_chemical_formula_sum   'Ho1 Sc1 Ta2 Sb4 Rh4'
_cell_volume   250.27105228
_cell_formula_units_Z   1
loop_
 _symmetry_equiv_pos_site_id
 _symmetry_equiv_pos_as_xyz
  1  'x, y, z'
loop_
 _atom_site_type_symbol
 _atom_site_label
 _atom_site_symmetry_multiplicity
 _atom_site_fract_x
 _atom_site_fract_y
 _atom_site_fract_z
 _atom_site_occupancy
  Ho  Ho0  1  0.005364  0.000000  0.375922  1
  Sc  Sc1  1  0.506742  0.500001  0.623682  1
  Ta  Ta2  1  0.495795  0.500001  0.122744  1
  Ta  Ta3  1  0.994266  0.000000  0.876792  1
  Sb  Sb4  1  0.988753  0.500001  0.124304  1
  Sb  Sb5  1  0.510491  0.000000  0.377570  1
  Sb  Sb6  1  0.008835  0.500001  0.628072  1
  Sb  Sb7  1  0.485562  0.000000  0.870412  1
  Rh  Rh8  1  0.733474  0.000000  0.109906  1
  Rh  Rh9  1  0.273128  0.500001  0.359146  1
  Rh  Rh10  1  0.761046  0.000000  0.644338  1
  Rh  Rh11  1  0.236549  0.500001  0.887106  1
