# generated using pymatgen
data_Lu2GaTc2Os
_symmetry_space_group_name_H-M   'P 1'
_cell_length_a   5.30485491
_cell_length_b   5.29946311
_cell_length_c   8.82733900
_cell_angle_alpha   90.00000000
_cell_angle_beta   90.00000000
_cell_angle_gamma   119.96637071
_symmetry_Int_Tables_number   1
_chemical_formula_structural   Lu2GaTc2Os
_chemical_formula_sum   'Lu4 Ga2 Tc4 Os2'
_cell_volume   214.98734233
_cell_formula_units_Z   2
loop_
 _symmetry_equiv_pos_site_id
 _symmetry_equiv_pos_as_xyz
  1  'x, y, z'
loop_
 _atom_site_type_symbol
 _atom_site_label
 _atom_site_symmetry_multiplicity
 _atom_site_fract_x
 _atom_site_fract_y
 _atom_site_fract_z
 _atom_site_occupancy
  Lu  Lu0  1  0.327301  0.663651  0.433725  1
  Lu  Lu1  1  0.657741  0.328870  0.556304  1
  Lu  Lu2  1  0.657741  0.328870  0.943696  1
  Lu  Lu3  1  0.327301  0.663651  0.066275  1
  Ga  Ga4  1  0.190554  0.350908  0.750000  1
  Ga  Ga5  1  0.190554  0.839648  0.750000  1
  Tc  Tc6  1  0.347107  0.173553  0.250000  1
  Tc  Tc7  1  0.828103  0.661740  0.250000  1
  Tc  Tc8  1  0.685051  0.842527  0.750000  1
  Tc  Tc9  1  0.828103  0.166361  0.250000  1
  Os  Os10  1  0.980222  0.990111  0.995607  1
  Os  Os11  1  0.980222  0.990111  0.504393  1
