# generated using pymatgen
data_Sm5DyCo16(MoP6)2
_symmetry_space_group_name_H-M   'P 1'
_cell_length_a   3.75010200
_cell_length_b   10.62201101
_cell_length_c   12.33669701
_cell_angle_alpha   90.00544633
_cell_angle_beta   90.00000000
_cell_angle_gamma   90.00000000
_symmetry_Int_Tables_number   1
_chemical_formula_structural   Sm5DyCo16(MoP6)2
_chemical_formula_sum   'Sm5 Dy1 Co16 Mo2 P12'
_cell_volume   491.41535717
_cell_formula_units_Z   1
loop_
 _symmetry_equiv_pos_site_id
 _symmetry_equiv_pos_as_xyz
  1  'x, y, z'
loop_
 _atom_site_type_symbol
 _atom_site_label
 _atom_site_symmetry_multiplicity
 _atom_site_fract_x
 _atom_site_fract_y
 _atom_site_fract_z
 _atom_site_occupancy
  Sm  Sm0  1  0.000000  0.500078  0.523665  1
  Sm  Sm1  1  0.500000  0.999650  0.475879  1
  Sm  Sm2  1  0.500000  0.180907  0.205172  1
  Sm  Sm3  1  0.000000  0.681465  0.794412  1
  Sm  Sm4  1  0.000000  0.318694  0.795391  1
  Dy  Dy5  1  0.500000  0.818417  0.204639  1
  Co  Co6  1  0.500000  0.500361  0.702359  1
  Co  Co7  1  0.000000  0.998333  0.297012  1
  Co  Co8  1  0.000000  0.501256  0.987606  1
  Co  Co9  1  0.500000  0.998597  0.013979  1
  Co  Co10  1  0.500000  0.332610  0.991630  1
  Co  Co11  1  0.500000  0.668607  0.991849  1
  Co  Co12  1  0.000000  0.166760  0.009579  1
  Co  Co13  1  0.000000  0.832064  0.010232  1
  Co  Co14  1  0.500000  0.295588  0.431024  1
  Co  Co15  1  0.500000  0.704415  0.429342  1
  Co  Co16  1  0.000000  0.204070  0.568986  1
  Co  Co17  1  0.000000  0.795777  0.567702  1
  Co  Co18  1  0.500000  0.879654  0.707154  1
  Co  Co19  1  0.500000  0.120468  0.708071  1
  Co  Co20  1  0.000000  0.621827  0.291073  1
  Co  Co21  1  0.000000  0.379913  0.292323  1
  Mo  Mo22  1  0.500000  0.500654  0.155220  1
  Mo  Mo23  1  0.000000  0.999660  0.845199  1
  P  P24  1  0.500000  0.500560  0.883933  1
  P  P25  1  0.000000  0.998286  0.117815  1
  P  P26  1  0.500000  0.499825  0.346397  1
  P  P27  1  0.000000  0.000147  0.653462  1
  P  P28  1  0.500000  0.308828  0.615007  1
  P  P29  1  0.500000  0.691556  0.613897  1
  P  P30  1  0.000000  0.190735  0.385106  1
  P  P31  1  0.000000  0.809085  0.382703  1
  P  P32  1  0.500000  0.845916  0.894166  1
  P  P33  1  0.500000  0.153771  0.895472  1
  P  P34  1  0.000000  0.655550  0.107046  1
  P  P35  1  0.000000  0.345915  0.105498  1
