# generated using pymatgen
data_Y5IrOs
_symmetry_space_group_name_H-M   'P 1'
_cell_length_a   6.46703595
_cell_length_b   7.34328402
_cell_length_c   8.50331075
_cell_angle_alpha   96.48773867
_cell_angle_beta   112.35015366
_cell_angle_gamma   89.99999487
_symmetry_Int_Tables_number   1
_chemical_formula_structural   Y5IrOs
_chemical_formula_sum   'Y10 Ir2 Os2'
_cell_volume   370.68273946
_cell_formula_units_Z   2
loop_
 _symmetry_equiv_pos_site_id
 _symmetry_equiv_pos_as_xyz
  1  'x, y, z'
loop_
 _atom_site_type_symbol
 _atom_site_label
 _atom_site_symmetry_multiplicity
 _atom_site_fract_x
 _atom_site_fract_y
 _atom_site_fract_z
 _atom_site_occupancy
  Y  Y0  1  0.971705  0.914822  0.179822  1
  Y  Y1  1  0.791882  0.585178  0.820178  1
  Y  Y2  1  0.025323  0.082331  0.816688  1
  Y  Y3  1  0.208636  0.417669  0.183312  1
  Y  Y4  1  0.653444  0.818352  0.439651  1
  Y  Y5  1  0.213792  0.681648  0.560349  1
  Y  Y6  1  0.348896  0.179462  0.561843  1
  Y  Y7  1  0.787053  0.320538  0.438157  1
  Y  Y8  1  0.426005  0.750000  0.000000  1
  Y  Y9  1  0.575753  0.250000  0.000000  1
  Ir  Ir10  1  0.172568  0.423377  0.779319  1
  Ir  Ir11  1  0.393250  0.076623  0.220681  1
  Os  Os12  1  0.825044  0.574629  0.218392  1
  Os  Os13  1  0.606651  0.925371  0.781608  1
