# generated using pymatgen
data_Nd9Ho(Sn3Br)2
_symmetry_space_group_name_H-M   'P 1'
_cell_length_a   9.50391700
_cell_length_b   9.50391763
_cell_length_c   6.81460800
_cell_angle_alpha   90.00000000
_cell_angle_beta   90.00000000
_cell_angle_gamma   120.00000128
_symmetry_Int_Tables_number   1
_chemical_formula_structural   Nd9Ho(Sn3Br)2
_chemical_formula_sum   'Nd9 Ho1 Sn6 Br2'
_cell_volume   533.06086969
_cell_formula_units_Z   1
loop_
 _symmetry_equiv_pos_site_id
 _symmetry_equiv_pos_as_xyz
  1  'x, y, z'
loop_
 _atom_site_type_symbol
 _atom_site_label
 _atom_site_symmetry_multiplicity
 _atom_site_fract_x
 _atom_site_fract_y
 _atom_site_fract_z
 _atom_site_occupancy
  Nd  Nd0  1  0.267490  0.267932  0.749543  1
  Nd  Nd1  1  0.000441  0.732510  0.749543  1
  Nd  Nd2  1  0.732068  0.999559  0.749543  1
  Nd  Nd3  1  0.000441  0.267932  0.250457  1
  Nd  Nd4  1  0.732068  0.732510  0.250457  1
  Nd  Nd5  1  0.666667  0.333333  0.500000  1
  Nd  Nd6  1  0.267490  0.999559  0.250457  1
  Nd  Nd7  1  0.333333  0.666667  0.000000  1
  Nd  Nd8  1  0.666667  0.333333  0.000000  1
  Ho  Ho9  1  0.333333  0.666667  0.500000  1
  Sn  Sn10  1  0.611122  0.997776  0.251471  1
  Sn  Sn11  1  0.002224  0.388878  0.748529  1
  Sn  Sn12  1  0.386653  0.997776  0.748529  1
  Sn  Sn13  1  0.611122  0.613347  0.748529  1
  Sn  Sn14  1  0.002224  0.613347  0.251471  1
  Sn  Sn15  1  0.386653  0.388878  0.251471  1
  Br  Br16  1  0.000000  0.000000  0.000000  1
  Br  Br17  1  0.000000  0.000000  0.500000  1
