# generated using pymatgen
data_Li3Ca2Yb2AlPd4
_symmetry_space_group_name_H-M   'P 1'
_cell_length_a   4.15897200
_cell_length_b   7.18309373
_cell_length_c   8.42173537
_cell_angle_alpha   90.04946439
_cell_angle_beta   90.00000000
_cell_angle_gamma   90.00000000
_symmetry_Int_Tables_number   1
_chemical_formula_structural   Li3Ca2Yb2AlPd4
_chemical_formula_sum   'Li3 Ca2 Yb2 Al1 Pd4'
_cell_volume   251.59323487
_cell_formula_units_Z   1
loop_
 _symmetry_equiv_pos_site_id
 _symmetry_equiv_pos_as_xyz
  1  'x, y, z'
loop_
 _atom_site_type_symbol
 _atom_site_label
 _atom_site_symmetry_multiplicity
 _atom_site_fract_x
 _atom_site_fract_y
 _atom_site_fract_z
 _atom_site_occupancy
  Li  Li0  1  0.250000  0.132402  0.942670  1
  Li  Li1  1  0.250000  0.632664  0.558628  1
  Li  Li2  1  0.750000  0.870497  0.056448  1
  Ca  Ca3  1  0.750000  0.962300  0.677313  1
  Ca  Ca4  1  0.750000  0.463034  0.821887  1
  Yb  Yb5  1  0.250000  0.033855  0.318704  1
  Yb  Yb6  1  0.250000  0.536409  0.179144  1
  Al  Al7  1  0.750000  0.369208  0.441631  1
  Pd  Pd8  1  0.250000  0.270625  0.601124  1
  Pd  Pd9  1  0.250000  0.761656  0.879072  1
  Pd  Pd10  1  0.750000  0.720698  0.371934  1
  Pd  Pd11  1  0.750000  0.246653  0.151445  1
