# generated using pymatgen
data_TbHo(Tm2Rh9)2
_symmetry_space_group_name_H-M   'P 1'
_cell_length_a   5.26249200
_cell_length_b   5.26248428
_cell_length_c   17.51597200
_cell_angle_alpha   90.00000000
_cell_angle_beta   90.00000000
_cell_angle_gamma   120.00002338
_symmetry_Int_Tables_number   1
_chemical_formula_structural   TbHo(Tm2Rh9)2
_chemical_formula_sum   'Tb1 Ho1 Tm4 Rh18'
_cell_volume   420.09453500
_cell_formula_units_Z   1
loop_
 _symmetry_equiv_pos_site_id
 _symmetry_equiv_pos_as_xyz
  1  'x, y, z'
loop_
 _atom_site_type_symbol
 _atom_site_label
 _atom_site_symmetry_multiplicity
 _atom_site_fract_x
 _atom_site_fract_y
 _atom_site_fract_z
 _atom_site_occupancy
  Tb  Tb0  1  0.666667  0.333333  0.250000  1
  Ho  Ho1  1  0.333333  0.666667  0.750000  1
  Tm  Tm2  1  0.333333  0.666667  0.541814  1
  Tm  Tm3  1  0.666667  0.333333  0.041163  1
  Tm  Tm4  1  0.666667  0.333333  0.458837  1
  Tm  Tm5  1  0.333333  0.666667  0.958186  1
  Rh  Rh6  1  0.167372  0.334743  0.124792  1
  Rh  Rh7  1  0.832516  0.665031  0.625047  1
  Rh  Rh8  1  0.665257  0.832628  0.124792  1
  Rh  Rh9  1  0.167372  0.832628  0.124792  1
  Rh  Rh10  1  0.832516  0.167484  0.625047  1
  Rh  Rh11  1  0.334969  0.167484  0.625047  1
  Rh  Rh12  1  0.832516  0.665031  0.874953  1
  Rh  Rh13  1  0.832516  0.167484  0.874953  1
  Rh  Rh14  1  0.334969  0.167484  0.874953  1
  Rh  Rh15  1  0.665257  0.832628  0.375208  1
  Rh  Rh16  1  0.167372  0.832628  0.375208  1
  Rh  Rh17  1  0.167372  0.334743  0.375208  1
  Rh  Rh18  1  0.000000  0.000000  0.250000  1
  Rh  Rh19  1  0.000001  0.000001  0.750000  1
  Rh  Rh20  1  0.333333  0.666667  0.250000  1
  Rh  Rh21  1  0.666667  0.333332  0.750000  1
  Rh  Rh22  1  0.000000  0.000000  0.999896  1
  Rh  Rh23  1  0.000000  0.000000  0.500104  1
