# generated using pymatgen
data_Y12Er4Cd3InPd4
_symmetry_space_group_name_H-M   'P 1'
_cell_length_a   9.69005903
_cell_length_b   9.69005860
_cell_length_c   9.69005805
_cell_angle_alpha   60.34753446
_cell_angle_beta   60.34753943
_cell_angle_gamma   60.34753323
_symmetry_Int_Tables_number   1
_chemical_formula_structural   Y12Er4Cd3InPd4
_chemical_formula_sum   'Y12 Er4 Cd3 In1 Pd4'
_cell_volume   648.43328576
_cell_formula_units_Z   1
loop_
 _symmetry_equiv_pos_site_id
 _symmetry_equiv_pos_as_xyz
  1  'x, y, z'
loop_
 _atom_site_type_symbol
 _atom_site_label
 _atom_site_symmetry_multiplicity
 _atom_site_fract_x
 _atom_site_fract_y
 _atom_site_fract_z
 _atom_site_occupancy
  Y  Y0  1  0.810234  0.190475  0.190475  1
  Y  Y1  1  0.191601  0.809055  0.809055  1
  Y  Y2  1  0.190475  0.810234  0.190475  1
  Y  Y3  1  0.809055  0.191601  0.809055  1
  Y  Y4  1  0.190475  0.190475  0.810234  1
  Y  Y5  1  0.809055  0.809055  0.191601  1
  Y  Y6  1  0.936403  0.566255  0.566255  1
  Y  Y7  1  0.563686  0.936698  0.936698  1
  Y  Y8  1  0.566255  0.936403  0.566255  1
  Y  Y9  1  0.936698  0.563686  0.936698  1
  Y  Y10  1  0.566255  0.566255  0.936403  1
  Y  Y11  1  0.936698  0.936698  0.563686  1
  Er  Er12  1  0.349887  0.349887  0.349887  1
  Er  Er13  1  0.355657  0.355657  0.937796  1
  Er  Er14  1  0.355657  0.937796  0.355657  1
  Er  Er15  1  0.937796  0.355657  0.355657  1
  Cd  Cd16  1  0.580203  0.580203  0.253484  1
  Cd  Cd17  1  0.580203  0.253484  0.580203  1
  Cd  Cd18  1  0.253484  0.580203  0.580203  1
  In  In19  1  0.582338  0.582338  0.582338  1
  Pd  Pd20  1  0.147283  0.147283  0.147283  1
  Pd  Pd21  1  0.143027  0.143027  0.564548  1
  Pd  Pd22  1  0.143027  0.564548  0.143027  1
  Pd  Pd23  1  0.564548  0.143027  0.143027  1
