# generated using pymatgen
data_Sr3Mn4(TcP3)2
_symmetry_space_group_name_H-M   'P 1'
_cell_length_a   8.61262099
_cell_length_b   8.60415695
_cell_length_c   8.60415558
_cell_angle_alpha   153.99151689
_cell_angle_beta   90.09161102
_cell_angle_gamma   95.71454630
_symmetry_Int_Tables_number   1
_chemical_formula_structural   Sr3Mn4(TcP3)2
_chemical_formula_sum   'Sr3 Mn4 Tc2 P6'
_cell_volume   272.07340722
_cell_formula_units_Z   1
loop_
 _symmetry_equiv_pos_site_id
 _symmetry_equiv_pos_as_xyz
  1  'x, y, z'
loop_
 _atom_site_type_symbol
 _atom_site_label
 _atom_site_symmetry_multiplicity
 _atom_site_fract_x
 _atom_site_fract_y
 _atom_site_fract_z
 _atom_site_occupancy
  Sr  Sr0  1  0.334604  0.334347  0.000257  1
  Sr  Sr1  1  0.667175  0.666857  0.000318  1
  Sr  Sr2  1  0.999188  0.998949  0.000239  1
  Mn  Mn3  1  0.755791  0.506868  0.248922  1
  Mn  Mn4  1  0.075484  0.826376  0.249108  1
  Mn  Mn5  1  0.415148  0.166876  0.248272  1
  Mn  Mn6  1  0.923057  0.166316  0.756742  1
  Tc  Tc7  1  0.584337  0.836878  0.747458  1
  Tc  Tc8  1  0.244097  0.496525  0.747570  1
  P  P9  1  0.306809  0.666763  0.640046  1
  P  P10  1  0.693785  0.336544  0.357241  1
  P  P11  1  0.969243  0.325607  0.643636  1
  P  P12  1  0.354391  0.997027  0.357364  1
  P  P13  1  0.026164  0.666545  0.359619  1
  P  P14  1  0.650727  0.007519  0.643209  1
