# generated using pymatgen
data_Ta3Ti7(Si3C)2
_symmetry_space_group_name_H-M   'P 1'
_cell_length_a   7.50203017
_cell_length_b   7.50143809
_cell_length_c   5.18580200
_cell_angle_alpha   90.00000000
_cell_angle_beta   90.00000000
_cell_angle_gamma   120.02707150
_symmetry_Int_Tables_number   1
_chemical_formula_structural   Ta3Ti7(Si3C)2
_chemical_formula_sum   'Ta3 Ti7 Si6 C2'
_cell_volume   252.66865122
_cell_formula_units_Z   1
loop_
 _symmetry_equiv_pos_site_id
 _symmetry_equiv_pos_as_xyz
  1  'x, y, z'
loop_
 _atom_site_type_symbol
 _atom_site_label
 _atom_site_symmetry_multiplicity
 _atom_site_fract_x
 _atom_site_fract_y
 _atom_site_fract_z
 _atom_site_occupancy
  Ta  Ta0  1  0.234343  0.999611  0.250000  1
  Ta  Ta1  1  0.765990  0.999362  0.750000  1
  Ta  Ta2  1  0.000096  0.237001  0.250000  1
  Ti  Ti3  1  0.333270  0.666469  0.999874  1
  Ti  Ti4  1  0.666550  0.332212  0.999874  1
  Ti  Ti5  1  0.666550  0.332212  0.500126  1
  Ti  Ti6  1  0.333270  0.666469  0.500126  1
  Ti  Ti7  1  0.999923  0.766989  0.750000  1
  Ti  Ti8  1  0.764621  0.764190  0.250000  1
  Ti  Ti9  1  0.235664  0.235060  0.750000  1
  Si  Si10  1  0.591228  0.997845  0.250000  1
  Si  Si11  1  0.406525  0.000040  0.750000  1
  Si  Si12  1  0.997715  0.592459  0.250000  1
  Si  Si13  1  0.002011  0.411701  0.750000  1
  Si  Si14  1  0.410770  0.411004  0.250000  1
  Si  Si15  1  0.591289  0.589506  0.750000  1
  C  C16  1  0.000093  0.998936  0.999136  1
  C  C17  1  0.000093  0.998936  0.500864  1
