# generated using pymatgen
data_PrTm(CrN3)2
_symmetry_space_group_name_H-M   'P 1'
_cell_length_a   6.98651952
_cell_length_b   6.98651998
_cell_length_c   5.83117100
_cell_angle_alpha   77.87908373
_cell_angle_beta   77.87909971
_cell_angle_gamma   87.91993499
_symmetry_Int_Tables_number   1
_chemical_formula_structural   PrTm(CrN3)2
_chemical_formula_sum   'Pr2 Tm2 Cr4 N12'
_cell_volume   272.06976903
_cell_formula_units_Z   2
loop_
 _symmetry_equiv_pos_site_id
 _symmetry_equiv_pos_as_xyz
  1  'x, y, z'
loop_
 _atom_site_type_symbol
 _atom_site_label
 _atom_site_symmetry_multiplicity
 _atom_site_fract_x
 _atom_site_fract_y
 _atom_site_fract_z
 _atom_site_occupancy
  Pr  Pr0  1  0.328604  0.671396  0.750000  1
  Pr  Pr1  1  0.671396  0.328604  0.250000  1
  Tm  Tm2  1  0.089269  0.910731  0.250000  1
  Tm  Tm3  1  0.910731  0.089269  0.750000  1
  Cr  Cr4  1  0.376130  0.197537  0.765912  1
  Cr  Cr5  1  0.623870  0.802463  0.234088  1
  Cr  Cr6  1  0.802463  0.623870  0.734088  1
  Cr  Cr7  1  0.197537  0.376130  0.265912  1
  N  N8  1  0.994343  0.785027  0.647141  1
  N  N9  1  0.878294  0.399658  0.825555  1
  N  N10  1  0.785027  0.994343  0.147141  1
  N  N11  1  0.121706  0.600342  0.174445  1
  N  N12  1  0.005657  0.214973  0.352859  1
  N  N13  1  0.214973  0.005657  0.852859  1
  N  N14  1  0.600342  0.121706  0.674445  1
  N  N15  1  0.628443  0.673423  0.989948  1
  N  N16  1  0.371557  0.326577  0.010052  1
  N  N17  1  0.399658  0.878294  0.325555  1
  N  N18  1  0.673423  0.628443  0.489948  1
  N  N19  1  0.326577  0.371557  0.510052  1
