# generated using pymatgen
data_Pr7Nd3(Sn3O)2
_symmetry_space_group_name_H-M   'P 1'
_cell_length_a   9.43250084
_cell_length_b   9.42756390
_cell_length_c   9.42991780
_cell_angle_alpha   126.26328607
_cell_angle_beta   126.27876677
_cell_angle_gamma   79.44375302
_symmetry_Int_Tables_number   1
_chemical_formula_structural   Pr7Nd3(Sn3O)2
_chemical_formula_sum   'Pr7 Nd3 Sn6 O2'
_cell_volume   526.81515886
_cell_formula_units_Z   1
loop_
 _symmetry_equiv_pos_site_id
 _symmetry_equiv_pos_as_xyz
  1  'x, y, z'
loop_
 _atom_site_type_symbol
 _atom_site_label
 _atom_site_symmetry_multiplicity
 _atom_site_fract_x
 _atom_site_fract_y
 _atom_site_fract_z
 _atom_site_occupancy
  Pr  Pr0  1  0.497845  0.304452  0.500000  1
  Pr  Pr1  1  0.804520  0.997794  0.500001  1
  Pr  Pr2  1  0.997680  0.497862  0.193134  1
  Pr  Pr3  1  0.304545  0.804730  0.806867  1
  Pr  Pr4  1  0.504158  0.697597  0.500003  1
  Pr  Pr5  1  0.502672  0.502576  0.999821  1
  Pr  Pr6  1  0.002852  0.002754  0.000180  1
  Nd  Nd7  1  0.198700  0.003182  0.499999  1
  Nd  Nd8  1  0.003181  0.503017  0.804255  1
  Nd  Nd9  1  0.698928  0.198760  0.195744  1
  Sn  Sn10  1  0.140203  0.360051  0.500000  1
  Sn  Sn11  1  0.860761  0.640093  0.500001  1
  Sn  Sn12  1  0.640405  0.140799  0.780562  1
  Sn  Sn13  1  0.359842  0.860239  0.219439  1
  Sn  Sn14  1  0.752469  0.752342  0.000639  1
  Sn  Sn15  1  0.251814  0.251704  0.999354  1
  O  O16  1  0.752067  0.252214  0.500000  1
  O  O17  1  0.250199  0.752678  0.500001  1
