# generated using pymatgen
data_Er2Mn3Si5Ni9P2
_symmetry_space_group_name_H-M   'P 1'
_cell_length_a   9.16603122
_cell_length_b   9.17689034
_cell_length_c   3.67700400
_cell_angle_alpha   90.00000000
_cell_angle_beta   90.00000000
_cell_angle_gamma   119.98447114
_symmetry_Int_Tables_number   1
_chemical_formula_structural   Er2Mn3Si5Ni9P2
_chemical_formula_sum   'Er2 Mn3 Si5 Ni9 P2'
_cell_volume   267.89804532
_cell_formula_units_Z   1
loop_
 _symmetry_equiv_pos_site_id
 _symmetry_equiv_pos_as_xyz
  1  'x, y, z'
loop_
 _atom_site_type_symbol
 _atom_site_label
 _atom_site_symmetry_multiplicity
 _atom_site_fract_x
 _atom_site_fract_y
 _atom_site_fract_z
 _atom_site_occupancy
  Er  Er0  1  0.331986  0.662815  0.000000  1
  Er  Er1  1  0.001566  0.999746  0.500000  1
  Mn  Mn2  1  0.790680  0.239864  0.500000  1
  Mn  Mn3  1  0.757558  0.550068  0.500000  1
  Mn  Mn4  1  0.453161  0.217205  0.500000  1
  Si  Si5  1  0.782742  0.043577  0.000000  1
  Si  Si6  1  0.956216  0.737754  0.000000  1
  Si  Si7  1  0.262690  0.217999  0.000000  1
  Si  Si8  1  0.373407  0.927702  0.500000  1
  Si  Si9  1  0.665913  0.333547  0.000000  1
  Ni  Ni10  1  0.045565  0.277802  0.000000  1
  Ni  Ni11  1  0.723266  0.768005  0.000000  1
  Ni  Ni12  1  0.231413  0.954391  0.000000  1
  Ni  Ni13  1  0.541616  0.051484  0.000000  1
  Ni  Ni14  1  0.948642  0.487881  0.000000  1
  Ni  Ni15  1  0.510416  0.462205  0.000000  1
  Ni  Ni16  1  0.615122  0.897301  0.500000  1
  Ni  Ni17  1  0.098448  0.710591  0.500000  1
  Ni  Ni18  1  0.284296  0.387250  0.500000  1
  P  P19  1  0.072462  0.445978  0.500000  1
  P  P20  1  0.552832  0.626841  0.500000  1
