# generated using pymatgen
data_CeEr3Ni2(B8Ir)2
_symmetry_space_group_name_H-M   'P 1'
_cell_length_a   6.91812798
_cell_length_b   6.91855600
_cell_length_c   6.91812835
_cell_angle_alpha   111.26342305
_cell_angle_beta   113.34571404
_cell_angle_gamma   103.94722012
_symmetry_Int_Tables_number   1
_chemical_formula_structural   CeEr3Ni2(B8Ir)2
_chemical_formula_sum   'Ce1 Er3 Ni2 B16 Ir2'
_cell_volume   253.06134538
_cell_formula_units_Z   1
loop_
 _symmetry_equiv_pos_site_id
 _symmetry_equiv_pos_as_xyz
  1  'x, y, z'
loop_
 _atom_site_type_symbol
 _atom_site_label
 _atom_site_symmetry_multiplicity
 _atom_site_fract_x
 _atom_site_fract_y
 _atom_site_fract_z
 _atom_site_occupancy
  Ce  Ce0  1  0.246069  0.746055  0.499987  1
  Er  Er1  1  0.789925  0.789930  0.000005  1
  Er  Er2  1  0.208125  0.208139  0.000015  1
  Er  Er3  1  0.751987  0.251964  0.499977  1
  Ni  Ni4  1  0.502119  0.748210  0.246090  1
  Ni  Ni5  1  0.502063  0.255998  0.753935  1
  B  B6  1  0.271332  0.107360  0.380349  1
  B  B7  1  0.726988  0.890949  0.619643  1
  B  B8  1  0.271306  0.890949  0.163961  1
  B  B9  1  0.727011  0.107360  0.836028  1
  B  B10  1  0.112117  0.732418  0.842000  1
  B  B11  1  0.890399  0.270109  0.158004  1
  B  B12  1  0.112105  0.270109  0.379709  1
  B  B13  1  0.890418  0.732418  0.620302  1
  B  B14  1  0.114513  0.110469  0.529824  1
  B  B15  1  0.580655  0.584714  0.470196  1
  B  B16  1  0.114518  0.584714  0.004060  1
  B  B17  1  0.580645  0.110469  0.995957  1
  B  B18  1  0.884876  0.891180  0.470573  1
  B  B19  1  0.420608  0.414281  0.529405  1
  B  B20  1  0.884877  0.414281  0.993674  1
  B  B21  1  0.420608  0.891180  0.006304  1
  Ir  Ir22  1  0.275886  0.498371  0.777520  1
  Ir  Ir23  1  0.720852  0.498371  0.222485  1
