# generated using pymatgen
data_Lu3Zr2Pb3S
_symmetry_space_group_name_H-M   'P 1'
_cell_length_a   8.86448300
_cell_length_b   8.86448184
_cell_length_c   6.19404300
_cell_angle_alpha   90.00000000
_cell_angle_beta   90.00000000
_cell_angle_gamma   119.99999312
_symmetry_Int_Tables_number   1
_chemical_formula_structural   Lu3Zr2Pb3S
_chemical_formula_sum   'Lu6 Zr4 Pb6 S2'
_cell_volume   421.51365096
_cell_formula_units_Z   2
loop_
 _symmetry_equiv_pos_site_id
 _symmetry_equiv_pos_as_xyz
  1  'x, y, z'
loop_
 _atom_site_type_symbol
 _atom_site_label
 _atom_site_symmetry_multiplicity
 _atom_site_fract_x
 _atom_site_fract_y
 _atom_site_fract_z
 _atom_site_occupancy
  Lu  Lu0  1  0.000000  0.247770  0.250000  1
  Lu  Lu1  1  0.752230  0.000000  0.750000  1
  Lu  Lu2  1  0.247770  0.247770  0.750000  1
  Lu  Lu3  1  0.000000  0.752230  0.750000  1
  Lu  Lu4  1  0.752230  0.752230  0.250000  1
  Lu  Lu5  1  0.247770  0.000000  0.250000  1
  Zr  Zr6  1  0.666667  0.333333  0.000000  1
  Zr  Zr7  1  0.333333  0.666667  0.500000  1
  Zr  Zr8  1  0.333333  0.666667  0.000000  1
  Zr  Zr9  1  0.666667  0.333333  0.500000  1
  Pb  Pb10  1  0.601916  0.601916  0.750000  1
  Pb  Pb11  1  0.398084  0.000000  0.750000  1
  Pb  Pb12  1  0.000000  0.601916  0.250000  1
  Pb  Pb13  1  0.398084  0.398084  0.250000  1
  Pb  Pb14  1  0.000000  0.398084  0.750000  1
  Pb  Pb15  1  0.601916  0.000000  0.250000  1
  S  S16  1  0.000000  0.000000  0.000000  1
  S  S17  1  0.000000  0.000000  0.500000  1
