# generated using pymatgen
data_Nd2Be2GeO7
_symmetry_space_group_name_H-M   'P 1'
_cell_length_a   7.63408100
_cell_length_b   7.63408100
_cell_length_c   4.93814600
_cell_angle_alpha   90.00000000
_cell_angle_beta   90.00000000
_cell_angle_gamma   90.00000000
_symmetry_Int_Tables_number   1
_chemical_formula_structural   Nd2Be2GeO7
_chemical_formula_sum   'Nd4 Be4 Ge2 O14'
_cell_volume   287.79116239
_cell_formula_units_Z   2
loop_
 _symmetry_equiv_pos_site_id
 _symmetry_equiv_pos_as_xyz
  1  'x, y, z'
loop_
 _atom_site_type_symbol
 _atom_site_label
 _atom_site_symmetry_multiplicity
 _atom_site_fract_x
 _atom_site_fract_y
 _atom_site_fract_z
 _atom_site_occupancy
  Nd  Nd0  1  0.340365  0.159635  0.504571  1
  Nd  Nd1  1  0.840365  0.340365  0.495429  1
  Nd  Nd2  1  0.159635  0.659635  0.495429  1
  Nd  Nd3  1  0.659635  0.840365  0.504571  1
  Be  Be4  1  0.133052  0.366948  0.958856  1
  Be  Be5  1  0.633052  0.133052  0.041144  1
  Be  Be6  1  0.366948  0.866948  0.041144  1
  Be  Be7  1  0.866948  0.633052  0.958856  1
  Ge  Ge8  1  0.000000  0.000000  0.000000  1
  Ge  Ge9  1  0.500000  0.500000  0.000000  1
  O  O10  1  0.000000  0.500000  0.825977  1
  O  O11  1  0.500000  0.000000  0.174023  1
  O  O12  1  0.141864  0.358136  0.280172  1
  O  O13  1  0.641864  0.141864  0.719828  1
  O  O14  1  0.358136  0.858136  0.719828  1
  O  O15  1  0.858136  0.641864  0.280172  1
  O  O16  1  0.077983  0.173660  0.794906  1
  O  O17  1  0.826340  0.077983  0.205094  1
  O  O18  1  0.173660  0.922017  0.205094  1
  O  O19  1  0.922017  0.826340  0.794906  1
  O  O20  1  0.577983  0.326340  0.205094  1
  O  O21  1  0.422017  0.673660  0.205094  1
  O  O22  1  0.673660  0.577983  0.794906  1
  O  O23  1  0.326340  0.422017  0.794906  1
