# generated using pymatgen
data_Pr2In7Ni2Ag
_symmetry_space_group_name_H-M   'P 1'
_cell_length_a   8.77283157
_cell_length_b   8.77283098
_cell_length_c   7.04805909
_cell_angle_alpha   91.25241616
_cell_angle_beta   88.74758579
_cell_angle_gamma   149.99414193
_symmetry_Int_Tables_number   1
_chemical_formula_structural   Pr2In7Ni2Ag
_chemical_formula_sum   'Pr2 In7 Ni2 Ag1'
_cell_volume   271.19693492
_cell_formula_units_Z   1
loop_
 _symmetry_equiv_pos_site_id
 _symmetry_equiv_pos_as_xyz
  1  'x, y, z'
loop_
 _atom_site_type_symbol
 _atom_site_label
 _atom_site_symmetry_multiplicity
 _atom_site_fract_x
 _atom_site_fract_y
 _atom_site_fract_z
 _atom_site_occupancy
  Pr  Pr0  1  0.878087  0.121913  0.737406  1
  Pr  Pr1  1  0.121913  0.878087  0.262594  1
  In  In2  1  0.500000  0.500000  0.500000  1
  In  In3  1  0.069627  0.930373  0.775980  1
  In  In4  1  0.930373  0.069627  0.224020  1
  In  In5  1  0.684465  0.315535  0.961118  1
  In  In6  1  0.315535  0.684465  0.038882  1
  In  In7  1  0.688600  0.311400  0.549747  1
  In  In8  1  0.311400  0.688600  0.450253  1
  Ni  Ni9  1  0.220942  0.779058  0.752969  1
  Ni  Ni10  1  0.779058  0.220942  0.247031  1
  Ag  Ag11  1  0.500000  0.500000  0.000000  1
