# generated using pymatgen
data_CaTh3Al3(Ga5Ir2)3
_symmetry_space_group_name_H-M   'P 1'
_cell_length_a   7.67433939
_cell_length_b   7.69004203
_cell_length_c   9.52192513
_cell_angle_alpha   89.98157770
_cell_angle_beta   89.98350679
_cell_angle_gamma   119.63431545
_symmetry_Int_Tables_number   1
_chemical_formula_structural   CaTh3Al3(Ga5Ir2)3
_chemical_formula_sum   'Ca1 Th3 Al3 Ga15 Ir6'
_cell_volume   488.44265969
_cell_formula_units_Z   1
loop_
 _symmetry_equiv_pos_site_id
 _symmetry_equiv_pos_as_xyz
  1  'x, y, z'
loop_
 _atom_site_type_symbol
 _atom_site_label
 _atom_site_symmetry_multiplicity
 _atom_site_fract_x
 _atom_site_fract_y
 _atom_site_fract_z
 _atom_site_occupancy
  Ca  Ca0  1  0.328318  0.001647  0.749523  1
  Th  Th1  1  0.999440  0.671394  0.250018  1
  Th  Th2  1  0.999586  0.330249  0.748904  1
  Th  Th3  1  0.670796  0.998033  0.250008  1
  Al  Al4  1  0.660715  0.660576  0.452859  1
  Al  Al5  1  0.665303  0.665019  0.047528  1
  Al  Al6  1  0.334537  0.330765  0.946105  1
  Ga  Ga7  1  0.136501  0.132772  0.249235  1
  Ga  Ga8  1  0.871876  0.870777  0.749343  1
  Ga  Ga9  1  0.005102  0.335662  0.079343  1
  Ga  Ga10  1  0.001979  0.671019  0.917233  1
  Ga  Ga11  1  0.001537  0.671411  0.582632  1
  Ga  Ga12  1  0.335841  0.005612  0.425872  1
  Ga  Ga13  1  0.007207  0.335859  0.418623  1
  Ga  Ga14  1  0.657299  0.995167  0.582837  1
  Ga  Ga15  1  0.657794  0.995963  0.917226  1
  Ga  Ga16  1  0.335776  0.003591  0.072108  1
  Ga  Ga17  1  0.332383  0.327091  0.567453  1
  Ga  Ga18  1  0.350522  0.547290  0.249900  1
  Ga  Ga19  1  0.652171  0.448609  0.750162  1
  Ga  Ga20  1  0.547348  0.346676  0.249912  1
  Ga  Ga21  1  0.452456  0.657463  0.749874  1
  Ir  Ir22  1  0.673192  0.332778  0.000738  1
  Ir  Ir23  1  0.328962  0.665898  0.001125  1
  Ir  Ir24  1  0.328512  0.669649  0.497289  1
  Ir  Ir25  1  0.677069  0.332721  0.497894  1
  Ir  Ir26  1  0.996892  0.000926  0.000946  1
  Ir  Ir27  1  0.990896  0.995388  0.495312  1
