# generated using pymatgen
data_LiCeLu2(Co4P3)2
_symmetry_space_group_name_H-M   'P 1'
_cell_length_a   3.70725500
_cell_length_b   10.57358000
_cell_length_c   12.12735000
_cell_angle_alpha   90.00000000
_cell_angle_beta   90.00000000
_cell_angle_gamma   90.00000000
_symmetry_Int_Tables_number   1
_chemical_formula_structural   LiCeLu2(Co4P3)2
_chemical_formula_sum   'Li2 Ce2 Lu4 Co16 P12'
_cell_volume   475.37947509
_cell_formula_units_Z   2
loop_
 _symmetry_equiv_pos_site_id
 _symmetry_equiv_pos_as_xyz
  1  'x, y, z'
loop_
 _atom_site_type_symbol
 _atom_site_label
 _atom_site_symmetry_multiplicity
 _atom_site_fract_x
 _atom_site_fract_y
 _atom_site_fract_z
 _atom_site_occupancy
  Li  Li0  1  0.500000  0.500000  0.150236  1
  Li  Li1  1  0.000000  0.000000  0.849764  1
  Ce  Ce2  1  0.000000  0.500000  0.526721  1
  Ce  Ce3  1  0.500000  0.000000  0.473279  1
  Lu  Lu4  1  0.500000  0.818348  0.204391  1
  Lu  Lu5  1  0.500000  0.181652  0.204391  1
  Lu  Lu6  1  0.000000  0.681652  0.795609  1
  Lu  Lu7  1  0.000000  0.318348  0.795609  1
  Co  Co8  1  0.500000  0.500000  0.702797  1
  Co  Co9  1  0.000000  0.000000  0.297203  1
  Co  Co10  1  0.000000  0.500000  0.985510  1
  Co  Co11  1  0.500000  0.000000  0.014490  1
  Co  Co12  1  0.500000  0.332928  0.996048  1
  Co  Co13  1  0.500000  0.667072  0.996048  1
  Co  Co14  1  0.000000  0.167072  0.003952  1
  Co  Co15  1  0.000000  0.832928  0.003952  1
  Co  Co16  1  0.500000  0.298181  0.430212  1
  Co  Co17  1  0.500000  0.701819  0.430212  1
  Co  Co18  1  0.000000  0.201819  0.569788  1
  Co  Co19  1  0.000000  0.798181  0.569788  1
  Co  Co20  1  0.500000  0.878092  0.710295  1
  Co  Co21  1  0.500000  0.121908  0.710295  1
  Co  Co22  1  0.000000  0.621908  0.289705  1
  Co  Co23  1  0.000000  0.378092  0.289705  1
  P  P24  1  0.500000  0.500000  0.882980  1
  P  P25  1  0.000000  0.000000  0.117020  1
  P  P26  1  0.500000  0.500000  0.342996  1
  P  P27  1  0.000000  0.000000  0.657004  1
  P  P28  1  0.500000  0.306565  0.618086  1
  P  P29  1  0.500000  0.693435  0.618086  1
  P  P30  1  0.000000  0.193435  0.381914  1
  P  P31  1  0.000000  0.806565  0.381914  1
  P  P32  1  0.500000  0.842507  0.893715  1
  P  P33  1  0.500000  0.157493  0.893715  1
  P  P34  1  0.000000  0.657493  0.106285  1
  P  P35  1  0.000000  0.342507  0.106285  1
