# generated using pymatgen
data_Li3Pr4MgPb4
_symmetry_space_group_name_H-M   'P 1'
_cell_length_a   4.89619500
_cell_length_b   7.78109208
_cell_length_c   8.53888721
_cell_angle_alpha   90.34827805
_cell_angle_beta   90.00000000
_cell_angle_gamma   90.00000000
_symmetry_Int_Tables_number   1
_chemical_formula_structural   Li3Pr4MgPb4
_chemical_formula_sum   'Li3 Pr4 Mg1 Pb4'
_cell_volume   325.30632992
_cell_formula_units_Z   1
loop_
 _symmetry_equiv_pos_site_id
 _symmetry_equiv_pos_as_xyz
  1  'x, y, z'
loop_
 _atom_site_type_symbol
 _atom_site_label
 _atom_site_symmetry_multiplicity
 _atom_site_fract_x
 _atom_site_fract_y
 _atom_site_fract_z
 _atom_site_occupancy
  Li  Li0  1  0.250000  0.178546  0.924721  1
  Li  Li1  1  0.750000  0.818806  0.077634  1
  Li  Li2  1  0.250000  0.680756  0.577017  1
  Pr  Pr3  1  0.250000  0.001291  0.277467  1
  Pr  Pr4  1  0.750000  0.993347  0.724910  1
  Pr  Pr5  1  0.250000  0.509844  0.214392  1
  Pr  Pr6  1  0.750000  0.502306  0.781645  1
  Mg  Mg7  1  0.750000  0.312257  0.419308  1
  Pb  Pb8  1  0.750000  0.232518  0.083713  1
  Pb  Pb9  1  0.250000  0.771152  0.909009  1
  Pb  Pb10  1  0.750000  0.734662  0.409596  1
  Pb  Pb11  1  0.250000  0.264515  0.600586  1
