# generated using pymatgen
data_CaYb4Dy(Si3Ru)8
_symmetry_space_group_name_H-M   'P 1'
_cell_length_a   10.16342004
_cell_length_b   10.16342044
_cell_length_c   8.14643830
_cell_angle_alpha   89.94236607
_cell_angle_beta   90.05764194
_cell_angle_gamma   132.74265872
_symmetry_Int_Tables_number   1
_chemical_formula_structural   CaYb4Dy(Si3Ru)8
_chemical_formula_sum   'Ca1 Yb4 Dy1 Si24 Ru8'
_cell_volume   617.99583756
_cell_formula_units_Z   1
loop_
 _symmetry_equiv_pos_site_id
 _symmetry_equiv_pos_as_xyz
  1  'x, y, z'
loop_
 _atom_site_type_symbol
 _atom_site_label
 _atom_site_symmetry_multiplicity
 _atom_site_fract_x
 _atom_site_fract_y
 _atom_site_fract_z
 _atom_site_occupancy
  Ca  Ca0  1  0.501036  0.001036  0.750000  1
  Yb  Yb1  1  0.499544  0.499483  0.499630  1
  Yb  Yb2  1  0.999483  0.999544  0.000370  1
  Yb  Yb3  1  0.998984  0.498984  0.250000  1
  Yb  Yb4  1  0.498203  0.998203  0.250000  1
  Dy  Dy5  1  0.000168  0.500168  0.750000  1
  Si  Si6  1  0.794461  0.204254  0.498121  1
  Si  Si7  1  0.294766  0.705601  0.001000  1
  Si  Si8  1  0.205601  0.794766  0.499000  1
  Si  Si9  1  0.704254  0.294461  0.001879  1
  Si  Si10  1  0.332972  0.333248  0.832166  1
  Si  Si11  1  0.664020  0.667735  0.168224  1
  Si  Si12  1  0.167735  0.164020  0.331776  1
  Si  Si13  1  0.833248  0.832972  0.667834  1
  Si  Si14  1  0.124105  0.891750  0.730266  1
  Si  Si15  1  0.109063  0.875948  0.269214  1
  Si  Si16  1  0.608054  0.374910  0.231200  1
  Si  Si17  1  0.625850  0.393983  0.769665  1
  Si  Si18  1  0.874910  0.108054  0.268800  1
  Si  Si19  1  0.893983  0.125850  0.730335  1
  Si  Si20  1  0.391750  0.624105  0.769734  1
  Si  Si21  1  0.375948  0.609063  0.230786  1
  Si  Si22  1  0.348081  0.113899  0.506357  1
  Si  Si23  1  0.887173  0.654246  0.492952  1
  Si  Si24  1  0.385595  0.152367  0.009196  1
  Si  Si25  1  0.846054  0.613277  0.991064  1
  Si  Si26  1  0.652367  0.885595  0.490804  1
  Si  Si27  1  0.113277  0.346054  0.508936  1
  Si  Si28  1  0.613899  0.848081  0.993643  1
  Si  Si29  1  0.154246  0.387173  0.007048  1
  Ru  Ru30  1  0.672604  0.331933  0.500973  1
  Ru  Ru31  1  0.168384  0.828878  0.999285  1
  Ru  Ru32  1  0.328878  0.668384  0.500715  1
  Ru  Ru33  1  0.831933  0.172604  0.999027  1
  Ru  Ru34  1  0.127095  0.126057  0.624615  1
  Ru  Ru35  1  0.872827  0.873396  0.375076  1
  Ru  Ru36  1  0.373396  0.372827  0.124924  1
  Ru  Ru37  1  0.626057  0.627095  0.875385  1
