# generated using pymatgen
data_SmTm4Zr3(Co4As3)4
_symmetry_space_group_name_H-M   'P 1'
_cell_length_a   12.72900300
_cell_length_b   12.72900192
_cell_length_c   3.82614200
_cell_angle_alpha   90.00000000
_cell_angle_beta   90.00000000
_cell_angle_gamma   120.00000022
_symmetry_Int_Tables_number   1
_chemical_formula_structural   SmTm4Zr3(Co4As3)4
_chemical_formula_sum   'Sm1 Tm4 Zr3 Co16 As12'
_cell_volume   536.88399254
_cell_formula_units_Z   1
loop_
 _symmetry_equiv_pos_site_id
 _symmetry_equiv_pos_as_xyz
  1  'x, y, z'
loop_
 _atom_site_type_symbol
 _atom_site_label
 _atom_site_symmetry_multiplicity
 _atom_site_fract_x
 _atom_site_fract_y
 _atom_site_fract_z
 _atom_site_occupancy
  Sm  Sm0  1  0.666667  0.333333  0.000000  1
  Tm  Tm1  1  0.181858  0.181704  0.500000  1
  Tm  Tm2  1  0.818296  0.000154  0.500000  1
  Tm  Tm3  1  0.999846  0.818142  0.500000  1
  Tm  Tm4  1  0.333333  0.666667  0.000000  1
  Zr  Zr5  1  0.559104  0.560064  0.000000  1
  Zr  Zr6  1  0.439936  0.999040  0.000000  1
  Zr  Zr7  1  0.000960  0.440896  0.000000  1
  Co  Co8  1  0.720042  0.721226  0.500000  1
  Co  Co9  1  0.278774  0.998816  0.500000  1
  Co  Co10  1  0.001184  0.279958  0.500000  1
  Co  Co11  1  0.177650  0.373349  0.000000  1
  Co  Co12  1  0.626651  0.804301  0.000000  1
  Co  Co13  1  0.195699  0.822350  0.000000  1
  Co  Co14  1  0.804743  0.628551  0.000000  1
  Co  Co15  1  0.823808  0.195257  0.000000  1
  Co  Co16  1  0.371449  0.176192  0.000000  1
  Co  Co17  1  0.356444  0.480047  0.500000  1
  Co  Co18  1  0.519953  0.876398  0.500000  1
  Co  Co19  1  0.123602  0.643556  0.500000  1
  Co  Co20  1  0.879119  0.523085  0.500000  1
  Co  Co21  1  0.643968  0.120881  0.500000  1
  Co  Co22  1  0.476915  0.356032  0.500000  1
  Co  Co23  1  0.000000  0.000000  0.000000  1
  As  As24  1  0.823279  0.823857  0.000000  1
  As  As25  1  0.176143  0.999422  0.000000  1
  As  As26  1  0.000578  0.176721  0.000000  1
  As  As27  1  0.174122  0.482960  0.500000  1
  As  As28  1  0.517040  0.691163  0.500000  1
  As  As29  1  0.308837  0.825878  0.500000  1
  As  As30  1  0.691958  0.520566  0.500000  1
  As  As31  1  0.828607  0.308042  0.500000  1
  As  As32  1  0.479434  0.171393  0.500000  1
  As  As33  1  0.349769  0.349749  0.000000  1
  As  As34  1  0.650251  0.000020  0.000000  1
  As  As35  1  0.999980  0.650231  0.000000  1
