# generated using pymatgen
data_Ca20InGa8Pb3
_symmetry_space_group_name_H-M   'P 1'
_cell_length_a   8.12303300
_cell_length_b   8.12303300
_cell_length_c   14.84742500
_cell_angle_alpha   90.00000000
_cell_angle_beta   90.00000000
_cell_angle_gamma   90.00000000
_symmetry_Int_Tables_number   1
_chemical_formula_structural   Ca20InGa8Pb3
_chemical_formula_sum   'Ca20 In1 Ga8 Pb3'
_cell_volume   979.68751908
_cell_formula_units_Z   1
loop_
 _symmetry_equiv_pos_site_id
 _symmetry_equiv_pos_as_xyz
  1  'x, y, z'
loop_
 _atom_site_type_symbol
 _atom_site_label
 _atom_site_symmetry_multiplicity
 _atom_site_fract_x
 _atom_site_fract_y
 _atom_site_fract_z
 _atom_site_occupancy
  Ca  Ca0  1  0.677430  0.174984  0.110105  1
  Ca  Ca1  1  0.177955  0.676380  0.612785  1
  Ca  Ca2  1  0.322570  0.825016  0.110105  1
  Ca  Ca3  1  0.822045  0.323620  0.612785  1
  Ca  Ca4  1  0.825016  0.677430  0.110105  1
  Ca  Ca5  1  0.323620  0.177955  0.612785  1
  Ca  Ca6  1  0.174984  0.322570  0.110105  1
  Ca  Ca7  1  0.676380  0.822045  0.612785  1
  Ca  Ca8  1  0.825016  0.322570  0.889895  1
  Ca  Ca9  1  0.323620  0.822045  0.387215  1
  Ca  Ca10  1  0.174984  0.677430  0.889895  1
  Ca  Ca11  1  0.676380  0.177955  0.387215  1
  Ca  Ca12  1  0.677430  0.825016  0.889895  1
  Ca  Ca13  1  0.177955  0.323620  0.387215  1
  Ca  Ca14  1  0.322570  0.174984  0.889895  1
  Ca  Ca15  1  0.822045  0.676380  0.387215  1
  Ca  Ca16  1  0.500000  0.500000  0.754545  1
  Ca  Ca17  1  0.000000  0.000000  0.250638  1
  Ca  Ca18  1  0.000000  0.000000  0.749362  1
  Ca  Ca19  1  0.500000  0.500000  0.245455  1
  In  In20  1  0.000000  0.000000  0.000000  1
  Ga  Ga21  1  0.611637  0.111405  0.751425  1
  Ga  Ga22  1  0.111405  0.611637  0.248575  1
  Ga  Ga23  1  0.888595  0.388363  0.248575  1
  Ga  Ga24  1  0.388363  0.888595  0.751425  1
  Ga  Ga25  1  0.888595  0.611637  0.751425  1
  Ga  Ga26  1  0.388363  0.111405  0.248575  1
  Ga  Ga27  1  0.111405  0.388363  0.751425  1
  Ga  Ga28  1  0.611637  0.888595  0.248575  1
  Pb  Pb29  1  0.500000  0.500000  0.500000  1
  Pb  Pb30  1  0.500000  0.500000  0.000000  1
  Pb  Pb31  1  0.000000  0.000000  0.500000  1
