# generated using pymatgen
data_Ho4ReTcC4
_symmetry_space_group_name_H-M   'P 1'
_cell_length_a   5.07812300
_cell_length_b   6.56162000
_cell_length_c   9.84909100
_cell_angle_alpha   90.00000000
_cell_angle_beta   90.00000000
_cell_angle_gamma   90.00000000
_symmetry_Int_Tables_number   1
_chemical_formula_structural   Ho4ReTcC4
_chemical_formula_sum   'Ho8 Re2 Tc2 C8'
_cell_volume   328.17873885
_cell_formula_units_Z   2
loop_
 _symmetry_equiv_pos_site_id
 _symmetry_equiv_pos_as_xyz
  1  'x, y, z'
loop_
 _atom_site_type_symbol
 _atom_site_label
 _atom_site_symmetry_multiplicity
 _atom_site_fract_x
 _atom_site_fract_y
 _atom_site_fract_z
 _atom_site_occupancy
  Ho  Ho0  1  0.750000  0.821760  0.056694  1
  Ho  Ho1  1  0.250000  0.678240  0.556694  1
  Ho  Ho2  1  0.750000  0.320541  0.442156  1
  Ho  Ho3  1  0.250000  0.179459  0.942156  1
  Ho  Ho4  1  0.750000  0.467443  0.782996  1
  Ho  Ho5  1  0.250000  0.032557  0.282996  1
  Ho  Ho6  1  0.750000  0.968041  0.716277  1
  Ho  Ho7  1  0.250000  0.531959  0.216277  1
  Re  Re8  1  0.750000  0.779783  0.366103  1
  Re  Re9  1  0.250000  0.720217  0.866103  1
  Tc  Tc10  1  0.750000  0.279216  0.133583  1
  Tc  Tc11  1  0.250000  0.220784  0.633583  1
  C  C12  1  0.750000  0.177099  0.950669  1
  C  C13  1  0.250000  0.822210  0.050321  1
  C  C14  1  0.750000  0.677790  0.550321  1
  C  C15  1  0.250000  0.322901  0.450669  1
  C  C16  1  0.750000  0.045286  0.259450  1
  C  C17  1  0.250000  0.454714  0.759450  1
  C  C18  1  0.750000  0.546948  0.241752  1
  C  C19  1  0.250000  0.953052  0.741752  1
