# generated using pymatgen
data_Tm2P7(Rh3W)3
_symmetry_space_group_name_H-M   'P 1'
_cell_length_a   3.93362305
_cell_length_b   9.50516799
_cell_length_c   9.50464601
_cell_angle_alpha   119.99927446
_cell_angle_beta   89.99933463
_cell_angle_gamma   90.00187809
_symmetry_Int_Tables_number   1
_chemical_formula_structural   Tm2P7(Rh3W)3
_chemical_formula_sum   'Tm2 P7 Rh9 W3'
_cell_volume   307.76716957
_cell_formula_units_Z   1
loop_
 _symmetry_equiv_pos_site_id
 _symmetry_equiv_pos_as_xyz
  1  'x, y, z'
loop_
 _atom_site_type_symbol
 _atom_site_label
 _atom_site_symmetry_multiplicity
 _atom_site_fract_x
 _atom_site_fract_y
 _atom_site_fract_z
 _atom_site_occupancy
  Tm  Tm0  1  0.261869  0.666635  0.333285  1
  Tm  Tm1  1  0.762006  0.333337  0.666680  1
  P  P2  1  0.261779  0.999998  0.999962  1
  P  P3  1  0.761874  0.879455  0.590907  1
  P  P4  1  0.761868  0.409083  0.288550  1
  P  P5  1  0.761861  0.711433  0.120496  1
  P  P6  1  0.261934  0.119384  0.413294  1
  P  P7  1  0.261937  0.586739  0.706122  1
  P  P8  1  0.261918  0.293929  0.880648  1
  Rh  Rh9  1  0.261969  0.885973  0.160315  1
  Rh  Rh10  1  0.261989  0.839656  0.725554  1
  Rh  Rh11  1  0.261984  0.274394  0.114096  1
  Rh  Rh12  1  0.761927  0.613230  0.557834  1
  Rh  Rh13  1  0.761920  0.442103  0.055335  1
  Rh  Rh14  1  0.761922  0.944562  0.386748  1
  Rh  Rh15  1  0.261805  0.370614  0.440038  1
  Rh  Rh16  1  0.261811  0.560043  0.930636  1
  Rh  Rh17  1  0.261817  0.069421  0.629427  1
  W  W18  1  0.761939  0.090440  0.869341  1
  W  W19  1  0.761931  0.130713  0.221227  1
  W  W20  1  0.761937  0.778858  0.909506  1
