# generated using pymatgen
data_Tb4YTi3(Co4As3)4
_symmetry_space_group_name_H-M   'P 1'
_cell_length_a   12.59125000
_cell_length_b   12.59125018
_cell_length_c   3.80934000
_cell_angle_alpha   90.00000000
_cell_angle_beta   90.00000000
_cell_angle_gamma   120.00000477
_symmetry_Int_Tables_number   1
_chemical_formula_structural   Tb4YTi3(Co4As3)4
_chemical_formula_sum   'Tb4 Y1 Ti3 Co16 As12'
_cell_volume   523.01970102
_cell_formula_units_Z   1
loop_
 _symmetry_equiv_pos_site_id
 _symmetry_equiv_pos_as_xyz
  1  'x, y, z'
loop_
 _atom_site_type_symbol
 _atom_site_label
 _atom_site_symmetry_multiplicity
 _atom_site_fract_x
 _atom_site_fract_y
 _atom_site_fract_z
 _atom_site_occupancy
  Tb  Tb0  1  0.186044  0.186044  0.500000  1
  Tb  Tb1  1  0.813956  0.000000  0.500000  1
  Tb  Tb2  1  0.000000  0.813956  0.500000  1
  Tb  Tb3  1  0.333333  0.666667  0.000000  1
  Y  Y4  1  0.666667  0.333333  0.000000  1
  Ti  Ti5  1  0.564206  0.564211  0.000000  1
  Ti  Ti6  1  0.435789  0.999995  0.000000  1
  Ti  Ti7  1  0.000005  0.435794  0.000000  1
  Co  Co8  1  0.716525  0.716523  0.500000  1
  Co  Co9  1  0.283477  0.000002  0.500000  1
  Co  Co10  1  0.999998  0.283475  0.500000  1
  Co  Co11  1  0.177123  0.376031  0.000000  1
  Co  Co12  1  0.623969  0.801092  0.000000  1
  Co  Co13  1  0.198908  0.822877  0.000000  1
  Co  Co14  1  0.801093  0.623967  0.000000  1
  Co  Co15  1  0.822873  0.198907  0.000000  1
  Co  Co16  1  0.376033  0.177127  0.000000  1
  Co  Co17  1  0.356382  0.479943  0.500000  1
  Co  Co18  1  0.520057  0.876439  0.500000  1
  Co  Co19  1  0.123561  0.643618  0.500000  1
  Co  Co20  1  0.876429  0.520048  0.500000  1
  Co  Co21  1  0.643619  0.123571  0.500000  1
  Co  Co22  1  0.479952  0.356381  0.500000  1
  Co  Co23  1  0.000000  0.000000  0.000000  1
  As  As24  1  0.821715  0.821715  0.000000  1
  As  As25  1  0.178285  0.000000  0.000000  1
  As  As26  1  0.000000  0.178285  0.000000  1
  As  As27  1  0.168775  0.482593  0.500000  1
  As  As28  1  0.517407  0.686183  0.500000  1
  As  As29  1  0.313817  0.831225  0.500000  1
  As  As30  1  0.686182  0.517387  0.500000  1
  As  As31  1  0.831207  0.313818  0.500000  1
  As  As32  1  0.482613  0.168793  0.500000  1
  As  As33  1  0.360025  0.360029  0.000000  1
  As  As34  1  0.639971  0.999996  0.000000  1
  As  As35  1  0.000004  0.639975  0.000000  1
