# generated using pymatgen
data_Tb3ErCdRu
_symmetry_space_group_name_H-M   'P 1'
_cell_length_a   9.61906952
_cell_length_b   9.61906907
_cell_length_c   9.61907000
_cell_angle_alpha   60.00000367
_cell_angle_beta   60.00000522
_cell_angle_gamma   59.99999796
_symmetry_Int_Tables_number   1
_chemical_formula_structural   Tb3ErCdRu
_chemical_formula_sum   'Tb12 Er4 Cd4 Ru4'
_cell_volume   629.33837783
_cell_formula_units_Z   4
loop_
 _symmetry_equiv_pos_site_id
 _symmetry_equiv_pos_as_xyz
  1  'x, y, z'
loop_
 _atom_site_type_symbol
 _atom_site_label
 _atom_site_symmetry_multiplicity
 _atom_site_fract_x
 _atom_site_fract_y
 _atom_site_fract_z
 _atom_site_occupancy
  Tb  Tb0  1  0.560835  0.560835  0.939165  1
  Tb  Tb1  1  0.939165  0.560835  0.939165  1
  Tb  Tb2  1  0.560835  0.939165  0.939165  1
  Tb  Tb3  1  0.939165  0.939165  0.560835  1
  Tb  Tb4  1  0.560835  0.939165  0.560835  1
  Tb  Tb5  1  0.939165  0.560835  0.560835  1
  Tb  Tb6  1  0.189316  0.189316  0.810684  1
  Tb  Tb7  1  0.810684  0.189316  0.810684  1
  Tb  Tb8  1  0.189315  0.810685  0.810684  1
  Tb  Tb9  1  0.810684  0.810685  0.189316  1
  Tb  Tb10  1  0.189315  0.810684  0.189315  1
  Tb  Tb11  1  0.810684  0.189316  0.189316  1
  Er  Er12  1  0.345921  0.345921  0.962238  1
  Er  Er13  1  0.345921  0.962238  0.345921  1
  Er  Er14  1  0.962238  0.345921  0.345921  1
  Er  Er15  1  0.345921  0.345921  0.345921  1
  Cd  Cd16  1  0.580157  0.580157  0.259529  1
  Cd  Cd17  1  0.580157  0.259529  0.580157  1
  Cd  Cd18  1  0.259529  0.580157  0.580157  1
  Cd  Cd19  1  0.580157  0.580157  0.580157  1
  Ru  Ru20  1  0.139814  0.139814  0.580556  1
  Ru  Ru21  1  0.139814  0.580556  0.139814  1
  Ru  Ru22  1  0.580556  0.139814  0.139814  1
  Ru  Ru23  1  0.139814  0.139814  0.139814  1
