# generated using pymatgen
data_Li2ThSi2(PPd5)4
_symmetry_space_group_name_H-M   'P 1'
_cell_length_a   8.63488545
_cell_length_b   8.64851503
_cell_length_c   8.64303231
_cell_angle_alpha   59.97900115
_cell_angle_beta   59.99495252
_cell_angle_gamma   59.94776956
_symmetry_Int_Tables_number   1
_chemical_formula_structural   Li2ThSi2(PPd5)4
_chemical_formula_sum   'Li2 Th1 Si2 P4 Pd20'
_cell_volume   456.13361081
_cell_formula_units_Z   1
loop_
 _symmetry_equiv_pos_site_id
 _symmetry_equiv_pos_as_xyz
  1  'x, y, z'
loop_
 _atom_site_type_symbol
 _atom_site_label
 _atom_site_symmetry_multiplicity
 _atom_site_fract_x
 _atom_site_fract_y
 _atom_site_fract_z
 _atom_site_occupancy
  Li  Li0  1  0.998451  0.999997  0.001555  1
  Li  Li1  1  0.750888  0.750001  0.749111  1
  Th  Th2  1  0.251940  0.250072  0.247918  1
  Si  Si3  1  0.737405  0.264094  0.262433  1
  Si  Si4  1  0.737405  0.736068  0.262433  1
  P  P5  1  0.738894  0.262540  0.736027  1
  P  P6  1  0.264369  0.737382  0.260867  1
  P  P7  1  0.263051  0.738761  0.737145  1
  P  P8  1  0.263051  0.261044  0.737145  1
  Pd  Pd9  1  0.340936  0.002655  0.002912  1
  Pd  Pd10  1  0.002619  0.654288  0.344215  1
  Pd  Pd11  1  0.342227  0.001866  0.654043  1
  Pd  Pd12  1  0.003710  0.652756  0.000215  1
  Pd  Pd13  1  0.652361  0.342278  0.000813  1
  Pd  Pd14  1  0.617735  0.619404  0.143457  1
  Pd  Pd15  1  0.384786  0.841166  0.386897  1
  Pd  Pd16  1  0.147090  0.617677  0.617553  1
  Pd  Pd17  1  0.652298  0.001976  0.343749  1
  Pd  Pd18  1  0.000421  0.343183  0.655769  1
  Pd  Pd19  1  0.652361  0.004548  0.000813  1
  Pd  Pd20  1  0.002619  0.998880  0.344215  1
  Pd  Pd21  1  0.617906  0.145410  0.618973  1
  Pd  Pd22  1  0.340936  0.653496  0.002912  1
  Pd  Pd23  1  0.384786  0.387152  0.386897  1
  Pd  Pd24  1  0.617906  0.617710  0.618973  1
  Pd  Pd25  1  0.386906  0.386789  0.839518  1
  Pd  Pd26  1  0.000421  0.000627  0.655769  1
  Pd  Pd27  1  0.842814  0.384865  0.387459  1
  Pd  Pd28  1  0.003710  0.343319  0.000215  1
