# generated using pymatgen
data_La8Cd2RuPt
_symmetry_space_group_name_H-M   'P 1'
_cell_length_a   10.15231565
_cell_length_b   10.15231515
_cell_length_c   10.12036900
_cell_angle_alpha   60.10403382
_cell_angle_beta   60.10403544
_cell_angle_gamma   60.23546325
_symmetry_Int_Tables_number   1
_chemical_formula_structural   La8Cd2RuPt
_chemical_formula_sum   'La16 Cd4 Ru2 Pt2'
_cell_volume   740.05159027
_cell_formula_units_Z   2
loop_
 _symmetry_equiv_pos_site_id
 _symmetry_equiv_pos_as_xyz
  1  'x, y, z'
loop_
 _atom_site_type_symbol
 _atom_site_label
 _atom_site_symmetry_multiplicity
 _atom_site_fract_x
 _atom_site_fract_y
 _atom_site_fract_z
 _atom_site_occupancy
  La  La0  1  0.901325  0.901325  0.907799  1
  La  La1  1  0.438628  0.438628  0.061372  1
  La  La2  1  0.057699  0.057699  0.442301  1
  La  La3  1  0.447327  0.061039  0.058337  1
  La  La4  1  0.309473  0.687014  0.312447  1
  La  La5  1  0.688283  0.688283  0.311717  1
  La  La6  1  0.687014  0.309473  0.312447  1
  La  La7  1  0.295206  0.896000  0.904398  1
  La  La8  1  0.896000  0.295206  0.904398  1
  La  La9  1  0.309473  0.687014  0.691066  1
  La  La10  1  0.901325  0.901325  0.289553  1
  La  La11  1  0.061039  0.447327  0.058337  1
  La  La12  1  0.311328  0.311328  0.688672  1
  La  La13  1  0.061039  0.447327  0.433296  1
  La  La14  1  0.447327  0.061039  0.433296  1
  La  La15  1  0.687014  0.309473  0.691066  1
  Cd  Cd16  1  0.670952  0.670952  0.987654  1
  Cd  Cd17  1  0.988042  0.670628  0.670665  1
  Cd  Cd18  1  0.670628  0.988042  0.670665  1
  Cd  Cd19  1  0.670952  0.670952  0.670441  1
  Ru  Ru20  1  0.111830  0.669872  0.109148  1
  Ru  Ru21  1  0.669872  0.111830  0.109148  1
  Pt  Pt22  1  0.109110  0.109110  0.675063  1
  Pt  Pt23  1  0.109110  0.109110  0.106716  1
