# generated using pymatgen
data_DyMgAlPt3
_symmetry_space_group_name_H-M   'P 1'
_cell_length_a   5.15346768
_cell_length_b   5.15346741
_cell_length_c   5.15346722
_cell_angle_alpha   64.77220201
_cell_angle_beta   64.77219713
_cell_angle_gamma   64.77219306
_symmetry_Int_Tables_number   1
_chemical_formula_structural   DyMgAlPt3
_chemical_formula_sum   'Dy1 Mg1 Al1 Pt3'
_cell_volume   106.88505256
_cell_formula_units_Z   1
loop_
 _symmetry_equiv_pos_site_id
 _symmetry_equiv_pos_as_xyz
  1  'x, y, z'
loop_
 _atom_site_type_symbol
 _atom_site_label
 _atom_site_symmetry_multiplicity
 _atom_site_fract_x
 _atom_site_fract_y
 _atom_site_fract_z
 _atom_site_occupancy
  Dy  Dy0  1  0.247006  0.247006  0.247006  1
  Mg  Mg1  1  0.993265  0.993265  0.993265  1
  Al  Al2  1  0.627173  0.627173  0.627173  1
  Pt  Pt3  1  0.628500  0.628500  0.125559  1
  Pt  Pt4  1  0.628500  0.125559  0.628500  1
  Pt  Pt5  1  0.125559  0.628500  0.628500  1
