# generated using pymatgen
data_ErScNbFe9
_symmetry_space_group_name_H-M   'P 1'
_cell_length_a   8.36284352
_cell_length_b   8.36284312
_cell_length_c   8.36284319
_cell_angle_alpha   34.21813740
_cell_angle_beta   34.21813907
_cell_angle_gamma   34.21813385
_symmetry_Int_Tables_number   1
_chemical_formula_structural   ErScNbFe9
_chemical_formula_sum   'Er1 Sc1 Nb1 Fe9'
_cell_volume   164.92516290
_cell_formula_units_Z   1
loop_
 _symmetry_equiv_pos_site_id
 _symmetry_equiv_pos_as_xyz
  1  'x, y, z'
loop_
 _atom_site_type_symbol
 _atom_site_label
 _atom_site_symmetry_multiplicity
 _atom_site_fract_x
 _atom_site_fract_y
 _atom_site_fract_z
 _atom_site_occupancy
  Er  Er0  1  0.999752  0.999752  0.999752  1
  Sc  Sc1  1  0.856964  0.856964  0.856964  1
  Nb  Nb2  1  0.143309  0.143309  0.143309  1
  Fe  Fe3  1  0.413282  0.413282  0.917313  1
  Fe  Fe4  1  0.917313  0.413282  0.413282  1
  Fe  Fe5  1  0.586780  0.082476  0.586780  1
  Fe  Fe6  1  0.586780  0.586780  0.082476  1
  Fe  Fe7  1  0.413282  0.917313  0.413282  1
  Fe  Fe8  1  0.082476  0.586780  0.586780  1
  Fe  Fe9  1  0.333097  0.333097  0.333097  1
  Fe  Fe10  1  0.667038  0.667038  0.667038  1
  Fe  Fe11  1  0.499926  0.499926  0.499926  1
