# generated using pymatgen
data_Yb3TlIr3RhO14
_symmetry_space_group_name_H-M   'P 1'
_cell_length_a   7.19962391
_cell_length_b   7.19962275
_cell_length_c   7.14271100
_cell_angle_alpha   59.73607498
_cell_angle_beta   59.73608955
_cell_angle_gamma   59.99999289
_symmetry_Int_Tables_number   1
_chemical_formula_structural   Yb3TlIr3RhO14
_chemical_formula_sum   'Yb3 Tl1 Ir3 Rh1 O14'
_cell_volume   260.74956363
_cell_formula_units_Z   1
loop_
 _symmetry_equiv_pos_site_id
 _symmetry_equiv_pos_as_xyz
  1  'x, y, z'
loop_
 _atom_site_type_symbol
 _atom_site_label
 _atom_site_symmetry_multiplicity
 _atom_site_fract_x
 _atom_site_fract_y
 _atom_site_fract_z
 _atom_site_occupancy
  Yb  Yb0  1  0.625000  0.125000  0.125000  1
  Yb  Yb1  1  0.125000  0.625000  0.125000  1
  Yb  Yb2  1  0.125000  0.125000  0.125000  1
  Tl  Tl3  1  0.125000  0.125000  0.625000  1
  Ir  Ir4  1  0.125000  0.625000  0.625000  1
  Ir  Ir5  1  0.625000  0.125000  0.625000  1
  Ir  Ir6  1  0.625000  0.625000  0.625000  1
  Rh  Rh7  1  0.625000  0.625000  0.125000  1
  O  O8  1  0.707629  0.707629  0.294489  1
  O  O9  1  0.299826  0.299826  0.699622  1
  O  O10  1  0.700725  0.299826  0.699622  1
  O  O11  1  0.290253  0.707629  0.294489  1
  O  O12  1  0.299826  0.700725  0.699622  1
  O  O13  1  0.707629  0.290253  0.294489  1
  O  O14  1  0.542371  0.542371  0.955511  1
  O  O15  1  0.950174  0.950174  0.550378  1
  O  O16  1  0.549275  0.950174  0.550378  1
  O  O17  1  0.959747  0.542371  0.955511  1
  O  O18  1  0.950174  0.549275  0.550378  1
  O  O19  1  0.542371  0.959747  0.955511  1
  O  O20  1  0.242504  0.242504  0.272487  1
  O  O21  1  0.007496  0.007496  0.977513  1
