# generated using pymatgen
data_Ca13Nd(SnN4)2
_symmetry_space_group_name_H-M   'P 1'
_cell_length_a   3.60674200
_cell_length_b   12.08440274
_cell_length_c   11.59225300
_cell_angle_alpha   90.06890533
_cell_angle_beta   90.00000000
_cell_angle_gamma   90.00000000
_symmetry_Int_Tables_number   1
_chemical_formula_structural   Ca13Nd(SnN4)2
_chemical_formula_sum   'Ca13 Nd1 Sn2 N8'
_cell_volume   505.25172481
_cell_formula_units_Z   1
loop_
 _symmetry_equiv_pos_site_id
 _symmetry_equiv_pos_as_xyz
  1  'x, y, z'
loop_
 _atom_site_type_symbol
 _atom_site_label
 _atom_site_symmetry_multiplicity
 _atom_site_fract_x
 _atom_site_fract_y
 _atom_site_fract_z
 _atom_site_occupancy
  Ca  Ca0  1  0.500333  0.669954  0.241945  1
  Ca  Ca1  1  0.500333  0.330046  0.758055  1
  Ca  Ca2  1  0.499460  0.167489  0.261094  1
  Ca  Ca3  1  0.499460  0.832511  0.738906  1
  Ca  Ca4  1  0.500194  0.000000  0.500000  1
  Ca  Ca5  1  0.999440  0.928825  0.262942  1
  Ca  Ca6  1  0.999440  0.071175  0.737058  1
  Ca  Ca7  1  0.001098  0.424678  0.243774  1
  Ca  Ca8  1  0.001098  0.575322  0.756226  1
  Ca  Ca9  1  0.000717  0.765582  0.479607  1
  Ca  Ca10  1  0.000717  0.234418  0.520393  1
  Ca  Ca11  1  0.998520  0.257235  0.021968  1
  Ca  Ca12  1  0.998520  0.742765  0.978032  1
  Nd  Nd13  1  0.499647  0.500000  0.000000  1
  Sn  Sn14  1  0.524697  0.500000  0.500000  1
  Sn  Sn15  1  0.476079  0.000000  0.000000  1
  N  N16  1  0.000196  0.598021  0.125248  1
  N  N17  1  0.000196  0.401979  0.874752  1
  N  N18  1  0.999709  0.102421  0.368597  1
  N  N19  1  0.999709  0.897579  0.631403  1
  N  N20  1  0.499850  0.831320  0.356931  1
  N  N21  1  0.499850  0.168680  0.643069  1
  N  N22  1  0.500369  0.336116  0.139492  1
  N  N23  1  0.500369  0.663884  0.860508  1
