# generated using pymatgen
data_Rb2NpF5
_symmetry_space_group_name_H-M   'P 1'
_cell_length_a   7.01471700
_cell_length_b   7.82043400
_cell_length_c   11.59211600
_cell_angle_alpha   90.00000000
_cell_angle_beta   90.00000000
_cell_angle_gamma   90.00000000
_symmetry_Int_Tables_number   1
_chemical_formula_structural   Rb2NpF5
_chemical_formula_sum   'Rb8 Np4 F20'
_cell_volume   635.92182189
_cell_formula_units_Z   4
loop_
 _symmetry_equiv_pos_site_id
 _symmetry_equiv_pos_as_xyz
  1  'x, y, z'
loop_
 _atom_site_type_symbol
 _atom_site_label
 _atom_site_symmetry_multiplicity
 _atom_site_fract_x
 _atom_site_fract_y
 _atom_site_fract_z
 _atom_site_occupancy
  Rb  Rb0  1  0.531928  0.021728  0.169593  1
  Rb  Rb1  1  0.468072  0.521728  0.830407  1
  Rb  Rb2  1  0.968072  0.021728  0.669593  1
  Rb  Rb3  1  0.031928  0.521728  0.330407  1
  Rb  Rb4  1  0.030823  0.016872  0.329123  1
  Rb  Rb5  1  0.969177  0.516872  0.670877  1
  Rb  Rb6  1  0.469177  0.016872  0.829123  1
  Rb  Rb7  1  0.530823  0.516872  0.170877  1
  Np  Np8  1  0.442711  0.270572  0.500178  1
  Np  Np9  1  0.557289  0.770572  0.499822  1
  Np  Np10  1  0.057289  0.270572  0.000178  1
  Np  Np11  1  0.942711  0.770572  0.999822  1
  F  F12  1  0.143373  0.988962  0.076380  1
  F  F13  1  0.856627  0.488962  0.923620  1
  F  F14  1  0.356627  0.988962  0.576380  1
  F  F15  1  0.643373  0.488962  0.423620  1
  F  F16  1  0.390053  0.268682  0.011783  1
  F  F17  1  0.609947  0.768682  0.988217  1
  F  F18  1  0.109947  0.268682  0.511783  1
  F  F19  1  0.890053  0.768682  0.488217  1
  F  F20  1  0.145681  0.548690  0.076518  1
  F  F21  1  0.854319  0.048690  0.923482  1
  F  F22  1  0.354319  0.548690  0.576518  1
  F  F23  1  0.645681  0.048690  0.423482  1
  F  F24  1  0.340811  0.268540  0.310127  1
  F  F25  1  0.659189  0.768540  0.689873  1
  F  F26  1  0.159189  0.268540  0.810127  1
  F  F27  1  0.840811  0.768540  0.189873  1
  F  F28  1  0.368141  0.762956  0.334948  1
  F  F29  1  0.631859  0.262956  0.665052  1
  F  F30  1  0.131859  0.762956  0.834948  1
  F  F31  1  0.868141  0.262956  0.165052  1
