# generated using pymatgen
data_Fe3AgSb12
_symmetry_space_group_name_H-M   'P 1'
_cell_length_a   8.04857615
_cell_length_b   8.04857708
_cell_length_c   8.04857700
_cell_angle_alpha   109.50992173
_cell_angle_beta   109.50993164
_cell_angle_gamma   109.50992264
_symmetry_Int_Tables_number   1
_chemical_formula_structural   Fe3AgSb12
_chemical_formula_sum   'Fe3 Ag1 Sb12'
_cell_volume   400.78500771
_cell_formula_units_Z   1
loop_
 _symmetry_equiv_pos_site_id
 _symmetry_equiv_pos_as_xyz
  1  'x, y, z'
loop_
 _atom_site_type_symbol
 _atom_site_label
 _atom_site_symmetry_multiplicity
 _atom_site_fract_x
 _atom_site_fract_y
 _atom_site_fract_z
 _atom_site_occupancy
  Fe  Fe0  1  0.500000  0.000000  0.000000  1
  Fe  Fe1  1  0.000000  0.000000  0.500000  1
  Fe  Fe2  1  0.000000  0.500000  0.000000  1
  Ag  Ag3  1  0.500000  0.500000  0.500000  1
  Sb  Sb4  1  0.671600  0.862650  0.502204  1
  Sb  Sb5  1  0.862650  0.502204  0.671600  1
  Sb  Sb6  1  0.502204  0.671600  0.862650  1
  Sb  Sb7  1  0.672164  0.162135  0.832474  1
  Sb  Sb8  1  0.837865  0.167526  0.327836  1
  Sb  Sb9  1  0.162135  0.832474  0.672164  1
  Sb  Sb10  1  0.167526  0.327836  0.837865  1
  Sb  Sb11  1  0.137350  0.497796  0.328400  1
  Sb  Sb12  1  0.328400  0.137350  0.497796  1
  Sb  Sb13  1  0.497796  0.328400  0.137350  1
  Sb  Sb14  1  0.327836  0.837865  0.167526  1
  Sb  Sb15  1  0.832474  0.672164  0.162135  1
