# generated using pymatgen
data_Pr13Nd4Th3Rh16
_symmetry_space_group_name_H-M   'P 1'
_cell_length_a   7.65567671
_cell_length_b   7.74088164
_cell_length_c   15.03780298
_cell_angle_alpha   90.08085412
_cell_angle_beta   89.76430761
_cell_angle_gamma   90.04993230
_symmetry_Int_Tables_number   1
_chemical_formula_structural   Pr13Nd4Th3Rh16
_chemical_formula_sum   'Pr13 Nd4 Th3 Rh16'
_cell_volume   891.15681645
_cell_formula_units_Z   1
loop_
 _symmetry_equiv_pos_site_id
 _symmetry_equiv_pos_as_xyz
  1  'x, y, z'
loop_
 _atom_site_type_symbol
 _atom_site_label
 _atom_site_symmetry_multiplicity
 _atom_site_fract_x
 _atom_site_fract_y
 _atom_site_fract_z
 _atom_site_occupancy
  Pr  Pr0  1  0.836257  0.666249  0.378237  1
  Pr  Pr1  1  0.335184  0.833862  0.378219  1
  Pr  Pr2  1  0.836379  0.665451  0.121292  1
  Pr  Pr3  1  0.663267  0.164863  0.878598  1
  Pr  Pr4  1  0.163957  0.333856  0.622119  1
  Pr  Pr5  1  0.515758  0.683047  0.592869  1
  Pr  Pr6  1  0.015938  0.817090  0.906747  1
  Pr  Pr7  1  0.485343  0.318207  0.094411  1
  Pr  Pr8  1  0.983995  0.184997  0.407635  1
  Pr  Pr9  1  0.484582  0.319699  0.406031  1
  Pr  Pr10  1  0.983631  0.181140  0.093901  1
  Pr  Pr11  1  0.515699  0.681938  0.906584  1
  Pr  Pr12  1  0.016084  0.816873  0.592542  1
  Nd  Nd13  1  0.822928  0.513181  0.749919  1
  Nd  Nd14  1  0.322947  0.986748  0.750080  1
  Nd  Nd15  1  0.172833  0.487880  0.250827  1
  Nd  Nd16  1  0.678500  0.011637  0.251355  1
  Th  Th17  1  0.664290  0.163382  0.622135  1
  Th  Th18  1  0.162931  0.337230  0.878252  1
  Th  Th19  1  0.337138  0.835982  0.122089  1
  Rh  Rh20  1  0.682576  0.974126  0.464691  1
  Rh  Rh21  1  0.188497  0.537833  0.036512  1
  Rh  Rh22  1  0.311306  0.038850  0.962622  1
  Rh  Rh23  1  0.815671  0.454981  0.543701  1
  Rh  Rh24  1  0.336210  0.032891  0.546139  1
  Rh  Rh25  1  0.841274  0.465091  0.953567  1
  Rh  Rh26  1  0.658076  0.964108  0.046290  1
  Rh  Rh27  1  0.171414  0.529354  0.456630  1
  Rh  Rh28  1  0.456433  0.383791  0.751799  1
  Rh  Rh29  1  0.958551  0.114567  0.750312  1
  Rh  Rh30  1  0.535491  0.611022  0.245254  1
  Rh  Rh31  1  0.048907  0.890864  0.243583  1
  Rh  Rh32  1  0.696962  0.864703  0.744563  1
  Rh  Rh33  1  0.196897  0.635750  0.754712  1
  Rh  Rh34  1  0.306739  0.139825  0.245514  1
  Rh  Rh35  1  0.797355  0.358931  0.250269  1
