# generated using pymatgen
data_La4Cd2Cu3Ru
_symmetry_space_group_name_H-M   'P 1'
_cell_length_a   7.80975915
_cell_length_b   7.80975980
_cell_length_c   3.96219400
_cell_angle_alpha   90.00000000
_cell_angle_beta   90.00000000
_cell_angle_gamma   90.16398579
_symmetry_Int_Tables_number   1
_chemical_formula_structural   La4Cd2Cu3Ru
_chemical_formula_sum   'La4 Cd2 Cu3 Ru1'
_cell_volume   241.66250611
_cell_formula_units_Z   1
loop_
 _symmetry_equiv_pos_site_id
 _symmetry_equiv_pos_as_xyz
  1  'x, y, z'
loop_
 _atom_site_type_symbol
 _atom_site_label
 _atom_site_symmetry_multiplicity
 _atom_site_fract_x
 _atom_site_fract_y
 _atom_site_fract_z
 _atom_site_occupancy
  La  La0  1  0.671879  0.171879  0.500000  1
  La  La1  1  0.307823  0.807823  0.500000  1
  La  La2  1  0.181389  0.340892  0.500000  1
  La  La3  1  0.840892  0.681389  0.500000  1
  Cd  Cd4  1  0.000445  0.009573  0.000000  1
  Cd  Cd5  1  0.509573  0.500445  0.000000  1
  Cu  Cu6  1  0.877931  0.377931  0.000000  1
  Cu  Cu7  1  0.610498  0.876973  0.000000  1
  Cu  Cu8  1  0.376973  0.110498  0.000000  1
  Ru  Ru9  1  0.122597  0.622597  0.000000  1
