# generated using pymatgen
data_La6Pr4InBi5Br2
_symmetry_space_group_name_H-M   'P 1'
_cell_length_a   9.81224700
_cell_length_b   9.77830644
_cell_length_c   6.82399600
_cell_angle_alpha   90.00000000
_cell_angle_beta   90.00000000
_cell_angle_gamma   120.11488991
_symmetry_Int_Tables_number   1
_chemical_formula_structural   La6Pr4InBi5Br2
_chemical_formula_sum   'La6 Pr4 In1 Bi5 Br2'
_cell_volume   566.36650333
_cell_formula_units_Z   1
loop_
 _symmetry_equiv_pos_site_id
 _symmetry_equiv_pos_as_xyz
  1  'x, y, z'
loop_
 _atom_site_type_symbol
 _atom_site_label
 _atom_site_symmetry_multiplicity
 _atom_site_fract_x
 _atom_site_fract_y
 _atom_site_fract_z
 _atom_site_occupancy
  La  La0  1  0.273630  0.000000  0.750000  1
  La  La1  1  0.727518  0.000000  0.250000  1
  La  La2  1  0.996474  0.269212  0.750000  1
  La  La3  1  0.000276  0.729666  0.250000  1
  La  La4  1  0.727261  0.730788  0.750000  1
  La  La5  1  0.270611  0.270334  0.250000  1
  Pr  Pr6  1  0.334764  0.667819  0.498397  1
  Pr  Pr7  1  0.666946  0.332181  0.498397  1
  Pr  Pr8  1  0.666946  0.332181  0.001603  1
  Pr  Pr9  1  0.334764  0.667819  0.001603  1
  In  In10  1  0.614502  0.000000  0.750000  1
  Bi  Bi11  1  0.386642  0.000000  0.250000  1
  Bi  Bi12  1  0.998746  0.616145  0.750000  1
  Bi  Bi13  1  0.999525  0.383379  0.250000  1
  Bi  Bi14  1  0.382600  0.383855  0.750000  1
  Bi  Bi15  1  0.616146  0.616621  0.250000  1
  Br  Br16  1  0.001324  0.000000  0.499699  1
  Br  Br17  1  0.001324  0.000000  0.000301  1
