# generated using pymatgen
data_Ho7Er3In8CuPd3
_symmetry_space_group_name_H-M   'P 1'
_cell_length_a   3.61844600
_cell_length_b   8.09251009
_cell_length_c   18.15367990
_cell_angle_alpha   89.86583323
_cell_angle_beta   90.00000000
_cell_angle_gamma   90.00000000
_symmetry_Int_Tables_number   1
_chemical_formula_structural   Ho7Er3In8CuPd3
_chemical_formula_sum   'Ho7 Er3 In8 Cu1 Pd3'
_cell_volume   531.58023901
_cell_formula_units_Z   1
loop_
 _symmetry_equiv_pos_site_id
 _symmetry_equiv_pos_as_xyz
  1  'x, y, z'
loop_
 _atom_site_type_symbol
 _atom_site_label
 _atom_site_symmetry_multiplicity
 _atom_site_fract_x
 _atom_site_fract_y
 _atom_site_fract_z
 _atom_site_occupancy
  Ho  Ho0  1  0.000000  0.498679  0.500068  1
  Ho  Ho1  1  0.000000  0.998261  0.000275  1
  Ho  Ho2  1  0.000000  0.742178  0.280496  1
  Ho  Ho3  1  0.000000  0.258350  0.718389  1
  Ho  Ho4  1  0.000000  0.758195  0.781281  1
  Ho  Ho5  1  0.000000  0.241672  0.219063  1
  Ho  Ho6  1  0.000000  0.619955  0.084825  1
  Er  Er7  1  0.000000  0.381626  0.917065  1
  Er  Er8  1  0.000000  0.880926  0.583166  1
  Er  Er9  1  0.000000  0.117962  0.416088  1
  In  In10  1  0.500000  0.706583  0.933035  1
  In  In11  1  0.500000  0.293747  0.068097  1
  In  In12  1  0.500000  0.792848  0.432650  1
  In  In13  1  0.500000  0.205763  0.566534  1
  In  In14  1  0.500000  0.578933  0.649874  1
  In  In15  1  0.500000  0.421467  0.348467  1
  In  In16  1  0.500000  0.923464  0.149574  1
  In  In17  1  0.500000  0.080458  0.850088  1
  Cu  Cu18  1  0.500000  0.525690  0.197460  1
  Pd  Pd19  1  0.500000  0.473138  0.804659  1
  Pd  Pd20  1  0.500000  0.973598  0.695471  1
  Pd  Pd21  1  0.500000  0.026508  0.303374  1
