# generated using pymatgen
data_Hf2PaF12
_symmetry_space_group_name_H-M   'P 1'
_cell_length_a   8.19032611
_cell_length_b   8.19035358
_cell_length_c   7.87592438
_cell_angle_alpha   61.83226883
_cell_angle_beta   61.83211776
_cell_angle_gamma   79.81612723
_symmetry_Int_Tables_number   1
_chemical_formula_structural   Hf2PaF12
_chemical_formula_sum   'Hf4 Pa2 F24'
_cell_volume   409.87817191
_cell_formula_units_Z   2
loop_
 _symmetry_equiv_pos_site_id
 _symmetry_equiv_pos_as_xyz
  1  'x, y, z'
loop_
 _atom_site_type_symbol
 _atom_site_label
 _atom_site_symmetry_multiplicity
 _atom_site_fract_x
 _atom_site_fract_y
 _atom_site_fract_z
 _atom_site_occupancy
  Hf  Hf0  1  0.350729  0.350723  0.774897  1
  Hf  Hf1  1  0.649271  0.649277  0.225103  1
  Hf  Hf2  1  0.188461  0.188462  0.431580  1
  Hf  Hf3  1  0.811539  0.811538  0.568420  1
  Pa  Pa4  1  0.778472  0.221536  0.999998  1
  Pa  Pa5  1  0.221528  0.778464  0.000002  1
  F  F6  1  0.439355  0.693498  0.134623  1
  F  F7  1  0.306497  0.560641  0.865382  1
  F  F8  1  0.560645  0.306502  0.865377  1
  F  F9  1  0.693503  0.439359  0.134618  1
  F  F10  1  0.222241  0.222243  0.141064  1
  F  F11  1  0.777759  0.777757  0.858936  1
  F  F12  1  0.000000  0.000000  0.000000  1
  F  F13  1  0.000000  0.000000  0.500000  1
  F  F14  1  0.388948  0.611050  0.500000  1
  F  F15  1  0.611052  0.388950  0.500000  1
  F  F16  1  0.832142  0.535874  0.718709  1
  F  F17  1  0.464124  0.167859  0.281292  1
  F  F18  1  0.167858  0.464126  0.281291  1
  F  F19  1  0.535876  0.832141  0.718708  1
  F  F20  1  0.713308  0.713306  0.426324  1
  F  F21  1  0.286692  0.286694  0.573676  1
  F  F22  1  0.933414  0.643638  0.111609  1
  F  F23  1  0.356364  0.066587  0.888390  1
  F  F24  1  0.066586  0.356362  0.888391  1
  F  F25  1  0.643636  0.933413  0.111610  1
  F  F26  1  0.782597  0.060664  0.333587  1
  F  F27  1  0.939333  0.217403  0.666415  1
  F  F28  1  0.217403  0.939336  0.666413  1
  F  F29  1  0.060667  0.782597  0.333585  1
