# generated using pymatgen
data_TbLu3(Al3Pt4)2
_symmetry_space_group_name_H-M   'P 1'
_cell_length_a   8.11564418
_cell_length_b   8.11564348
_cell_length_c   7.60072200
_cell_angle_alpha   90.08134441
_cell_angle_beta   89.91865560
_cell_angle_gamma   140.01240720
_symmetry_Int_Tables_number   1
_chemical_formula_structural   TbLu3(Al3Pt4)2
_chemical_formula_sum   'Tb1 Lu3 Al6 Pt8'
_cell_volume   321.70343965
_cell_formula_units_Z   1
loop_
 _symmetry_equiv_pos_site_id
 _symmetry_equiv_pos_as_xyz
  1  'x, y, z'
loop_
 _atom_site_type_symbol
 _atom_site_label
 _atom_site_symmetry_multiplicity
 _atom_site_fract_x
 _atom_site_fract_y
 _atom_site_fract_z
 _atom_site_occupancy
  Tb  Tb0  1  0.605877  0.394123  0.092434  1
  Lu  Lu1  1  0.105911  0.894089  0.408226  1
  Lu  Lu2  1  0.894558  0.105442  0.592336  1
  Lu  Lu3  1  0.393799  0.606201  0.908618  1
  Al  Al4  1  0.999333  0.000667  0.999139  1
  Al  Al5  1  0.499749  0.500251  0.499198  1
  Al  Al6  1  0.022647  0.477474  0.251081  1
  Al  Al7  1  0.477957  0.021654  0.749900  1
  Al  Al8  1  0.978346  0.522043  0.749900  1
  Al  Al9  1  0.522526  0.977353  0.251081  1
  Pt  Pt10  1  0.190130  0.309300  0.250692  1
  Pt  Pt11  1  0.308085  0.191094  0.747901  1
  Pt  Pt12  1  0.808906  0.691915  0.747901  1
  Pt  Pt13  1  0.690700  0.809870  0.250692  1
  Pt  Pt14  1  0.183696  0.816304  0.029488  1
  Pt  Pt15  1  0.817487  0.182513  0.970878  1
  Pt  Pt16  1  0.317310  0.682690  0.529168  1
  Pt  Pt17  1  0.682984  0.317016  0.471369  1
