# generated using pymatgen
data_Ce2UFe2Si7
_symmetry_space_group_name_H-M   'P 1'
_cell_length_a   12.33827531
_cell_length_b   12.33827511
_cell_length_c   4.08759200
_cell_angle_alpha   90.00000000
_cell_angle_beta   90.00000000
_cell_angle_gamma   160.92028418
_symmetry_Int_Tables_number   1
_chemical_formula_structural   Ce2UFe2Si7
_chemical_formula_sum   'Ce2 U1 Fe2 Si7'
_cell_volume   203.40856512
_cell_formula_units_Z   1
loop_
 _symmetry_equiv_pos_site_id
 _symmetry_equiv_pos_as_xyz
  1  'x, y, z'
loop_
 _atom_site_type_symbol
 _atom_site_label
 _atom_site_symmetry_multiplicity
 _atom_site_fract_x
 _atom_site_fract_y
 _atom_site_fract_z
 _atom_site_occupancy
  Ce  Ce0  1  0.317294  0.682706  0.000000  1
  Ce  Ce1  1  0.682706  0.317294  0.000000  1
  U  U2  1  0.000000  0.000000  0.500000  1
  Fe  Fe3  1  0.124705  0.875295  0.500000  1
  Fe  Fe4  1  0.875295  0.124705  0.500000  1
  Si  Si5  1  0.221380  0.778620  0.500000  1
  Si  Si6  1  0.778620  0.221380  0.500000  1
  Si  Si7  1  0.084503  0.915497  0.000000  1
  Si  Si8  1  0.915497  0.084503  0.000000  1
  Si  Si9  1  0.415108  0.584892  0.500000  1
  Si  Si10  1  0.500000  0.500000  0.000000  1
  Si  Si11  1  0.584892  0.415108  0.500000  1
