# generated using pymatgen
data_Pa4CdPt4Pb
_symmetry_space_group_name_H-M   'P 1'
_cell_length_a   7.92490100
_cell_length_b   7.92490100
_cell_length_c   3.63793500
_cell_angle_alpha   90.00000000
_cell_angle_beta   90.00000000
_cell_angle_gamma   90.00000000
_symmetry_Int_Tables_number   1
_chemical_formula_structural   Pa4CdPt4Pb
_chemical_formula_sum   'Pa4 Cd1 Pt4 Pb1'
_cell_volume   228.47707295
_cell_formula_units_Z   1
loop_
 _symmetry_equiv_pos_site_id
 _symmetry_equiv_pos_as_xyz
  1  'x, y, z'
loop_
 _atom_site_type_symbol
 _atom_site_label
 _atom_site_symmetry_multiplicity
 _atom_site_fract_x
 _atom_site_fract_y
 _atom_site_fract_z
 _atom_site_occupancy
  Pa  Pa0  1  0.168530  0.323091  0.500000  1
  Pa  Pa1  1  0.323091  0.831470  0.500000  1
  Pa  Pa2  1  0.831470  0.676909  0.500000  1
  Pa  Pa3  1  0.676909  0.168530  0.500000  1
  Cd  Cd4  1  0.000000  0.000000  0.000000  1
  Pt  Pt5  1  0.632788  0.874974  0.000000  1
  Pt  Pt6  1  0.125026  0.632788  0.000000  1
  Pt  Pt7  1  0.874974  0.367212  0.000000  1
  Pt  Pt8  1  0.367212  0.125026  0.000000  1
  Pb  Pb9  1  0.500000  0.500000  0.000000  1
