# generated using pymatgen
data_Tm16In6CoPt
_symmetry_space_group_name_H-M   'P 1'
_cell_length_a   10.30608500
_cell_length_b   10.30608438
_cell_length_c   6.89499400
_cell_angle_alpha   90.00000000
_cell_angle_beta   90.00000000
_cell_angle_gamma   119.99999877
_symmetry_Int_Tables_number   1
_chemical_formula_structural   Tm16In6CoPt
_chemical_formula_sum   'Tm16 In6 Co1 Pt1'
_cell_volume   634.23753957
_cell_formula_units_Z   1
loop_
 _symmetry_equiv_pos_site_id
 _symmetry_equiv_pos_as_xyz
  1  'x, y, z'
loop_
 _atom_site_type_symbol
 _atom_site_label
 _atom_site_symmetry_multiplicity
 _atom_site_fract_x
 _atom_site_fract_y
 _atom_site_fract_z
 _atom_site_occupancy
  Tm  Tm0  1  0.530712  0.061425  0.795409  1
  Tm  Tm1  1  0.938575  0.469288  0.795409  1
  Tm  Tm2  1  0.530712  0.469288  0.795409  1
  Tm  Tm3  1  0.464495  0.928991  0.292492  1
  Tm  Tm4  1  0.071009  0.535505  0.292492  1
  Tm  Tm5  1  0.464495  0.535505  0.292492  1
  Tm  Tm6  1  0.824460  0.648920  0.499513  1
  Tm  Tm7  1  0.351080  0.175540  0.499513  1
  Tm  Tm8  1  0.824460  0.175540  0.499513  1
  Tm  Tm9  1  0.178386  0.356773  0.000667  1
  Tm  Tm10  1  0.643227  0.821614  0.000667  1
  Tm  Tm11  1  0.178386  0.821614  0.000667  1
  Tm  Tm12  1  0.666667  0.333333  0.170565  1
  Tm  Tm13  1  0.333333  0.666667  0.682867  1
  Tm  Tm14  1  0.000000  0.000000  0.778392  1
  Tm  Tm15  1  0.000000  0.000000  0.277050  1
  In  In16  1  0.837621  0.675243  0.037347  1
  In  In17  1  0.324757  0.162379  0.037347  1
  In  In18  1  0.837621  0.162379  0.037347  1
  In  In19  1  0.162985  0.325971  0.537827  1
  In  In20  1  0.674029  0.837015  0.537827  1
  In  In21  1  0.162985  0.837015  0.537827  1
  Co  Co22  1  0.333333  0.666667  0.068141  1
  Pt  Pt23  1  0.666667  0.333333  0.569124  1
