# generated using pymatgen
data_Tb2Hf(SnRh)3
_symmetry_space_group_name_H-M   'P 1'
_cell_length_a   7.53499074
_cell_length_b   7.47092779
_cell_length_c   7.60960900
_cell_angle_alpha   90.00000000
_cell_angle_beta   90.00000000
_cell_angle_gamma   119.74671154
_symmetry_Int_Tables_number   1
_chemical_formula_structural   Tb2Hf(SnRh)3
_chemical_formula_sum   'Tb4 Hf2 Sn6 Rh6'
_cell_volume   371.92300118
_cell_formula_units_Z   2
loop_
 _symmetry_equiv_pos_site_id
 _symmetry_equiv_pos_as_xyz
  1  'x, y, z'
loop_
 _atom_site_type_symbol
 _atom_site_label
 _atom_site_symmetry_multiplicity
 _atom_site_fract_x
 _atom_site_fract_y
 _atom_site_fract_z
 _atom_site_occupancy
  Tb  Tb0  1  0.002804  0.406198  0.750000  1
  Tb  Tb1  1  0.999640  0.403077  0.250000  1
  Tb  Tb2  1  0.589104  0.592397  0.250000  1
  Tb  Tb3  1  0.411596  0.003575  0.250000  1
  Hf  Hf4  1  0.603405  0.601156  0.750000  1
  Hf  Hf5  1  0.394706  0.994192  0.750000  1
  Sn  Sn6  1  0.263359  0.262029  0.508769  1
  Sn  Sn7  1  0.998880  0.734966  0.497433  1
  Sn  Sn8  1  0.998880  0.734966  0.002567  1
  Sn  Sn9  1  0.737505  0.000832  0.509741  1
  Sn  Sn10  1  0.737505  0.000832  0.990259  1
  Sn  Sn11  1  0.263359  0.262029  0.991231  1
  Rh  Rh12  1  0.344310  0.676042  0.526403  1
  Rh  Rh13  1  0.655319  0.331352  0.532700  1
  Rh  Rh14  1  0.344310  0.676042  0.973597  1
  Rh  Rh15  1  0.000399  0.985997  0.750000  1
  Rh  Rh16  1  0.999604  0.002970  0.250000  1
  Rh  Rh17  1  0.655319  0.331352  0.967300  1
