# generated using pymatgen
data_Th8Ti12Si15Sb
_symmetry_space_group_name_H-M   'P 1'
_cell_length_a   7.23251044
_cell_length_b   7.21399977
_cell_length_c   13.35937010
_cell_angle_alpha   89.96786124
_cell_angle_beta   89.67558977
_cell_angle_gamma   90.11233652
_symmetry_Int_Tables_number   1
_chemical_formula_structural   Th8Ti12Si15Sb
_chemical_formula_sum   'Th8 Ti12 Si15 Sb1'
_cell_volume   697.01689837
_cell_formula_units_Z   1
loop_
 _symmetry_equiv_pos_site_id
 _symmetry_equiv_pos_as_xyz
  1  'x, y, z'
loop_
 _atom_site_type_symbol
 _atom_site_label
 _atom_site_symmetry_multiplicity
 _atom_site_fract_x
 _atom_site_fract_y
 _atom_site_fract_z
 _atom_site_occupancy
  Th  Th0  1  0.338845  0.998366  0.463970  1
  Th  Th1  1  0.505740  0.832472  0.720468  1
  Th  Th2  1  0.502374  0.163848  0.218176  1
  Th  Th3  1  0.836559  0.497956  0.279937  1
  Th  Th4  1  0.164383  0.508828  0.783964  1
  Th  Th5  1  0.665274  0.996811  0.970367  1
  Th  Th6  1  0.992635  0.344813  0.525061  1
  Th  Th7  1  0.998863  0.663621  0.032486  1
  Ti  Ti8  1  0.328466  0.328063  0.000959  1
  Ti  Ti9  1  0.171074  0.828653  0.249344  1
  Ti  Ti10  1  0.818168  0.172936  0.751651  1
  Ti  Ti11  1  0.670965  0.669951  0.499720  1
  Ti  Ti12  1  0.163060  0.006124  0.882787  1
  Ti  Ti13  1  0.493726  0.660456  0.125920  1
  Ti  Ti14  1  0.511672  0.342124  0.625845  1
  Ti  Ti15  1  0.664307  0.495641  0.876194  1
  Ti  Ti16  1  0.338060  0.508035  0.373340  1
  Ti  Ti17  1  0.837760  0.992743  0.375011  1
  Ti  Ti18  1  0.008618  0.161680  0.123801  1
  Ti  Ti19  1  0.980997  0.824392  0.619147  1
  Si  Si20  1  0.379576  0.697822  0.938461  1
  Si  Si21  1  0.618493  0.304244  0.435315  1
  Si  Si22  1  0.697659  0.378007  0.063594  1
  Si  Si23  1  0.302616  0.621844  0.563731  1
  Si  Si24  1  0.803436  0.878880  0.187070  1
  Si  Si25  1  0.121810  0.197269  0.312423  1
  Si  Si26  1  0.879857  0.805288  0.814271  1
  Si  Si27  1  0.288912  0.959129  0.067091  1
  Si  Si28  1  0.542226  0.785764  0.313335  1
  Si  Si29  1  0.469205  0.216970  0.821424  1
  Si  Si30  1  0.789169  0.536079  0.686103  1
  Si  Si31  1  0.213364  0.459680  0.184783  1
  Si  Si32  1  0.710628  0.040928  0.564159  1
  Si  Si33  1  0.960320  0.288348  0.935391  1
  Si  Si34  1  0.039690  0.714735  0.431412  1
  Sb  Sb35  1  0.191491  0.117501  0.683286  1
