# generated using pymatgen
data_Lu12ZnIn2Tc3
_symmetry_space_group_name_H-M   'P 1'
_cell_length_a   8.39866696
_cell_length_b   8.39872514
_cell_length_c   8.39866600
_cell_angle_alpha   113.27370136
_cell_angle_beta   112.18122754
_cell_angle_gamma   103.14018729
_symmetry_Int_Tables_number   1
_chemical_formula_structural   Lu12ZnIn2Tc3
_chemical_formula_sum   'Lu12 Zn1 In2 Tc3'
_cell_volume   451.89201448
_cell_formula_units_Z   1
loop_
 _symmetry_equiv_pos_site_id
 _symmetry_equiv_pos_as_xyz
  1  'x, y, z'
loop_
 _atom_site_type_symbol
 _atom_site_label
 _atom_site_symmetry_multiplicity
 _atom_site_fract_x
 _atom_site_fract_y
 _atom_site_fract_z
 _atom_site_occupancy
  Lu  Lu0  1  0.443017  0.242872  0.200504  1
  Lu  Lu1  1  0.554447  0.757265  0.797588  1
  Lu  Lu2  1  0.042369  0.242872  0.799854  1
  Lu  Lu3  1  0.959676  0.757265  0.202817  1
  Lu  Lu4  1  0.193737  0.290104  0.469840  1
  Lu  Lu5  1  0.820219  0.724044  0.530232  1
  Lu  Lu6  1  0.193811  0.724044  0.903826  1
  Lu  Lu7  1  0.820264  0.290104  0.096364  1
  Lu  Lu8  1  0.330406  0.645552  0.315145  1
  Lu  Lu9  1  0.654698  0.338240  0.683542  1
  Lu  Lu10  1  0.330352  0.015259  0.684907  1
  Lu  Lu11  1  0.654644  0.971221  0.316577  1
  Zn  Zn12  1  0.876986  0.377003  0.500017  1
  In  In13  1  0.501772  0.501484  0.999712  1
  In  In14  1  0.999792  0.999604  0.999811  1
  Tc  Tc15  1  0.326063  0.001096  0.324528  1
  Tc  Tc16  1  0.676568  0.001096  0.675032  1
  Tc  Tc17  1  0.121176  0.620877  0.499701  1
