# generated using pymatgen
data_U8Re2TcB24Mo
_symmetry_space_group_name_H-M   'P 1'
_cell_length_a   3.65218600
_cell_length_b   9.27667052
_cell_length_c   11.36605605
_cell_angle_alpha   90.03818119
_cell_angle_beta   90.00000000
_cell_angle_gamma   90.00000000
_symmetry_Int_Tables_number   1
_chemical_formula_structural   U8Re2TcB24Mo
_chemical_formula_sum   'U8 Re2 Tc1 B24 Mo1'
_cell_volume   385.08332788
_cell_formula_units_Z   1
loop_
 _symmetry_equiv_pos_site_id
 _symmetry_equiv_pos_as_xyz
  1  'x, y, z'
loop_
 _atom_site_type_symbol
 _atom_site_label
 _atom_site_symmetry_multiplicity
 _atom_site_fract_x
 _atom_site_fract_y
 _atom_site_fract_z
 _atom_site_occupancy
  U  U0  1  0.000000  0.336331  0.407658  1
  U  U1  1  0.000000  0.663540  0.592953  1
  U  U2  1  0.000000  0.836681  0.092371  1
  U  U3  1  0.000000  0.164396  0.907081  1
  U  U4  1  0.000000  0.955774  0.395208  1
  U  U5  1  0.000000  0.044248  0.604374  1
  U  U6  1  0.000000  0.456698  0.105024  1
  U  U7  1  0.000000  0.543258  0.895358  1
  Re  Re8  1  0.000000  0.144096  0.179434  1
  Re  Re9  1  0.000000  0.855594  0.820402  1
  Tc  Tc10  1  0.000000  0.644066  0.320283  1
  B  B11  1  0.500000  0.550073  0.432634  1
  B  B12  1  0.500000  0.450620  0.566427  1
  B  B13  1  0.500000  0.049829  0.067076  1
  B  B14  1  0.500000  0.950277  0.932728  1
  B  B15  1  0.500000  0.742322  0.423541  1
  B  B16  1  0.500000  0.256994  0.575380  1
  B  B17  1  0.500000  0.242935  0.076371  1
  B  B18  1  0.500000  0.757288  0.923796  1
  B  B19  1  0.500000  0.803643  0.273071  1
  B  B20  1  0.500000  0.195707  0.727163  1
  B  B21  1  0.500000  0.303749  0.226918  1
  B  B22  1  0.500000  0.696688  0.773318  1
  B  B23  1  0.500000  0.644910  0.188351  1
  B  B24  1  0.500000  0.354872  0.812714  1
  B  B25  1  0.500000  0.144703  0.311732  1
  B  B26  1  0.500000  0.855159  0.688199  1
  B  B27  1  0.500000  0.985515  0.218822  1
  B  B28  1  0.500000  0.013950  0.781153  1
  B  B29  1  0.500000  0.485873  0.281174  1
  B  B30  1  0.500000  0.515207  0.719136  1
  B  B31  1  0.500000  0.643574  0.039896  1
  B  B32  1  0.500000  0.356742  0.960861  1
  B  B33  1  0.500000  0.143004  0.459853  1
  B  B34  1  0.500000  0.856270  0.539594  1
  Mo  Mo35  1  0.000000  0.355414  0.679946  1
