# generated using pymatgen
data_DySb5O13
_symmetry_space_group_name_H-M   'P 1'
_cell_length_a   7.43030100
_cell_length_b   7.34900293
_cell_length_c   10.30260733
_cell_angle_alpha   88.82932951
_cell_angle_beta   90.00000000
_cell_angle_gamma   90.00000000
_symmetry_Int_Tables_number   1
_chemical_formula_structural   DySb5O13
_chemical_formula_sum   'Dy2 Sb10 O26'
_cell_volume   562.45957821
_cell_formula_units_Z   2
loop_
 _symmetry_equiv_pos_site_id
 _symmetry_equiv_pos_as_xyz
  1  'x, y, z'
loop_
 _atom_site_type_symbol
 _atom_site_label
 _atom_site_symmetry_multiplicity
 _atom_site_fract_x
 _atom_site_fract_y
 _atom_site_fract_z
 _atom_site_occupancy
  Dy  Dy0  1  0.500000  0.500000  0.000000  1
  Dy  Dy1  1  0.000000  0.500000  0.000000  1
  Sb  Sb2  1  0.250000  0.728917  0.730526  1
  Sb  Sb3  1  0.750000  0.271083  0.269474  1
  Sb  Sb4  1  0.500000  0.000000  0.000000  1
  Sb  Sb5  1  0.750000  0.757541  0.749159  1
  Sb  Sb6  1  0.250000  0.748211  0.252006  1
  Sb  Sb7  1  0.500000  0.500000  0.500000  1
  Sb  Sb8  1  0.000000  0.500000  0.500000  1
  Sb  Sb9  1  0.750000  0.251789  0.747994  1
  Sb  Sb10  1  0.250000  0.242459  0.250841  1
  Sb  Sb11  1  0.000000  0.000000  0.000000  1
  O  O12  1  0.447924  0.690839  0.372322  1
  O  O13  1  0.750000  0.455651  0.127424  1
  O  O14  1  0.250000  0.493683  0.160308  1
  O  O15  1  0.454223  0.309112  0.365842  1
  O  O16  1  0.557363  0.215776  0.885060  1
  O  O17  1  0.942637  0.215776  0.885060  1
  O  O18  1  0.448106  0.207907  0.120362  1
  O  O19  1  0.750000  0.000033  0.072597  1
  O  O20  1  0.250000  0.999967  0.927403  1
  O  O21  1  0.750000  0.003805  0.683667  1
  O  O22  1  0.551894  0.792093  0.879638  1
  O  O23  1  0.948106  0.792093  0.879638  1
  O  O24  1  0.442637  0.784224  0.114940  1
  O  O25  1  0.052076  0.690839  0.372322  1
  O  O26  1  0.545777  0.690888  0.634158  1
  O  O27  1  0.954223  0.690888  0.634158  1
  O  O28  1  0.250000  0.518368  0.580894  1
  O  O29  1  0.750000  0.506317  0.839692  1
  O  O30  1  0.750000  0.481632  0.419106  1
  O  O31  1  0.045777  0.309112  0.365842  1
  O  O32  1  0.552076  0.309161  0.627678  1
  O  O33  1  0.947924  0.309161  0.627678  1
  O  O34  1  0.051894  0.207907  0.120362  1
  O  O35  1  0.250000  0.996195  0.316333  1
  O  O36  1  0.057363  0.784224  0.114940  1
  O  O37  1  0.250000  0.544349  0.872576  1
