# generated using pymatgen
data_KGeAsIr2
_symmetry_space_group_name_H-M   'P 1'
_cell_length_a   7.37611632
_cell_length_b   7.37611677
_cell_length_c   7.37611668
_cell_angle_alpha   147.88555341
_cell_angle_beta   147.88555582
_cell_angle_gamma   46.05433625
_symmetry_Int_Tables_number   1
_chemical_formula_structural   KGeAsIr2
_chemical_formula_sum   'K1 Ge1 As1 Ir2'
_cell_volume   113.02581563
_cell_formula_units_Z   1
loop_
 _symmetry_equiv_pos_site_id
 _symmetry_equiv_pos_as_xyz
  1  'x, y, z'
loop_
 _atom_site_type_symbol
 _atom_site_label
 _atom_site_symmetry_multiplicity
 _atom_site_fract_x
 _atom_site_fract_y
 _atom_site_fract_z
 _atom_site_occupancy
  K  K0  1  0.001226  0.001226  0.000000  1
  Ge  Ge1  1  0.353533  0.353533  0.000000  1
  As  As2  1  0.648051  0.648051  0.000000  1
  Ir  Ir3  1  0.748595  0.248595  0.500000  1
  Ir  Ir4  1  0.248595  0.748595  0.500000  1
