# generated using pymatgen
data_Th4Np3ScN12
_symmetry_space_group_name_H-M   'P 1'
_cell_length_a   5.74447936
_cell_length_b   5.87874262
_cell_length_c   8.26731600
_cell_angle_alpha   90.44802084
_cell_angle_beta   90.02036703
_cell_angle_gamma   89.54053339
_symmetry_Int_Tables_number   1
_chemical_formula_structural   Th4Np3ScN12
_chemical_formula_sum   'Th4 Np3 Sc1 N12'
_cell_volume   279.17234706
_cell_formula_units_Z   1
loop_
 _symmetry_equiv_pos_site_id
 _symmetry_equiv_pos_as_xyz
  1  'x, y, z'
loop_
 _atom_site_type_symbol
 _atom_site_label
 _atom_site_symmetry_multiplicity
 _atom_site_fract_x
 _atom_site_fract_y
 _atom_site_fract_z
 _atom_site_occupancy
  Th  Th0  1  0.507396  0.543327  0.239288  1
  Th  Th1  1  0.985379  0.053977  0.240255  1
  Th  Th2  1  0.492604  0.456673  0.760712  1
  Th  Th3  1  0.014621  0.946023  0.759745  1
  Np  Np4  1  0.500000  0.000000  0.500000  1
  Np  Np5  1  0.000000  0.500000  0.500000  1
  Np  Np6  1  0.500000  0.000000  0.000000  1
  Sc  Sc7  1  0.000000  0.500000  0.000000  1
  N  N8  1  0.381419  0.958428  0.252367  1
  N  N9  1  0.108727  0.460913  0.257038  1
  N  N10  1  0.618581  0.041572  0.747633  1
  N  N11  1  0.891273  0.539087  0.742962  1
  N  N12  1  0.791724  0.808747  0.049966  1
  N  N13  1  0.700609  0.304379  0.433973  1
  N  N14  1  0.206428  0.191965  0.567002  1
  N  N15  1  0.301432  0.702238  0.943699  1
  N  N16  1  0.208276  0.191253  0.950034  1
  N  N17  1  0.299391  0.695621  0.566027  1
  N  N18  1  0.793572  0.808035  0.432998  1
  N  N19  1  0.698568  0.297762  0.056301  1
