# generated using pymatgen
data_Rb4Np2Si8O23
_symmetry_space_group_name_H-M   'P 1'
_cell_length_a   6.98690607
_cell_length_b   7.98883633
_cell_length_c   11.61915236
_cell_angle_alpha   104.15869719
_cell_angle_beta   89.61153119
_cell_angle_gamma   105.98028471
_symmetry_Int_Tables_number   1
_chemical_formula_structural   Rb4Np2Si8O23
_chemical_formula_sum   'Rb4 Np2 Si8 O23'
_cell_volume   603.26928484
_cell_formula_units_Z   1
loop_
 _symmetry_equiv_pos_site_id
 _symmetry_equiv_pos_as_xyz
  1  'x, y, z'
loop_
 _atom_site_type_symbol
 _atom_site_label
 _atom_site_symmetry_multiplicity
 _atom_site_fract_x
 _atom_site_fract_y
 _atom_site_fract_z
 _atom_site_occupancy
  Rb  Rb0  1  0.321778  0.280204  0.645094  1
  Rb  Rb1  1  0.678222  0.719796  0.354906  1
  Rb  Rb2  1  0.296181  0.225115  0.992394  1
  Rb  Rb3  1  0.703819  0.774885  0.007606  1
  Np  Np4  1  0.791126  0.249848  0.815434  1
  Np  Np5  1  0.208874  0.750152  0.184566  1
  Si  Si6  1  0.507212  0.197427  0.302607  1
  Si  Si7  1  0.492788  0.802573  0.697393  1
  Si  Si8  1  0.945107  0.858817  0.712100  1
  Si  Si9  1  0.054893  0.141183  0.287900  1
  Si  Si10  1  0.845006  0.304078  0.498038  1
  Si  Si11  1  0.154994  0.695922  0.501962  1
  Si  Si12  1  0.175262  0.676880  0.866385  1
  Si  Si13  1  0.824738  0.323120  0.133615  1
  O  O14  1  0.482763  0.985522  0.252895  1
  O  O15  1  0.517237  0.014478  0.747105  1
  O  O16  1  0.620987  0.312705  0.209891  1
  O  O17  1  0.379013  0.687295  0.790109  1
  O  O18  1  0.627467  0.287995  0.434943  1
  O  O19  1  0.372533  0.712005  0.565057  1
  O  O20  1  0.292271  0.244678  0.323079  1
  O  O21  1  0.707729  0.755322  0.676921  1
  O  O22  1  0.979151  0.070802  0.778410  1
  O  O23  1  0.020849  0.929198  0.221590  1
  O  O24  1  0.025814  0.759142  0.799909  1
  O  O25  1  0.974186  0.240858  0.200091  1
  O  O26  1  0.062088  0.848546  0.588602  1
  O  O27  1  0.937912  0.151454  0.411398  1
  O  O28  1  0.000000  0.500000  0.500000  1
  O  O29  1  0.817184  0.269067  0.627190  1
  O  O30  1  0.182816  0.730933  0.372810  1
  O  O31  1  0.074904  0.465617  0.858698  1
  O  O32  1  0.925096  0.534383  0.141302  1
  O  O33  1  0.229008  0.801339  0.001122  1
  O  O34  1  0.770992  0.198661  0.998878  1
  O  O35  1  0.621370  0.399764  0.854477  1
  O  O36  1  0.378630  0.600236  0.145523  1
