# generated using pymatgen
data_Tb3Ho3Al24Ru7Au
_symmetry_space_group_name_H-M   'P 1'
_cell_length_a   8.85082592
_cell_length_b   8.84769483
_cell_length_c   9.56514016
_cell_angle_alpha   89.87355137
_cell_angle_beta   90.11701330
_cell_angle_gamma   119.92096875
_symmetry_Int_Tables_number   1
_chemical_formula_structural   Tb3Ho3Al24Ru7Au
_chemical_formula_sum   'Tb3 Ho3 Al24 Ru7 Au1'
_cell_volume   649.20207386
_cell_formula_units_Z   1
loop_
 _symmetry_equiv_pos_site_id
 _symmetry_equiv_pos_as_xyz
  1  'x, y, z'
loop_
 _atom_site_type_symbol
 _atom_site_label
 _atom_site_symmetry_multiplicity
 _atom_site_fract_x
 _atom_site_fract_y
 _atom_site_fract_z
 _atom_site_occupancy
  Tb  Tb0  1  0.192249  0.385863  0.249654  1
  Tb  Tb1  1  0.807629  0.614013  0.750328  1
  Tb  Tb2  1  0.614118  0.807762  0.249677  1
  Ho  Ho3  1  0.386358  0.192414  0.750265  1
  Ho  Ho4  1  0.194377  0.805577  0.253180  1
  Ho  Ho5  1  0.805555  0.194413  0.746824  1
  Al  Al6  1  0.328039  0.671925  0.022487  1
  Al  Al7  1  0.671713  0.327979  0.977353  1
  Al  Al8  1  0.666581  0.333096  0.516955  1
  Al  Al9  1  0.333190  0.666775  0.483187  1
  Al  Al10  1  0.162294  0.324024  0.578303  1
  Al  Al11  1  0.837835  0.675900  0.421803  1
  Al  Al12  1  0.675945  0.837864  0.578244  1
  Al  Al13  1  0.849260  0.678239  0.080171  1
  Al  Al14  1  0.324082  0.162127  0.421960  1
  Al  Al15  1  0.150825  0.321709  0.919735  1
  Al  Al16  1  0.162772  0.837547  0.578842  1
  Al  Al17  1  0.321749  0.150734  0.080028  1
  Al  Al18  1  0.837346  0.162648  0.421251  1
  Al  Al19  1  0.678278  0.849262  0.919785  1
  Al  Al20  1  0.837392  0.162605  0.077913  1
  Al  Al21  1  0.162722  0.837584  0.921985  1
  Al  Al22  1  0.560561  0.121206  0.248402  1
  Al  Al23  1  0.439366  0.879116  0.751567  1
  Al  Al24  1  0.878837  0.439453  0.248418  1
  Al  Al25  1  0.121211  0.560578  0.751580  1
  Al  Al26  1  0.563856  0.436127  0.255617  1
  Al  Al27  1  0.436098  0.563527  0.744403  1
  Al  Al28  1  0.999557  0.000442  0.250098  1
  Al  Al29  1  0.000748  0.999725  0.749899  1
  Ru  Ru30  1  0.499904  0.000142  0.999822  1
  Ru  Ru31  1  0.999909  0.499941  0.999959  1
  Ru  Ru32  1  0.499922  0.000113  0.500134  1
  Ru  Ru33  1  0.999846  0.499923  0.500061  1
  Ru  Ru34  1  0.499898  0.499728  0.500190  1
  Ru  Ru35  1  0.000011  0.000000  0.999948  1
  Ru  Ru36  1  0.000021  0.000006  0.500059  1
  Au  Au37  1  0.499950  0.499911  0.999913  1
