# generated using pymatgen
data_Ni6Pt2W
_symmetry_space_group_name_H-M   'P 1'
_cell_length_a   5.86942983
_cell_length_b   5.86942932
_cell_length_c   5.86943002
_cell_angle_alpha   97.11157716
_cell_angle_beta   93.70826882
_cell_angle_gamma   144.24486819
_symmetry_Int_Tables_number   1
_chemical_formula_structural   Ni6Pt2W
_chemical_formula_sum   'Ni6 Pt2 W1'
_cell_volume   112.38686375
_cell_formula_units_Z   1
loop_
 _symmetry_equiv_pos_site_id
 _symmetry_equiv_pos_as_xyz
  1  'x, y, z'
loop_
 _atom_site_type_symbol
 _atom_site_label
 _atom_site_symmetry_multiplicity
 _atom_site_fract_x
 _atom_site_fract_y
 _atom_site_fract_z
 _atom_site_occupancy
  Ni  Ni0  1  0.341367  0.335004  0.676369  1
  Ni  Ni1  1  0.658633  0.664996  0.323631  1
  Ni  Ni2  1  0.658633  0.335004  0.993637  1
  Ni  Ni3  1  0.341367  0.664996  0.006363  1
  Ni  Ni4  1  0.000000  0.326758  0.326758  1
  Ni  Ni5  1  0.000000  0.673242  0.673242  1
  Pt  Pt6  1  0.670760  0.000000  0.670760  1
  Pt  Pt7  1  0.329240  0.000000  0.329240  1
  W  W8  1  0.000000  0.000000  0.000000  1
