# generated using pymatgen
data_AcIrF7
_symmetry_space_group_name_H-M   'P 1'
_cell_length_a   7.53577300
_cell_length_b   9.19212100
_cell_length_c   10.53302200
_cell_angle_alpha   90.00000000
_cell_angle_beta   90.00000000
_cell_angle_gamma   90.00000000
_symmetry_Int_Tables_number   1
_chemical_formula_structural   AcIrF7
_chemical_formula_sum   'Ac4 Ir4 F28'
_cell_volume   729.61966633
_cell_formula_units_Z   4
loop_
 _symmetry_equiv_pos_site_id
 _symmetry_equiv_pos_as_xyz
  1  'x, y, z'
loop_
 _atom_site_type_symbol
 _atom_site_label
 _atom_site_symmetry_multiplicity
 _atom_site_fract_x
 _atom_site_fract_y
 _atom_site_fract_z
 _atom_site_occupancy
  Ac  Ac0  1  0.250000  0.129266  0.238588  1
  Ac  Ac1  1  0.750000  0.870734  0.761412  1
  Ac  Ac2  1  0.750000  0.370734  0.738588  1
  Ac  Ac3  1  0.250000  0.629266  0.261412  1
  Ir  Ir4  1  0.250000  0.300625  0.555105  1
  Ir  Ir5  1  0.750000  0.699375  0.444895  1
  Ir  Ir6  1  0.250000  0.800625  0.944895  1
  Ir  Ir7  1  0.750000  0.199375  0.055105  1
  F  F8  1  0.750000  0.385533  0.133642  1
  F  F9  1  0.573458  0.267874  0.928981  1
  F  F10  1  0.934988  0.130428  0.175350  1
  F  F11  1  0.750000  0.005629  0.971170  1
  F  F12  1  0.073458  0.732126  0.071019  1
  F  F13  1  0.065012  0.869572  0.824650  1
  F  F14  1  0.434988  0.869572  0.824650  1
  F  F15  1  0.250000  0.494371  0.471170  1
  F  F16  1  0.926542  0.767874  0.571019  1
  F  F17  1  0.426542  0.232126  0.428981  1
  F  F18  1  0.250000  0.884035  0.316169  1
  F  F19  1  0.750000  0.885533  0.366358  1
  F  F20  1  0.750000  0.505629  0.528830  1
  F  F21  1  0.573458  0.767874  0.571019  1
  F  F22  1  0.250000  0.614467  0.866358  1
  F  F23  1  0.565012  0.630428  0.324650  1
  F  F24  1  0.750000  0.615965  0.816169  1
  F  F25  1  0.250000  0.994371  0.028830  1
  F  F26  1  0.065012  0.369572  0.675350  1
  F  F27  1  0.250000  0.384035  0.183831  1
  F  F28  1  0.934988  0.630428  0.324650  1
  F  F29  1  0.434988  0.369572  0.675350  1
  F  F30  1  0.926542  0.267874  0.928981  1
  F  F31  1  0.073458  0.232126  0.428981  1
  F  F32  1  0.565012  0.130428  0.175350  1
  F  F33  1  0.426542  0.732126  0.071019  1
  F  F34  1  0.750000  0.115965  0.683831  1
  F  F35  1  0.250000  0.114467  0.633642  1
