# generated using pymatgen
data_CaHoTh(Co3P2)3
_symmetry_space_group_name_H-M   'P 1'
_cell_length_a   3.72745500
_cell_length_b   10.58450100
_cell_length_c   12.20206300
_cell_angle_alpha   90.00000000
_cell_angle_beta   90.00000000
_cell_angle_gamma   90.00000000
_symmetry_Int_Tables_number   1
_chemical_formula_structural   CaHoTh(Co3P2)3
_chemical_formula_sum   'Ca2 Ho2 Th2 Co18 P12'
_cell_volume   481.41105639
_cell_formula_units_Z   2
loop_
 _symmetry_equiv_pos_site_id
 _symmetry_equiv_pos_as_xyz
  1  'x, y, z'
loop_
 _atom_site_type_symbol
 _atom_site_label
 _atom_site_symmetry_multiplicity
 _atom_site_fract_x
 _atom_site_fract_y
 _atom_site_fract_z
 _atom_site_occupancy
  Ca  Ca0  1  0.000000  0.682793  0.795733  1
  Ca  Ca1  1  0.000000  0.317207  0.795733  1
  Ho  Ho2  1  0.500000  0.816718  0.204391  1
  Ho  Ho3  1  0.500000  0.183282  0.204391  1
  Th  Th4  1  0.000000  0.500000  0.525676  1
  Th  Th5  1  0.500000  0.000000  0.474931  1
  Co  Co6  1  0.500000  0.500000  0.156028  1
  Co  Co7  1  0.000000  0.000000  0.846362  1
  Co  Co8  1  0.500000  0.500000  0.700534  1
  Co  Co9  1  0.000000  0.000000  0.296514  1
  Co  Co10  1  0.000000  0.500000  0.987487  1
  Co  Co11  1  0.500000  0.000000  0.014025  1
  Co  Co12  1  0.500000  0.332846  0.995916  1
  Co  Co13  1  0.500000  0.667154  0.995916  1
  Co  Co14  1  0.000000  0.166429  0.006106  1
  Co  Co15  1  0.000000  0.833571  0.006106  1
  Co  Co16  1  0.500000  0.299002  0.428803  1
  Co  Co17  1  0.500000  0.700998  0.428803  1
  Co  Co18  1  0.000000  0.200854  0.569255  1
  Co  Co19  1  0.000000  0.799146  0.569255  1
  Co  Co20  1  0.500000  0.881191  0.712520  1
  Co  Co21  1  0.500000  0.118809  0.712520  1
  Co  Co22  1  0.000000  0.619795  0.286382  1
  Co  Co23  1  0.000000  0.380205  0.286382  1
  P  P24  1  0.500000  0.500000  0.883369  1
  P  P25  1  0.000000  0.000000  0.117104  1
  P  P26  1  0.500000  0.500000  0.338482  1
  P  P27  1  0.000000  0.000000  0.662956  1
  P  P28  1  0.500000  0.304330  0.618459  1
  P  P29  1  0.500000  0.695670  0.618459  1
  P  P30  1  0.000000  0.194723  0.381016  1
  P  P31  1  0.000000  0.805277  0.381016  1
  P  P32  1  0.500000  0.846838  0.894773  1
  P  P33  1  0.500000  0.153162  0.894773  1
  P  P34  1  0.000000  0.653862  0.104912  1
  P  P35  1  0.000000  0.346138  0.104912  1
