# generated using pymatgen
data_DyYMn10Fe2P7
_symmetry_space_group_name_H-M   'P 1'
_cell_length_a   9.29085010
_cell_length_b   9.28819485
_cell_length_c   3.56626400
_cell_angle_alpha   90.00000000
_cell_angle_beta   90.00000000
_cell_angle_gamma   119.99242357
_symmetry_Int_Tables_number   1
_chemical_formula_structural   DyYMn10Fe2P7
_chemical_formula_sum   'Dy1 Y1 Mn10 Fe2 P7'
_cell_volume   266.54101270
_cell_formula_units_Z   1
loop_
 _symmetry_equiv_pos_site_id
 _symmetry_equiv_pos_as_xyz
  1  'x, y, z'
loop_
 _atom_site_type_symbol
 _atom_site_label
 _atom_site_symmetry_multiplicity
 _atom_site_fract_x
 _atom_site_fract_y
 _atom_site_fract_z
 _atom_site_occupancy
  Dy  Dy0  1  0.334376  0.667220  0.000000  1
  Y  Y1  1  0.000171  0.000327  0.500000  1
  Mn  Mn2  1  0.715868  0.760710  0.000000  1
  Mn  Mn3  1  0.239766  0.956711  0.000000  1
  Mn  Mn4  1  0.043327  0.284176  0.000000  1
  Mn  Mn5  1  0.941406  0.488941  0.000000  1
  Mn  Mn6  1  0.103283  0.724085  0.500000  1
  Mn  Mn7  1  0.274483  0.378233  0.500000  1
  Mn  Mn8  1  0.621208  0.895215  0.500000  1
  Mn  Mn9  1  0.769369  0.562431  0.500000  1
  Mn  Mn10  1  0.436787  0.206430  0.500000  1
  Mn  Mn11  1  0.792803  0.230502  0.500000  1
  Fe  Fe12  1  0.510467  0.450637  0.000000  1
  Fe  Fe13  1  0.549286  0.060091  0.000000  1
  P  P14  1  0.955770  0.742329  0.000000  1
  P  P15  1  0.258294  0.214681  0.000000  1
  P  P16  1  0.785389  0.044052  0.000000  1
  P  P17  1  0.075454  0.460376  0.500000  1
  P  P18  1  0.540055  0.611835  0.500000  1
  P  P19  1  0.387186  0.928092  0.500000  1
  P  P20  1  0.665256  0.332922  0.000000  1
