# generated using pymatgen
data_LaTbHo2(NiAs)4
_symmetry_space_group_name_H-M   'P 1'
_cell_length_a   4.06579000
_cell_length_b   4.06579100
_cell_length_c   15.69744200
_cell_angle_alpha   90.00000000
_cell_angle_beta   90.00000000
_cell_angle_gamma   120.00000816
_symmetry_Int_Tables_number   1
_chemical_formula_structural   LaTbHo2(NiAs)4
_chemical_formula_sum   'La1 Tb1 Ho2 Ni4 As4'
_cell_volume   224.72401019
_cell_formula_units_Z   1
loop_
 _symmetry_equiv_pos_site_id
 _symmetry_equiv_pos_as_xyz
  1  'x, y, z'
loop_
 _atom_site_type_symbol
 _atom_site_label
 _atom_site_symmetry_multiplicity
 _atom_site_fract_x
 _atom_site_fract_y
 _atom_site_fract_z
 _atom_site_occupancy
  La  La0  1  0.000000  0.000000  0.000000  1
  Tb  Tb1  1  0.000000  0.000000  0.500000  1
  Ho  Ho2  1  0.000000  0.000000  0.255871  1
  Ho  Ho3  1  0.000000  0.000000  0.744129  1
  Ni  Ni4  1  0.333333  0.666667  0.143045  1
  Ni  Ni5  1  0.666667  0.333333  0.856955  1
  Ni  Ni6  1  0.666667  0.333333  0.631556  1
  Ni  Ni7  1  0.333333  0.666667  0.368444  1
  As  As8  1  0.333333  0.666667  0.618819  1
  As  As9  1  0.666667  0.333333  0.381181  1
  As  As10  1  0.666667  0.333333  0.131006  1
  As  As11  1  0.333333  0.666667  0.868994  1
