# generated using pymatgen
data_Gd16Tm3LuSn16
_symmetry_space_group_name_H-M   'P 1'
_cell_length_a   8.05290400
_cell_length_b   8.20972601
_cell_length_c   15.60682100
_cell_angle_alpha   90.00000000
_cell_angle_beta   90.00000000
_cell_angle_gamma   89.99792025
_symmetry_Int_Tables_number   1
_chemical_formula_structural   Gd16Tm3LuSn16
_chemical_formula_sum   'Gd16 Tm3 Lu1 Sn16'
_cell_volume   1031.80026225
_cell_formula_units_Z   1
loop_
 _symmetry_equiv_pos_site_id
 _symmetry_equiv_pos_as_xyz
  1  'x, y, z'
loop_
 _atom_site_type_symbol
 _atom_site_label
 _atom_site_symmetry_multiplicity
 _atom_site_fract_x
 _atom_site_fract_y
 _atom_site_fract_z
 _atom_site_occupancy
  Gd  Gd0  1  0.367004  0.838558  0.879126  1
  Gd  Gd1  1  0.867107  0.662142  0.620769  1
  Gd  Gd2  1  0.632967  0.161452  0.378978  1
  Gd  Gd3  1  0.132807  0.337782  0.120793  1
  Gd  Gd4  1  0.632967  0.161452  0.121022  1
  Gd  Gd5  1  0.132807  0.337782  0.379207  1
  Gd  Gd6  1  0.367004  0.838558  0.620874  1
  Gd  Gd7  1  0.867107  0.662142  0.879231  1
  Gd  Gd8  1  0.519252  0.319008  0.902342  1
  Gd  Gd9  1  0.019855  0.180792  0.597547  1
  Gd  Gd10  1  0.480739  0.681188  0.402281  1
  Gd  Gd11  1  0.980349  0.819217  0.097652  1
  Gd  Gd12  1  0.480739  0.681188  0.097719  1
  Gd  Gd13  1  0.980349  0.819217  0.402348  1
  Gd  Gd14  1  0.519252  0.319008  0.597658  1
  Gd  Gd15  1  0.019855  0.180792  0.902453  1
  Tm  Tm16  1  0.197593  0.503201  0.750000  1
  Tm  Tm17  1  0.697256  0.996807  0.750000  1
  Tm  Tm18  1  0.802446  0.496877  0.250000  1
  Lu  Lu19  1  0.302370  0.003167  0.250000  1
  Sn  Sn20  1  0.292132  0.034363  0.044185  1
  Sn  Sn21  1  0.792035  0.465654  0.456002  1
  Sn  Sn22  1  0.707907  0.965657  0.543821  1
  Sn  Sn23  1  0.207894  0.534141  0.956162  1
  Sn  Sn24  1  0.707907  0.965657  0.956179  1
  Sn  Sn25  1  0.207894  0.534141  0.543838  1
  Sn  Sn26  1  0.292132  0.034363  0.455815  1
  Sn  Sn27  1  0.792035  0.465654  0.043998  1
  Sn  Sn28  1  0.563600  0.617143  0.750000  1
  Sn  Sn29  1  0.062464  0.881387  0.750000  1
  Sn  Sn30  1  0.436229  0.382271  0.250000  1
  Sn  Sn31  1  0.938078  0.118503  0.250000  1
  Sn  Sn32  1  0.325961  0.147760  0.750000  1
  Sn  Sn33  1  0.825588  0.353650  0.750000  1
  Sn  Sn34  1  0.673843  0.852444  0.250000  1
  Sn  Sn35  1  0.174476  0.646881  0.250000  1
