# generated using pymatgen
data_Lu7PtRhSe2
_symmetry_space_group_name_H-M   'P 1'
_cell_length_a   8.89275856
_cell_length_b   8.87857723
_cell_length_c   8.87857788
_cell_angle_alpha   154.73330215
_cell_angle_beta   118.21608763
_cell_angle_gamma   67.83460910
_symmetry_Int_Tables_number   1
_chemical_formula_structural   Lu7PtRhSe2
_chemical_formula_sum   'Lu7 Pt1 Rh1 Se2'
_cell_volume   261.29080766
_cell_formula_units_Z   1
loop_
 _symmetry_equiv_pos_site_id
 _symmetry_equiv_pos_as_xyz
  1  'x, y, z'
loop_
 _atom_site_type_symbol
 _atom_site_label
 _atom_site_symmetry_multiplicity
 _atom_site_fract_x
 _atom_site_fract_y
 _atom_site_fract_z
 _atom_site_occupancy
  Lu  Lu0  1  0.540845  0.125563  0.415282  1
  Lu  Lu1  1  0.290824  0.876345  0.414480  1
  Lu  Lu2  1  0.946221  0.319006  0.627215  1
  Lu  Lu3  1  0.310084  0.681239  0.628846  1
  Lu  Lu4  1  0.622108  0.360104  0.262003  1
  Lu  Lu5  1  0.898255  0.638910  0.259344  1
  Lu  Lu6  1  0.002109  0.999447  0.002662  1
  Pt  Pt7  1  0.165524  0.237013  0.928510  1
  Rh  Rh8  1  0.693833  0.762708  0.931125  1
  Se  Se9  1  0.262357  0.499734  0.762623  1
  Se  Se10  1  0.658701  0.999930  0.658770  1
