# generated using pymatgen
data_Nd9Er3Tl20
_symmetry_space_group_name_H-M   'P 1'
_cell_length_a   6.78386536
_cell_length_b   10.66719900
_cell_length_c   12.63164209
_cell_angle_alpha   90.00000000
_cell_angle_beta   89.86632651
_cell_angle_gamma   90.00000000
_symmetry_Int_Tables_number   1
_chemical_formula_structural   Nd9Er3Tl20
_chemical_formula_sum   'Nd9 Er3 Tl20'
_cell_volume   914.08429319
_cell_formula_units_Z   1
loop_
 _symmetry_equiv_pos_site_id
 _symmetry_equiv_pos_as_xyz
  1  'x, y, z'
loop_
 _atom_site_type_symbol
 _atom_site_label
 _atom_site_symmetry_multiplicity
 _atom_site_fract_x
 _atom_site_fract_y
 _atom_site_fract_z
 _atom_site_occupancy
  Nd  Nd0  1  0.353863  0.750000  0.054587  1
  Nd  Nd1  1  0.885205  0.490546  0.142488  1
  Nd  Nd2  1  0.615632  0.012071  0.641889  1
  Nd  Nd3  1  0.110551  0.990829  0.856333  1
  Nd  Nd4  1  0.387271  0.510163  0.357043  1
  Nd  Nd5  1  0.110551  0.509171  0.856333  1
  Nd  Nd6  1  0.387271  0.989837  0.357043  1
  Nd  Nd7  1  0.885205  0.009454  0.142488  1
  Nd  Nd8  1  0.615632  0.487929  0.641889  1
  Er  Er9  1  0.149138  0.750000  0.551494  1
  Er  Er10  1  0.644815  0.250000  0.947297  1
  Er  Er11  1  0.853522  0.250000  0.447561  1
  Tl  Tl12  1  0.606308  0.750000  0.508518  1
  Tl  Tl13  1  0.886643  0.750000  0.003040  1
  Tl  Tl14  1  0.396040  0.250000  0.493445  1
  Tl  Tl15  1  0.099898  0.250000  0.993564  1
  Tl  Tl16  1  0.656770  0.750000  0.241578  1
  Tl  Tl17  1  0.853795  0.750000  0.736287  1
  Tl  Tl18  1  0.352612  0.250000  0.761968  1
  Tl  Tl19  1  0.147243  0.250000  0.262852  1
  Tl  Tl20  1  0.119898  0.750000  0.284521  1
  Tl  Tl21  1  0.381473  0.750000  0.777284  1
  Tl  Tl22  1  0.883283  0.250000  0.720223  1
  Tl  Tl23  1  0.620623  0.250000  0.221719  1
  Tl  Tl24  1  0.868827  0.537855  0.401554  1
  Tl  Tl25  1  0.628708  0.963117  0.899423  1
  Tl  Tl26  1  0.134043  0.038052  0.599171  1
  Tl  Tl27  1  0.366802  0.455686  0.099129  1
  Tl  Tl28  1  0.134043  0.461948  0.599171  1
  Tl  Tl29  1  0.366802  0.044314  0.099129  1
  Tl  Tl30  1  0.868827  0.962145  0.401554  1
  Tl  Tl31  1  0.628708  0.536883  0.899423  1
