# generated using pymatgen
data_Y2Pa2Ti(Sn3Rh2)3
_symmetry_space_group_name_H-M   'P 1'
_cell_length_a   13.25200473
_cell_length_b   13.25200518
_cell_length_c   7.30288257
_cell_angle_alpha   91.05088353
_cell_angle_beta   88.94911603
_cell_angle_gamma   160.63329592
_symmetry_Int_Tables_number   1
_chemical_formula_structural   Y2Pa2Ti(Sn3Rh2)3
_chemical_formula_sum   'Y2 Pa2 Ti1 Sn9 Rh6'
_cell_volume   425.22010828
_cell_formula_units_Z   1
loop_
 _symmetry_equiv_pos_site_id
 _symmetry_equiv_pos_as_xyz
  1  'x, y, z'
loop_
 _atom_site_type_symbol
 _atom_site_label
 _atom_site_symmetry_multiplicity
 _atom_site_fract_x
 _atom_site_fract_y
 _atom_site_fract_z
 _atom_site_occupancy
  Y  Y0  1  0.526116  0.473884  0.727805  1
  Y  Y1  1  0.827297  0.172703  0.753227  1
  Pa  Pa2  1  0.476218  0.523782  0.229108  1
  Pa  Pa3  1  0.171565  0.828435  0.264942  1
  Ti  Ti4  1  0.705543  0.294457  0.576239  1
  Sn  Sn5  1  0.598813  0.401187  0.096609  1
  Sn  Sn6  1  0.048716  0.951284  0.399714  1
  Sn  Sn7  1  0.953283  0.046717  0.885119  1
  Sn  Sn8  1  0.708991  0.291009  0.975729  1
  Sn  Sn9  1  0.282910  0.717090  0.484626  1
  Sn  Sn10  1  0.294776  0.705224  0.057185  1
  Sn  Sn11  1  0.875639  0.124361  0.234878  1
  Sn  Sn12  1  0.123158  0.876842  0.722776  1
  Sn  Sn13  1  0.401105  0.598895  0.611563  1
  Rh  Rh14  1  0.399636  0.600364  0.996787  1
  Rh  Rh15  1  0.769356  0.230644  0.281111  1
  Rh  Rh16  1  0.223162  0.776838  0.778266  1
  Rh  Rh17  1  0.050408  0.949592  0.017625  1
  Rh  Rh18  1  0.615185  0.384815  0.466659  1
  Rh  Rh19  1  0.948125  0.051875  0.503832  1
