# generated using pymatgen
data_Li2Ac2Si3
_symmetry_space_group_name_H-M   'P 1'
_cell_length_a   9.95546379
_cell_length_b   9.95546407
_cell_length_c   7.04452400
_cell_angle_alpha   90.00000000
_cell_angle_beta   90.00000000
_cell_angle_gamma   152.78544322
_symmetry_Int_Tables_number   1
_chemical_formula_structural   Li2Ac2Si3
_chemical_formula_sum   'Li4 Ac4 Si6'
_cell_volume   319.29972134
_cell_formula_units_Z   2
loop_
 _symmetry_equiv_pos_site_id
 _symmetry_equiv_pos_as_xyz
  1  'x, y, z'
loop_
 _atom_site_type_symbol
 _atom_site_label
 _atom_site_symmetry_multiplicity
 _atom_site_fract_x
 _atom_site_fract_y
 _atom_site_fract_z
 _atom_site_occupancy
  Li  Li0  1  0.812409  0.187591  0.560414  1
  Li  Li1  1  0.187591  0.812409  0.439586  1
  Li  Li2  1  0.187591  0.812409  0.060414  1
  Li  Li3  1  0.812409  0.187591  0.939586  1
  Ac  Ac4  1  0.552864  0.447136  0.250000  1
  Ac  Ac5  1  0.447136  0.552864  0.750000  1
  Ac  Ac6  1  0.340183  0.659817  0.250000  1
  Ac  Ac7  1  0.659817  0.340183  0.750000  1
  Si  Si8  1  0.944335  0.055665  0.078412  1
  Si  Si9  1  0.055665  0.944335  0.921588  1
  Si  Si10  1  0.055665  0.944335  0.578412  1
  Si  Si11  1  0.944335  0.055665  0.421588  1
  Si  Si12  1  0.719907  0.280093  0.250000  1
  Si  Si13  1  0.280093  0.719907  0.750000  1
