# generated using pymatgen
data_YAl10OsRh
_symmetry_space_group_name_H-M   'P 1'
_cell_length_a   6.83860861
_cell_length_b   6.86508790
_cell_length_c   9.17426900
_cell_angle_alpha   90.00000000
_cell_angle_beta   90.00000000
_cell_angle_gamma   96.89886418
_symmetry_Int_Tables_number   1
_chemical_formula_structural   YAl10OsRh
_chemical_formula_sum   'Y2 Al20 Os2 Rh2'
_cell_volume   427.59190018
_cell_formula_units_Z   2
loop_
 _symmetry_equiv_pos_site_id
 _symmetry_equiv_pos_as_xyz
  1  'x, y, z'
loop_
 _atom_site_type_symbol
 _atom_site_label
 _atom_site_symmetry_multiplicity
 _atom_site_fract_x
 _atom_site_fract_y
 _atom_site_fract_z
 _atom_site_occupancy
  Y  Y0  1  0.868700  0.125863  0.750000  1
  Y  Y1  1  0.131300  0.874137  0.250000  1
  Al  Al2  1  0.620982  0.375419  0.550022  1
  Al  Al3  1  0.379018  0.624581  0.449978  1
  Al  Al4  1  0.379018  0.624581  0.050022  1
  Al  Al5  1  0.620982  0.375419  0.949978  1
  Al  Al6  1  0.223588  0.223033  0.499077  1
  Al  Al7  1  0.776412  0.776967  0.500923  1
  Al  Al8  1  0.776412  0.776967  0.999077  1
  Al  Al9  1  0.223588  0.223033  0.000923  1
  Al  Al10  1  0.844678  0.154599  0.101797  1
  Al  Al11  1  0.155322  0.845401  0.898203  1
  Al  Al12  1  0.155322  0.845401  0.601797  1
  Al  Al13  1  0.844678  0.154599  0.398203  1
  Al  Al14  1  0.856327  0.587601  0.750000  1
  Al  Al15  1  0.143673  0.412399  0.250000  1
  Al  Al16  1  0.411746  0.142521  0.750000  1
  Al  Al17  1  0.588254  0.857479  0.250000  1
  Al  Al18  1  0.224985  0.480711  0.750000  1
  Al  Al19  1  0.775015  0.519289  0.250000  1
  Al  Al20  1  0.518067  0.779235  0.750000  1
  Al  Al21  1  0.481933  0.220765  0.250000  1
  Os  Os22  1  0.500000  0.000000  0.000000  1
  Os  Os23  1  0.500000  0.000000  0.500000  1
  Rh  Rh24  1  0.000000  0.500000  0.500000  1
  Rh  Rh25  1  0.000000  0.500000  0.000000  1
