# generated using pymatgen
data_Th3(GaPt)4
_symmetry_space_group_name_H-M   'P 1'
_cell_length_a   8.43679697
_cell_length_b   8.43679593
_cell_length_c   8.43679629
_cell_angle_alpha   150.94243642
_cell_angle_beta   129.31444727
_cell_angle_gamma   59.48870339
_symmetry_Int_Tables_number   1
_chemical_formula_structural   Th3(GaPt)4
_chemical_formula_sum   'Th3 Ga4 Pt4'
_cell_volume   223.95237024
_cell_formula_units_Z   1
loop_
 _symmetry_equiv_pos_site_id
 _symmetry_equiv_pos_as_xyz
  1  'x, y, z'
loop_
 _atom_site_type_symbol
 _atom_site_label
 _atom_site_symmetry_multiplicity
 _atom_site_fract_x
 _atom_site_fract_y
 _atom_site_fract_z
 _atom_site_occupancy
  Th  Th0  1  0.500000  0.000000  0.500000  1
  Th  Th1  1  0.873249  0.873249  0.000000  1
  Th  Th2  1  0.126751  0.126751  0.000000  1
  Ga  Ga3  1  0.478605  0.671820  0.806785  1
  Ga  Ga4  1  0.865036  0.671820  0.193215  1
  Ga  Ga5  1  0.134964  0.328180  0.806785  1
  Ga  Ga6  1  0.521395  0.328180  0.193215  1
  Pt  Pt7  1  0.282608  0.782608  0.500000  1
  Pt  Pt8  1  0.717392  0.217392  0.500000  1
  Pt  Pt9  1  0.796797  0.500000  0.296797  1
  Pt  Pt10  1  0.203203  0.500000  0.703203  1
