# generated using pymatgen
data_Dy6Lu4Sn5Bi
_symmetry_space_group_name_H-M   'P 1'
_cell_length_a   8.93778000
_cell_length_b   8.92850724
_cell_length_c   6.43699400
_cell_angle_alpha   90.00000000
_cell_angle_beta   90.00000000
_cell_angle_gamma   120.03435370
_symmetry_Int_Tables_number   1
_chemical_formula_structural   Dy6Lu4Sn5Bi
_chemical_formula_sum   'Dy6 Lu4 Sn5 Bi1'
_cell_volume   444.70479028
_cell_formula_units_Z   1
loop_
 _symmetry_equiv_pos_site_id
 _symmetry_equiv_pos_as_xyz
  1  'x, y, z'
loop_
 _atom_site_type_symbol
 _atom_site_label
 _atom_site_symmetry_multiplicity
 _atom_site_fract_x
 _atom_site_fract_y
 _atom_site_fract_z
 _atom_site_occupancy
  Dy  Dy0  1  0.994551  0.756933  0.750000  1
  Dy  Dy1  1  0.000537  0.239839  0.250000  1
  Dy  Dy2  1  0.760698  0.760161  0.250000  1
  Dy  Dy3  1  0.764084  0.000000  0.750000  1
  Dy  Dy4  1  0.237618  0.243067  0.750000  1
  Dy  Dy5  1  0.238404  0.000000  0.250000  1
  Lu  Lu6  1  0.332516  0.662542  0.498307  1
  Lu  Lu7  1  0.669975  0.337458  0.001693  1
  Lu  Lu8  1  0.669975  0.337458  0.498307  1
  Lu  Lu9  1  0.332516  0.662542  0.001693  1
  Sn  Sn10  1  0.397191  0.395669  0.250000  1
  Sn  Sn11  1  0.001522  0.604331  0.250000  1
  Sn  Sn12  1  0.999378  0.397347  0.750000  1
  Sn  Sn13  1  0.602030  0.602653  0.750000  1
  Sn  Sn14  1  0.603759  0.000000  0.250000  1
  Bi  Bi15  1  0.395247  0.000000  0.750000  1
