# generated using pymatgen
data_La3Er7Sn8
_symmetry_space_group_name_H-M   'P 1'
_cell_length_a   8.10076100
_cell_length_b   8.28468945
_cell_length_c   15.58558030
_cell_angle_alpha   90.08270820
_cell_angle_beta   90.00000000
_cell_angle_gamma   90.00000000
_symmetry_Int_Tables_number   1
_chemical_formula_structural   La3Er7Sn8
_chemical_formula_sum   'La6 Er14 Sn16'
_cell_volume   1045.98288258
_cell_formula_units_Z   2
loop_
 _symmetry_equiv_pos_site_id
 _symmetry_equiv_pos_as_xyz
  1  'x, y, z'
loop_
 _atom_site_type_symbol
 _atom_site_label
 _atom_site_symmetry_multiplicity
 _atom_site_fract_x
 _atom_site_fract_y
 _atom_site_fract_z
 _atom_site_occupancy
  La  La0  1  0.492070  0.677992  0.406525  1
  La  La1  1  0.992070  0.822008  0.093475  1
  La  La2  1  0.487792  0.675042  0.094338  1
  La  La3  1  0.987792  0.824958  0.405662  1
  La  La4  1  0.507648  0.321577  0.595349  1
  La  La5  1  0.007648  0.178423  0.904651  1
  Er  Er6  1  0.351506  0.834776  0.874000  1
  Er  Er7  1  0.851506  0.665224  0.626000  1
  Er  Er8  1  0.647018  0.162343  0.377512  1
  Er  Er9  1  0.147018  0.337657  0.122488  1
  Er  Er10  1  0.646011  0.166115  0.123789  1
  Er  Er11  1  0.146011  0.333885  0.376211  1
  Er  Er12  1  0.353070  0.838572  0.625250  1
  Er  Er13  1  0.853070  0.661428  0.874750  1
  Er  Er14  1  0.516467  0.321966  0.899014  1
  Er  Er15  1  0.016467  0.178034  0.600986  1
  Er  Er16  1  0.185774  0.501054  0.750381  1
  Er  Er17  1  0.685774  0.998946  0.749619  1
  Er  Er18  1  0.813215  0.496865  0.249370  1
  Er  Er19  1  0.313215  0.003135  0.250630  1
  Sn  Sn20  1  0.316331  0.044886  0.040017  1
  Sn  Sn21  1  0.816331  0.455114  0.459983  1
  Sn  Sn22  1  0.698307  0.964546  0.545400  1
  Sn  Sn23  1  0.198307  0.535454  0.954600  1
  Sn  Sn24  1  0.681870  0.961431  0.956127  1
  Sn  Sn25  1  0.181870  0.538569  0.543873  1
  Sn  Sn26  1  0.304550  0.044276  0.460884  1
  Sn  Sn27  1  0.804550  0.455724  0.039116  1
  Sn  Sn28  1  0.549831  0.623056  0.749936  1
  Sn  Sn29  1  0.049831  0.876944  0.750064  1
  Sn  Sn30  1  0.448912  0.373589  0.251492  1
  Sn  Sn31  1  0.948912  0.126411  0.248508  1
  Sn  Sn32  1  0.319147  0.145959  0.751999  1
  Sn  Sn33  1  0.819147  0.354041  0.748001  1
  Sn  Sn34  1  0.680479  0.857363  0.249697  1
  Sn  Sn35  1  0.180479  0.642637  0.250303  1
