# generated using pymatgen
data_Tb2Pa(AlNi)3
_symmetry_space_group_name_H-M   'P 1'
_cell_length_a   7.10044700
_cell_length_b   7.06355205
_cell_length_c   3.78700200
_cell_angle_alpha   90.00000000
_cell_angle_beta   90.00000000
_cell_angle_gamma   120.17293115
_symmetry_Int_Tables_number   1
_chemical_formula_structural   Tb2Pa(AlNi)3
_chemical_formula_sum   'Tb2 Pa1 Al3 Ni3'
_cell_volume   164.20091669
_cell_formula_units_Z   1
loop_
 _symmetry_equiv_pos_site_id
 _symmetry_equiv_pos_as_xyz
  1  'x, y, z'
loop_
 _atom_site_type_symbol
 _atom_site_label
 _atom_site_symmetry_multiplicity
 _atom_site_fract_x
 _atom_site_fract_y
 _atom_site_fract_z
 _atom_site_occupancy
  Tb  Tb0  1  0.999438  0.416739  0.500000  1
  Tb  Tb1  1  0.582699  0.583261  0.500000  1
  Pa  Pa2  1  0.422627  0.000000  0.500000  1
  Al  Al3  1  0.771537  0.000000  0.000000  1
  Al  Al4  1  0.998199  0.761815  0.000000  1
  Al  Al5  1  0.236384  0.238185  0.000000  1
  Ni  Ni6  1  0.337098  0.696155  0.000000  1
  Ni  Ni7  1  0.640945  0.303845  0.000000  1
  Ni  Ni8  1  0.011072  0.000000  0.500000  1
