# generated using pymatgen
data_Cd4Sb(PN2)6
_symmetry_space_group_name_H-M   'P 1'
_cell_length_a   7.51281614
_cell_length_b   7.51281662
_cell_length_c   7.51281700
_cell_angle_alpha   109.47121897
_cell_angle_beta   109.47122026
_cell_angle_gamma   109.47122354
_symmetry_Int_Tables_number   1
_chemical_formula_structural   Cd4Sb(PN2)6
_chemical_formula_sum   'Cd4 Sb1 P6 N12'
_cell_volume   326.42729291
_cell_formula_units_Z   1
loop_
 _symmetry_equiv_pos_site_id
 _symmetry_equiv_pos_as_xyz
  1  'x, y, z'
loop_
 _atom_site_type_symbol
 _atom_site_label
 _atom_site_symmetry_multiplicity
 _atom_site_fract_x
 _atom_site_fract_y
 _atom_site_fract_z
 _atom_site_occupancy
  Cd  Cd0  1  0.640176  0.000000  0.000000  1
  Cd  Cd1  1  0.000000  0.000000  0.640176  1
  Cd  Cd2  1  0.000000  0.640176  0.000000  1
  Cd  Cd3  1  0.359824  0.359824  0.359824  1
  Sb  Sb4  1  0.000000  0.000000  0.000000  1
  P  P5  1  0.250000  0.750000  0.500000  1
  P  P6  1  0.750000  0.250000  0.500000  1
  P  P7  1  0.750000  0.500000  0.250000  1
  P  P8  1  0.250000  0.500000  0.750000  1
  P  P9  1  0.500000  0.750000  0.250000  1
  P  P10  1  0.500000  0.250000  0.750000  1
  N  N11  1  0.707217  0.290913  0.290913  1
  N  N12  1  0.290913  0.707217  0.290913  1
  N  N13  1  0.292783  0.583696  0.583696  1
  N  N14  1  0.583696  0.583696  0.292783  1
  N  N15  1  0.416304  0.709087  0.000000  1
  N  N16  1  0.000000  0.709087  0.416304  1
  N  N17  1  0.583696  0.292783  0.583696  1
  N  N18  1  0.709087  0.000000  0.416304  1
  N  N19  1  0.416304  0.000000  0.709087  1
  N  N20  1  0.709087  0.416304  0.000000  1
  N  N21  1  0.290913  0.290913  0.707217  1
  N  N22  1  0.000000  0.416304  0.709087  1
