# generated using pymatgen
data_Dy5Y(Al3Os)8
_symmetry_space_group_name_H-M   'P 1'
_cell_length_a   8.83446900
_cell_length_b   8.83778100
_cell_length_c   9.56579200
_cell_angle_alpha   90.00000000
_cell_angle_beta   90.00000000
_cell_angle_gamma   119.98760025
_symmetry_Int_Tables_number   1
_chemical_formula_structural   Dy5Y(Al3Os)8
_chemical_formula_sum   'Dy5 Y1 Al24 Os8'
_cell_volume   646.88860691
_cell_formula_units_Z   1
loop_
 _symmetry_equiv_pos_site_id
 _symmetry_equiv_pos_as_xyz
  1  'x, y, z'
loop_
 _atom_site_type_symbol
 _atom_site_label
 _atom_site_symmetry_multiplicity
 _atom_site_fract_x
 _atom_site_fract_y
 _atom_site_fract_z
 _atom_site_occupancy
  Dy  Dy0  1  0.806690  0.613378  0.750000  1
  Dy  Dy1  1  0.613507  0.806832  0.250000  1
  Dy  Dy2  1  0.386586  0.193287  0.750000  1
  Dy  Dy3  1  0.193325  0.806832  0.250000  1
  Dy  Dy4  1  0.806702  0.193287  0.750000  1
  Y  Y5  1  0.193213  0.386428  0.250000  1
  Al  Al6  1  0.333391  0.666783  0.014917  1
  Al  Al7  1  0.666651  0.333300  0.985024  1
  Al  Al8  1  0.666651  0.333300  0.514976  1
  Al  Al9  1  0.333391  0.666783  0.485083  1
  Al  Al10  1  0.162665  0.325331  0.575968  1
  Al  Al11  1  0.837348  0.674695  0.424081  1
  Al  Al12  1  0.674642  0.837297  0.575888  1
  Al  Al13  1  0.837348  0.674695  0.075919  1
  Al  Al14  1  0.325389  0.162640  0.424186  1
  Al  Al15  1  0.162665  0.325331  0.924032  1
  Al  Al16  1  0.162654  0.837297  0.575888  1
  Al  Al17  1  0.325389  0.162640  0.075814  1
  Al  Al18  1  0.837252  0.162640  0.424186  1
  Al  Al19  1  0.674642  0.837297  0.924112  1
  Al  Al20  1  0.837252  0.162640  0.075814  1
  Al  Al21  1  0.162654  0.837297  0.924112  1
  Al  Al22  1  0.560187  0.120374  0.250000  1
  Al  Al23  1  0.439800  0.879600  0.750000  1
  Al  Al24  1  0.879567  0.439871  0.250000  1
  Al  Al25  1  0.120442  0.560217  0.750000  1
  Al  Al26  1  0.560304  0.439871  0.250000  1
  Al  Al27  1  0.439774  0.560217  0.750000  1
  Al  Al28  1  0.999835  0.999671  0.250000  1
  Al  Al29  1  0.999998  0.999996  0.750000  1
  Os  Os30  1  0.500022  0.000043  0.999987  1
  Os  Os31  1  0.999882  0.500022  0.999868  1
  Os  Os32  1  0.500022  0.000043  0.500013  1
  Os  Os33  1  0.500141  0.500022  0.999868  1
  Os  Os34  1  0.999882  0.500022  0.500132  1
  Os  Os35  1  0.500141  0.500022  0.500132  1
  Os  Os36  1  0.000000  0.999999  0.000019  1
  Os  Os37  1  0.000000  0.999999  0.499981  1
