# generated using pymatgen
data_Y4Er5TmSn8
_symmetry_space_group_name_H-M   'P 1'
_cell_length_a   8.00565300
_cell_length_b   8.13711800
_cell_length_c   15.38647200
_cell_angle_alpha   90.00000000
_cell_angle_beta   90.00000000
_cell_angle_gamma   90.00000000
_symmetry_Int_Tables_number   1
_chemical_formula_structural   Y4Er5TmSn8
_chemical_formula_sum   'Y8 Er10 Tm2 Sn16'
_cell_volume   1002.32007044
_cell_formula_units_Z   2
loop_
 _symmetry_equiv_pos_site_id
 _symmetry_equiv_pos_as_xyz
  1  'x, y, z'
loop_
 _atom_site_type_symbol
 _atom_site_label
 _atom_site_symmetry_multiplicity
 _atom_site_fract_x
 _atom_site_fract_y
 _atom_site_fract_z
 _atom_site_occupancy
  Y  Y0  1  0.522360  0.320990  0.902574  1
  Y  Y1  1  0.022360  0.179010  0.597426  1
  Y  Y2  1  0.477650  0.679009  0.402560  1
  Y  Y3  1  0.977650  0.820991  0.097440  1
  Y  Y4  1  0.477650  0.679009  0.097440  1
  Y  Y5  1  0.977650  0.820991  0.402560  1
  Y  Y6  1  0.522360  0.320990  0.597426  1
  Y  Y7  1  0.022360  0.179010  0.902574  1
  Er  Er8  1  0.367372  0.836519  0.877369  1
  Er  Er9  1  0.867372  0.663481  0.622631  1
  Er  Er10  1  0.632605  0.163501  0.377358  1
  Er  Er11  1  0.132605  0.336499  0.122642  1
  Er  Er12  1  0.632605  0.163501  0.122642  1
  Er  Er13  1  0.132605  0.336499  0.377358  1
  Er  Er14  1  0.367372  0.836519  0.622631  1
  Er  Er15  1  0.867372  0.663481  0.877369  1
  Er  Er16  1  0.198181  0.504082  0.750000  1
  Er  Er17  1  0.698181  0.995918  0.750000  1
  Tm  Tm18  1  0.801800  0.495937  0.250000  1
  Tm  Tm19  1  0.301800  0.004063  0.250000  1
  Sn  Sn20  1  0.293803  0.036427  0.041878  1
  Sn  Sn21  1  0.793803  0.463573  0.458122  1
  Sn  Sn22  1  0.706193  0.963571  0.541849  1
  Sn  Sn23  1  0.206193  0.536429  0.958151  1
  Sn  Sn24  1  0.706193  0.963571  0.958151  1
  Sn  Sn25  1  0.206193  0.536429  0.541849  1
  Sn  Sn26  1  0.293803  0.036427  0.458122  1
  Sn  Sn27  1  0.793803  0.463573  0.041878  1
  Sn  Sn28  1  0.564546  0.620739  0.750000  1
  Sn  Sn29  1  0.064546  0.879261  0.750000  1
  Sn  Sn30  1  0.435545  0.379244  0.250000  1
  Sn  Sn31  1  0.935545  0.120756  0.250000  1
  Sn  Sn32  1  0.330978  0.147454  0.750000  1
  Sn  Sn33  1  0.830978  0.352546  0.750000  1
  Sn  Sn34  1  0.668986  0.852458  0.250000  1
  Sn  Sn35  1  0.168986  0.647542  0.250000  1
