# generated using pymatgen
data_Tm3TiGa2Rh3
_symmetry_space_group_name_H-M   'P 1'
_cell_length_a   6.81799400
_cell_length_b   7.01468015
_cell_length_c   4.08601500
_cell_angle_alpha   90.00000000
_cell_angle_beta   90.00000000
_cell_angle_gamma   119.07672492
_symmetry_Int_Tables_number   1
_chemical_formula_structural   Tm3TiGa2Rh3
_chemical_formula_sum   'Tm3 Ti1 Ga2 Rh3'
_cell_volume   170.78936638
_cell_formula_units_Z   1
loop_
 _symmetry_equiv_pos_site_id
 _symmetry_equiv_pos_as_xyz
  1  'x, y, z'
loop_
 _atom_site_type_symbol
 _atom_site_label
 _atom_site_symmetry_multiplicity
 _atom_site_fract_x
 _atom_site_fract_y
 _atom_site_fract_z
 _atom_site_occupancy
  Tm  Tm0  1  0.604995  0.000000  0.499999  1
  Tm  Tm1  1  0.416994  0.427731  0.499999  1
  Tm  Tm2  1  0.989264  0.572270  0.499999  1
  Ti  Ti3  1  0.235110  0.000000  0.000000  1
  Ga  Ga4  1  0.001359  0.247118  0.000000  1
  Ga  Ga5  1  0.754241  0.752881  0.000000  1
  Rh  Rh6  1  0.650113  0.320675  0.000000  1
  Rh  Rh7  1  0.329437  0.679324  0.000000  1
  Rh  Rh8  1  0.018488  0.000000  0.499999  1
