# generated using pymatgen
data_Rb2YHo5F20
_symmetry_space_group_name_H-M   'P 1'
_cell_length_a   8.26325683
_cell_length_b   8.26325676
_cell_length_c   8.25079900
_cell_angle_alpha   60.04985479
_cell_angle_beta   60.04985508
_cell_angle_gamma   59.90028096
_symmetry_Int_Tables_number   1
_chemical_formula_structural   Rb2YHo5F20
_chemical_formula_sum   'Rb2 Y1 Ho5 F20'
_cell_volume   398.36530510
_cell_formula_units_Z   1
loop_
 _symmetry_equiv_pos_site_id
 _symmetry_equiv_pos_as_xyz
  1  'x, y, z'
loop_
 _atom_site_type_symbol
 _atom_site_label
 _atom_site_symmetry_multiplicity
 _atom_site_fract_x
 _atom_site_fract_y
 _atom_site_fract_z
 _atom_site_occupancy
  Rb  Rb0  1  0.749894  0.749894  0.750106  1
  Rb  Rb1  1  0.249894  0.249894  0.250106  1
  Y  Y2  1  0.759180  0.759180  0.240820  1
  Ho  Ho3  1  0.240173  0.759474  0.240526  1
  Ho  Ho4  1  0.759474  0.240173  0.240526  1
  Ho  Ho5  1  0.240173  0.759474  0.759827  1
  Ho  Ho6  1  0.240305  0.240305  0.759695  1
  Ho  Ho7  1  0.759474  0.240173  0.759827  1
  F  F8  1  0.828630  0.171246  0.500061  1
  F  F9  1  0.500069  0.171231  0.828769  1
  F  F10  1  0.829835  0.498471  0.170165  1
  F  F11  1  0.500069  0.171231  0.499931  1
  F  F12  1  0.829835  0.498471  0.501529  1
  F  F13  1  0.171231  0.500069  0.828769  1
  F  F14  1  0.498471  0.829835  0.501529  1
  F  F15  1  0.499939  0.499939  0.171370  1
  F  F16  1  0.889861  0.330713  0.889713  1
  F  F17  1  0.110287  0.110287  0.669287  1
  F  F18  1  0.668794  0.111866  0.109671  1
  F  F19  1  0.110287  0.110287  0.110139  1
  F  F20  1  0.330713  0.889861  0.889713  1
  F  F21  1  0.890329  0.890329  0.888134  1
  F  F22  1  0.890329  0.890329  0.331206  1
  F  F23  1  0.111866  0.668794  0.109671  1
  F  F24  1  0.171246  0.828630  0.500061  1
  F  F25  1  0.498471  0.829835  0.170165  1
  F  F26  1  0.171231  0.500069  0.499931  1
  F  F27  1  0.499939  0.499939  0.828754  1
