# generated using pymatgen
data_Yb3TmFeOs7
_symmetry_space_group_name_H-M   'P 1'
_cell_length_a   5.28418683
_cell_length_b   5.28393379
_cell_length_c   8.70128973
_cell_angle_alpha   89.85098314
_cell_angle_beta   89.85068973
_cell_angle_gamma   59.65562384
_symmetry_Int_Tables_number   1
_chemical_formula_structural   Yb3TmFeOs7
_chemical_formula_sum   'Yb3 Tm1 Fe1 Os7'
_cell_volume   209.66709663
_cell_formula_units_Z   1
loop_
 _symmetry_equiv_pos_site_id
 _symmetry_equiv_pos_as_xyz
  1  'x, y, z'
loop_
 _atom_site_type_symbol
 _atom_site_label
 _atom_site_symmetry_multiplicity
 _atom_site_fract_x
 _atom_site_fract_y
 _atom_site_fract_z
 _atom_site_occupancy
  Yb  Yb0  1  0.667266  0.667615  0.430520  1
  Yb  Yb1  1  0.666576  0.666756  0.064672  1
  Yb  Yb2  1  0.330553  0.330690  0.939846  1
  Tm  Tm3  1  0.331816  0.332137  0.566859  1
  Fe  Fe4  1  0.171661  0.171749  0.251391  1
  Os  Os5  1  0.996648  0.997182  0.494135  1
  Os  Os6  1  0.994262  0.994593  0.004663  1
  Os  Os7  1  0.825752  0.346401  0.748955  1
  Os  Os8  1  0.347234  0.825190  0.748935  1
  Os  Os9  1  0.831525  0.831501  0.749275  1
  Os  Os10  1  0.180447  0.655915  0.250387  1
  Os  Os11  1  0.656264  0.180270  0.250359  1
