# generated using pymatgen
data_Ho10In8NiPdAu2
_symmetry_space_group_name_H-M   'P 1'
_cell_length_a   3.62262200
_cell_length_b   8.14860236
_cell_length_c   18.26696184
_cell_angle_alpha   89.95101608
_cell_angle_beta   90.00000000
_cell_angle_gamma   90.00000000
_symmetry_Int_Tables_number   1
_chemical_formula_structural   Ho10In8NiPdAu2
_chemical_formula_sum   'Ho10 In8 Ni1 Pd1 Au2'
_cell_volume   539.22784250
_cell_formula_units_Z   1
loop_
 _symmetry_equiv_pos_site_id
 _symmetry_equiv_pos_as_xyz
  1  'x, y, z'
loop_
 _atom_site_type_symbol
 _atom_site_label
 _atom_site_symmetry_multiplicity
 _atom_site_fract_x
 _atom_site_fract_y
 _atom_site_fract_z
 _atom_site_occupancy
  Ho  Ho0  1  0.000000  0.500324  0.501218  1
  Ho  Ho1  1  0.000000  0.998846  0.998877  1
  Ho  Ho2  1  0.000000  0.748072  0.284519  1
  Ho  Ho3  1  0.000000  0.240911  0.716850  1
  Ho  Ho4  1  0.000000  0.775187  0.774954  1
  Ho  Ho5  1  0.000000  0.233145  0.220680  1
  Ho  Ho6  1  0.000000  0.619879  0.079403  1
  Ho  Ho7  1  0.000000  0.380269  0.918469  1
  Ho  Ho8  1  0.000000  0.887490  0.587505  1
  Ho  Ho9  1  0.000000  0.115715  0.419161  1
  In  In10  1  0.500000  0.710817  0.929942  1
  In  In11  1  0.500000  0.288267  0.066833  1
  In  In12  1  0.500000  0.791743  0.435568  1
  In  In13  1  0.500000  0.208333  0.568575  1
  In  In14  1  0.500000  0.579797  0.647467  1
  In  In15  1  0.500000  0.417759  0.353273  1
  In  In16  1  0.500000  0.922553  0.148799  1
  In  In17  1  0.500000  0.075512  0.849009  1
  Ni  Ni18  1  0.500000  0.976006  0.695318  1
  Pd  Pd19  1  0.500000  0.026986  0.305290  1
  Au  Au20  1  0.500000  0.529436  0.197644  1
  Au  Au21  1  0.500000  0.472953  0.800646  1
