# generated using pymatgen
data_CeY3Ga8
_symmetry_space_group_name_H-M   'P 1'
_cell_length_a   4.41337000
_cell_length_b   4.41389609
_cell_length_c   14.87494500
_cell_angle_alpha   90.00000000
_cell_angle_beta   90.00000000
_cell_angle_gamma   60.00394267
_symmetry_Int_Tables_number   1
_chemical_formula_structural   CeY3Ga8
_chemical_formula_sum   'Ce1 Y3 Ga8'
_cell_volume   250.95490960
_cell_formula_units_Z   1
loop_
 _symmetry_equiv_pos_site_id
 _symmetry_equiv_pos_as_xyz
  1  'x, y, z'
loop_
 _atom_site_type_symbol
 _atom_site_label
 _atom_site_symmetry_multiplicity
 _atom_site_fract_x
 _atom_site_fract_y
 _atom_site_fract_z
 _atom_site_occupancy
  Ce  Ce0  1  0.999964  0.000000  0.000000  1
  Y  Y1  1  0.999968  0.000000  0.257025  1
  Y  Y2  1  0.999968  0.000000  0.500000  1
  Y  Y3  1  0.999968  0.000000  0.742975  1
  Ga  Ga4  1  0.666577  0.666780  0.130346  1
  Ga  Ga5  1  0.666632  0.666669  0.378652  1
  Ga  Ga6  1  0.666632  0.666669  0.621348  1
  Ga  Ga7  1  0.666577  0.666780  0.869654  1
  Ga  Ga8  1  0.333357  0.333220  0.130346  1
  Ga  Ga9  1  0.333301  0.333331  0.378652  1
  Ga  Ga10  1  0.333301  0.333331  0.621348  1
  Ga  Ga11  1  0.333357  0.333220  0.869654  1
