# generated using pymatgen
data_LiTb3Er13In3Rh4
_symmetry_space_group_name_H-M   'P 1'
_cell_length_a   9.57565475
_cell_length_b   9.59268039
_cell_length_c   9.58420600
_cell_angle_alpha   60.02921908
_cell_angle_beta   59.97045475
_cell_angle_gamma   60.16310923
_symmetry_Int_Tables_number   1
_chemical_formula_structural   LiTb3Er13In3Rh4
_chemical_formula_sum   'Li1 Tb3 Er13 In3 Rh4'
_cell_volume   623.27655505
_cell_formula_units_Z   1
loop_
 _symmetry_equiv_pos_site_id
 _symmetry_equiv_pos_as_xyz
  1  'x, y, z'
loop_
 _atom_site_type_symbol
 _atom_site_label
 _atom_site_symmetry_multiplicity
 _atom_site_fract_x
 _atom_site_fract_y
 _atom_site_fract_z
 _atom_site_occupancy
  Li  Li0  1  0.428509  0.713957  0.428766  1
  Tb  Tb1  1  0.189288  0.192790  0.808960  1
  Tb  Tb2  1  0.436466  0.061877  0.064718  1
  Tb  Tb3  1  0.436466  0.061877  0.436938  1
  Er  Er4  1  0.063543  0.437420  0.064266  1
  Er  Er5  1  0.648662  0.051564  0.649887  1
  Er  Er6  1  0.187080  0.812582  0.812968  1
  Er  Er7  1  0.059235  0.062226  0.439269  1
  Er  Er8  1  0.809054  0.192004  0.189801  1
  Er  Er9  1  0.815169  0.811331  0.186750  1
  Er  Er10  1  0.653155  0.650054  0.043293  1
  Er  Er11  1  0.653155  0.650054  0.653498  1
  Er  Er12  1  0.063543  0.437420  0.434772  1
  Er  Er13  1  0.046150  0.649171  0.652340  1
  Er  Er14  1  0.809054  0.192004  0.809140  1
  Er  Er15  1  0.436440  0.436663  0.063449  1
  Er  Er16  1  0.187080  0.812582  0.187369  1
  In  In17  1  0.416629  0.421741  0.746564  1
  In  In18  1  0.746609  0.422447  0.415472  1
  In  In19  1  0.416629  0.421741  0.415066  1
  Rh  Rh20  1  0.856222  0.427637  0.858070  1
  Rh  Rh21  1  0.857681  0.861148  0.426261  1
  Rh  Rh22  1  0.426497  0.858567  0.857468  1
  Rh  Rh23  1  0.857681  0.861148  0.854911  1
