# generated using pymatgen
data_Lu2MnAl9Pt2
_symmetry_space_group_name_H-M   'P 1'
_cell_length_a   7.51685327
_cell_length_b   7.51685227
_cell_length_c   9.39596800
_cell_angle_alpha   90.00000000
_cell_angle_beta   90.00000000
_cell_angle_gamma   119.30180237
_symmetry_Int_Tables_number   1
_chemical_formula_structural   Lu2MnAl9Pt2
_chemical_formula_sum   'Lu4 Mn2 Al18 Pt4'
_cell_volume   462.97435395
_cell_formula_units_Z   2
loop_
 _symmetry_equiv_pos_site_id
 _symmetry_equiv_pos_as_xyz
  1  'x, y, z'
loop_
 _atom_site_type_symbol
 _atom_site_label
 _atom_site_symmetry_multiplicity
 _atom_site_fract_x
 _atom_site_fract_y
 _atom_site_fract_z
 _atom_site_occupancy
  Lu  Lu0  1  0.997308  0.676698  0.250782  1
  Lu  Lu1  1  0.002692  0.323302  0.750782  1
  Lu  Lu2  1  0.676698  0.997308  0.249218  1
  Lu  Lu3  1  0.323302  0.002692  0.749218  1
  Mn  Mn4  1  0.326298  0.673702  0.000000  1
  Mn  Mn5  1  0.673702  0.326298  0.500000  1
  Al  Al6  1  0.137212  0.137212  0.250000  1
  Al  Al7  1  0.862788  0.862788  0.750000  1
  Al  Al8  1  0.343549  0.331332  0.551394  1
  Al  Al9  1  0.656451  0.668668  0.051394  1
  Al  Al10  1  0.331332  0.343549  0.948606  1
  Al  Al11  1  0.668668  0.656451  0.448606  1
  Al  Al12  1  0.340332  0.555706  0.242911  1
  Al  Al13  1  0.659668  0.444294  0.742911  1
  Al  Al14  1  0.555706  0.340332  0.257089  1
  Al  Al15  1  0.444294  0.659668  0.757089  1
  Al  Al16  1  0.009223  0.349000  0.075280  1
  Al  Al17  1  0.990777  0.651000  0.575280  1
  Al  Al18  1  0.349000  0.009223  0.424720  1
  Al  Al19  1  0.651000  0.990777  0.924720  1
  Al  Al20  1  0.008143  0.665236  0.923683  1
  Al  Al21  1  0.991857  0.334764  0.423683  1
  Al  Al22  1  0.665236  0.008143  0.576317  1
  Al  Al23  1  0.334764  0.991857  0.076317  1
  Pt  Pt24  1  0.998471  0.001529  0.000000  1
  Pt  Pt25  1  0.001529  0.998471  0.500000  1
  Pt  Pt26  1  0.671514  0.328486  0.000000  1
  Pt  Pt27  1  0.328486  0.671514  0.500000  1
