# generated using pymatgen
data_HoZnInNi3
_symmetry_space_group_name_H-M   'P 1'
_cell_length_a   4.98826330
_cell_length_b   4.98826348
_cell_length_c   4.98826430
_cell_angle_alpha   61.32159029
_cell_angle_beta   61.32159727
_cell_angle_gamma   61.32159690
_symmetry_Int_Tables_number   1
_chemical_formula_structural   HoZnInNi3
_chemical_formula_sum   'Ho1 Zn1 In1 Ni3'
_cell_volume   90.37437706
_cell_formula_units_Z   1
loop_
 _symmetry_equiv_pos_site_id
 _symmetry_equiv_pos_as_xyz
  1  'x, y, z'
loop_
 _atom_site_type_symbol
 _atom_site_label
 _atom_site_symmetry_multiplicity
 _atom_site_fract_x
 _atom_site_fract_y
 _atom_site_fract_z
 _atom_site_occupancy
  Ho  Ho0  1  0.248332  0.248332  0.248332  1
  Zn  Zn1  1  0.625152  0.625152  0.625152  1
  In  In2  1  0.000584  0.000584  0.000584  1
  Ni  Ni3  1  0.626400  0.626400  0.123132  1
  Ni  Ni4  1  0.626400  0.123132  0.626400  1
  Ni  Ni5  1  0.123132  0.626400  0.626400  1
