# generated using pymatgen
data_Nd6Y6Th4Cd3HgIr4
_symmetry_space_group_name_H-M   'P 1'
_cell_length_a   9.85657001
_cell_length_b   9.85657075
_cell_length_c   9.85657033
_cell_angle_alpha   59.99296307
_cell_angle_beta   59.99296870
_cell_angle_gamma   59.99296942
_symmetry_Int_Tables_number   1
_chemical_formula_structural   Nd6Y6Th4Cd3HgIr4
_chemical_formula_sum   'Nd6 Y6 Th4 Cd3 Hg1 Ir4'
_cell_volume   677.00710030
_cell_formula_units_Z   1
loop_
 _symmetry_equiv_pos_site_id
 _symmetry_equiv_pos_as_xyz
  1  'x, y, z'
loop_
 _atom_site_type_symbol
 _atom_site_label
 _atom_site_symmetry_multiplicity
 _atom_site_fract_x
 _atom_site_fract_y
 _atom_site_fract_z
 _atom_site_occupancy
  Nd  Nd0  1  0.940624  0.561430  0.561430  1
  Nd  Nd1  1  0.558216  0.939859  0.939859  1
  Nd  Nd2  1  0.561430  0.940624  0.561430  1
  Nd  Nd3  1  0.939859  0.558216  0.939859  1
  Nd  Nd4  1  0.561430  0.561430  0.940624  1
  Nd  Nd5  1  0.939859  0.939859  0.558216  1
  Y  Y6  1  0.813017  0.186240  0.186240  1
  Y  Y7  1  0.184987  0.814075  0.814075  1
  Y  Y8  1  0.186240  0.813017  0.186240  1
  Y  Y9  1  0.814075  0.184987  0.814075  1
  Y  Y10  1  0.186240  0.186240  0.813017  1
  Y  Y11  1  0.814075  0.814075  0.184987  1
  Th  Th12  1  0.348006  0.348006  0.348006  1
  Th  Th13  1  0.349272  0.349272  0.952657  1
  Th  Th14  1  0.349272  0.952657  0.349272  1
  Th  Th15  1  0.952657  0.349272  0.349272  1
  Cd  Cd16  1  0.579433  0.579433  0.259709  1
  Cd  Cd17  1  0.579433  0.259709  0.579433  1
  Cd  Cd18  1  0.259709  0.579433  0.579433  1
  Hg  Hg19  1  0.583001  0.583001  0.583001  1
  Ir  Ir20  1  0.143923  0.143923  0.143923  1
  Ir  Ir21  1  0.143718  0.143718  0.567800  1
  Ir  Ir22  1  0.143718  0.567800  0.143718  1
  Ir  Ir23  1  0.567800  0.143718  0.143718  1
