# generated using pymatgen
data_Ac3Ag3Sb4
_symmetry_space_group_name_H-M   'P 1'
_cell_length_a   9.08210644
_cell_length_b   9.08210708
_cell_length_c   9.08210600
_cell_angle_alpha   109.47122047
_cell_angle_beta   109.47122189
_cell_angle_gamma   109.47122427
_symmetry_Int_Tables_number   1
_chemical_formula_structural   Ac3Ag3Sb4
_chemical_formula_sum   'Ac6 Ag6 Sb8'
_cell_volume   576.68393797
_cell_formula_units_Z   2
loop_
 _symmetry_equiv_pos_site_id
 _symmetry_equiv_pos_as_xyz
  1  'x, y, z'
loop_
 _atom_site_type_symbol
 _atom_site_label
 _atom_site_symmetry_multiplicity
 _atom_site_fract_x
 _atom_site_fract_y
 _atom_site_fract_z
 _atom_site_occupancy
  Ac  Ac0  1  0.125000  0.875000  0.250000  1
  Ac  Ac1  1  0.375000  0.625000  0.750000  1
  Ac  Ac2  1  0.875000  0.250000  0.125000  1
  Ac  Ac3  1  0.625000  0.750000  0.375000  1
  Ac  Ac4  1  0.250000  0.125000  0.875000  1
  Ac  Ac5  1  0.750000  0.375000  0.625000  1
  Ag  Ag6  1  0.625000  0.375000  0.250000  1
  Ag  Ag7  1  0.875000  0.125000  0.750000  1
  Ag  Ag8  1  0.375000  0.250000  0.625000  1
  Ag  Ag9  1  0.125000  0.750000  0.875000  1
  Ag  Ag10  1  0.250000  0.625000  0.375000  1
  Ag  Ag11  1  0.750000  0.875000  0.125000  1
  Sb  Sb12  1  0.335988  0.335988  0.335988  1
  Sb  Sb13  1  0.164012  0.500000  0.000000  1
  Sb  Sb14  1  0.000000  0.164012  0.500000  1
  Sb  Sb15  1  0.835988  0.835988  0.835988  1
  Sb  Sb16  1  0.500000  0.000000  0.164012  1
  Sb  Sb17  1  0.664012  0.500000  0.000000  1
  Sb  Sb18  1  0.500000  0.000000  0.664012  1
  Sb  Sb19  1  0.000000  0.664012  0.500000  1
