# generated using pymatgen
data_KHf2I9
_symmetry_space_group_name_H-M   'P 1'
_cell_length_a   8.38846300
_cell_length_b   11.49650363
_cell_length_c   13.93546332
_cell_angle_alpha   62.41490467
_cell_angle_beta   90.00000000
_cell_angle_gamma   90.00000000
_symmetry_Int_Tables_number   1
_chemical_formula_structural   KHf2I9
_chemical_formula_sum   'K2 Hf4 I18'
_cell_volume   1191.13813662
_cell_formula_units_Z   2
loop_
 _symmetry_equiv_pos_site_id
 _symmetry_equiv_pos_as_xyz
  1  'x, y, z'
loop_
 _atom_site_type_symbol
 _atom_site_label
 _atom_site_symmetry_multiplicity
 _atom_site_fract_x
 _atom_site_fract_y
 _atom_site_fract_z
 _atom_site_occupancy
  K  K0  1  0.530286  0.500000  0.750000  1
  K  K1  1  0.469714  0.500000  0.250000  1
  Hf  Hf2  1  0.287072  0.819182  0.866674  1
  Hf  Hf3  1  0.712928  0.180818  0.133326  1
  Hf  Hf4  1  0.287072  0.180818  0.633326  1
  Hf  Hf5  1  0.712928  0.819182  0.366674  1
  I  I6  1  0.155819  0.752782  0.066736  1
  I  I7  1  0.844181  0.247218  0.933264  1
  I  I8  1  0.155819  0.247218  0.433264  1
  I  I9  1  0.844181  0.752782  0.566736  1
  I  I10  1  0.151908  0.619209  0.837862  1
  I  I11  1  0.848092  0.380791  0.162138  1
  I  I12  1  0.151908  0.380791  0.662138  1
  I  I13  1  0.848092  0.619209  0.337862  1
  I  I14  1  0.019797  0.000000  0.750000  1
  I  I15  1  0.980203  0.000000  0.250000  1
  I  I16  1  0.418291  0.065661  0.855093  1
  I  I17  1  0.581709  0.934339  0.144907  1
  I  I18  1  0.418291  0.934339  0.644907  1
  I  I19  1  0.581709  0.065661  0.355093  1
  I  I20  1  0.578881  0.697332  0.943269  1
  I  I21  1  0.421119  0.302668  0.056731  1
  I  I22  1  0.578881  0.302668  0.556731  1
  I  I23  1  0.421119  0.697332  0.443269  1
