# generated using pymatgen
data_Hf6SiTc6Ge5
_symmetry_space_group_name_H-M   'P 1'
_cell_length_a   7.84562061
_cell_length_b   7.84288575
_cell_length_c   7.84562062
_cell_angle_alpha   126.51400047
_cell_angle_beta   128.12573282
_cell_angle_gamma   77.74429197
_symmetry_Int_Tables_number   1
_chemical_formula_structural   Hf6SiTc6Ge5
_chemical_formula_sum   'Hf6 Si1 Tc6 Ge5'
_cell_volume   295.89789107
_cell_formula_units_Z   1
loop_
 _symmetry_equiv_pos_site_id
 _symmetry_equiv_pos_as_xyz
  1  'x, y, z'
loop_
 _atom_site_type_symbol
 _atom_site_label
 _atom_site_symmetry_multiplicity
 _atom_site_fract_x
 _atom_site_fract_y
 _atom_site_fract_z
 _atom_site_occupancy
  Hf  Hf0  1  0.550191  0.096838  0.046647  1
  Hf  Hf1  1  0.449475  0.496595  0.547119  1
  Hf  Hf2  1  0.951376  0.495601  0.044226  1
  Hf  Hf3  1  0.049456  0.095783  0.546327  1
  Hf  Hf4  1  0.750316  0.899191  0.648875  1
  Hf  Hf5  1  0.249171  0.895690  0.146518  1
  Si  Si6  1  0.249607  0.496749  0.747141  1
  Tc  Tc7  1  0.133842  0.751747  0.630993  1
  Tc  Tc8  1  0.877829  0.497034  0.629172  1
  Tc  Tc9  1  0.620755  0.751747  0.117906  1
  Tc  Tc10  1  0.367862  0.497034  0.119206  1
  Tc  Tc11  1  0.494311  0.242656  0.737138  1
  Tc  Tc12  1  0.005518  0.242656  0.248345  1
  Ge  Ge13  1  0.333904  0.830119  0.497843  1
  Ge  Ge14  1  0.665215  0.162982  0.495241  1
  Ge  Ge15  1  0.832275  0.830119  0.996213  1
  Ge  Ge16  1  0.167740  0.162982  0.997767  1
  Ge  Ge17  1  0.751156  0.498476  0.247321  1
