# generated using pymatgen
data_Dy5Er(RuBr3)2
_symmetry_space_group_name_H-M   'P 1'
_cell_length_a   4.08420100
_cell_length_b   8.53644349
_cell_length_c   11.89106721
_cell_angle_alpha   87.70277134
_cell_angle_beta   90.00000000
_cell_angle_gamma   90.00000000
_symmetry_Int_Tables_number   1
_chemical_formula_structural   Dy5Er(RuBr3)2
_chemical_formula_sum   'Dy5 Er1 Ru2 Br6'
_cell_volume   414.24353892
_cell_formula_units_Z   1
loop_
 _symmetry_equiv_pos_site_id
 _symmetry_equiv_pos_as_xyz
  1  'x, y, z'
loop_
 _atom_site_type_symbol
 _atom_site_label
 _atom_site_symmetry_multiplicity
 _atom_site_fract_x
 _atom_site_fract_y
 _atom_site_fract_z
 _atom_site_occupancy
  Dy  Dy0  1  0.250000  0.273379  0.395485  1
  Dy  Dy1  1  0.750000  0.725767  0.604268  1
  Dy  Dy2  1  0.250000  0.861363  0.362545  1
  Dy  Dy3  1  0.750000  0.138158  0.636607  1
  Dy  Dy4  1  0.250000  0.891807  0.826750  1
  Er  Er5  1  0.750000  0.109324  0.174864  1
  Ru  Ru6  1  0.250000  0.941672  0.595649  1
  Ru  Ru7  1  0.750000  0.057635  0.403710  1
  Br  Br8  1  0.250000  0.429341  0.630862  1
  Br  Br9  1  0.750000  0.568899  0.369764  1
  Br  Br10  1  0.250000  0.878915  0.101297  1
  Br  Br11  1  0.750000  0.125596  0.898794  1
  Br  Br12  1  0.250000  0.345834  0.140031  1
  Br  Br13  1  0.750000  0.652307  0.859376  1
