# generated using pymatgen
data_Li3LuU2O8
_symmetry_space_group_name_H-M   'P 1'
_cell_length_a   5.19535100
_cell_length_b   6.23798252
_cell_length_c   11.03071452
_cell_angle_alpha   86.98763773
_cell_angle_beta   90.00000000
_cell_angle_gamma   90.00000000
_symmetry_Int_Tables_number   1
_chemical_formula_structural   Li3LuU2O8
_chemical_formula_sum   'Li6 Lu2 U4 O16'
_cell_volume   356.99503660
_cell_formula_units_Z   2
loop_
 _symmetry_equiv_pos_site_id
 _symmetry_equiv_pos_as_xyz
  1  'x, y, z'
loop_
 _atom_site_type_symbol
 _atom_site_label
 _atom_site_symmetry_multiplicity
 _atom_site_fract_x
 _atom_site_fract_y
 _atom_site_fract_z
 _atom_site_occupancy
  Li  Li0  1  0.543554  0.733781  0.920019  1
  Li  Li1  1  0.043554  0.266219  0.579981  1
  Li  Li2  1  0.456446  0.266219  0.079981  1
  Li  Li3  1  0.956446  0.733781  0.420019  1
  Li  Li4  1  0.500000  0.500000  0.500000  1
  Li  Li5  1  0.000000  0.500000  0.000000  1
  Lu  Lu6  1  0.500000  0.000000  0.500000  1
  Lu  Lu7  1  0.000000  0.000000  0.000000  1
  U  U8  1  0.988592  0.743513  0.733664  1
  U  U9  1  0.488592  0.256487  0.766336  1
  U  U10  1  0.011408  0.256487  0.266336  1
  U  U11  1  0.511408  0.743513  0.233664  1
  O  O12  1  0.179781  0.744546  0.900472  1
  O  O13  1  0.227760  0.242320  0.423606  1
  O  O14  1  0.272240  0.242320  0.923606  1
  O  O15  1  0.727760  0.757680  0.076394  1
  O  O16  1  0.250958  0.013079  0.164428  1
  O  O17  1  0.750958  0.986921  0.335572  1
  O  O18  1  0.730710  0.513872  0.831014  1
  O  O19  1  0.230710  0.486128  0.668986  1
  O  O20  1  0.749042  0.986921  0.835572  1
  O  O21  1  0.249042  0.013079  0.664428  1
  O  O22  1  0.269290  0.486128  0.168986  1
  O  O23  1  0.769290  0.513872  0.331014  1
  O  O24  1  0.820219  0.255454  0.099528  1
  O  O25  1  0.320219  0.744546  0.400472  1
  O  O26  1  0.772240  0.757680  0.576394  1
  O  O27  1  0.679781  0.255454  0.599528  1
