# generated using pymatgen
data_Yb3Pr17Si15Rh
_symmetry_space_group_name_H-M   'P 1'
_cell_length_a   7.91653024
_cell_length_b   7.90118565
_cell_length_c   15.23850100
_cell_angle_alpha   90.11482824
_cell_angle_beta   89.78596532
_cell_angle_gamma   90.21954780
_symmetry_Int_Tables_number   1
_chemical_formula_structural   Yb3Pr17Si15Rh
_chemical_formula_sum   'Yb3 Pr17 Si15 Rh1'
_cell_volume   953.15232277
_cell_formula_units_Z   1
loop_
 _symmetry_equiv_pos_site_id
 _symmetry_equiv_pos_as_xyz
  1  'x, y, z'
loop_
 _atom_site_type_symbol
 _atom_site_label
 _atom_site_symmetry_multiplicity
 _atom_site_fract_x
 _atom_site_fract_y
 _atom_site_fract_z
 _atom_site_occupancy
  Yb  Yb0  1  0.308759  0.308695  0.998468  1
  Yb  Yb1  1  0.189703  0.809918  0.250394  1
  Yb  Yb2  1  0.817414  0.190427  0.748265  1
  Pr  Pr3  1  0.693442  0.688451  0.501143  1
  Pr  Pr4  1  0.375915  0.008994  0.447761  1
  Pr  Pr5  1  0.490666  0.877300  0.698872  1
  Pr  Pr6  1  0.509583  0.123264  0.197444  1
  Pr  Pr7  1  0.875589  0.489772  0.299629  1
  Pr  Pr8  1  0.124163  0.505351  0.799667  1
  Pr  Pr9  1  0.624706  0.991378  0.947477  1
  Pr  Pr10  1  0.002034  0.377389  0.553641  1
  Pr  Pr11  1  0.990651  0.623539  0.051095  1
  Pr  Pr12  1  0.130411  0.990221  0.872872  1
  Pr  Pr13  1  0.513272  0.628166  0.125691  1
  Pr  Pr14  1  0.474390  0.361005  0.630430  1
  Pr  Pr15  1  0.628010  0.511912  0.874434  1
  Pr  Pr16  1  0.373157  0.483340  0.373984  1
  Pr  Pr17  1  0.875490  0.019164  0.376548  1
  Pr  Pr18  1  0.985940  0.124262  0.123590  1
  Pr  Pr19  1  0.025988  0.884725  0.626487  1
  Si  Si20  1  0.332025  0.697507  0.949686  1
  Si  Si21  1  0.664242  0.301773  0.452016  1
  Si  Si22  1  0.701277  0.334141  0.050854  1
  Si  Si23  1  0.304303  0.668801  0.548235  1
  Si  Si24  1  0.800840  0.833448  0.201730  1
  Si  Si25  1  0.166448  0.200968  0.297130  1
  Si  Si26  1  0.835367  0.799046  0.800061  1
  Si  Si27  1  0.286654  0.918635  0.057862  1
  Si  Si28  1  0.580592  0.786911  0.309623  1
  Si  Si29  1  0.425850  0.206067  0.813520  1
  Si  Si30  1  0.783079  0.583430  0.690412  1
  Si  Si31  1  0.212445  0.420913  0.189697  1
  Si  Si32  1  0.704321  0.074261  0.559013  1
  Si  Si33  1  0.919546  0.287392  0.941884  1
  Si  Si34  1  0.079914  0.714943  0.441557  1
  Rh  Rh35  1  0.193814  0.174496  0.698825  1
