# generated using pymatgen
data_Np3Cu2O7
_symmetry_space_group_name_H-M   'P 1'
_cell_length_a   8.48622191
_cell_length_b   12.24089547
_cell_length_c   18.93025052
_cell_angle_alpha   91.09888486
_cell_angle_beta   82.46888082
_cell_angle_gamma   88.35828230
_symmetry_Int_Tables_number   1
_chemical_formula_structural   Np3Cu2O7
_chemical_formula_sum   'Np3 Cu2 O7'
_cell_volume   1948.16955360
_cell_formula_units_Z   1
loop_
 _symmetry_equiv_pos_site_id
 _symmetry_equiv_pos_as_xyz
  1  'x, y, z'
loop_
 _atom_site_type_symbol
 _atom_site_label
 _atom_site_symmetry_multiplicity
 _atom_site_fract_x
 _atom_site_fract_y
 _atom_site_fract_z
 _atom_site_occupancy
  Np  Np0  1  0.461030  0.596935  0.327427  1
  Np  Np1  1  0.208633  0.196696  0.512177  1
  Np  Np2  1  0.925826  0.969681  0.761820  1
  Cu  Cu3  1  0.912152  0.173247  0.335257  1
  Cu  Cu4  1  0.609168  0.793550  0.431066  1
  O  O5  1  0.507429  0.894786  0.546513  1
  O  O6  1  0.505375  0.171687  0.805173  1
  O  O7  1  0.072631  0.252961  0.941545  1
  O  O8  1  0.383190  0.505104  0.088198  1
  O  O9  1  0.714488  0.693857  0.035262  1
  O  O10  1  0.892489  0.916153  0.638889  1
  O  O11  1  0.221860  0.690490  0.925781  1
