# generated using pymatgen
data_Ba4GeIr3I2
_symmetry_space_group_name_H-M   'P 1'
_cell_length_a   4.47495200
_cell_length_b   4.47495140
_cell_length_c   19.33262100
_cell_angle_alpha   90.00000000
_cell_angle_beta   90.00000000
_cell_angle_gamma   119.99998963
_symmetry_Int_Tables_number   1
_chemical_formula_structural   Ba4GeIr3I2
_chemical_formula_sum   'Ba4 Ge1 Ir3 I2'
_cell_volume   335.27264346
_cell_formula_units_Z   1
loop_
 _symmetry_equiv_pos_site_id
 _symmetry_equiv_pos_as_xyz
  1  'x, y, z'
loop_
 _atom_site_type_symbol
 _atom_site_label
 _atom_site_symmetry_multiplicity
 _atom_site_fract_x
 _atom_site_fract_y
 _atom_site_fract_z
 _atom_site_occupancy
  Ba  Ba0  1  0.000000  0.000000  0.110571  1
  Ba  Ba1  1  0.000000  0.000000  0.889327  1
  Ba  Ba2  1  0.000000  0.000000  0.611813  1
  Ba  Ba3  1  0.000000  0.000000  0.388421  1
  Ge  Ge4  1  0.333333  0.666667  0.500204  1
  Ir  Ir5  1  0.666667  0.333333  0.499808  1
  Ir  Ir6  1  0.666667  0.333333  0.000248  1
  Ir  Ir7  1  0.333333  0.666667  0.999752  1
  I  I8  1  0.333333  0.666667  0.250575  1
  I  I9  1  0.666667  0.333333  0.749281  1
