# generated using pymatgen
data_Tm12AlNi4Rh
_symmetry_space_group_name_H-M   'P 1'
_cell_length_a   8.16333250
_cell_length_b   8.16333158
_cell_length_c   8.16333212
_cell_angle_alpha   111.28223680
_cell_angle_beta   110.02168666
_cell_angle_gamma   107.13725313
_symmetry_Int_Tables_number   1
_chemical_formula_structural   Tm12AlNi4Rh
_chemical_formula_sum   'Tm12 Al1 Ni4 Rh1'
_cell_volume   418.20339785
_cell_formula_units_Z   1
loop_
 _symmetry_equiv_pos_site_id
 _symmetry_equiv_pos_as_xyz
  1  'x, y, z'
loop_
 _atom_site_type_symbol
 _atom_site_label
 _atom_site_symmetry_multiplicity
 _atom_site_fract_x
 _atom_site_fract_y
 _atom_site_fract_z
 _atom_site_occupancy
  Tm  Tm0  1  0.588359  0.279231  0.309129  1
  Tm  Tm1  1  0.184472  0.209221  0.393693  1
  Tm  Tm2  1  0.184472  0.790779  0.975252  1
  Tm  Tm3  1  0.677728  0.480359  0.802632  1
  Tm  Tm4  1  0.677728  0.875096  0.197368  1
  Tm  Tm5  1  0.970101  0.279231  0.690871  1
  Tm  Tm6  1  0.029899  0.720769  0.309129  1
  Tm  Tm7  1  0.322272  0.124904  0.802632  1
  Tm  Tm8  1  0.322272  0.519641  0.197368  1
  Tm  Tm9  1  0.815528  0.209221  0.024748  1
  Tm  Tm10  1  0.815528  0.790779  0.606307  1
  Tm  Tm11  1  0.411641  0.720769  0.690871  1
  Al  Al12  1  0.500000  0.000000  0.500000  1
  Ni  Ni13  1  0.875522  0.875522  0.000000  1
  Ni  Ni14  1  0.360838  0.500000  0.860838  1
  Ni  Ni15  1  0.639162  0.500000  0.139162  1
  Ni  Ni16  1  0.124478  0.124478  0.000000  1
  Rh  Rh17  1  0.000000  0.500000  0.500000  1
