# generated using pymatgen
data_Ni2IrRu3Cl20
_symmetry_space_group_name_H-M   'P 1'
_cell_length_a   9.34381342
_cell_length_b   9.34381304
_cell_length_c   13.08373725
_cell_angle_alpha   87.26020969
_cell_angle_beta   87.26020606
_cell_angle_gamma   141.45880149
_symmetry_Int_Tables_number   1
_chemical_formula_structural   Ni2IrRu3Cl20
_chemical_formula_sum   'Ni2 Ir1 Ru3 Cl20'
_cell_volume   704.23618059
_cell_formula_units_Z   1
loop_
 _symmetry_equiv_pos_site_id
 _symmetry_equiv_pos_as_xyz
  1  'x, y, z'
loop_
 _atom_site_type_symbol
 _atom_site_label
 _atom_site_symmetry_multiplicity
 _atom_site_fract_x
 _atom_site_fract_y
 _atom_site_fract_z
 _atom_site_occupancy
  Ni  Ni0  1  0.553476  0.446524  0.250000  1
  Ni  Ni1  1  0.446853  0.553147  0.750000  1
  Ir  Ir2  1  0.954463  0.045537  0.250000  1
  Ru  Ru3  1  0.045650  0.954350  0.750000  1
  Ru  Ru4  1  0.751098  0.248902  0.250000  1
  Ru  Ru5  1  0.249440  0.750560  0.750000  1
  Cl  Cl6  1  0.033015  0.741948  0.647742  1
  Cl  Cl7  1  0.258052  0.966985  0.852258  1
  Cl  Cl8  1  0.970776  0.261567  0.351174  1
  Cl  Cl9  1  0.738433  0.029224  0.148826  1
  Cl  Cl10  1  0.693613  0.614996  0.851456  1
  Cl  Cl11  1  0.385004  0.306387  0.648544  1
  Cl  Cl12  1  0.309414  0.388087  0.153776  1
  Cl  Cl13  1  0.611913  0.690586  0.346224  1
  Cl  Cl14  1  0.914245  0.421609  0.850552  1
  Cl  Cl15  1  0.578391  0.085755  0.649448  1
  Cl  Cl16  1  0.083917  0.575886  0.147696  1
  Cl  Cl17  1  0.424114  0.916083  0.352304  1
  Cl  Cl18  1  0.808369  0.897254  0.647589  1
  Cl  Cl19  1  0.102746  0.191631  0.852411  1
  Cl  Cl20  1  0.182750  0.092280  0.354945  1
  Cl  Cl21  1  0.907720  0.817250  0.145055  1
  Cl  Cl22  1  0.235915  0.539366  0.649103  1
  Cl  Cl23  1  0.460634  0.764085  0.850897  1
  Cl  Cl24  1  0.764094  0.464095  0.349036  1
  Cl  Cl25  1  0.535905  0.235906  0.150964  1
