# generated using pymatgen
data_Sm2Th(ZnPt)4
_symmetry_space_group_name_H-M   'P 1'
_cell_length_a   8.34156892
_cell_length_b   8.34157128
_cell_length_c   8.34156994
_cell_angle_alpha   151.58738905
_cell_angle_beta   127.11170651
_cell_angle_gamma   61.12405782
_symmetry_Int_Tables_number   1
_chemical_formula_structural   Sm2Th(ZnPt)4
_chemical_formula_sum   'Sm2 Th1 Zn4 Pt4'
_cell_volume   218.48580262
_cell_formula_units_Z   1
loop_
 _symmetry_equiv_pos_site_id
 _symmetry_equiv_pos_as_xyz
  1  'x, y, z'
loop_
 _atom_site_type_symbol
 _atom_site_label
 _atom_site_symmetry_multiplicity
 _atom_site_fract_x
 _atom_site_fract_y
 _atom_site_fract_z
 _atom_site_occupancy
  Sm  Sm0  1  0.873453  0.873453  0.000000  1
  Sm  Sm1  1  0.126547  0.126547  0.000000  1
  Th  Th2  1  0.500000  0.000000  0.500000  1
  Zn  Zn3  1  0.476841  0.675036  0.801805  1
  Zn  Zn4  1  0.873230  0.675036  0.198195  1
  Zn  Zn5  1  0.126770  0.324964  0.801805  1
  Zn  Zn6  1  0.523159  0.324964  0.198195  1
  Pt  Pt7  1  0.282882  0.782882  0.500000  1
  Pt  Pt8  1  0.717118  0.217118  0.500000  1
  Pt  Pt9  1  0.796521  0.500000  0.296521  1
  Pt  Pt10  1  0.203479  0.500000  0.703479  1
