# generated using pymatgen
data_Hf2Nb3Co9As7
_symmetry_space_group_name_H-M   'P 1'
_cell_length_a   3.77318000
_cell_length_b   9.46258252
_cell_length_c   9.46258300
_cell_angle_alpha   119.99999818
_cell_angle_beta   90.00000000
_cell_angle_gamma   90.00000000
_symmetry_Int_Tables_number   1
_chemical_formula_structural   Hf2Nb3Co9As7
_chemical_formula_sum   'Hf2 Nb3 Co9 As7'
_cell_volume   292.58869727
_cell_formula_units_Z   1
loop_
 _symmetry_equiv_pos_site_id
 _symmetry_equiv_pos_as_xyz
  1  'x, y, z'
loop_
 _atom_site_type_symbol
 _atom_site_label
 _atom_site_symmetry_multiplicity
 _atom_site_fract_x
 _atom_site_fract_y
 _atom_site_fract_z
 _atom_site_occupancy
  Hf  Hf0  1  0.000000  0.666667  0.333333  1
  Hf  Hf1  1  0.500000  0.333333  0.666667  1
  Nb  Nb2  1  0.500000  0.773888  0.899111  1
  Nb  Nb3  1  0.500000  0.125223  0.226112  1
  Nb  Nb4  1  0.500000  0.100889  0.874777  1
  Co  Co5  1  0.000000  0.565314  0.931608  1
  Co  Co6  1  0.000000  0.366294  0.434686  1
  Co  Co7  1  0.000000  0.068392  0.633706  1
  Co  Co8  1  0.000000  0.873916  0.163312  1
  Co  Co9  1  0.000000  0.289396  0.126084  1
  Co  Co10  1  0.000000  0.836688  0.710604  1
  Co  Co11  1  0.500000  0.946488  0.387572  1
  Co  Co12  1  0.500000  0.441083  0.053512  1
  Co  Co13  1  0.500000  0.612428  0.558917  1
  As  As14  1  0.000000  0.000000  0.000000  1
  As  As15  1  0.500000  0.709473  0.129406  1
  As  As16  1  0.500000  0.419934  0.290527  1
  As  As17  1  0.500000  0.870594  0.580066  1
  As  As18  1  0.000000  0.577424  0.692821  1
  As  As19  1  0.000000  0.115398  0.422576  1
  As  As20  1  0.000000  0.307179  0.884602  1
