# generated using pymatgen
data_Y2TmNb(Co4P3)2
_symmetry_space_group_name_H-M   'P 1'
_cell_length_a   3.70810600
_cell_length_b   10.62595500
_cell_length_c   12.32925400
_cell_angle_alpha   90.00000000
_cell_angle_beta   90.00000000
_cell_angle_gamma   90.00000000
_symmetry_Int_Tables_number   1
_chemical_formula_structural   Y2TmNb(Co4P3)2
_chemical_formula_sum   'Y4 Tm2 Nb2 Co16 P12'
_cell_volume   485.79933115
_cell_formula_units_Z   2
loop_
 _symmetry_equiv_pos_site_id
 _symmetry_equiv_pos_as_xyz
  1  'x, y, z'
loop_
 _atom_site_type_symbol
 _atom_site_label
 _atom_site_symmetry_multiplicity
 _atom_site_fract_x
 _atom_site_fract_y
 _atom_site_fract_z
 _atom_site_occupancy
  Y  Y0  1  0.000000  0.500000  0.526865  1
  Y  Y1  1  0.500000  0.000000  0.473610  1
  Y  Y2  1  0.500000  0.819987  0.205112  1
  Y  Y3  1  0.500000  0.180013  0.205112  1
  Tm  Tm4  1  0.000000  0.679471  0.794979  1
  Tm  Tm5  1  0.000000  0.320529  0.794979  1
  Nb  Nb6  1  0.500000  0.500000  0.156682  1
  Nb  Nb7  1  0.000000  0.000000  0.842887  1
  Co  Co8  1  0.500000  0.500000  0.703472  1
  Co  Co9  1  0.000000  0.000000  0.297852  1
  Co  Co10  1  0.000000  0.500000  0.985014  1
  Co  Co11  1  0.500000  0.000000  0.013221  1
  Co  Co12  1  0.500000  0.332752  0.990591  1
  Co  Co13  1  0.500000  0.667248  0.990591  1
  Co  Co14  1  0.000000  0.168163  0.007570  1
  Co  Co15  1  0.000000  0.831837  0.007570  1
  Co  Co16  1  0.500000  0.295367  0.432956  1
  Co  Co17  1  0.500000  0.704633  0.432956  1
  Co  Co18  1  0.000000  0.205104  0.568360  1
  Co  Co19  1  0.000000  0.794896  0.568360  1
  Co  Co20  1  0.500000  0.876616  0.705073  1
  Co  Co21  1  0.500000  0.123384  0.705073  1
  Co  Co22  1  0.000000  0.622340  0.295841  1
  Co  Co23  1  0.000000  0.377660  0.295841  1
  P  P24  1  0.500000  0.500000  0.881225  1
  P  P25  1  0.000000  0.000000  0.117267  1
  P  P26  1  0.500000  0.500000  0.355639  1
  P  P27  1  0.000000  0.000000  0.644516  1
  P  P28  1  0.500000  0.310987  0.616848  1
  P  P29  1  0.500000  0.689013  0.616848  1
  P  P30  1  0.000000  0.189629  0.384876  1
  P  P31  1  0.000000  0.810371  0.384876  1
  P  P32  1  0.500000  0.840611  0.892429  1
  P  P33  1  0.500000  0.159389  0.892429  1
  P  P34  1  0.000000  0.658157  0.106240  1
  P  P35  1  0.000000  0.341843  0.106240  1
