# generated using pymatgen
data_Nd5Ho11Cd4TcPt3
_symmetry_space_group_name_H-M   'P 1'
_cell_length_a   9.77064949
_cell_length_b   9.77151960
_cell_length_c   9.77151883
_cell_angle_alpha   59.54300812
_cell_angle_beta   59.46920059
_cell_angle_gamma   59.46920341
_symmetry_Int_Tables_number   1
_chemical_formula_structural   Nd5Ho11Cd4TcPt3
_chemical_formula_sum   'Nd5 Ho11 Cd4 Tc1 Pt3'
_cell_volume   652.08352602
_cell_formula_units_Z   1
loop_
 _symmetry_equiv_pos_site_id
 _symmetry_equiv_pos_as_xyz
  1  'x, y, z'
loop_
 _atom_site_type_symbol
 _atom_site_label
 _atom_site_symmetry_multiplicity
 _atom_site_fract_x
 _atom_site_fract_y
 _atom_site_fract_z
 _atom_site_occupancy
  Nd  Nd0  1  0.553827  0.940627  0.940627  1
  Nd  Nd1  1  0.564356  0.935344  0.562213  1
  Nd  Nd2  1  0.939962  0.555145  0.937182  1
  Nd  Nd3  1  0.564356  0.562213  0.935344  1
  Nd  Nd4  1  0.939962  0.937182  0.555145  1
  Ho  Ho5  1  0.351563  0.351680  0.351680  1
  Ho  Ho6  1  0.348081  0.349829  0.953565  1
  Ho  Ho7  1  0.348081  0.953565  0.349829  1
  Ho  Ho8  1  0.951533  0.349598  0.349598  1
  Ho  Ho9  1  0.817260  0.186017  0.186017  1
  Ho  Ho10  1  0.185556  0.811901  0.811901  1
  Ho  Ho11  1  0.184964  0.816241  0.187893  1
  Ho  Ho12  1  0.812037  0.186989  0.811098  1
  Ho  Ho13  1  0.184964  0.187893  0.816241  1
  Ho  Ho14  1  0.812037  0.811098  0.186989  1
  Ho  Ho15  1  0.939875  0.559258  0.559258  1
  Cd  Cd16  1  0.581791  0.578533  0.578533  1
  Cd  Cd17  1  0.579183  0.579660  0.259746  1
  Cd  Cd18  1  0.579183  0.259746  0.579660  1
  Cd  Cd19  1  0.257613  0.579225  0.579225  1
  Tc  Tc20  1  0.143351  0.143558  0.143558  1
  Pt  Pt21  1  0.143308  0.146685  0.573565  1
  Pt  Pt22  1  0.143308  0.573565  0.146685  1
  Pt  Pt23  1  0.573853  0.144446  0.144446  1
