# generated using pymatgen
data_NaEu3(Si5Pt3)2
_symmetry_space_group_name_H-M   'P 1'
_cell_length_a   8.31559447
_cell_length_b   8.28601432
_cell_length_c   8.28601453
_cell_angle_alpha   137.59008659
_cell_angle_beta   104.82832203
_cell_angle_gamma   90.27541435
_symmetry_Int_Tables_number   1
_chemical_formula_structural   NaEu3(Si5Pt3)2
_chemical_formula_sum   'Na1 Eu3 Si10 Pt6'
_cell_volume   355.41143997
_cell_formula_units_Z   1
loop_
 _symmetry_equiv_pos_site_id
 _symmetry_equiv_pos_as_xyz
  1  'x, y, z'
loop_
 _atom_site_type_symbol
 _atom_site_label
 _atom_site_symmetry_multiplicity
 _atom_site_fract_x
 _atom_site_fract_y
 _atom_site_fract_z
 _atom_site_occupancy
  Na  Na0  1  0.106789  0.871475  0.235314  1
  Eu  Eu1  1  0.898872  0.131774  0.767098  1
  Eu  Eu2  1  0.637018  0.370072  0.266946  1
  Eu  Eu3  1  0.361591  0.628149  0.733442  1
  Si  Si4  1  0.001420  0.752096  0.751317  1
  Si  Si5  1  0.001420  0.250103  0.249324  1
  Si  Si6  1  0.268978  0.019895  0.748374  1
  Si  Si7  1  0.728877  0.476741  0.748067  1
  Si  Si8  1  0.728877  0.980811  0.252136  1
  Si  Si9  1  0.268978  0.520603  0.249083  1
  Si  Si10  1  0.762777  0.612928  0.149849  1
  Si  Si11  1  0.236512  0.387022  0.849490  1
  Si  Si12  1  0.459072  0.109402  0.349670  1
  Si  Si13  1  0.539004  0.888839  0.650165  1
  Pt  Pt14  1  0.499977  0.747151  0.248979  1
  Pt  Pt15  1  0.499977  0.250998  0.752825  1
  Pt  Pt16  1  0.022244  0.637240  0.385004  1
  Pt  Pt17  1  0.977373  0.365639  0.611734  1
  Pt  Pt18  1  0.249371  0.135555  0.113815  1
  Pt  Pt19  1  0.750875  0.863507  0.887368  1
