# generated using pymatgen
data_Tb4MnAlRu6
_symmetry_space_group_name_H-M   'P 1'
_cell_length_a   5.19692827
_cell_length_b   5.19692792
_cell_length_c   8.92301700
_cell_angle_alpha   90.00000000
_cell_angle_beta   90.00000000
_cell_angle_gamma   116.65680620
_symmetry_Int_Tables_number   1
_chemical_formula_structural   Tb4MnAlRu6
_chemical_formula_sum   'Tb4 Mn1 Al1 Ru6'
_cell_volume   215.37817222
_cell_formula_units_Z   1
loop_
 _symmetry_equiv_pos_site_id
 _symmetry_equiv_pos_as_xyz
  1  'x, y, z'
loop_
 _atom_site_type_symbol
 _atom_site_label
 _atom_site_symmetry_multiplicity
 _atom_site_fract_x
 _atom_site_fract_y
 _atom_site_fract_z
 _atom_site_occupancy
  Tb  Tb0  1  0.328640  0.671360  0.432079  1
  Tb  Tb1  1  0.669359  0.330641  0.564091  1
  Tb  Tb2  1  0.669359  0.330641  0.935909  1
  Tb  Tb3  1  0.328640  0.671360  0.067921  1
  Mn  Mn4  1  0.844767  0.155233  0.250000  1
  Al  Al5  1  0.161884  0.838116  0.750000  1
  Ru  Ru6  1  0.993435  0.006565  0.496327  1
  Ru  Ru7  1  0.993435  0.006565  0.003673  1
  Ru  Ru8  1  0.821305  0.645738  0.250000  1
  Ru  Ru9  1  0.354262  0.178695  0.250000  1
  Ru  Ru10  1  0.181840  0.346926  0.750000  1
  Ru  Ru11  1  0.653074  0.818160  0.750000  1
