# generated using pymatgen
data_HoCu4AgO8
_symmetry_space_group_name_H-M   'P 1'
_cell_length_a   6.23240789
_cell_length_b   6.23240757
_cell_length_c   6.23240801
_cell_angle_alpha   124.89844435
_cell_angle_beta   124.89844118
_cell_angle_gamma   81.70631872
_symmetry_Int_Tables_number   1
_chemical_formula_structural   HoCu4AgO8
_chemical_formula_sum   'Ho1 Cu4 Ag1 O8'
_cell_volume   156.69705922
_cell_formula_units_Z   1
loop_
 _symmetry_equiv_pos_site_id
 _symmetry_equiv_pos_as_xyz
  1  'x, y, z'
loop_
 _atom_site_type_symbol
 _atom_site_label
 _atom_site_symmetry_multiplicity
 _atom_site_fract_x
 _atom_site_fract_y
 _atom_site_fract_z
 _atom_site_occupancy
  Ho  Ho0  1  0.750000  0.250000  0.500000  1
  Cu  Cu1  1  0.365597  0.624383  0.238681  1
  Cu  Cu2  1  0.385702  0.126916  0.761319  1
  Cu  Cu3  1  0.375617  0.614298  0.741214  1
  Cu  Cu4  1  0.873084  0.634403  0.258786  1
  Ag  Ag5  1  0.000000  0.000000  0.000000  1
  O  O6  1  0.728921  0.319356  0.157446  1
  O  O7  1  0.161909  0.571475  0.842554  1
  O  O8  1  0.026134  0.954012  0.377660  1
  O  O9  1  0.576352  0.648474  0.622340  1
  O  O10  1  0.045988  0.423648  0.072121  1
  O  O11  1  0.351526  0.973866  0.927879  1
  O  O12  1  0.428525  0.271079  0.590434  1
  O  O13  1  0.680644  0.838091  0.409566  1
