# generated using pymatgen
data_Pr4MnAl18IrPt4
_symmetry_space_group_name_H-M   'P 1'
_cell_length_a   7.66263615
_cell_length_b   7.66263446
_cell_length_c   9.63176432
_cell_angle_alpha   89.98494591
_cell_angle_beta   89.98494725
_cell_angle_gamma   119.53780519
_symmetry_Int_Tables_number   1
_chemical_formula_structural   Pr4MnAl18IrPt4
_chemical_formula_sum   'Pr4 Mn1 Al18 Ir1 Pt4'
_cell_volume   492.03571152
_cell_formula_units_Z   1
loop_
 _symmetry_equiv_pos_site_id
 _symmetry_equiv_pos_as_xyz
  1  'x, y, z'
loop_
 _atom_site_type_symbol
 _atom_site_label
 _atom_site_symmetry_multiplicity
 _atom_site_fract_x
 _atom_site_fract_y
 _atom_site_fract_z
 _atom_site_occupancy
  Pr  Pr0  1  0.993491  0.668897  0.248779  1
  Pr  Pr1  1  0.006509  0.331103  0.751221  1
  Pr  Pr2  1  0.668897  0.993491  0.248779  1
  Pr  Pr3  1  0.331103  0.006509  0.751221  1
  Mn  Mn4  1  0.000000  0.000000  0.000000  1
  Al  Al5  1  0.125436  0.125436  0.245117  1
  Al  Al6  1  0.874564  0.874564  0.754883  1
  Al  Al7  1  0.001766  0.324470  0.071667  1
  Al  Al8  1  0.998234  0.675530  0.928333  1
  Al  Al9  1  0.998033  0.668891  0.574234  1
  Al  Al10  1  0.331109  0.001967  0.425766  1
  Al  Al11  1  0.001967  0.331109  0.425766  1
  Al  Al12  1  0.668891  0.998033  0.574234  1
  Al  Al13  1  0.675530  0.998234  0.928333  1
  Al  Al14  1  0.324470  0.001766  0.071667  1
  Al  Al15  1  0.331353  0.331353  0.550050  1
  Al  Al16  1  0.668647  0.668647  0.449950  1
  Al  Al17  1  0.674365  0.674365  0.047226  1
  Al  Al18  1  0.325635  0.325635  0.952774  1
  Al  Al19  1  0.341207  0.543499  0.249479  1
  Al  Al20  1  0.658793  0.456501  0.750521  1
  Al  Al21  1  0.543499  0.341207  0.249479  1
  Al  Al22  1  0.456501  0.658793  0.750521  1
  Ir  Ir23  1  0.000000  0.000000  0.500000  1
  Pt  Pt24  1  0.671397  0.328603  0.000000  1
  Pt  Pt25  1  0.328603  0.671397  0.000000  1
  Pt  Pt26  1  0.328847  0.671153  0.500000  1
  Pt  Pt27  1  0.671153  0.328847  0.500000  1
