# generated using pymatgen
data_Ba3NaDy3(Si3O10)2
_symmetry_space_group_name_H-M   'P 1'
_cell_length_a   5.57240300
_cell_length_b   12.29257487
_cell_length_c   14.84544000
_cell_angle_alpha   90.00000000
_cell_angle_beta   90.00000000
_cell_angle_gamma   103.09994857
_symmetry_Int_Tables_number   1
_chemical_formula_structural   Ba3NaDy3(Si3O10)2
_chemical_formula_sum   'Ba6 Na2 Dy6 Si12 O40'
_cell_volume   990.43683879
_cell_formula_units_Z   2
loop_
 _symmetry_equiv_pos_site_id
 _symmetry_equiv_pos_as_xyz
  1  'x, y, z'
loop_
 _atom_site_type_symbol
 _atom_site_label
 _atom_site_symmetry_multiplicity
 _atom_site_fract_x
 _atom_site_fract_y
 _atom_site_fract_z
 _atom_site_occupancy
  Ba  Ba0  1  0.827256  0.839386  0.750000  1
  Ba  Ba1  1  0.987854  0.160601  0.250000  1
  Ba  Ba2  1  0.149054  0.486435  0.113016  1
  Ba  Ba3  1  0.662697  0.513541  0.886981  1
  Ba  Ba4  1  0.149054  0.486435  0.386984  1
  Ba  Ba5  1  0.662697  0.513541  0.613019  1
  Na  Na6  1  0.446067  0.224151  0.750000  1
  Na  Na7  1  0.221747  0.775830  0.250000  1
  Dy  Dy8  1  0.371856  0.781135  0.968664  1
  Dy  Dy9  1  0.590765  0.218858  0.031338  1
  Dy  Dy10  1  0.371856  0.781135  0.531336  1
  Dy  Dy11  1  0.590765  0.218858  0.468662  1
  Dy  Dy12  1  0.980199  0.999989  0.999999  1
  Dy  Dy13  1  0.980199  0.999989  0.500001  1
  Si  Si14  1  0.790744  0.701579  0.056024  1
  Si  Si15  1  0.089241  0.298400  0.943971  1
  Si  Si16  1  0.790744  0.701579  0.443976  1
  Si  Si17  1  0.089241  0.298400  0.556029  1
  Si  Si18  1  0.255416  0.641380  0.750000  1
  Si  Si19  1  0.613980  0.358635  0.250000  1
  Si  Si20  1  0.419458  0.001842  0.861457  1
  Si  Si21  1  0.417508  0.998186  0.138539  1
  Si  Si22  1  0.419458  0.001842  0.638543  1
  Si  Si23  1  0.417508  0.998186  0.361461  1
  Si  Si24  1  0.069634  0.377801  0.750000  1
  Si  Si25  1  0.691562  0.622185  0.250000  1
  O  O26  1  0.430512  0.027364  0.750000  1
  O  O27  1  0.402873  0.972654  0.250000  1
  O  O28  1  0.853247  0.687915  0.164930  1
  O  O29  1  0.165561  0.312074  0.835070  1
  O  O30  1  0.853247  0.687915  0.335070  1
  O  O31  1  0.165561  0.312074  0.664930  1
  O  O32  1  0.265211  0.503003  0.750000  1
  O  O33  1  0.762054  0.497010  0.250000  1
  O  O34  1  0.517820  0.625155  0.030119  1
  O  O35  1  0.892750  0.374833  0.969865  1
  O  O36  1  0.517820  0.625155  0.469881  1
  O  O37  1  0.892750  0.374833  0.530135  1
  O  O38  1  0.417835  0.693192  0.838700  1
  O  O39  1  0.724625  0.306825  0.161303  1
  O  O40  1  0.417835  0.693192  0.661300  1
  O  O41  1  0.724625  0.306825  0.338697  1
  O  O42  1  0.006413  0.659483  0.000712  1
  O  O43  1  0.346954  0.340519  0.999312  1
  O  O44  1  0.006413  0.659483  0.499288  1
  O  O45  1  0.346954  0.340519  0.500688  1
  O  O46  1  0.169242  0.905145  0.887075  1
  O  O47  1  0.264038  0.094882  0.112903  1
  O  O48  1  0.169242  0.905145  0.612925  1
  O  O49  1  0.264038  0.094882  0.387097  1
  O  O50  1  0.391540  0.113950  0.914384  1
  O  O51  1  0.277453  0.886081  0.085606  1
  O  O52  1  0.391540  0.113950  0.585616  1
  O  O53  1  0.277453  0.886081  0.414394  1
  O  O54  1  0.761303  0.826960  0.031821  1
  O  O55  1  0.934429  0.173028  0.968172  1
  O  O56  1  0.761303  0.826960  0.468179  1
  O  O57  1  0.934429  0.173028  0.531828  1
  O  O58  1  0.650606  0.948642  0.892207  1
  O  O59  1  0.701860  0.051372  0.107807  1
  O  O60  1  0.650606  0.948642  0.607793  1
  O  O61  1  0.701860  0.051372  0.392193  1
  O  O62  1  0.966976  0.646126  0.750000  1
  O  O63  1  0.320798  0.353860  0.250000  1
  O  O64  1  0.403687  0.619703  0.250000  1
  O  O65  1  0.784195  0.380264  0.750000  1
