# generated using pymatgen
data_Dy4InPd3Pt8
_symmetry_space_group_name_H-M   'P 1'
_cell_length_a   4.22019300
_cell_length_b   5.81456042
_cell_length_c   11.61990800
_cell_angle_alpha   87.00588666
_cell_angle_beta   90.00000000
_cell_angle_gamma   90.00000000
_symmetry_Int_Tables_number   1
_chemical_formula_structural   Dy4InPd3Pt8
_chemical_formula_sum   'Dy4 In1 Pd3 Pt8'
_cell_volume   284.74665589
_cell_formula_units_Z   1
loop_
 _symmetry_equiv_pos_site_id
 _symmetry_equiv_pos_as_xyz
  1  'x, y, z'
loop_
 _atom_site_type_symbol
 _atom_site_label
 _atom_site_symmetry_multiplicity
 _atom_site_fract_x
 _atom_site_fract_y
 _atom_site_fract_z
 _atom_site_occupancy
  Dy  Dy0  1  0.500000  0.753379  0.375835  1
  Dy  Dy1  1  0.500000  0.717615  0.861753  1
  Dy  Dy2  1  0.500000  0.280316  0.139317  1
  Dy  Dy3  1  0.500000  0.246669  0.624039  1
  In  In4  1  0.000000  0.001362  0.999027  1
  Pd  Pd5  1  0.500000  0.253193  0.377560  1
  Pd  Pd6  1  0.500000  0.228293  0.881617  1
  Pd  Pd7  1  0.000000  0.000554  0.500213  1
  Pt  Pt8  1  0.000000  0.011817  0.249932  1
  Pt  Pt9  1  0.000000  0.986866  0.750109  1
  Pt  Pt10  1  0.000000  0.498992  0.000626  1
  Pt  Pt11  1  0.000000  0.500674  0.500214  1
  Pt  Pt12  1  0.000000  0.515853  0.250618  1
  Pt  Pt13  1  0.000000  0.483848  0.749398  1
  Pt  Pt14  1  0.500000  0.773311  0.117766  1
  Pt  Pt15  1  0.500000  0.747259  0.621980  1
