# generated using pymatgen
data_La3Tl4Br
_symmetry_space_group_name_H-M   'P 1'
_cell_length_a   8.72532563
_cell_length_b   8.72532589
_cell_length_c   8.72532519
_cell_angle_alpha   118.78847308
_cell_angle_beta   118.78847110
_cell_angle_gamma   92.11155224
_symmetry_Int_Tables_number   1
_chemical_formula_structural   La3Tl4Br
_chemical_formula_sum   'La6 Tl8 Br2'
_cell_volume   477.96042002
_cell_formula_units_Z   2
loop_
 _symmetry_equiv_pos_site_id
 _symmetry_equiv_pos_as_xyz
  1  'x, y, z'
loop_
 _atom_site_type_symbol
 _atom_site_label
 _atom_site_symmetry_multiplicity
 _atom_site_fract_x
 _atom_site_fract_y
 _atom_site_fract_z
 _atom_site_occupancy
  La  La0  1  0.659668  0.159668  0.819336  1
  La  La1  1  0.159668  0.340332  0.500000  1
  La  La2  1  0.840332  0.659668  0.500000  1
  La  La3  1  0.750000  0.750000  0.000000  1
  La  La4  1  0.340332  0.840332  0.180664  1
  La  La5  1  0.250000  0.250000  0.000000  1
  Tl  Tl6  1  0.964330  0.464330  0.791182  1
  Tl  Tl7  1  0.826851  0.035670  0.500000  1
  Tl  Tl8  1  0.326851  0.826851  0.791182  1
  Tl  Tl9  1  0.464330  0.673149  0.500000  1
  Tl  Tl10  1  0.535670  0.326851  0.500000  1
  Tl  Tl11  1  0.035670  0.535670  0.208818  1
  Tl  Tl12  1  0.173149  0.964330  0.500000  1
  Tl  Tl13  1  0.673149  0.173149  0.208818  1
  Br  Br14  1  0.500000  0.500000  0.000000  1
  Br  Br15  1  0.000000  0.000000  0.000000  1
