# generated using pymatgen
data_Ti5Nb2Co8Si14Mo
_symmetry_space_group_name_H-M   'P 1'
_cell_length_a   9.19013923
_cell_length_b   9.19014352
_cell_length_c   9.19415167
_cell_angle_alpha   94.17256007
_cell_angle_beta   94.21017936
_cell_angle_gamma   148.62587594
_symmetry_Int_Tables_number   1
_chemical_formula_structural   Ti5Nb2Co8Si14Mo
_chemical_formula_sum   'Ti5 Nb2 Co8 Si14 Mo1'
_cell_volume   389.22793568
_cell_formula_units_Z   1
loop_
 _symmetry_equiv_pos_site_id
 _symmetry_equiv_pos_as_xyz
  1  'x, y, z'
loop_
 _atom_site_type_symbol
 _atom_site_label
 _atom_site_symmetry_multiplicity
 _atom_site_fract_x
 _atom_site_fract_y
 _atom_site_fract_z
 _atom_site_occupancy
  Ti  Ti0  1  0.134506  0.864248  0.998763  1
  Ti  Ti1  1  0.500268  0.691689  0.191925  1
  Ti  Ti2  1  0.500088  0.308979  0.809096  1
  Ti  Ti3  1  0.308625  0.500275  0.808928  1
  Ti  Ti4  1  0.691870  0.500867  0.192690  1
  Nb  Nb5  1  0.867750  0.866850  0.734543  1
  Nb  Nb6  1  0.865454  0.133806  0.999239  1
  Co  Co7  1  0.399255  0.899773  0.798739  1
  Co  Co8  1  0.100518  0.601351  0.201810  1
  Co  Co9  1  0.100763  0.899604  0.499208  1
  Co  Co10  1  0.398700  0.599979  0.499335  1
  Co  Co11  1  0.599611  0.398422  0.499219  1
  Co  Co12  1  0.899394  0.100590  0.499335  1
  Co  Co13  1  0.898941  0.399457  0.798767  1
  Co  Co14  1  0.600515  0.101330  0.201803  1
  Si  Si15  1  0.293202  0.293262  0.586245  1
  Si  Si16  1  0.706097  0.706106  0.412471  1
  Si  Si17  1  0.705646  0.294536  0.000225  1
  Si  Si18  1  0.294049  0.706130  0.000137  1
  Si  Si19  1  0.001605  0.294141  0.295754  1
  Si  Si20  1  0.000075  0.704211  0.704422  1
  Si  Si21  1  0.703132  0.999595  0.702715  1
  Si  Si22  1  0.293212  0.001022  0.294065  1
  Si  Si23  1  0.499899  0.905717  0.405512  1
  Si  Si24  1  0.499889  0.094385  0.594159  1
  Si  Si25  1  0.094389  0.500213  0.594721  1
  Si  Si26  1  0.905579  0.500284  0.405992  1
  Si  Si27  1  0.751188  0.750137  0.002766  1
  Si  Si28  1  0.252627  0.251577  0.002760  1
  Mo  Mo29  1  0.133153  0.131463  0.264652  1
