# generated using pymatgen
data_YbHo3MgAl17Pd6
_symmetry_space_group_name_H-M   'P 1'
_cell_length_a   7.65978358
_cell_length_b   7.66985444
_cell_length_c   9.49109128
_cell_angle_alpha   90.17043643
_cell_angle_beta   89.87506852
_cell_angle_gamma   119.51855716
_symmetry_Int_Tables_number   1
_chemical_formula_structural   YbHo3MgAl17Pd6
_chemical_formula_sum   'Yb1 Ho3 Mg1 Al17 Pd6'
_cell_volume   485.21572544
_cell_formula_units_Z   1
loop_
 _symmetry_equiv_pos_site_id
 _symmetry_equiv_pos_as_xyz
  1  'x, y, z'
loop_
 _atom_site_type_symbol
 _atom_site_label
 _atom_site_symmetry_multiplicity
 _atom_site_fract_x
 _atom_site_fract_y
 _atom_site_fract_z
 _atom_site_occupancy
  Yb  Yb0  1  0.996517  0.675854  0.251074  1
  Ho  Ho1  1  0.004856  0.331678  0.747720  1
  Ho  Ho2  1  0.665578  0.988913  0.252052  1
  Ho  Ho3  1  0.329531  0.004127  0.749770  1
  Mg  Mg4  1  0.996332  0.336634  0.079983  1
  Al  Al5  1  0.130778  0.131448  0.250802  1
  Al  Al6  1  0.870704  0.870780  0.751230  1
  Al  Al7  1  0.999835  0.663573  0.922596  1
  Al  Al8  1  0.999257  0.664797  0.577667  1
  Al  Al9  1  0.335500  0.001083  0.424478  1
  Al  Al10  1  0.000516  0.334462  0.419978  1
  Al  Al11  1  0.665501  0.999878  0.577743  1
  Al  Al12  1  0.667847  0.002768  0.923847  1
  Al  Al13  1  0.335324  0.000835  0.075068  1
  Al  Al14  1  0.332462  0.332478  0.558447  1
  Al  Al15  1  0.666273  0.665858  0.444605  1
  Al  Al16  1  0.666661  0.666201  0.053793  1
  Al  Al17  1  0.329740  0.332408  0.940957  1
  Al  Al18  1  0.345990  0.548371  0.250388  1
  Al  Al19  1  0.659305  0.452090  0.749303  1
  Al  Al20  1  0.549097  0.334945  0.249252  1
  Al  Al21  1  0.453907  0.662304  0.750673  1
  Pd  Pd22  1  0.661237  0.326170  0.995603  1
  Pd  Pd23  1  0.334791  0.679090  0.998758  1
  Pd  Pd24  1  0.328499  0.672498  0.501969  1
  Pd  Pd25  1  0.671779  0.327588  0.500943  1
  Pd  Pd26  1  0.001564  0.994136  0.999206  1
  Pd  Pd27  1  0.000616  0.999037  0.502097  1
