# generated using pymatgen
data_Sc12Ga(RuBr8)2
_symmetry_space_group_name_H-M   'P 1'
_cell_length_a   9.08471055
_cell_length_b   11.10406213
_cell_length_c   11.71803822
_cell_angle_alpha   117.03564180
_cell_angle_beta   101.94646654
_cell_angle_gamma   101.52195123
_symmetry_Int_Tables_number   1
_chemical_formula_structural   Sc12Ga(RuBr8)2
_chemical_formula_sum   'Sc12 Ga1 Ru2 Br16'
_cell_volume   969.78066920
_cell_formula_units_Z   1
loop_
 _symmetry_equiv_pos_site_id
 _symmetry_equiv_pos_as_xyz
  1  'x, y, z'
loop_
 _atom_site_type_symbol
 _atom_site_label
 _atom_site_symmetry_multiplicity
 _atom_site_fract_x
 _atom_site_fract_y
 _atom_site_fract_z
 _atom_site_occupancy
  Sc  Sc0  1  0.087702  0.252786  0.347740  1
  Sc  Sc1  1  0.912298  0.747214  0.652260  1
  Sc  Sc2  1  0.769795  0.538222  0.317299  1
  Sc  Sc3  1  0.230205  0.461778  0.682701  1
  Sc  Sc4  1  0.291227  0.747962  0.652194  1
  Sc  Sc5  1  0.708773  0.252038  0.347806  1
  Sc  Sc6  1  0.148314  0.537334  0.317768  1
  Sc  Sc7  1  0.851686  0.462666  0.682232  1
  Sc  Sc8  1  0.401851  0.352306  0.264456  1
  Sc  Sc9  1  0.598149  0.647694  0.735544  1
  Sc  Sc10  1  0.456346  0.299762  0.521186  1
  Sc  Sc11  1  0.543654  0.700238  0.478814  1
  Ga  Ga12  1  0.000000  0.500000  0.500000  1
  Ru  Ru13  1  0.338634  0.499910  0.499182  1
  Ru  Ru14  1  0.661367  0.500090  0.500818  1
  Br  Br15  1  0.402292  0.744512  0.889008  1
  Br  Br16  1  0.597708  0.255488  0.110992  1
  Br  Br17  1  0.189672  0.965347  0.783990  1
  Br  Br18  1  0.810328  0.034653  0.216010  1
  Br  Br19  1  0.337243  0.088207  0.246668  1
  Br  Br20  1  0.662757  0.911793  0.753332  1
  Br  Br21  1  0.554410  0.437254  0.803519  1
  Br  Br22  1  0.445590  0.562746  0.196481  1
  Br  Br23  1  0.313323  0.830245  0.461810  1
  Br  Br24  1  0.686677  0.169755  0.538190  1
  Br  Br25  1  0.168828  0.167100  0.532592  1
  Br  Br26  1  0.831172  0.832900  0.467408  1
  Br  Br27  1  0.926421  0.574814  0.160429  1
  Br  Br28  1  0.073579  0.425186  0.839571  1
  Br  Br29  1  0.921786  0.743455  0.889589  1
  Br  Br30  1  0.078214  0.256545  0.110411  1
