# generated using pymatgen
data_Ba6Tb2(IrO6)3
_symmetry_space_group_name_H-M   'P 1'
_cell_length_a   10.37649903
_cell_length_b   10.37649888
_cell_length_c   10.37649941
_cell_angle_alpha   146.46114860
_cell_angle_beta   131.95807256
_cell_angle_gamma   59.86109694
_symmetry_Int_Tables_number   1
_chemical_formula_structural   Ba6Tb2(IrO6)3
_chemical_formula_sum   'Ba6 Tb2 Ir3 O18'
_cell_volume   454.87703304
_cell_formula_units_Z   1
loop_
 _symmetry_equiv_pos_site_id
 _symmetry_equiv_pos_as_xyz
  1  'x, y, z'
loop_
 _atom_site_type_symbol
 _atom_site_label
 _atom_site_symmetry_multiplicity
 _atom_site_fract_x
 _atom_site_fract_y
 _atom_site_fract_z
 _atom_site_occupancy
  Ba  Ba0  1  0.774371  0.500000  0.274371  1
  Ba  Ba1  1  0.392163  0.155901  0.236262  1
  Ba  Ba2  1  0.080361  0.844099  0.236262  1
  Ba  Ba3  1  0.225629  0.500000  0.725629  1
  Ba  Ba4  1  0.919639  0.155901  0.763738  1
  Ba  Ba5  1  0.607837  0.844099  0.763738  1
  Tb  Tb6  1  0.665722  0.665722  0.000000  1
  Tb  Tb7  1  0.334278  0.334278  0.000000  1
  Ir  Ir8  1  0.500000  0.000000  0.500000  1
  Ir  Ir9  1  0.169497  0.669497  0.500000  1
  Ir  Ir10  1  0.830503  0.330503  0.500000  1
  O  O11  1  0.725823  0.000000  0.725823  1
  O  O12  1  0.402915  0.668863  0.734053  1
  O  O13  1  0.065190  0.331137  0.734053  1
  O  O14  1  0.577911  0.843844  0.265931  1
  O  O15  1  0.246716  0.512813  0.266096  1
  O  O16  1  0.906203  0.180783  0.274580  1
  O  O17  1  0.422089  0.688021  0.265931  1
  O  O18  1  0.093797  0.368377  0.274580  1
  O  O19  1  0.753284  0.019380  0.266096  1
  O  O20  1  0.274177  0.000000  0.274177  1
  O  O21  1  0.934810  0.668863  0.265947  1
  O  O22  1  0.597085  0.331137  0.265947  1
  O  O23  1  0.422089  0.156156  0.734069  1
  O  O24  1  0.093797  0.819217  0.725420  1
  O  O25  1  0.753284  0.487187  0.733904  1
  O  O26  1  0.577911  0.311979  0.734069  1
  O  O27  1  0.246716  0.980620  0.733904  1
  O  O28  1  0.906203  0.631624  0.725420  1
