# generated using pymatgen
data_LiLa(AuO2)4
_symmetry_space_group_name_H-M   'P 1'
_cell_length_a   6.70233502
_cell_length_b   6.70233376
_cell_length_c   6.70233400
_cell_angle_alpha   125.25215970
_cell_angle_beta   125.25215205
_cell_angle_gamma   81.12078367
_symmetry_Int_Tables_number   1
_chemical_formula_structural   LiLa(AuO2)4
_chemical_formula_sum   'Li1 La1 Au4 O8'
_cell_volume   193.42922533
_cell_formula_units_Z   1
loop_
 _symmetry_equiv_pos_site_id
 _symmetry_equiv_pos_as_xyz
  1  'x, y, z'
loop_
 _atom_site_type_symbol
 _atom_site_label
 _atom_site_symmetry_multiplicity
 _atom_site_fract_x
 _atom_site_fract_y
 _atom_site_fract_z
 _atom_site_occupancy
  Li  Li0  1  0.750000  0.250000  0.500000  1
  La  La1  1  0.000000  0.000000  0.000000  1
  Au  Au2  1  0.378558  0.629797  0.756113  1
  Au  Au3  1  0.370203  0.126316  0.748762  1
  Au  Au4  1  0.873684  0.622445  0.243887  1
  Au  Au5  1  0.377555  0.621442  0.251238  1
  O  O6  1  0.044335  0.404970  0.048624  1
  O  O7  1  0.738718  0.292779  0.129792  1
  O  O8  1  0.162987  0.608925  0.870208  1
  O  O9  1  0.356345  0.995711  0.951376  1
  O  O10  1  0.707221  0.837013  0.445938  1
  O  O11  1  0.004289  0.955665  0.360635  1
  O  O12  1  0.391075  0.261282  0.554062  1
  O  O13  1  0.595030  0.643655  0.639365  1
