# generated using pymatgen
data_Nd6ErLuAu4
_symmetry_space_group_name_H-M   'P 1'
_cell_length_a   5.01542500
_cell_length_b   7.34537336
_cell_length_c   9.15758273
_cell_angle_alpha   89.98184729
_cell_angle_beta   90.00000000
_cell_angle_gamma   90.00000000
_symmetry_Int_Tables_number   1
_chemical_formula_structural   Nd6ErLuAu4
_chemical_formula_sum   'Nd6 Er1 Lu1 Au4'
_cell_volume   337.36688006
_cell_formula_units_Z   1
loop_
 _symmetry_equiv_pos_site_id
 _symmetry_equiv_pos_as_xyz
  1  'x, y, z'
loop_
 _atom_site_type_symbol
 _atom_site_label
 _atom_site_symmetry_multiplicity
 _atom_site_fract_x
 _atom_site_fract_y
 _atom_site_fract_z
 _atom_site_occupancy
  Nd  Nd0  1  0.250000  0.347464  0.587513  1
  Nd  Nd1  1  0.750000  0.653056  0.412049  1
  Nd  Nd2  1  0.250000  0.487447  0.177194  1
  Nd  Nd3  1  0.250000  0.993001  0.323111  1
  Nd  Nd4  1  0.750000  0.509764  0.823920  1
  Nd  Nd5  1  0.750000  0.007657  0.677145  1
  Er  Er6  1  0.250000  0.850840  0.923658  1
  Lu  Lu7  1  0.750000  0.148769  0.076508  1
  Au  Au8  1  0.250000  0.241017  0.914760  1
  Au  Au9  1  0.250000  0.755605  0.609402  1
  Au  Au10  1  0.750000  0.761194  0.086786  1
  Au  Au11  1  0.750000  0.244183  0.387952  1
