# generated using pymatgen
data_K2Pu3(IO5)4
_symmetry_space_group_name_H-M   'P 1'
_cell_length_a   7.01331189
_cell_length_b   8.06913890
_cell_length_c   9.28503047
_cell_angle_alpha   92.11595436
_cell_angle_beta   105.86596976
_cell_angle_gamma   91.10067385
_symmetry_Int_Tables_number   1
_chemical_formula_structural   K2Pu3(IO5)4
_chemical_formula_sum   'K2 Pu3 I4 O20'
_cell_volume   504.85565812
_cell_formula_units_Z   1
loop_
 _symmetry_equiv_pos_site_id
 _symmetry_equiv_pos_as_xyz
  1  'x, y, z'
loop_
 _atom_site_type_symbol
 _atom_site_label
 _atom_site_symmetry_multiplicity
 _atom_site_fract_x
 _atom_site_fract_y
 _atom_site_fract_z
 _atom_site_occupancy
  K  K0  1  0.755041  0.400596  0.164290  1
  K  K1  1  0.244960  0.599382  0.835721  1
  Pu  Pu2  1  0.999994  0.999997  0.999979  1
  Pu  Pu3  1  0.549728  0.919096  0.187467  1
  Pu  Pu4  1  0.450259  0.080908  0.812540  1
  I  I5  1  0.126281  0.795986  0.373784  1
  I  I6  1  0.297215  0.348859  0.443968  1
  I  I7  1  0.702801  0.651120  0.556052  1
  I  I8  1  0.873713  0.204025  0.626217  1
  O  O9  1  0.693826  0.008480  0.014789  1
  O  O10  1  0.041961  0.211706  0.072555  1
  O  O11  1  0.528540  0.708314  0.110606  1
  O  O12  1  0.223264  0.911680  0.233900  1
  O  O13  1  0.091252  0.594700  0.276183  1
  O  O14  1  0.571919  0.128016  0.266715  1
  O  O15  1  0.887211  0.893766  0.296098  1
  O  O16  1  0.648312  0.472609  0.422269  1
  O  O17  1  0.041672  0.287643  0.442669  1
  O  O18  1  0.560326  0.809286  0.435944  1
  O  O19  1  0.439692  0.190668  0.564046  1
  O  O20  1  0.958332  0.712330  0.557322  1
  O  O21  1  0.351714  0.527366  0.577767  1
  O  O22  1  0.112795  0.106200  0.703883  1
  O  O23  1  0.428068  0.872097  0.733341  1
  O  O24  1  0.908768  0.405309  0.723838  1
  O  O25  1  0.776700  0.088322  0.766091  1
  O  O26  1  0.471445  0.291615  0.889349  1
  O  O27  1  0.958044  0.788304  0.927429  1
  O  O28  1  0.306164  0.991619  0.985184  1
