# generated using pymatgen
data_TiZnCo5SiB2
_symmetry_space_group_name_H-M   'P 1'
_cell_length_a   8.47185600
_cell_length_b   8.44715400
_cell_length_c   2.86947200
_cell_angle_alpha   90.00000000
_cell_angle_beta   90.00000000
_cell_angle_gamma   90.00000000
_symmetry_Int_Tables_number   1
_chemical_formula_structural   TiZnCo5SiB2
_chemical_formula_sum   'Ti2 Zn2 Co10 Si2 B4'
_cell_volume   205.34823219
_cell_formula_units_Z   2
loop_
 _symmetry_equiv_pos_site_id
 _symmetry_equiv_pos_as_xyz
  1  'x, y, z'
loop_
 _atom_site_type_symbol
 _atom_site_label
 _atom_site_symmetry_multiplicity
 _atom_site_fract_x
 _atom_site_fract_y
 _atom_site_fract_z
 _atom_site_occupancy
  Ti  Ti0  1  0.674226  0.829606  0.000000  1
  Ti  Ti1  1  0.174226  0.670394  0.000000  1
  Zn  Zn2  1  0.823802  0.322193  0.000000  1
  Zn  Zn3  1  0.323802  0.177807  0.000000  1
  Co  Co4  1  0.499722  0.001442  0.500000  1
  Co  Co5  1  0.999722  0.498558  0.500000  1
  Co  Co6  1  0.070827  0.210372  0.500000  1
  Co  Co7  1  0.213152  0.923663  0.500000  1
  Co  Co8  1  0.785768  0.065343  0.500000  1
  Co  Co9  1  0.930221  0.784623  0.500000  1
  Co  Co10  1  0.430221  0.715377  0.500000  1
  Co  Co11  1  0.570827  0.289628  0.500000  1
  Co  Co12  1  0.713152  0.576337  0.500000  1
  Co  Co13  1  0.285768  0.434657  0.500000  1
  Si  Si14  1  0.999000  0.995307  0.000000  1
  Si  Si15  1  0.499000  0.504693  0.000000  1
  B  B16  1  0.624724  0.125504  0.000000  1
  B  B17  1  0.124724  0.374496  0.000000  1
  B  B18  1  0.878558  0.622443  0.000000  1
  B  B19  1  0.378558  0.877557  0.000000  1
