# generated using pymatgen
data_Ce2Y(RhPb)3
_symmetry_space_group_name_H-M   'P 1'
_cell_length_a   7.76701666
_cell_length_b   7.76701607
_cell_length_c   3.95297600
_cell_angle_alpha   90.00000000
_cell_angle_beta   90.00000000
_cell_angle_gamma   120.58048243
_symmetry_Int_Tables_number   1
_chemical_formula_structural   Ce2Y(RhPb)3
_chemical_formula_sum   'Ce2 Y1 Rh3 Pb3'
_cell_volume   205.30195482
_cell_formula_units_Z   1
loop_
 _symmetry_equiv_pos_site_id
 _symmetry_equiv_pos_as_xyz
  1  'x, y, z'
loop_
 _atom_site_type_symbol
 _atom_site_label
 _atom_site_symmetry_multiplicity
 _atom_site_fract_x
 _atom_site_fract_y
 _atom_site_fract_z
 _atom_site_occupancy
  Ce  Ce0  1  0.589323  0.999557  0.500000  1
  Ce  Ce1  1  0.999557  0.589323  0.500000  1
  Y  Y2  1  0.404412  0.404412  0.500000  1
  Rh  Rh3  1  0.997021  0.997021  0.500000  1
  Rh  Rh4  1  0.677794  0.331300  0.000000  1
  Rh  Rh5  1  0.331300  0.677794  0.000000  1
  Pb  Pb6  1  0.732989  0.732989  0.000000  1
  Pb  Pb7  1  0.261191  0.006412  0.000000  1
  Pb  Pb8  1  0.006412  0.261191  0.000000  1
