# generated using pymatgen
data_Sc10Co5Si20Ni3
_symmetry_space_group_name_H-M   'P 1'
_cell_length_a   12.01682523
_cell_length_b   11.99480323
_cell_length_c   3.94580400
_cell_angle_alpha   90.00000000
_cell_angle_beta   90.00000000
_cell_angle_gamma   89.97751758
_symmetry_Int_Tables_number   1
_chemical_formula_structural   Sc10Co5Si20Ni3
_chemical_formula_sum   'Sc10 Co5 Si20 Ni3'
_cell_volume   568.74599080
_cell_formula_units_Z   1
loop_
 _symmetry_equiv_pos_site_id
 _symmetry_equiv_pos_as_xyz
  1  'x, y, z'
loop_
 _atom_site_type_symbol
 _atom_site_label
 _atom_site_symmetry_multiplicity
 _atom_site_fract_x
 _atom_site_fract_y
 _atom_site_fract_z
 _atom_site_occupancy
  Sc  Sc0  1  0.000264  0.999307  0.000000  1
  Sc  Sc1  1  0.500200  0.502529  0.000000  1
  Sc  Sc2  1  0.676692  0.178099  0.500000  1
  Sc  Sc3  1  0.177304  0.322197  0.500000  1
  Sc  Sc4  1  0.823263  0.676959  0.500000  1
  Sc  Sc5  1  0.322598  0.823604  0.500000  1
  Sc  Sc6  1  0.890626  0.388399  0.500000  1
  Sc  Sc7  1  0.388635  0.109836  0.500000  1
  Sc  Sc8  1  0.610450  0.889734  0.500000  1
  Sc  Sc9  1  0.110235  0.611041  0.500000  1
  Co  Co10  1  0.475211  0.744735  0.000000  1
  Co  Co11  1  0.974023  0.754814  0.000000  1
  Co  Co12  1  0.026764  0.244189  0.000000  1
  Co  Co13  1  0.754700  0.026051  0.000000  1
  Co  Co14  1  0.245263  0.973401  0.000000  1
  Si  Si15  1  0.569036  0.066229  0.000000  1
  Si  Si16  1  0.066300  0.430051  0.000000  1
  Si  Si17  1  0.933994  0.569240  0.000000  1
  Si  Si18  1  0.431283  0.931092  0.000000  1
  Si  Si19  1  0.197837  0.153837  0.000000  1
  Si  Si20  1  0.154946  0.800986  0.000000  1
  Si  Si21  1  0.845873  0.197590  0.000000  1
  Si  Si22  1  0.802436  0.844937  0.000000  1
  Si  Si23  1  0.301502  0.658156  0.000000  1
  Si  Si24  1  0.702718  0.342459  0.000000  1
  Si  Si25  1  0.656529  0.703201  0.000000  1
  Si  Si26  1  0.342098  0.298074  0.000000  1
  Si  Si27  1  0.002909  0.163566  0.500000  1
  Si  Si28  1  0.164538  0.999573  0.500000  1
  Si  Si29  1  0.836047  0.003405  0.500000  1
  Si  Si30  1  0.997371  0.835220  0.500000  1
  Si  Si31  1  0.497586  0.663725  0.500000  1
  Si  Si32  1  0.493756  0.338622  0.500000  1
  Si  Si33  1  0.662149  0.497700  0.500000  1
  Si  Si34  1  0.338466  0.502168  0.500000  1
  Ni  Ni35  1  0.526109  0.254664  0.000000  1
  Ni  Ni36  1  0.254733  0.474219  0.000000  1
  Ni  Ni37  1  0.745553  0.526388  0.000000  1
