# generated using pymatgen
data_Dy4Y5ScCd3Ru
_symmetry_space_group_name_H-M   'P 1'
_cell_length_a   9.55595375
_cell_length_b   9.55494826
_cell_length_c   9.79290300
_cell_angle_alpha   89.99999794
_cell_angle_beta   90.04480324
_cell_angle_gamma   119.99651900
_symmetry_Int_Tables_number   1
_chemical_formula_structural   Dy4Y5ScCd3Ru
_chemical_formula_sum   'Dy8 Y10 Sc2 Cd6 Ru2'
_cell_volume   774.38961238
_cell_formula_units_Z   2
loop_
 _symmetry_equiv_pos_site_id
 _symmetry_equiv_pos_as_xyz
  1  'x, y, z'
loop_
 _atom_site_type_symbol
 _atom_site_label
 _atom_site_symmetry_multiplicity
 _atom_site_fract_x
 _atom_site_fract_y
 _atom_site_fract_z
 _atom_site_occupancy
  Dy  Dy0  1  0.208465  0.791480  0.440649  1
  Dy  Dy1  1  0.208465  0.416985  0.440649  1
  Dy  Dy2  1  0.583041  0.791520  0.440692  1
  Dy  Dy3  1  0.791522  0.208405  0.559365  1
  Dy  Dy4  1  0.791522  0.583116  0.559365  1
  Dy  Dy5  1  0.416991  0.208496  0.559276  1
  Dy  Dy6  1  0.791525  0.208563  0.940452  1
  Dy  Dy7  1  0.791525  0.582963  0.940452  1
  Y  Y8  1  0.416277  0.208138  0.941047  1
  Y  Y9  1  0.208019  0.791734  0.059047  1
  Y  Y10  1  0.208019  0.416285  0.059047  1
  Y  Y11  1  0.583717  0.791859  0.058996  1
  Y  Y12  1  0.541024  0.459054  0.250320  1
  Y  Y13  1  0.541024  0.081970  0.250320  1
  Y  Y14  1  0.917933  0.458966  0.250176  1
  Y  Y15  1  0.459148  0.540974  0.749663  1
  Y  Y16  1  0.459148  0.918173  0.749663  1
  Y  Y17  1  0.081699  0.540850  0.749739  1
  Sc  Sc18  1  0.000014  0.000007  0.500174  1
  Sc  Sc19  1  0.999830  0.999915  0.999924  1
  Cd  Cd20  1  0.889194  0.110845  0.249937  1
  Cd  Cd21  1  0.889194  0.778352  0.249937  1
  Cd  Cd22  1  0.221699  0.110850  0.249858  1
  Cd  Cd23  1  0.110830  0.889225  0.750095  1
  Cd  Cd24  1  0.110830  0.221603  0.750095  1
  Cd  Cd25  1  0.778401  0.889199  0.750050  1
  Ru  Ru26  1  0.333387  0.666694  0.251726  1
  Ru  Ru27  1  0.667556  0.333778  0.749284  1
