# generated using pymatgen
data_La(MoC)4
_symmetry_space_group_name_H-M   'P 1'
_cell_length_a   6.23336058
_cell_length_b   6.23336175
_cell_length_c   6.23336150
_cell_angle_alpha   94.16311157
_cell_angle_beta   94.16312890
_cell_angle_gamma   148.73849478
_symmetry_Int_Tables_number   1
_chemical_formula_structural   La(MoC)4
_chemical_formula_sum   'La1 Mo4 C4'
_cell_volume   121.03823098
_cell_formula_units_Z   1
loop_
 _symmetry_equiv_pos_site_id
 _symmetry_equiv_pos_as_xyz
  1  'x, y, z'
loop_
 _atom_site_type_symbol
 _atom_site_label
 _atom_site_symmetry_multiplicity
 _atom_site_fract_x
 _atom_site_fract_y
 _atom_site_fract_z
 _atom_site_occupancy
  La  La0  1  0.000000  0.000000  0.000000  1
  Mo  Mo1  1  0.631328  0.818820  0.450148  1
  Mo  Mo2  1  0.368672  0.181180  0.549852  1
  Mo  Mo3  1  0.818820  0.368672  0.187491  1
  Mo  Mo4  1  0.181180  0.631328  0.812509  1
  C  C5  1  0.258808  0.399012  0.657820  1
  C  C6  1  0.741192  0.600988  0.342180  1
  C  C7  1  0.399012  0.741192  0.140203  1
  C  C8  1  0.600988  0.258808  0.859797  1
