# generated using pymatgen
data_Zr6CoTc3Ru2
_symmetry_space_group_name_H-M   'P 1'
_cell_length_a   4.60809900
_cell_length_b   6.54021400
_cell_length_c   13.94658700
_cell_angle_alpha   90.00000000
_cell_angle_beta   90.00000000
_cell_angle_gamma   90.00000000
_symmetry_Int_Tables_number   1
_chemical_formula_structural   Zr6CoTc3Ru2
_chemical_formula_sum   'Zr12 Co2 Tc6 Ru4'
_cell_volume   420.32159179
_cell_formula_units_Z   2
loop_
 _symmetry_equiv_pos_site_id
 _symmetry_equiv_pos_as_xyz
  1  'x, y, z'
loop_
 _atom_site_type_symbol
 _atom_site_label
 _atom_site_symmetry_multiplicity
 _atom_site_fract_x
 _atom_site_fract_y
 _atom_site_fract_z
 _atom_site_occupancy
  Zr  Zr0  1  0.499994  0.250132  0.999127  1
  Zr  Zr1  1  0.499994  0.749868  0.999127  1
  Zr  Zr2  1  0.999911  0.249976  0.166278  1
  Zr  Zr3  1  0.999911  0.750024  0.166278  1
  Zr  Zr4  1  0.499913  0.250024  0.333722  1
  Zr  Zr5  1  0.499913  0.749976  0.333722  1
  Zr  Zr6  1  0.999994  0.249868  0.500873  1
  Zr  Zr7  1  0.999994  0.750132  0.500873  1
  Zr  Zr8  1  0.500088  0.251178  0.667166  1
  Zr  Zr9  1  0.500088  0.748822  0.667166  1
  Zr  Zr10  1  0.000087  0.248822  0.832834  1
  Zr  Zr11  1  0.000087  0.751178  0.832834  1
  Co  Co12  1  0.000128  0.500000  0.667293  1
  Co  Co13  1  0.500128  0.000000  0.832707  1
  Tc  Tc14  1  0.999989  0.000000  0.997403  1
  Tc  Tc15  1  0.499888  0.500000  0.165886  1
  Tc  Tc16  1  0.999889  0.000000  0.334114  1
  Tc  Tc17  1  0.499989  0.500000  0.502597  1
  Tc  Tc18  1  0.000111  0.000000  0.668744  1
  Tc  Tc19  1  0.500111  0.500000  0.831256  1
  Ru  Ru20  1  0.999992  0.500000  0.998247  1
  Ru  Ru21  1  0.499902  0.000000  0.165868  1
  Ru  Ru22  1  0.999902  0.500000  0.334132  1
  Ru  Ru23  1  0.499992  0.000000  0.501753  1
