# generated using pymatgen
data_LiCl13
_symmetry_space_group_name_H-M   'P 1'
_cell_length_a   8.89310366
_cell_length_b   8.89310381
_cell_length_c   13.78461135
_cell_angle_alpha   74.50084187
_cell_angle_beta   74.50083611
_cell_angle_gamma   89.98174014
_symmetry_Int_Tables_number   1
_chemical_formula_structural   LiCl13
_chemical_formula_sum   'Li2 Cl26'
_cell_volume   1009.36761215
_cell_formula_units_Z   2
loop_
 _symmetry_equiv_pos_site_id
 _symmetry_equiv_pos_as_xyz
  1  'x, y, z'
loop_
 _atom_site_type_symbol
 _atom_site_label
 _atom_site_symmetry_multiplicity
 _atom_site_fract_x
 _atom_site_fract_y
 _atom_site_fract_z
 _atom_site_occupancy
  Li  Li0  1  0.804308  0.195692  0.000000  1
  Li  Li1  1  0.195692  0.804308  0.000000  1
  Cl  Cl2  1  0.550661  0.206790  0.337798  1
  Cl  Cl3  1  0.793210  0.449339  0.662202  1
  Cl  Cl4  1  0.206790  0.550661  0.337798  1
  Cl  Cl5  1  0.449339  0.793210  0.662202  1
  Cl  Cl6  1  0.159159  0.159159  0.211997  1
  Cl  Cl7  1  0.840841  0.840841  0.788003  1
  Cl  Cl8  1  0.340587  0.734566  0.231122  1
  Cl  Cl9  1  0.978745  0.978745  0.829122  1
  Cl  Cl10  1  0.021255  0.021255  0.170878  1
  Cl  Cl11  1  0.181953  0.181953  0.888383  1
  Cl  Cl12  1  0.368674  0.002007  0.887663  1
  Cl  Cl13  1  0.928148  0.769097  0.465186  1
  Cl  Cl14  1  0.659413  0.265434  0.768878  1
  Cl  Cl15  1  0.434686  0.434686  0.569194  1
  Cl  Cl16  1  0.230903  0.071852  0.534814  1
  Cl  Cl17  1  0.631326  0.997993  0.112337  1
  Cl  Cl18  1  0.265434  0.659413  0.768878  1
  Cl  Cl19  1  0.734566  0.340587  0.231122  1
  Cl  Cl20  1  0.585705  0.585705  0.958402  1
  Cl  Cl21  1  0.002007  0.368674  0.887663  1
  Cl  Cl22  1  0.818047  0.818047  0.111617  1
  Cl  Cl23  1  0.769096  0.928148  0.465186  1
  Cl  Cl24  1  0.414295  0.414295  0.041598  1
  Cl  Cl25  1  0.997993  0.631326  0.112337  1
  Cl  Cl26  1  0.565314  0.565314  0.430806  1
  Cl  Cl27  1  0.071852  0.230904  0.534814  1
