# generated using pymatgen
data_Zr6Co13B4Os
_symmetry_space_group_name_H-M   'P 1'
_cell_length_a   4.93685603
_cell_length_b   4.93767319
_cell_length_c   13.96626104
_cell_angle_alpha   90.00851327
_cell_angle_beta   89.99703717
_cell_angle_gamma   120.01422410
_symmetry_Int_Tables_number   1
_chemical_formula_structural   Zr6Co13B4Os
_chemical_formula_sum   'Zr6 Co13 B4 Os1'
_cell_volume   294.79581934
_cell_formula_units_Z   1
loop_
 _symmetry_equiv_pos_site_id
 _symmetry_equiv_pos_as_xyz
  1  'x, y, z'
loop_
 _atom_site_type_symbol
 _atom_site_label
 _atom_site_symmetry_multiplicity
 _atom_site_fract_x
 _atom_site_fract_y
 _atom_site_fract_z
 _atom_site_occupancy
  Zr  Zr0  1  0.333351  0.666746  0.250641  1
  Zr  Zr1  1  0.666649  0.333254  0.749359  1
  Zr  Zr2  1  0.333379  0.666751  0.036699  1
  Zr  Zr3  1  0.666620  0.333286  0.536905  1
  Zr  Zr4  1  0.666621  0.333249  0.963301  1
  Zr  Zr5  1  0.333380  0.666714  0.463095  1
  Co  Co6  1  0.000000  0.000000  0.500000  1
  Co  Co7  1  0.833378  0.666793  0.148974  1
  Co  Co8  1  0.165633  0.834247  0.643192  1
  Co  Co9  1  0.668609  0.834237  0.643228  1
  Co  Co10  1  0.333331  0.166767  0.148957  1
  Co  Co11  1  0.833418  0.166746  0.148972  1
  Co  Co12  1  0.166622  0.333207  0.851026  1
  Co  Co13  1  0.166582  0.833254  0.851028  1
  Co  Co14  1  0.165622  0.331222  0.643272  1
  Co  Co15  1  0.666669  0.833233  0.851043  1
  Co  Co16  1  0.331391  0.165763  0.356772  1
  Co  Co17  1  0.834378  0.668778  0.356728  1
  Co  Co18  1  0.834367  0.165753  0.356808  1
  B  B19  1  0.000132  0.000164  0.252638  1
  B  B20  1  0.999868  0.999836  0.747362  1
  B  B21  1  0.333422  0.666694  0.746024  1
  B  B22  1  0.666578  0.333306  0.253976  1
  Os  Os23  1  0.000000  0.000000  0.000000  1
