# generated using pymatgen
data_LiIrPtS4
_symmetry_space_group_name_H-M   'P 1'
_cell_length_a   7.20618275
_cell_length_b   7.20576607
_cell_length_c   7.19726407
_cell_angle_alpha   60.05192707
_cell_angle_beta   60.04579993
_cell_angle_gamma   60.21202349
_symmetry_Int_Tables_number   1
_chemical_formula_structural   LiIrPtS4
_chemical_formula_sum   'Li2 Ir2 Pt2 S8'
_cell_volume   264.88070924
_cell_formula_units_Z   2
loop_
 _symmetry_equiv_pos_site_id
 _symmetry_equiv_pos_as_xyz
  1  'x, y, z'
loop_
 _atom_site_type_symbol
 _atom_site_label
 _atom_site_symmetry_multiplicity
 _atom_site_fract_x
 _atom_site_fract_y
 _atom_site_fract_z
 _atom_site_occupancy
  Li  Li0  1  0.254046  0.254047  0.245948  1
  Li  Li1  1  0.995954  0.995953  0.004052  1
  Ir  Ir2  1  0.125000  0.625000  0.625000  1
  Ir  Ir3  1  0.625000  0.125000  0.625000  1
  Pt  Pt4  1  0.625000  0.625000  0.125000  1
  Pt  Pt5  1  0.625000  0.625000  0.625000  1
  S  S6  1  0.421945  0.861694  0.858180  1
  S  S7  1  0.861590  0.861587  0.421430  1
  S  S8  1  0.861603  0.861613  0.855314  1
  S  S9  1  0.828055  0.388306  0.391820  1
  S  S10  1  0.388309  0.828051  0.391826  1
  S  S11  1  0.388410  0.388413  0.828570  1
  S  S12  1  0.861691  0.421949  0.858174  1
  S  S13  1  0.388397  0.388387  0.394686  1
