# generated using pymatgen
data_AcHo3Ru4F28
_symmetry_space_group_name_H-M   'P 1'
_cell_length_a   5.57089222
_cell_length_b   8.93615749
_cell_length_c   11.98042200
_cell_angle_alpha   63.41937871
_cell_angle_beta   89.92943564
_cell_angle_gamma   90.13833503
_symmetry_Int_Tables_number   1
_chemical_formula_structural   AcHo3Ru4F28
_chemical_formula_sum   'Ac1 Ho3 Ru4 F28'
_cell_volume   533.37288479
_cell_formula_units_Z   1
loop_
 _symmetry_equiv_pos_site_id
 _symmetry_equiv_pos_as_xyz
  1  'x, y, z'
loop_
 _atom_site_type_symbol
 _atom_site_label
 _atom_site_symmetry_multiplicity
 _atom_site_fract_x
 _atom_site_fract_y
 _atom_site_fract_z
 _atom_site_occupancy
  Ac  Ac0  1  0.739400  0.815871  0.269210  1
  Ho  Ho1  1  0.759347  0.814271  0.767462  1
  Ho  Ho2  1  0.259629  0.187070  0.732001  1
  Ho  Ho3  1  0.237043  0.206249  0.226180  1
  Ru  Ru4  1  0.756906  0.280078  0.949816  1
  Ru  Ru5  1  0.255305  0.721412  0.556226  1
  Ru  Ru6  1  0.249996  0.728576  0.034657  1
  Ru  Ru7  1  0.745560  0.263190  0.459411  1
  F  F8  1  0.443101  0.703580  0.909209  1
  F  F9  1  0.948981  0.290385  0.582897  1
  F  F10  1  0.552663  0.297562  0.077302  1
  F  F11  1  0.072435  0.695578  0.426766  1
  F  F12  1  0.450853  0.274344  0.548501  1
  F  F13  1  0.945763  0.722743  0.952094  1
  F  F14  1  0.554311  0.705796  0.476602  1
  F  F15  1  0.049045  0.287939  0.040829  1
  F  F16  1  0.767593  0.518285  0.857394  1
  F  F17  1  0.262644  0.482201  0.649450  1
  F  F18  1  0.233314  0.488163  0.134402  1
  F  F19  1  0.725727  0.499366  0.362193  1
  F  F20  1  0.757452  0.042122  0.038936  1
  F  F21  1  0.255812  0.956572  0.461292  1
  F  F22  1  0.247607  0.968640  0.944450  1
  F  F23  1  0.746295  0.025516  0.552014  1
  F  F24  1  0.958716  0.728424  0.643088  1
  F  F25  1  0.472611  0.270815  0.855841  1
  F  F26  1  0.038178  0.270753  0.364509  1
  F  F27  1  0.545812  0.725649  0.120735  1
  F  F28  1  0.073870  0.742631  0.170042  1
  F  F29  1  0.542531  0.241264  0.331363  1
  F  F30  1  0.958269  0.255049  0.823845  1
  F  F31  1  0.444987  0.749082  0.683468  1
  F  F32  1  0.379263  0.982498  0.228636  1
  F  F33  1  0.914001  0.057714  0.270255  1
  F  F34  1  0.577711  0.027077  0.767060  1
  F  F35  1  0.077273  0.973539  0.731867  1
