# generated using pymatgen
data_Dy2YZnAg3Ge2
_symmetry_space_group_name_H-M   'P 1'
_cell_length_a   7.22831001
_cell_length_b   7.22830915
_cell_length_c   4.14802500
_cell_angle_alpha   90.00000000
_cell_angle_beta   90.00000000
_cell_angle_gamma   120.00430963
_symmetry_Int_Tables_number   1
_chemical_formula_structural   Dy2YZnAg3Ge2
_chemical_formula_sum   'Dy2 Y1 Zn1 Ag3 Ge2'
_cell_volume   187.68372927
_cell_formula_units_Z   1
loop_
 _symmetry_equiv_pos_site_id
 _symmetry_equiv_pos_as_xyz
  1  'x, y, z'
loop_
 _atom_site_type_symbol
 _atom_site_label
 _atom_site_symmetry_multiplicity
 _atom_site_fract_x
 _atom_site_fract_y
 _atom_site_fract_z
 _atom_site_occupancy
  Dy  Dy0  1  0.582341  0.000026  0.000000  1
  Dy  Dy1  1  0.000026  0.582341  0.000000  1
  Y  Y2  1  0.417691  0.417691  0.000000  1
  Zn  Zn3  1  0.999900  0.999900  0.000000  1
  Ag  Ag4  1  0.247150  0.999947  0.500000  1
  Ag  Ag5  1  0.999947  0.247150  0.500000  1
  Ag  Ag6  1  0.752891  0.752891  0.500000  1
  Ge  Ge7  1  0.333310  0.666743  0.500000  1
  Ge  Ge8  1  0.666743  0.333310  0.500000  1
