# generated using pymatgen
data_Sr4MgCd3Au4
_symmetry_space_group_name_H-M   'P 1'
_cell_length_a   4.55775200
_cell_length_b   7.89663426
_cell_length_c   9.01343035
_cell_angle_alpha   90.22502919
_cell_angle_beta   90.00000000
_cell_angle_gamma   90.00000000
_symmetry_Int_Tables_number   1
_chemical_formula_structural   Sr4MgCd3Au4
_chemical_formula_sum   'Sr4 Mg1 Cd3 Au4'
_cell_volume   324.39897339
_cell_formula_units_Z   1
loop_
 _symmetry_equiv_pos_site_id
 _symmetry_equiv_pos_as_xyz
  1  'x, y, z'
loop_
 _atom_site_type_symbol
 _atom_site_label
 _atom_site_symmetry_multiplicity
 _atom_site_fract_x
 _atom_site_fract_y
 _atom_site_fract_z
 _atom_site_occupancy
  Sr  Sr0  1  0.250000  0.032802  0.318623  1
  Sr  Sr1  1  0.250000  0.536469  0.185881  1
  Sr  Sr2  1  0.750000  0.963454  0.680189  1
  Sr  Sr3  1  0.750000  0.470356  0.813384  1
  Mg  Mg4  1  0.250000  0.139403  0.938611  1
  Cd  Cd5  1  0.250000  0.644775  0.563455  1
  Cd  Cd6  1  0.750000  0.857287  0.063326  1
  Cd  Cd7  1  0.750000  0.354503  0.435862  1
  Au  Au8  1  0.250000  0.261701  0.633984  1
  Au  Au9  1  0.250000  0.770457  0.877155  1
  Au  Au10  1  0.750000  0.736428  0.375835  1
  Au  Au11  1  0.750000  0.232366  0.113697  1
