# generated using pymatgen
data_Sm2PbO2
_symmetry_space_group_name_H-M   'P 1'
_cell_length_a   7.77041011
_cell_length_b   7.77041001
_cell_length_c   7.77040940
_cell_angle_alpha   150.58082623
_cell_angle_beta   150.58082106
_cell_angle_gamma   42.08947909
_symmetry_Int_Tables_number   1
_chemical_formula_structural   Sm2PbO2
_chemical_formula_sum   'Sm2 Pb1 O2'
_cell_volume   112.92922379
_cell_formula_units_Z   1
loop_
 _symmetry_equiv_pos_site_id
 _symmetry_equiv_pos_as_xyz
  1  'x, y, z'
loop_
 _atom_site_type_symbol
 _atom_site_label
 _atom_site_symmetry_multiplicity
 _atom_site_fract_x
 _atom_site_fract_y
 _atom_site_fract_z
 _atom_site_occupancy
  Sm  Sm0  1  0.670007  0.670007  0.000000  1
  Sm  Sm1  1  0.329993  0.329993  0.000000  1
  Pb  Pb2  1  0.000000  0.000000  0.000000  1
  O  O3  1  0.750000  0.250000  0.500000  1
  O  O4  1  0.250000  0.750000  0.500000  1
