# generated using pymatgen
data_DyPa(AlPt2)2
_symmetry_space_group_name_H-M   'P 1'
_cell_length_a   4.37940900
_cell_length_b   4.37940836
_cell_length_c   9.19181000
_cell_angle_alpha   90.00000000
_cell_angle_beta   90.00000000
_cell_angle_gamma   119.99999726
_symmetry_Int_Tables_number   1
_chemical_formula_structural   DyPa(AlPt2)2
_chemical_formula_sum   'Dy1 Pa1 Al2 Pt4'
_cell_volume   152.67313805
_cell_formula_units_Z   1
loop_
 _symmetry_equiv_pos_site_id
 _symmetry_equiv_pos_as_xyz
  1  'x, y, z'
loop_
 _atom_site_type_symbol
 _atom_site_label
 _atom_site_symmetry_multiplicity
 _atom_site_fract_x
 _atom_site_fract_y
 _atom_site_fract_z
 _atom_site_occupancy
  Dy  Dy0  1  0.333333  0.666665  0.750000  1
  Pa  Pa1  1  0.666667  0.333333  0.250000  1
  Al  Al2  1  0.000000  0.000000  0.994175  1
  Al  Al3  1  0.000000  0.000000  0.505825  1
  Pt  Pt4  1  0.333333  0.666665  0.088433  1
  Pt  Pt5  1  0.333333  0.666665  0.411566  1
  Pt  Pt6  1  0.666667  0.333333  0.576578  1
  Pt  Pt7  1  0.666667  0.333333  0.923422  1
