# generated using pymatgen
data_La4Al13Pt4Au5
_symmetry_space_group_name_H-M   'P 1'
_cell_length_a   11.71527846
_cell_length_b   11.71527731
_cell_length_c   4.26760600
_cell_angle_alpha   90.00000000
_cell_angle_beta   90.00000000
_cell_angle_gamma   119.78583211
_symmetry_Int_Tables_number   1
_chemical_formula_structural   La4Al13Pt4Au5
_chemical_formula_sum   'La4 Al13 Pt4 Au5'
_cell_volume   508.33890367
_cell_formula_units_Z   1
loop_
 _symmetry_equiv_pos_site_id
 _symmetry_equiv_pos_as_xyz
  1  'x, y, z'
loop_
 _atom_site_type_symbol
 _atom_site_label
 _atom_site_symmetry_multiplicity
 _atom_site_fract_x
 _atom_site_fract_y
 _atom_site_fract_z
 _atom_site_occupancy
  La  La0  1  0.203857  0.796143  0.500000  1
  La  La1  1  0.591490  0.792868  0.500000  1
  La  La2  1  0.207132  0.408510  0.500000  1
  La  La3  1  0.665039  0.334961  0.000000  1
  Al  Al4  1  0.941749  0.291142  0.000000  1
  Al  Al5  1  0.705388  0.647966  0.000000  1
  Al  Al6  1  0.940600  0.651480  0.000000  1
  Al  Al7  1  0.348520  0.059400  0.000000  1
  Al  Al8  1  0.167845  0.084738  0.500000  1
  Al  Al9  1  0.915262  0.832155  0.500000  1
  Al  Al10  1  0.708858  0.058251  0.000000  1
  Al  Al11  1  0.537833  0.075062  0.500000  1
  Al  Al12  1  0.916786  0.083214  0.500000  1
  Al  Al13  1  0.352034  0.294612  0.000000  1
  Al  Al14  1  0.533874  0.466126  0.500000  1
  Al  Al15  1  0.924938  0.462167  0.500000  1
  Al  Al16  1  0.336756  0.663244  0.000000  1
  Pt  Pt17  1  0.460378  0.539622  0.000000  1
  Pt  Pt18  1  0.793032  0.586194  0.500000  1
  Pt  Pt19  1  0.793401  0.206599  0.500000  1
  Pt  Pt20  1  0.413806  0.206968  0.500000  1
  Au  Au21  1  0.828705  0.914248  0.000000  1
  Au  Au22  1  0.456767  0.914798  0.000000  1
  Au  Au23  1  0.085752  0.171295  0.000000  1
  Au  Au24  1  0.084998  0.915002  0.000000  1
  Au  Au25  1  0.085202  0.543233  0.000000  1
