# generated using pymatgen
data_Y2MnCo10As7Ru
_symmetry_space_group_name_H-M   'P 1'
_cell_length_a   3.77774400
_cell_length_b   9.38432575
_cell_length_c   9.45651915
_cell_angle_alpha   120.35673524
_cell_angle_beta   90.00000000
_cell_angle_gamma   90.00000000
_symmetry_Int_Tables_number   1
_chemical_formula_structural   Y2MnCo10As7Ru
_chemical_formula_sum   'Y2 Mn1 Co10 As7 Ru1'
_cell_volume   289.28447529
_cell_formula_units_Z   1
loop_
 _symmetry_equiv_pos_site_id
 _symmetry_equiv_pos_as_xyz
  1  'x, y, z'
loop_
 _atom_site_type_symbol
 _atom_site_label
 _atom_site_symmetry_multiplicity
 _atom_site_fract_x
 _atom_site_fract_y
 _atom_site_fract_z
 _atom_site_occupancy
  Y  Y0  1  0.000000  0.667731  0.334240  1
  Y  Y1  1  0.500000  0.334889  0.669714  1
  Mn  Mn2  1  0.500000  0.115027  0.219693  1
  Co  Co3  1  0.000000  0.569292  0.941666  1
  Co  Co4  1  0.000000  0.371838  0.430912  1
  Co  Co5  1  0.000000  0.057904  0.627684  1
  Co  Co6  1  0.500000  0.097376  0.877693  1
  Co  Co7  1  0.000000  0.880295  0.156719  1
  Co  Co8  1  0.000000  0.279091  0.119669  1
  Co  Co9  1  0.000000  0.843030  0.718794  1
  Co  Co10  1  0.500000  0.949279  0.383351  1
  Co  Co11  1  0.500000  0.432906  0.050327  1
  Co  Co12  1  0.500000  0.619202  0.566169  1
  As  As13  1  0.000000  0.999790  0.995997  1
  As  As14  1  0.500000  0.708346  0.117187  1
  As  As15  1  0.500000  0.408726  0.292276  1
  As  As16  1  0.500000  0.887109  0.595133  1
  As  As17  1  0.000000  0.588131  0.701859  1
  As  As18  1  0.000000  0.114856  0.414574  1
  As  As19  1  0.000000  0.294876  0.885323  1
  Ru  Ru20  1  0.500000  0.780303  0.901020  1
