# generated using pymatgen
data_TbNdPa(Ga2Co3)3
_symmetry_space_group_name_H-M   'P 1'
_cell_length_a   4.18531900
_cell_length_b   8.64500271
_cell_length_c   8.64488200
_cell_angle_alpha   59.99518902
_cell_angle_beta   90.00000000
_cell_angle_gamma   90.00000000
_symmetry_Int_Tables_number   1
_chemical_formula_structural   TbNdPa(Ga2Co3)3
_chemical_formula_sum   'Tb1 Nd1 Pa1 Ga6 Co9'
_cell_volume   270.87089585
_cell_formula_units_Z   1
loop_
 _symmetry_equiv_pos_site_id
 _symmetry_equiv_pos_as_xyz
  1  'x, y, z'
loop_
 _atom_site_type_symbol
 _atom_site_label
 _atom_site_symmetry_multiplicity
 _atom_site_fract_x
 _atom_site_fract_y
 _atom_site_fract_z
 _atom_site_occupancy
  Tb  Tb0  1  0.500000  0.666679  0.666687  1
  Nd  Nd1  1  0.500000  0.333376  0.333323  1
  Pa  Pa2  1  0.000000  0.999959  0.999943  1
  Ga  Ga3  1  0.000000  0.494974  0.506884  1
  Ga  Ga4  1  0.000000  0.506866  0.998131  1
  Ga  Ga5  1  0.000000  0.998129  0.495113  1
  Ga  Ga6  1  0.500000  0.724870  0.276125  1
  Ga  Ga7  1  0.500000  0.276172  0.998974  1
  Ga  Ga8  1  0.500000  0.998931  0.724891  1
  Co  Co9  1  0.000000  0.171698  0.172001  1
  Co  Co10  1  0.000000  0.172002  0.656288  1
  Co  Co11  1  0.000000  0.656262  0.171714  1
  Co  Co12  1  0.000000  0.826960  0.826436  1
  Co  Co13  1  0.000000  0.346598  0.826948  1
  Co  Co14  1  0.000000  0.826441  0.346604  1
  Co  Co15  1  0.500000  0.298879  0.702239  1
  Co  Co16  1  0.500000  0.702210  0.998883  1
  Co  Co17  1  0.500000  0.998895  0.298915  1
