# generated using pymatgen
data_Hf8Cr8Si13P
_symmetry_space_group_name_H-M   'P 1'
_cell_length_a   9.65685725
_cell_length_b   9.65685833
_cell_length_c   9.70518357
_cell_angle_alpha   93.87213116
_cell_angle_beta   93.87212020
_cell_angle_gamma   149.79879508
_symmetry_Int_Tables_number   1
_chemical_formula_structural   Hf8Cr8Si13P
_chemical_formula_sum   'Hf8 Cr8 Si13 P1'
_cell_volume   439.71580859
_cell_formula_units_Z   1
loop_
 _symmetry_equiv_pos_site_id
 _symmetry_equiv_pos_as_xyz
  1  'x, y, z'
loop_
 _atom_site_type_symbol
 _atom_site_label
 _atom_site_symmetry_multiplicity
 _atom_site_fract_x
 _atom_site_fract_y
 _atom_site_fract_z
 _atom_site_occupancy
  Hf  Hf0  1  0.137763  0.137763  0.275527  1
  Hf  Hf1  1  0.860347  0.860347  0.720693  1
  Hf  Hf2  1  0.138483  0.861418  0.999900  1
  Hf  Hf3  1  0.861418  0.138483  0.999900  1
  Hf  Hf4  1  0.303952  0.499247  0.803199  1
  Hf  Hf5  1  0.696020  0.499696  0.195716  1
  Hf  Hf6  1  0.499696  0.696020  0.195716  1
  Hf  Hf7  1  0.499247  0.303952  0.803199  1
  Cr  Cr8  1  0.102088  0.602088  0.204176  1
  Cr  Cr9  1  0.398031  0.898031  0.796065  1
  Cr  Cr10  1  0.903235  0.102654  0.501750  1
  Cr  Cr11  1  0.598515  0.399095  0.501750  1
  Cr  Cr12  1  0.602088  0.102088  0.204176  1
  Cr  Cr13  1  0.898031  0.398031  0.796065  1
  Cr  Cr14  1  0.102654  0.903235  0.501750  1
  Cr  Cr15  1  0.399095  0.598515  0.501750  1
  Si  Si16  1  0.705018  0.705018  0.410035  1
  Si  Si17  1  0.291857  0.708087  0.999945  1
  Si  Si18  1  0.708087  0.291857  0.999945  1
  Si  Si19  1  0.089884  0.499493  0.589377  1
  Si  Si20  1  0.909416  0.501137  0.410553  1
  Si  Si21  1  0.501137  0.909416  0.410553  1
  Si  Si22  1  0.499493  0.089884  0.589377  1
  Si  Si23  1  0.249287  0.249287  0.999270  1
  Si  Si24  1  0.749983  0.749983  0.999270  1
  Si  Si25  1  0.293968  0.000607  0.294575  1
  Si  Si26  1  0.706331  0.999867  0.706197  1
  Si  Si27  1  0.999867  0.706331  0.706197  1
  Si  Si28  1  0.000607  0.293968  0.294575  1
  P  P29  1  0.294401  0.294401  0.588803  1
