# generated using pymatgen
data_Th2SnPtAu
_symmetry_space_group_name_H-M   'P 1'
_cell_length_a   7.96997700
_cell_length_b   7.97147800
_cell_length_c   3.96706900
_cell_angle_alpha   90.00000000
_cell_angle_beta   90.00000000
_cell_angle_gamma   90.00000000
_symmetry_Int_Tables_number   1
_chemical_formula_structural   Th2SnPtAu
_chemical_formula_sum   'Th4 Sn2 Pt2 Au2'
_cell_volume   252.03779663
_cell_formula_units_Z   2
loop_
 _symmetry_equiv_pos_site_id
 _symmetry_equiv_pos_as_xyz
  1  'x, y, z'
loop_
 _atom_site_type_symbol
 _atom_site_label
 _atom_site_symmetry_multiplicity
 _atom_site_fract_x
 _atom_site_fract_y
 _atom_site_fract_z
 _atom_site_occupancy
  Th  Th0  1  0.324023  0.839675  0.500000  1
  Th  Th1  1  0.824023  0.660325  0.500000  1
  Th  Th2  1  0.174678  0.315922  0.500000  1
  Th  Th3  1  0.674678  0.184078  0.500000  1
  Sn  Sn4  1  0.496558  0.498266  0.000000  1
  Sn  Sn5  1  0.996558  0.001734  0.000000  1
  Pt  Pt6  1  0.874681  0.373872  0.000000  1
  Pt  Pt7  1  0.374681  0.126128  0.000000  1
  Au  Au8  1  0.130059  0.625508  0.000000  1
  Au  Au9  1  0.630059  0.874492  0.000000  1
