# generated using pymatgen
data_La3ZnP6N13
_symmetry_space_group_name_H-M   'P 1'
_cell_length_a   7.38513032
_cell_length_b   7.38513160
_cell_length_c   7.38513200
_cell_angle_alpha   108.97479798
_cell_angle_beta   108.97479320
_cell_angle_gamma   108.97478782
_symmetry_Int_Tables_number   1
_chemical_formula_structural   La3ZnP6N13
_chemical_formula_sum   'La3 Zn1 P6 N13'
_cell_volume   315.63529323
_cell_formula_units_Z   1
loop_
 _symmetry_equiv_pos_site_id
 _symmetry_equiv_pos_as_xyz
  1  'x, y, z'
loop_
 _atom_site_type_symbol
 _atom_site_label
 _atom_site_symmetry_multiplicity
 _atom_site_fract_x
 _atom_site_fract_y
 _atom_site_fract_z
 _atom_site_occupancy
  La  La0  1  0.700865  0.015392  0.015392  1
  La  La1  1  0.015392  0.015392  0.700865  1
  La  La2  1  0.015392  0.700865  0.015392  1
  Zn  Zn3  1  0.282884  0.282884  0.282884  1
  P  P4  1  0.252995  0.759232  0.508650  1
  P  P5  1  0.759232  0.252995  0.508650  1
  P  P6  1  0.759232  0.508650  0.252995  1
  P  P7  1  0.252995  0.508650  0.759232  1
  P  P8  1  0.508650  0.759232  0.252995  1
  P  P9  1  0.508650  0.252995  0.759232  1
  N  N10  1  0.853841  0.853841  0.853841  1
  N  N11  1  0.752285  0.329884  0.329884  1
  N  N12  1  0.329884  0.752285  0.329884  1
  N  N13  1  0.276331  0.585445  0.585445  1
  N  N14  1  0.585445  0.585445  0.276331  1
  N  N15  1  0.388342  0.724331  0.002627  1
  N  N16  1  0.002627  0.724331  0.388342  1
  N  N17  1  0.585445  0.276331  0.585445  1
  N  N18  1  0.724331  0.002627  0.388342  1
  N  N19  1  0.388342  0.002627  0.724331  1
  N  N20  1  0.724331  0.388342  0.002627  1
  N  N21  1  0.329884  0.329884  0.752285  1
  N  N22  1  0.002627  0.388342  0.724331  1
