# generated using pymatgen
data_Dy2Er4ZnSi5Rh12
_symmetry_space_group_name_H-M   'P 1'
_cell_length_a   5.55982100
_cell_length_b   5.55982005
_cell_length_c   15.17052500
_cell_angle_alpha   90.00000000
_cell_angle_beta   90.00000000
_cell_angle_gamma   119.99998778
_symmetry_Int_Tables_number   1
_chemical_formula_structural   Dy2Er4ZnSi5Rh12
_chemical_formula_sum   'Dy2 Er4 Zn1 Si5 Rh12'
_cell_volume   406.11856309
_cell_formula_units_Z   1
loop_
 _symmetry_equiv_pos_site_id
 _symmetry_equiv_pos_as_xyz
  1  'x, y, z'
loop_
 _atom_site_type_symbol
 _atom_site_label
 _atom_site_symmetry_multiplicity
 _atom_site_fract_x
 _atom_site_fract_y
 _atom_site_fract_z
 _atom_site_occupancy
  Dy  Dy0  1  0.333333  0.666667  0.750461  1
  Dy  Dy1  1  0.666667  0.333333  0.249539  1
  Er  Er2  1  0.333333  0.666667  0.537352  1
  Er  Er3  1  0.666667  0.333333  0.462648  1
  Er  Er4  1  0.666667  0.333333  0.036816  1
  Er  Er5  1  0.333333  0.666667  0.963184  1
  Zn  Zn6  1  0.000000  0.000000  0.000000  1
  Si  Si7  1  0.000000  0.000000  0.251295  1
  Si  Si8  1  0.000000  0.000000  0.748705  1
  Si  Si9  1  0.333333  0.666667  0.251942  1
  Si  Si10  1  0.666667  0.333333  0.748058  1
  Si  Si11  1  0.000000  0.000000  0.500000  1
  Rh  Rh12  1  0.167931  0.335862  0.134741  1
  Rh  Rh13  1  0.832069  0.664138  0.865259  1
  Rh  Rh14  1  0.664138  0.832069  0.134741  1
  Rh  Rh15  1  0.833257  0.666512  0.629697  1
  Rh  Rh16  1  0.335862  0.167931  0.865259  1
  Rh  Rh17  1  0.166743  0.333488  0.370303  1
  Rh  Rh18  1  0.167931  0.832069  0.134741  1
  Rh  Rh19  1  0.333488  0.166743  0.629697  1
  Rh  Rh20  1  0.832069  0.167931  0.865259  1
  Rh  Rh21  1  0.666512  0.833257  0.370303  1
  Rh  Rh22  1  0.833257  0.166743  0.629697  1
  Rh  Rh23  1  0.166743  0.833257  0.370303  1
