# generated using pymatgen
data_Ca7Tb2Pr11Pb16
_symmetry_space_group_name_H-M   'P 1'
_cell_length_a   8.19674177
_cell_length_b   8.66371940
_cell_length_c   16.27185927
_cell_angle_alpha   90.12856126
_cell_angle_beta   89.91661873
_cell_angle_gamma   90.01188685
_symmetry_Int_Tables_number   1
_chemical_formula_structural   Ca7Tb2Pr11Pb16
_chemical_formula_sum   'Ca7 Tb2 Pr11 Pb16'
_cell_volume   1155.53006232
_cell_formula_units_Z   1
loop_
 _symmetry_equiv_pos_site_id
 _symmetry_equiv_pos_as_xyz
  1  'x, y, z'
loop_
 _atom_site_type_symbol
 _atom_site_label
 _atom_site_symmetry_multiplicity
 _atom_site_fract_x
 _atom_site_fract_y
 _atom_site_fract_z
 _atom_site_occupancy
  Ca  Ca0  1  0.332858  0.834950  0.122343  1
  Ca  Ca1  1  0.830357  0.664138  0.377414  1
  Ca  Ca2  1  0.334133  0.832981  0.376909  1
  Ca  Ca3  1  0.835322  0.502259  0.749720  1
  Ca  Ca4  1  0.335751  0.998391  0.750018  1
  Ca  Ca5  1  0.164280  0.501595  0.251243  1
  Ca  Ca6  1  0.663501  0.998908  0.251337  1
  Tb  Tb7  1  0.669186  0.164763  0.623703  1
  Tb  Tb8  1  0.168433  0.334691  0.875668  1
  Pr  Pr9  1  0.836632  0.671058  0.124845  1
  Pr  Pr10  1  0.664457  0.168670  0.875716  1
  Pr  Pr11  1  0.164785  0.331695  0.623754  1
  Pr  Pr12  1  0.503976  0.685442  0.594125  1
  Pr  Pr13  1  0.005591  0.815409  0.904956  1
  Pr  Pr14  1  0.493588  0.312612  0.094532  1
  Pr  Pr15  1  0.995137  0.186557  0.404377  1
  Pr  Pr16  1  0.494466  0.313797  0.406067  1
  Pr  Pr17  1  0.998163  0.184025  0.094717  1
  Pr  Pr18  1  0.503581  0.683766  0.905104  1
  Pr  Pr19  1  0.003862  0.815985  0.594882  1
  Pb  Pb20  1  0.681986  0.962940  0.460555  1
  Pb  Pb21  1  0.182551  0.536685  0.039351  1
  Pb  Pb22  1  0.316149  0.040428  0.958893  1
  Pb  Pb23  1  0.816627  0.460486  0.541221  1
  Pb  Pb24  1  0.325125  0.037532  0.540212  1
  Pb  Pb25  1  0.823731  0.461308  0.960433  1
  Pb  Pb26  1  0.681506  0.962212  0.039560  1
  Pb  Pb27  1  0.178892  0.538844  0.459308  1
  Pb  Pb28  1  0.470930  0.388262  0.749255  1
  Pb  Pb29  1  0.971166  0.111607  0.750004  1
  Pb  Pb30  1  0.529770  0.605771  0.249017  1
  Pb  Pb31  1  0.031634  0.892071  0.251212  1
  Pb  Pb32  1  0.700820  0.852764  0.750103  1
  Pb  Pb33  1  0.201746  0.647097  0.750329  1
  Pb  Pb34  1  0.295036  0.147412  0.250274  1
  Pb  Pb35  1  0.794273  0.352889  0.248840  1
