# generated using pymatgen
data_La8Nd12Si15Bi
_symmetry_space_group_name_H-M   'P 1'
_cell_length_a   7.97812999
_cell_length_b   7.95349626
_cell_length_c   15.44136800
_cell_angle_alpha   90.06922900
_cell_angle_beta   89.93590416
_cell_angle_gamma   90.01954223
_symmetry_Int_Tables_number   1
_chemical_formula_structural   La8Nd12Si15Bi
_chemical_formula_sum   'La8 Nd12 Si15 Bi1'
_cell_volume   979.81559854
_cell_formula_units_Z   1
loop_
 _symmetry_equiv_pos_site_id
 _symmetry_equiv_pos_as_xyz
  1  'x, y, z'
loop_
 _atom_site_type_symbol
 _atom_site_label
 _atom_site_symmetry_multiplicity
 _atom_site_fract_x
 _atom_site_fract_y
 _atom_site_fract_z
 _atom_site_occupancy
  La  La0  1  0.987430  0.621963  0.051582  1
  La  La1  1  0.011632  0.369763  0.556639  1
  La  La2  1  0.623035  0.987752  0.947961  1
  La  La3  1  0.122601  0.513021  0.802650  1
  La  La4  1  0.867418  0.478495  0.293423  1
  La  La5  1  0.512840  0.121742  0.196190  1
  La  La6  1  0.489983  0.879023  0.699828  1
  La  La7  1  0.382473  0.014904  0.447079  1
  Nd  Nd8  1  0.380439  0.477940  0.371678  1
  Nd  Nd9  1  0.860907  0.032309  0.370558  1
  Nd  Nd10  1  0.980708  0.128116  0.123299  1
  Nd  Nd11  1  0.018569  0.873385  0.628047  1
  Nd  Nd12  1  0.627448  0.518019  0.874086  1
  Nd  Nd13  1  0.483987  0.368661  0.629050  1
  Nd  Nd14  1  0.518750  0.627316  0.125509  1
  Nd  Nd15  1  0.127029  0.981716  0.877306  1
  Nd  Nd16  1  0.677516  0.692426  0.502076  1
  Nd  Nd17  1  0.810920  0.191110  0.751194  1
  Nd  Nd18  1  0.195091  0.812057  0.241151  1
  Nd  Nd19  1  0.308736  0.309187  0.999897  1
  Si  Si20  1  0.920542  0.286959  0.939554  1
  Si  Si21  1  0.716964  0.078197  0.560922  1
  Si  Si22  1  0.214232  0.421898  0.189621  1
  Si  Si23  1  0.789758  0.578015  0.690309  1
  Si  Si24  1  0.420399  0.214405  0.812308  1
  Si  Si25  1  0.578194  0.786190  0.310065  1
  Si  Si26  1  0.286757  0.922298  0.058151  1
  Si  Si27  1  0.831702  0.804111  0.797665  1
  Si  Si28  1  0.169981  0.194287  0.296029  1
  Si  Si29  1  0.805035  0.830625  0.201962  1
  Si  Si30  1  0.319556  0.666107  0.559034  1
  Si  Si31  1  0.696076  0.332611  0.046929  1
  Si  Si32  1  0.670232  0.308458  0.456361  1
  Si  Si33  1  0.331662  0.694775  0.952872  1
  Si  Si34  1  0.194966  0.168519  0.705437  1
  Bi  Bi35  1  0.066429  0.713642  0.433579  1
