# generated using pymatgen
data_Ho5S6
_symmetry_space_group_name_H-M   'P 1'
_cell_length_a   7.75580349
_cell_length_b   5.49615138
_cell_length_c   6.72396314
_cell_angle_alpha   114.04821106
_cell_angle_beta   106.74005858
_cell_angle_gamma   90.11261648
_symmetry_Int_Tables_number   1
_chemical_formula_structural   Ho5S6
_chemical_formula_sum   'Ho5 S6'
_cell_volume   248.30752922
_cell_formula_units_Z   1
loop_
 _symmetry_equiv_pos_site_id
 _symmetry_equiv_pos_as_xyz
  1  'x, y, z'
loop_
 _atom_site_type_symbol
 _atom_site_label
 _atom_site_symmetry_multiplicity
 _atom_site_fract_x
 _atom_site_fract_y
 _atom_site_fract_z
 _atom_site_occupancy
  Ho  Ho0  1  0.029906  0.997888  0.906716  1
  Ho  Ho1  1  0.520344  0.991984  0.898722  1
  Ho  Ho2  1  0.195777  0.323081  0.558440  1
  Ho  Ho3  1  0.859232  0.657640  0.227602  1
  Ho  Ho4  1  0.684986  0.318715  0.546745  1
  S  S5  1  0.357061  0.161027  0.227230  1
  S  S6  1  0.693942  0.828094  0.566482  1
  S  S7  1  0.527898  0.488016  0.890050  1
  S  S8  1  0.189689  0.826584  0.565538  1
  S  S9  1  0.021968  0.488932  0.888232  1
  S  S10  1  0.858343  0.157659  0.227770  1
