# generated using pymatgen
data_TaBe8FeOs2
_symmetry_space_group_name_H-M   'P 1'
_cell_length_a   4.37994000
_cell_length_b   4.37993923
_cell_length_c   7.20415400
_cell_angle_alpha   90.00000000
_cell_angle_beta   90.00000000
_cell_angle_gamma   119.99999068
_symmetry_Int_Tables_number   1
_chemical_formula_structural   TaBe8FeOs2
_chemical_formula_sum   'Ta1 Be8 Fe1 Os2'
_cell_volume   119.68780627
_cell_formula_units_Z   1
loop_
 _symmetry_equiv_pos_site_id
 _symmetry_equiv_pos_as_xyz
  1  'x, y, z'
loop_
 _atom_site_type_symbol
 _atom_site_label
 _atom_site_symmetry_multiplicity
 _atom_site_fract_x
 _atom_site_fract_y
 _atom_site_fract_z
 _atom_site_occupancy
  Ta  Ta0  1  0.666667  0.333333  0.939081  1
  Be  Be1  1  0.000000  0.000000  0.009783  1
  Be  Be2  1  0.000000  0.000000  0.496376  1
  Be  Be3  1  0.831278  0.662556  0.261540  1
  Be  Be4  1  0.170188  0.829812  0.734629  1
  Be  Be5  1  0.659626  0.829812  0.734629  1
  Be  Be6  1  0.337444  0.168722  0.261540  1
  Be  Be7  1  0.831278  0.168722  0.261540  1
  Be  Be8  1  0.170188  0.340374  0.734629  1
  Fe  Fe9  1  0.333333  0.666667  0.440205  1
  Os  Os10  1  0.333333  0.666667  0.061135  1
  Os  Os11  1  0.666667  0.333333  0.564916  1
