# generated using pymatgen
data_Ac2Pa(SnIr)3
_symmetry_space_group_name_H-M   'P 1'
_cell_length_a   7.74627700
_cell_length_b   7.83874005
_cell_length_c   4.13097400
_cell_angle_alpha   90.00000000
_cell_angle_beta   90.00000000
_cell_angle_gamma   119.61055990
_symmetry_Int_Tables_number   1
_chemical_formula_structural   Ac2Pa(SnIr)3
_chemical_formula_sum   'Ac2 Pa1 Sn3 Ir3'
_cell_volume   218.07873543
_cell_formula_units_Z   1
loop_
 _symmetry_equiv_pos_site_id
 _symmetry_equiv_pos_as_xyz
  1  'x, y, z'
loop_
 _atom_site_type_symbol
 _atom_site_label
 _atom_site_symmetry_multiplicity
 _atom_site_fract_x
 _atom_site_fract_y
 _atom_site_fract_z
 _atom_site_occupancy
  Ac  Ac0  1  0.001703  0.586409  0.000000  1
  Ac  Ac1  1  0.415293  0.413591  0.000000  1
  Pa  Pa2  1  0.585051  0.000000  0.000000  1
  Sn  Sn3  1  0.239236  0.000000  0.500000  1
  Sn  Sn4  1  0.996542  0.242948  0.500000  1
  Sn  Sn5  1  0.753594  0.757052  0.500000  1
  Ir  Ir6  1  0.377457  0.722227  0.500000  1
  Ir  Ir7  1  0.655231  0.277773  0.500000  1
  Ir  Ir8  1  0.975893  0.000000  0.000000  1
