# generated using pymatgen
data_La3PrPt6O19
_symmetry_space_group_name_H-M   'P 1'
_cell_length_a   7.91776410
_cell_length_b   7.91776412
_cell_length_c   7.91749100
_cell_angle_alpha   109.47051675
_cell_angle_beta   109.47051682
_cell_angle_gamma   109.47192341
_symmetry_Int_Tables_number   1
_chemical_formula_structural   La3PrPt6O19
_chemical_formula_sum   'La3 Pr1 Pt6 O19'
_cell_volume   382.09784086
_cell_formula_units_Z   1
loop_
 _symmetry_equiv_pos_site_id
 _symmetry_equiv_pos_as_xyz
  1  'x, y, z'
loop_
 _atom_site_type_symbol
 _atom_site_label
 _atom_site_symmetry_multiplicity
 _atom_site_fract_x
 _atom_site_fract_y
 _atom_site_fract_z
 _atom_site_occupancy
  La  La0  1  0.999953  0.317188  0.000203  1
  La  La1  1  0.682812  0.682765  0.683014  1
  La  La2  1  0.317235  0.000047  0.000250  1
  Pr  Pr3  1  0.000000  0.000000  0.317095  1
  Pt  Pt4  1  0.340826  0.499921  0.840725  1
  Pt  Pt5  1  0.840826  0.340791  0.499922  1
  Pt  Pt6  1  0.499965  0.159174  0.659097  1
  Pt  Pt7  1  0.159095  0.659174  0.499899  1
  Pt  Pt8  1  0.500079  0.840905  0.340805  1
  Pt  Pt9  1  0.659209  0.500035  0.159131  1
  O  O10  1  0.339250  0.000075  0.339944  1
  O  O11  1  0.339845  0.339900  0.999872  1
  O  O12  1  0.000055  0.660155  0.660026  1
  O  O13  1  0.660825  0.660750  0.000694  1
  O  O14  1  0.999925  0.339175  0.339869  1
  O  O15  1  0.660100  0.999945  0.659972  1
  O  O16  1  0.000000  0.000000  0.001482  1
  O  O17  1  0.352649  0.313735  0.607881  1
  O  O18  1  0.038964  0.293050  0.684328  1
  O  O19  1  0.745189  0.391346  0.706130  1
  O  O20  1  0.391152  0.705950  0.745007  1
  O  O21  1  0.254088  0.961036  0.645365  1
  O  O22  1  0.608654  0.353842  0.314782  1
  O  O23  1  0.314797  0.608848  0.353854  1
  O  O24  1  0.686265  0.038915  0.294145  1
  O  O25  1  0.961085  0.647351  0.255231  1
  O  O26  1  0.706950  0.745912  0.391277  1
  O  O27  1  0.646158  0.254811  0.960940  1
  O  O28  1  0.294050  0.685203  0.039058  1
