# generated using pymatgen
data_KRb(Sc3Se5)2
_symmetry_space_group_name_H-M   'P 1'
_cell_length_a   3.92260300
_cell_length_b   11.78514197
_cell_length_c   20.97241496
_cell_angle_alpha   90.24023493
_cell_angle_beta   90.00000000
_cell_angle_gamma   90.00000000
_symmetry_Int_Tables_number   1
_chemical_formula_structural   KRb(Sc3Se5)2
_chemical_formula_sum   'K2 Rb2 Sc12 Se20'
_cell_volume   969.51336278
_cell_formula_units_Z   2
loop_
 _symmetry_equiv_pos_site_id
 _symmetry_equiv_pos_as_xyz
  1  'x, y, z'
loop_
 _atom_site_type_symbol
 _atom_site_label
 _atom_site_symmetry_multiplicity
 _atom_site_fract_x
 _atom_site_fract_y
 _atom_site_fract_z
 _atom_site_occupancy
  K  K0  1  0.250000  0.851438  0.092713  1
  K  K1  1  0.750000  0.148562  0.907287  1
  Rb  Rb2  1  0.750000  0.354019  0.408940  1
  Rb  Rb3  1  0.250000  0.645981  0.591060  1
  Sc  Sc4  1  0.750000  0.798257  0.826323  1
  Sc  Sc5  1  0.250000  0.201743  0.173677  1
  Sc  Sc6  1  0.250000  0.296833  0.674754  1
  Sc  Sc7  1  0.750000  0.703167  0.325246  1
  Sc  Sc8  1  0.250000  0.956901  0.698542  1
  Sc  Sc9  1  0.750000  0.043099  0.301458  1
  Sc  Sc10  1  0.750000  0.455899  0.802271  1
  Sc  Sc11  1  0.250000  0.544101  0.197729  1
  Sc  Sc12  1  0.750000  0.391596  0.054755  1
  Sc  Sc13  1  0.250000  0.608404  0.945245  1
  Sc  Sc14  1  0.250000  0.892181  0.444894  1
  Sc  Sc15  1  0.750000  0.107819  0.555106  1
  Se  Se16  1  0.250000  0.947423  0.569124  1
  Se  Se17  1  0.750000  0.052577  0.430876  1
  Se  Se18  1  0.750000  0.447019  0.930974  1
  Se  Se19  1  0.250000  0.552981  0.069026  1
  Se  Se20  1  0.750000  0.767173  0.954300  1
  Se  Se21  1  0.250000  0.232827  0.045700  1
  Se  Se22  1  0.250000  0.266450  0.546966  1
  Se  Se23  1  0.750000  0.733550  0.453034  1
  Se  Se24  1  0.250000  0.953487  0.827407  1
  Se  Se25  1  0.750000  0.046513  0.172593  1
  Se  Se26  1  0.750000  0.450961  0.674029  1
  Se  Se27  1  0.250000  0.549039  0.325971  1
  Se  Se28  1  0.750000  0.126314  0.685825  1
  Se  Se29  1  0.250000  0.873686  0.314175  1
  Se  Se30  1  0.250000  0.626668  0.814565  1
  Se  Se31  1  0.750000  0.373332  0.185435  1
  Se  Se32  1  0.750000  0.696644  0.196877  1
  Se  Se33  1  0.250000  0.303356  0.803123  1
  Se  Se34  1  0.250000  0.194951  0.301942  1
  Se  Se35  1  0.750000  0.805049  0.698058  1
