# generated using pymatgen
data_YbV2(WC2)2
_symmetry_space_group_name_H-M   'P 1'
_cell_length_a   8.14136500
_cell_length_b   8.14136500
_cell_length_c   3.27743700
_cell_angle_alpha   90.00000000
_cell_angle_beta   90.00000000
_cell_angle_gamma   90.00000000
_symmetry_Int_Tables_number   1
_chemical_formula_structural   YbV2(WC2)2
_chemical_formula_sum   'Yb2 V4 W4 C8'
_cell_volume   217.23450261
_cell_formula_units_Z   2
loop_
 _symmetry_equiv_pos_site_id
 _symmetry_equiv_pos_as_xyz
  1  'x, y, z'
loop_
 _atom_site_type_symbol
 _atom_site_label
 _atom_site_symmetry_multiplicity
 _atom_site_fract_x
 _atom_site_fract_y
 _atom_site_fract_z
 _atom_site_occupancy
  Yb  Yb0  1  0.000000  0.000000  0.000000  1
  Yb  Yb1  1  0.500000  0.500000  0.500000  1
  V  V2  1  0.317986  0.867402  0.500000  1
  V  V3  1  0.132598  0.317986  0.500000  1
  V  V4  1  0.682014  0.132598  0.500000  1
  V  V5  1  0.867402  0.682014  0.500000  1
  W  W6  1  0.377238  0.168761  0.000000  1
  W  W7  1  0.168761  0.622762  0.000000  1
  W  W8  1  0.622762  0.831239  0.000000  1
  W  W9  1  0.831239  0.377238  0.000000  1
  C  C10  1  0.764407  0.906763  0.500000  1
  C  C11  1  0.235593  0.093237  0.500000  1
  C  C12  1  0.906763  0.235593  0.500000  1
  C  C13  1  0.264791  0.393255  0.000000  1
  C  C14  1  0.393255  0.735209  0.000000  1
  C  C15  1  0.093237  0.764407  0.500000  1
  C  C16  1  0.606745  0.264791  0.000000  1
  C  C17  1  0.735209  0.606745  0.000000  1
