# generated using pymatgen
data_Yb2AlPd3
_symmetry_space_group_name_H-M   'P 1'
_cell_length_a   5.20126156
_cell_length_b   5.67422722
_cell_length_c   5.67422600
_cell_angle_alpha   59.99999548
_cell_angle_beta   56.94345081
_cell_angle_gamma   56.94345341
_symmetry_Int_Tables_number   1
_chemical_formula_structural   Yb2AlPd3
_chemical_formula_sum   'Yb2 Al1 Pd3'
_cell_volume   112.64583921
_cell_formula_units_Z   1
loop_
 _symmetry_equiv_pos_site_id
 _symmetry_equiv_pos_as_xyz
  1  'x, y, z'
loop_
 _atom_site_type_symbol
 _atom_site_label
 _atom_site_symmetry_multiplicity
 _atom_site_fract_x
 _atom_site_fract_y
 _atom_site_fract_z
 _atom_site_occupancy
  Yb  Yb0  1  0.741408  0.752864  0.752864  1
  Yb  Yb1  1  0.508592  0.497136  0.497136  1
  Al  Al2  1  0.625000  0.125000  0.125000  1
  Pd  Pd3  1  0.125000  0.625000  0.125000  1
  Pd  Pd4  1  0.125000  0.125000  0.625000  1
  Pd  Pd5  1  0.125000  0.125000  0.125000  1
