# generated using pymatgen
data_Dy4Er5Tm11Bi12
_symmetry_space_group_name_H-M   'P 1'
_cell_length_a   8.20694606
_cell_length_b   9.45078202
_cell_length_c   11.95807208
_cell_angle_alpha   89.99787980
_cell_angle_beta   89.98731267
_cell_angle_gamma   89.99351706
_symmetry_Int_Tables_number   1
_chemical_formula_structural   Dy4Er5Tm11Bi12
_chemical_formula_sum   'Dy4 Er5 Tm11 Bi12'
_cell_volume   927.49265378
_cell_formula_units_Z   1
loop_
 _symmetry_equiv_pos_site_id
 _symmetry_equiv_pos_as_xyz
  1  'x, y, z'
loop_
 _atom_site_type_symbol
 _atom_site_label
 _atom_site_symmetry_multiplicity
 _atom_site_fract_x
 _atom_site_fract_y
 _atom_site_fract_z
 _atom_site_occupancy
  Dy  Dy0  1  0.312266  0.250001  0.218408  1
  Dy  Dy1  1  0.812212  0.250009  0.281600  1
  Dy  Dy2  1  0.687801  0.750051  0.781553  1
  Dy  Dy3  1  0.187767  0.750013  0.718414  1
  Er  Er4  1  0.352434  0.750043  0.216917  1
  Er  Er5  1  0.852628  0.750093  0.283150  1
  Er  Er6  1  0.647507  0.250029  0.783096  1
  Er  Er7  1  0.147462  0.249995  0.716821  1
  Er  Er8  1  0.692571  0.565222  0.059153  1
  Tm  Tm9  1  0.192723  0.934354  0.440857  1
  Tm  Tm10  1  0.307261  0.065618  0.940860  1
  Tm  Tm11  1  0.807289  0.434361  0.559151  1
  Tm  Tm12  1  0.307313  0.434362  0.940863  1
  Tm  Tm13  1  0.807290  0.065642  0.559154  1
  Tm  Tm14  1  0.692693  0.934503  0.059162  1
  Tm  Tm15  1  0.192719  0.565641  0.440850  1
  Tm  Tm16  1  0.476134  0.250014  0.488922  1
  Tm  Tm17  1  0.976152  0.249990  0.011090  1
  Tm  Tm18  1  0.523894  0.750006  0.511101  1
  Tm  Tm19  1  0.024031  0.750077  0.988883  1
  Bi  Bi20  1  0.405153  0.750118  0.958082  1
  Bi  Bi21  1  0.905279  0.750011  0.541881  1
  Bi  Bi22  1  0.594660  0.249689  0.041840  1
  Bi  Bi23  1  0.094735  0.250005  0.458129  1
  Bi  Bi24  1  0.565196  0.994926  0.325946  1
  Bi  Bi25  1  0.065275  0.505105  0.174108  1
  Bi  Bi26  1  0.434776  0.494925  0.674060  1
  Bi  Bi27  1  0.934819  0.005111  0.825918  1
  Bi  Bi28  1  0.434784  0.005102  0.674073  1
  Bi  Bi29  1  0.934787  0.494943  0.825890  1
  Bi  Bi30  1  0.565168  0.505105  0.325975  1
  Bi  Bi31  1  0.065217  0.994937  0.174094  1
