# generated using pymatgen
data_Sr2Dy2HgPb11
_symmetry_space_group_name_H-M   'P 1'
_cell_length_a   9.97657100
_cell_length_b   6.95787255
_cell_length_c   6.95777908
_cell_angle_alpha   89.62608078
_cell_angle_beta   90.00000000
_cell_angle_gamma   90.00000000
_symmetry_Int_Tables_number   1
_chemical_formula_structural   Sr2Dy2HgPb11
_chemical_formula_sum   'Sr2 Dy2 Hg1 Pb11'
_cell_volume   482.96888660
_cell_formula_units_Z   1
loop_
 _symmetry_equiv_pos_site_id
 _symmetry_equiv_pos_as_xyz
  1  'x, y, z'
loop_
 _atom_site_type_symbol
 _atom_site_label
 _atom_site_symmetry_multiplicity
 _atom_site_fract_x
 _atom_site_fract_y
 _atom_site_fract_z
 _atom_site_occupancy
  Sr  Sr0  1  0.750000  0.997055  0.999182  1
  Sr  Sr1  1  0.750000  0.503940  0.498615  1
  Dy  Dy2  1  0.250000  0.004652  0.001025  1
  Dy  Dy3  1  0.250000  0.498190  0.503134  1
  Hg  Hg4  1  0.750000  0.494291  0.997279  1
  Pb  Pb5  1  0.006928  0.247479  0.747374  1
  Pb  Pb6  1  0.493823  0.253002  0.248384  1
  Pb  Pb7  1  0.491522  0.750242  0.249678  1
  Pb  Pb8  1  0.007264  0.747130  0.753698  1
  Pb  Pb9  1  0.008478  0.750242  0.249678  1
  Pb  Pb10  1  0.492736  0.747130  0.753698  1
  Pb  Pb11  1  0.493072  0.247479  0.747374  1
  Pb  Pb12  1  0.006177  0.253002  0.248384  1
  Pb  Pb13  1  0.250000  0.998604  0.500813  1
  Pb  Pb14  1  0.250000  0.502939  0.002382  1
  Pb  Pb15  1  0.750000  0.004622  0.499301  1
