# generated using pymatgen
data_Yb7YSbPd24
_symmetry_space_group_name_H-M   'P 1'
_cell_length_a   8.37413001
_cell_length_b   8.37413001
_cell_length_c   8.37413001
_cell_angle_alpha   90.00347579
_cell_angle_beta   90.00347579
_cell_angle_gamma   89.99652421
_symmetry_Int_Tables_number   1
_chemical_formula_structural   Yb7YSbPd24
_chemical_formula_sum   'Yb7 Y1 Sb1 Pd24'
_cell_volume   587.24468474
_cell_formula_units_Z   1
loop_
 _symmetry_equiv_pos_site_id
 _symmetry_equiv_pos_as_xyz
  1  'x, y, z'
loop_
 _atom_site_type_symbol
 _atom_site_label
 _atom_site_symmetry_multiplicity
 _atom_site_fract_x
 _atom_site_fract_y
 _atom_site_fract_z
 _atom_site_occupancy
  Yb  Yb0  1  0.747787  0.252114  0.747886  1
  Yb  Yb1  1  0.252114  0.747787  0.747886  1
  Yb  Yb2  1  0.747802  0.747802  0.747800  1
  Yb  Yb3  1  0.747802  0.252200  0.252198  1
  Yb  Yb4  1  0.252345  0.252345  0.747655  1
  Yb  Yb5  1  0.252200  0.747802  0.252198  1
  Yb  Yb6  1  0.252114  0.252114  0.252213  1
  Y  Y7  1  0.746755  0.746755  0.253245  1
  Sb  Sb8  1  0.000367  0.000367  0.999633  1
  Pd  Pd9  1  0.000564  0.000564  0.311864  1
  Pd  Pd10  1  0.733372  0.000415  0.500242  1
  Pd  Pd11  1  0.733372  0.499758  0.999585  1
  Pd  Pd12  1  0.500028  0.999674  0.733217  1
  Pd  Pd13  1  0.000415  0.733372  0.500242  1
  Pd  Pd14  1  0.499758  0.000415  0.266628  1
  Pd  Pd15  1  0.999674  0.266783  0.499972  1
  Pd  Pd16  1  0.499758  0.733372  0.999585  1
  Pd  Pd17  1  0.255534  0.500089  0.499911  1
  Pd  Pd18  1  0.500089  0.500089  0.744466  1
  Pd  Pd19  1  0.499665  0.499665  0.255713  1
  Pd  Pd20  1  0.500089  0.255534  0.499911  1
  Pd  Pd21  1  0.499665  0.744287  0.500335  1
  Pd  Pd22  1  0.744287  0.499665  0.500335  1
  Pd  Pd23  1  0.312160  0.999951  0.000049  1
  Pd  Pd24  1  0.999951  0.999951  0.687840  1
  Pd  Pd25  1  0.000415  0.499758  0.266628  1
  Pd  Pd26  1  0.999951  0.312160  0.000049  1
  Pd  Pd27  1  0.000564  0.688136  0.999436  1
  Pd  Pd28  1  0.688136  0.000564  0.999436  1
  Pd  Pd29  1  0.266783  0.500028  0.000326  1
  Pd  Pd30  1  0.266783  0.999674  0.499972  1
  Pd  Pd31  1  0.999674  0.500028  0.733217  1
  Pd  Pd32  1  0.500028  0.266783  0.000326  1
