# generated using pymatgen
data_Pr3Sm7C4I15
_symmetry_space_group_name_H-M   'P 1'
_cell_length_a   9.73583462
_cell_length_b   10.58563408
_cell_length_c   11.72785237
_cell_angle_alpha   93.77204449
_cell_angle_beta   114.26328157
_cell_angle_gamma   109.39613732
_symmetry_Int_Tables_number   1
_chemical_formula_structural   Pr3Sm7C4I15
_chemical_formula_sum   'Pr3 Sm7 C4 I15'
_cell_volume   1010.20990278
_cell_formula_units_Z   1
loop_
 _symmetry_equiv_pos_site_id
 _symmetry_equiv_pos_as_xyz
  1  'x, y, z'
loop_
 _atom_site_type_symbol
 _atom_site_label
 _atom_site_symmetry_multiplicity
 _atom_site_fract_x
 _atom_site_fract_y
 _atom_site_fract_z
 _atom_site_occupancy
  Pr  Pr0  1  0.704717  0.567843  0.044378  1
  Pr  Pr1  1  0.294538  0.433012  0.955764  1
  Pr  Pr2  1  0.658000  0.253928  0.835821  1
  Sm  Sm3  1  0.595275  0.542462  0.339899  1
  Sm  Sm4  1  0.347377  0.744944  0.164031  1
  Sm  Sm5  1  0.773374  0.880485  0.255654  1
  Sm  Sm6  1  0.527228  0.185360  0.100175  1
  Sm  Sm7  1  0.227955  0.118776  0.745042  1
  Sm  Sm8  1  0.403867  0.457562  0.659958  1
  Sm  Sm9  1  0.472457  0.815107  0.899567  1
  C  C10  1  0.480748  0.298472  0.937952  1
  C  C11  1  0.517826  0.702927  0.062444  1
  C  C12  1  0.451690  0.361606  0.833455  1
  C  C13  1  0.546746  0.639026  0.166820  1
  I  I14  1  0.210052  0.906680  0.938370  1
  I  I15  1  0.106870  0.189362  0.471915  1
  I  I16  1  0.156433  0.559428  0.701444  1
  I  I17  1  0.401300  0.966506  0.648541  1
  I  I18  1  0.708117  0.735493  0.817634  1
  I  I19  1  0.291180  0.264435  0.182015  1
  I  I20  1  0.842981  0.440505  0.298297  1
  I  I21  1  0.892784  0.810247  0.528638  1
  I  I22  1  0.359613  0.629892  0.410918  1
  I  I23  1  0.053139  0.836885  0.222387  1
  I  I24  1  0.791435  0.091654  0.065299  1
  I  I25  1  0.639067  0.372353  0.585197  1
  I  I26  1  0.948043  0.162853  0.777765  1
  I  I27  1  0.592901  0.028256  0.348234  1
  I  I28  1  0.004288  0.503937  0.002388  1
