# generated using pymatgen
data_ZrPa2TlPd12
_symmetry_space_group_name_H-M   'P 1'
_cell_length_a   5.77543100
_cell_length_b   5.77543078
_cell_length_c   9.63705700
_cell_angle_alpha   90.00000000
_cell_angle_beta   90.00000000
_cell_angle_gamma   119.99999552
_symmetry_Int_Tables_number   1
_chemical_formula_structural   ZrPa2TlPd12
_chemical_formula_sum   'Zr1 Pa2 Tl1 Pd12'
_cell_volume   278.38373786
_cell_formula_units_Z   1
loop_
 _symmetry_equiv_pos_site_id
 _symmetry_equiv_pos_as_xyz
  1  'x, y, z'
loop_
 _atom_site_type_symbol
 _atom_site_label
 _atom_site_symmetry_multiplicity
 _atom_site_fract_x
 _atom_site_fract_y
 _atom_site_fract_z
 _atom_site_occupancy
  Zr  Zr0  1  0.000000  0.000000  0.000000  1
  Pa  Pa1  1  0.333333  0.666667  0.253373  1
  Pa  Pa2  1  0.666667  0.333333  0.746627  1
  Tl  Tl3  1  0.000000  0.000000  0.500000  1
  Pd  Pd4  1  0.500000  0.500000  0.500000  1
  Pd  Pd5  1  0.500000  0.000000  0.500000  1
  Pd  Pd6  1  0.000000  0.500000  0.500000  1
  Pd  Pd7  1  0.500000  0.500000  0.000000  1
  Pd  Pd8  1  0.500000  0.000000  0.000000  1
  Pd  Pd9  1  0.000000  0.500000  0.000000  1
  Pd  Pd10  1  0.831000  0.169000  0.244580  1
  Pd  Pd11  1  0.831000  0.661998  0.244580  1
  Pd  Pd12  1  0.338002  0.169000  0.244580  1
  Pd  Pd13  1  0.169000  0.831000  0.755420  1
  Pd  Pd14  1  0.169000  0.338002  0.755420  1
  Pd  Pd15  1  0.661998  0.831000  0.755420  1
