# generated using pymatgen
data_Dy8MgAlPt2
_symmetry_space_group_name_H-M   'P 1'
_cell_length_a   9.68205653
_cell_length_b   9.68205559
_cell_length_c   9.68344100
_cell_angle_alpha   59.99526308
_cell_angle_beta   59.99526629
_cell_angle_gamma   59.89712061
_symmetry_Int_Tables_number   1
_chemical_formula_structural   Dy8MgAlPt2
_chemical_formula_sum   'Dy16 Mg2 Al2 Pt4'
_cell_volume   641.32778000
_cell_formula_units_Z   2
loop_
 _symmetry_equiv_pos_site_id
 _symmetry_equiv_pos_as_xyz
  1  'x, y, z'
loop_
 _atom_site_type_symbol
 _atom_site_label
 _atom_site_symmetry_multiplicity
 _atom_site_fract_x
 _atom_site_fract_y
 _atom_site_fract_z
 _atom_site_occupancy
  Dy  Dy0  1  0.351362  0.351362  0.352025  1
  Dy  Dy1  1  0.351362  0.351362  0.945252  1
  Dy  Dy2  1  0.350154  0.944697  0.352574  1
  Dy  Dy3  1  0.944697  0.350154  0.352574  1
  Dy  Dy4  1  0.808305  0.191599  0.191873  1
  Dy  Dy5  1  0.191599  0.808305  0.808223  1
  Dy  Dy6  1  0.191599  0.808305  0.191873  1
  Dy  Dy7  1  0.808305  0.191599  0.808223  1
  Dy  Dy8  1  0.196334  0.196334  0.803666  1
  Dy  Dy9  1  0.811268  0.811268  0.188732  1
  Dy  Dy10  1  0.939605  0.565530  0.564720  1
  Dy  Dy11  1  0.565530  0.939605  0.930146  1
  Dy  Dy12  1  0.565530  0.939605  0.564720  1
  Dy  Dy13  1  0.939605  0.565529  0.930146  1
  Dy  Dy14  1  0.567331  0.567331  0.932669  1
  Dy  Dy15  1  0.935570  0.935570  0.564429  1
  Mg  Mg16  1  0.574152  0.574152  0.581153  1
  Mg  Mg17  1  0.574152  0.574152  0.270542  1
  Al  Al18  1  0.576027  0.259241  0.582366  1
  Al  Al19  1  0.259241  0.576027  0.582366  1
  Pt  Pt20  1  0.142089  0.142089  0.144114  1
  Pt  Pt21  1  0.142089  0.142089  0.571708  1
  Pt  Pt22  1  0.142690  0.571405  0.142953  1
  Pt  Pt23  1  0.571405  0.142690  0.142953  1
