# generated using pymatgen
data_Pr2Pa(AlRh)3
_symmetry_space_group_name_H-M   'P 1'
_cell_length_a   7.28084310
_cell_length_b   7.35973668
_cell_length_c   4.01955400
_cell_angle_alpha   90.00000000
_cell_angle_beta   90.00000000
_cell_angle_gamma   120.35909926
_symmetry_Int_Tables_number   1
_chemical_formula_structural   Pr2Pa(AlRh)3
_chemical_formula_sum   'Pr2 Pa1 Al3 Rh3'
_cell_volume   185.85298604
_cell_formula_units_Z   1
loop_
 _symmetry_equiv_pos_site_id
 _symmetry_equiv_pos_as_xyz
  1  'x, y, z'
loop_
 _atom_site_type_symbol
 _atom_site_label
 _atom_site_symmetry_multiplicity
 _atom_site_fract_x
 _atom_site_fract_y
 _atom_site_fract_z
 _atom_site_occupancy
  Pr  Pr0  1  0.416432  0.420215  0.500000  1
  Pr  Pr1  1  0.583568  0.003783  0.500000  1
  Pa  Pa2  1  0.000000  0.581839  0.500000  1
  Al  Al3  1  0.765557  0.763777  0.000000  1
  Al  Al4  1  0.000000  0.225187  0.000000  1
  Al  Al5  1  0.234443  0.998220  0.000000  1
  Rh  Rh6  1  0.285743  0.658127  0.000000  1
  Rh  Rh7  1  0.000000  0.976470  0.500000  1
  Rh  Rh8  1  0.714257  0.372383  0.000000  1
