# generated using pymatgen
data_Er3Tm9GaCo4Ru
_symmetry_space_group_name_H-M   'P 1'
_cell_length_a   8.11384819
_cell_length_b   8.11454765
_cell_length_c   8.11454851
_cell_angle_alpha   106.45757039
_cell_angle_beta   110.88719694
_cell_angle_gamma   111.11416142
_symmetry_Int_Tables_number   1
_chemical_formula_structural   Er3Tm9GaCo4Ru
_chemical_formula_sum   'Er3 Tm9 Ga1 Co4 Ru1'
_cell_volume   410.40713236
_cell_formula_units_Z   1
loop_
 _symmetry_equiv_pos_site_id
 _symmetry_equiv_pos_as_xyz
  1  'x, y, z'
loop_
 _atom_site_type_symbol
 _atom_site_label
 _atom_site_symmetry_multiplicity
 _atom_site_fract_x
 _atom_site_fract_y
 _atom_site_fract_z
 _atom_site_occupancy
  Er  Er0  1  0.964695  0.780854  0.183843  1
  Er  Er1  1  0.034902  0.219003  0.815897  1
  Er  Er2  1  0.403160  0.219058  0.184102  1
  Tm  Tm3  1  0.692215  0.274013  0.966607  1
  Tm  Tm4  1  0.307948  0.725540  0.033146  1
  Tm  Tm5  1  0.692215  0.725607  0.418204  1
  Tm  Tm6  1  0.307948  0.274801  0.582406  1
  Tm  Tm7  1  0.804494  0.120386  0.315661  1
  Tm  Tm8  1  0.804494  0.488834  0.684108  1
  Tm  Tm9  1  0.195671  0.879442  0.684128  1
  Tm  Tm10  1  0.195671  0.511542  0.316228  1
  Tm  Tm11  1  0.596473  0.780232  0.816241  1
  Ga  Ga12  1  0.499952  0.999907  0.500046  1
  Co  Co13  1  0.873162  0.499913  0.373250  1
  Co  Co14  1  0.127523  0.500434  0.627089  1
  Co  Co15  1  0.999318  0.113077  0.112770  1
  Co  Co16  1  0.999318  0.886549  0.886242  1
  Ru  Ru17  1  0.500839  0.500808  0.000031  1
