# generated using pymatgen
data_La4Ga4PdRh3
_symmetry_space_group_name_H-M   'P 1'
_cell_length_a   4.43299800
_cell_length_b   7.13560499
_cell_length_c   8.06518543
_cell_angle_alpha   90.07469053
_cell_angle_beta   90.00000000
_cell_angle_gamma   90.00000000
_symmetry_Int_Tables_number   1
_chemical_formula_structural   La4Ga4PdRh3
_chemical_formula_sum   'La4 Ga4 Pd1 Rh3'
_cell_volume   255.11871798
_cell_formula_units_Z   1
loop_
 _symmetry_equiv_pos_site_id
 _symmetry_equiv_pos_as_xyz
  1  'x, y, z'
loop_
 _atom_site_type_symbol
 _atom_site_label
 _atom_site_symmetry_multiplicity
 _atom_site_fract_x
 _atom_site_fract_y
 _atom_site_fract_z
 _atom_site_occupancy
  La  La0  1  0.250000  0.533792  0.187624  1
  La  La1  1  0.750000  0.455785  0.817515  1
  La  La2  1  0.750000  0.964358  0.678649  1
  La  La3  1  0.250000  0.038473  0.316813  1
  Ga  Ga4  1  0.250000  0.636912  0.563484  1
  Ga  Ga5  1  0.750000  0.360993  0.434201  1
  Ga  Ga6  1  0.750000  0.862321  0.067546  1
  Ga  Ga7  1  0.250000  0.144017  0.934886  1
  Pd  Pd8  1  0.250000  0.772099  0.881681  1
  Rh  Rh9  1  0.750000  0.232058  0.116551  1
  Rh  Rh10  1  0.750000  0.732243  0.383406  1
  Rh  Rh11  1  0.250000  0.266950  0.617643  1
