# generated using pymatgen
data_Cs6TbTmSb4
_symmetry_space_group_name_H-M   'P 1'
_cell_length_a   10.51697103
_cell_length_b   10.51697115
_cell_length_c   10.51697165
_cell_angle_alpha   127.53416693
_cell_angle_beta   70.60122091
_cell_angle_gamma   136.29496979
_symmetry_Int_Tables_number   1
_chemical_formula_structural   Cs6TbTmSb4
_chemical_formula_sum   'Cs6 Tb1 Tm1 Sb4'
_cell_volume   624.78917292
_cell_formula_units_Z   1
loop_
 _symmetry_equiv_pos_site_id
 _symmetry_equiv_pos_as_xyz
  1  'x, y, z'
loop_
 _atom_site_type_symbol
 _atom_site_label
 _atom_site_symmetry_multiplicity
 _atom_site_fract_x
 _atom_site_fract_y
 _atom_site_fract_z
 _atom_site_occupancy
  Cs  Cs0  1  0.315752  0.704340  0.019650  1
  Cs  Cs1  1  0.184248  0.203899  0.388588  1
  Cs  Cs2  1  0.750000  0.250000  0.500000  1
  Cs  Cs3  1  0.250000  0.749999  0.499999  1
  Cs  Cs4  1  0.815310  0.795661  0.611413  1
  Cs  Cs5  1  0.684690  0.296102  0.980351  1
  Tb  Tb6  1  0.250000  0.250000  0.000000  1
  Tm  Tm7  1  0.750000  0.750000  0.000000  1
  Sb  Sb8  1  0.901765  0.180499  0.090210  1
  Sb  Sb9  1  0.598236  0.688446  0.278735  1
  Sb  Sb10  1  0.409711  0.319500  0.721264  1
  Sb  Sb11  1  0.090289  0.811554  0.909789  1
