# generated using pymatgen
data_Zr3NiAs2Ru3
_symmetry_space_group_name_H-M   'P 1'
_cell_length_a   6.62158100
_cell_length_b   6.62158180
_cell_length_c   3.88348100
_cell_angle_alpha   90.00000000
_cell_angle_beta   90.00000000
_cell_angle_gamma   120.00000097
_symmetry_Int_Tables_number   1
_chemical_formula_structural   Zr3NiAs2Ru3
_chemical_formula_sum   'Zr3 Ni1 As2 Ru3'
_cell_volume   147.46034885
_cell_formula_units_Z   1
loop_
 _symmetry_equiv_pos_site_id
 _symmetry_equiv_pos_as_xyz
  1  'x, y, z'
loop_
 _atom_site_type_symbol
 _atom_site_label
 _atom_site_symmetry_multiplicity
 _atom_site_fract_x
 _atom_site_fract_y
 _atom_site_fract_z
 _atom_site_occupancy
  Zr  Zr0  1  0.391366  0.391366  0.500000  1
  Zr  Zr1  1  0.608634  0.000000  0.500000  1
  Zr  Zr2  1  0.000000  0.608634  0.500000  1
  Ni  Ni3  1  0.000000  0.000000  0.500000  1
  As  As4  1  0.666667  0.333333  0.000000  1
  As  As5  1  0.333333  0.666667  0.000000  1
  Ru  Ru6  1  0.000000  0.237238  0.000000  1
  Ru  Ru7  1  0.237238  0.000000  0.000000  1
  Ru  Ru8  1  0.762762  0.762762  0.000000  1
