# generated using pymatgen
data_Dy2Ta3Si7Pt9
_symmetry_space_group_name_H-M   'P 1'
_cell_length_a   9.88237000
_cell_length_b   9.88237096
_cell_length_c   4.02103300
_cell_angle_alpha   90.00000000
_cell_angle_beta   90.00000000
_cell_angle_gamma   120.00000348
_symmetry_Int_Tables_number   1
_chemical_formula_structural   Dy2Ta3Si7Pt9
_chemical_formula_sum   'Dy2 Ta3 Si7 Pt9'
_cell_volume   340.08737967
_cell_formula_units_Z   1
loop_
 _symmetry_equiv_pos_site_id
 _symmetry_equiv_pos_as_xyz
  1  'x, y, z'
loop_
 _atom_site_type_symbol
 _atom_site_label
 _atom_site_symmetry_multiplicity
 _atom_site_fract_x
 _atom_site_fract_y
 _atom_site_fract_z
 _atom_site_occupancy
  Dy  Dy0  1  0.000000  0.000000  0.000000  1
  Dy  Dy1  1  0.333333  0.666667  0.500000  1
  Ta  Ta2  1  0.881503  0.454870  0.500000  1
  Ta  Ta3  1  0.573369  0.118497  0.500000  1
  Ta  Ta4  1  0.545130  0.426631  0.500000  1
  Si  Si5  1  0.256469  0.211645  0.500000  1
  Si  Si6  1  0.788355  0.044825  0.500000  1
  Si  Si7  1  0.955175  0.743531  0.500000  1
  Si  Si8  1  0.554573  0.637358  0.000000  1
  Si  Si9  1  0.362642  0.917212  0.000000  1
  Si  Si10  1  0.082788  0.445427  0.000000  1
  Si  Si11  1  0.666667  0.333333  0.000000  1
  Pt  Pt12  1  0.224878  0.943005  0.500000  1
  Pt  Pt13  1  0.056995  0.281874  0.500000  1
  Pt  Pt14  1  0.718126  0.775122  0.500000  1
  Pt  Pt15  1  0.307301  0.409457  0.000000  1
  Pt  Pt16  1  0.590543  0.897845  0.000000  1
  Pt  Pt17  1  0.102155  0.692699  0.000000  1
  Pt  Pt18  1  0.388240  0.175134  0.000000  1
  Pt  Pt19  1  0.824866  0.213105  0.000000  1
  Pt  Pt20  1  0.786895  0.611760  0.000000  1
