# generated using pymatgen
data_Dy16Ni4Ag3Hg
_symmetry_space_group_name_H-M   'P 1'
_cell_length_a   9.47348453
_cell_length_b   9.44361340
_cell_length_c   9.44361400
_cell_angle_alpha   59.99999790
_cell_angle_beta   60.10424792
_cell_angle_gamma   60.10424914
_symmetry_Int_Tables_number   1
_chemical_formula_structural   Dy16Ni4Ag3Hg
_chemical_formula_sum   'Dy16 Ni4 Ag3 Hg1'
_cell_volume   598.34780645
_cell_formula_units_Z   1
loop_
 _symmetry_equiv_pos_site_id
 _symmetry_equiv_pos_as_xyz
  1  'x, y, z'
loop_
 _atom_site_type_symbol
 _atom_site_label
 _atom_site_symmetry_multiplicity
 _atom_site_fract_x
 _atom_site_fract_y
 _atom_site_fract_z
 _atom_site_occupancy
  Dy  Dy0  1  0.600819  0.600257  0.600257  1
  Dy  Dy1  1  0.600819  0.600257  0.198669  1
  Dy  Dy2  1  0.600819  0.198669  0.600257  1
  Dy  Dy3  1  0.198620  0.600461  0.600461  1
  Dy  Dy4  1  0.061277  0.438485  0.438485  1
  Dy  Dy5  1  0.439003  0.060958  0.060958  1
  Dy  Dy6  1  0.439003  0.060958  0.439081  1
  Dy  Dy7  1  0.061277  0.438485  0.061753  1
  Dy  Dy8  1  0.439003  0.439081  0.060958  1
  Dy  Dy9  1  0.061277  0.061753  0.438485  1
  Dy  Dy10  1  0.183206  0.814499  0.814499  1
  Dy  Dy11  1  0.815217  0.185234  0.185234  1
  Dy  Dy12  1  0.815217  0.185234  0.814315  1
  Dy  Dy13  1  0.183206  0.814499  0.187795  1
  Dy  Dy14  1  0.815217  0.814315  0.185234  1
  Dy  Dy15  1  0.183206  0.187795  0.814499  1
  Ni  Ni16  1  0.392086  0.393350  0.393350  1
  Ni  Ni17  1  0.392086  0.393350  0.821214  1
  Ni  Ni18  1  0.392086  0.821214  0.393350  1
  Ni  Ni19  1  0.822716  0.392428  0.392428  1
  Ag  Ag20  1  0.834227  0.832071  0.832071  1
  Ag  Ag21  1  0.834227  0.832071  0.501630  1
  Ag  Ag22  1  0.834227  0.501630  0.832071  1
  Hg  Hg23  1  0.501161  0.832946  0.832946  1
