# generated using pymatgen
data_Dy3Y2Tm5Bi6
_symmetry_space_group_name_H-M   'P 1'
_cell_length_a   8.22808400
_cell_length_b   9.45174714
_cell_length_c   12.02928918
_cell_angle_alpha   89.98016738
_cell_angle_beta   90.00000000
_cell_angle_gamma   90.00000000
_symmetry_Int_Tables_number   1
_chemical_formula_structural   Dy3Y2Tm5Bi6
_chemical_formula_sum   'Dy6 Y4 Tm10 Bi12'
_cell_volume   935.51498987
_cell_formula_units_Z   2
loop_
 _symmetry_equiv_pos_site_id
 _symmetry_equiv_pos_as_xyz
  1  'x, y, z'
loop_
 _atom_site_type_symbol
 _atom_site_label
 _atom_site_symmetry_multiplicity
 _atom_site_fract_x
 _atom_site_fract_y
 _atom_site_fract_z
 _atom_site_occupancy
  Dy  Dy0  1  0.186750  0.750051  0.718673  1
  Dy  Dy1  1  0.686750  0.749949  0.781327  1
  Dy  Dy2  1  0.813033  0.249784  0.281285  1
  Dy  Dy3  1  0.313033  0.250216  0.218715  1
  Dy  Dy4  1  0.306424  0.063782  0.940771  1
  Dy  Dy5  1  0.806424  0.436218  0.559229  1
  Y  Y6  1  0.353772  0.750298  0.215766  1
  Y  Y7  1  0.853772  0.749702  0.284234  1
  Y  Y8  1  0.645724  0.249905  0.784148  1
  Y  Y9  1  0.145724  0.250095  0.715852  1
  Tm  Tm10  1  0.024497  0.749794  0.988707  1
  Tm  Tm11  1  0.524497  0.750206  0.511293  1
  Tm  Tm12  1  0.974601  0.250331  0.011588  1
  Tm  Tm13  1  0.474601  0.249669  0.488412  1
  Tm  Tm14  1  0.306307  0.434545  0.940645  1
  Tm  Tm15  1  0.806307  0.065455  0.559355  1
  Tm  Tm16  1  0.693423  0.934251  0.059173  1
  Tm  Tm17  1  0.193423  0.565749  0.440827  1
  Tm  Tm18  1  0.693912  0.565644  0.059407  1
  Tm  Tm19  1  0.193912  0.934356  0.440593  1
  Bi  Bi20  1  0.434138  0.003693  0.672592  1
  Bi  Bi21  1  0.934138  0.496307  0.827408  1
  Bi  Bi22  1  0.566242  0.503838  0.327039  1
  Bi  Bi23  1  0.066242  0.996162  0.172961  1
  Bi  Bi24  1  0.566189  0.996013  0.327362  1
  Bi  Bi25  1  0.066189  0.503987  0.172638  1
  Bi  Bi26  1  0.433553  0.496226  0.672832  1
  Bi  Bi27  1  0.933553  0.003774  0.827168  1
  Bi  Bi28  1  0.407979  0.747692  0.957895  1
  Bi  Bi29  1  0.907979  0.752308  0.542105  1
  Bi  Bi30  1  0.593455  0.250776  0.042860  1
  Bi  Bi31  1  0.093455  0.249224  0.457140  1
