# generated using pymatgen
data_Ce2ErZn3CuIr2
_symmetry_space_group_name_H-M   'P 1'
_cell_length_a   7.26667900
_cell_length_b   7.29130587
_cell_length_c   3.78907300
_cell_angle_alpha   90.00000000
_cell_angle_beta   90.00000000
_cell_angle_gamma   119.88833828
_symmetry_Int_Tables_number   1
_chemical_formula_structural   Ce2ErZn3CuIr2
_chemical_formula_sum   'Ce2 Er1 Zn3 Cu1 Ir2'
_cell_volume   174.05738603
_cell_formula_units_Z   1
loop_
 _symmetry_equiv_pos_site_id
 _symmetry_equiv_pos_as_xyz
  1  'x, y, z'
loop_
 _atom_site_type_symbol
 _atom_site_label
 _atom_site_symmetry_multiplicity
 _atom_site_fract_x
 _atom_site_fract_y
 _atom_site_fract_z
 _atom_site_occupancy
  Ce  Ce0  1  0.999568  0.577817  0.000000  1
  Ce  Ce1  1  0.421750  0.422183  0.000000  1
  Er  Er2  1  0.587571  0.000000  0.000000  1
  Zn  Zn3  1  0.250906  0.000000  0.500000  1
  Zn  Zn4  1  0.992505  0.233450  0.500000  1
  Zn  Zn5  1  0.759054  0.766550  0.500000  1
  Cu  Cu6  1  0.999153  0.000000  0.000000  1
  Ir  Ir7  1  0.322227  0.654961  0.500000  1
  Ir  Ir8  1  0.667267  0.345039  0.500000  1
