# generated using pymatgen
data_NdDy(Ni4Pt)2
_symmetry_space_group_name_H-M   'P 1'
_cell_length_a   4.01904100
_cell_length_b   5.10856352
_cell_length_c   8.55845434
_cell_angle_alpha   93.44615456
_cell_angle_beta   90.00000000
_cell_angle_gamma   90.00000000
_symmetry_Int_Tables_number   1
_chemical_formula_structural   NdDy(Ni4Pt)2
_chemical_formula_sum   'Nd1 Dy1 Ni8 Pt2'
_cell_volume   175.40038419
_cell_formula_units_Z   1
loop_
 _symmetry_equiv_pos_site_id
 _symmetry_equiv_pos_as_xyz
  1  'x, y, z'
loop_
 _atom_site_type_symbol
 _atom_site_label
 _atom_site_symmetry_multiplicity
 _atom_site_fract_x
 _atom_site_fract_y
 _atom_site_fract_z
 _atom_site_occupancy
  Nd  Nd0  1  0.000000  0.500000  0.500000  1
  Dy  Dy1  1  0.000000  0.000000  0.000000  1
  Ni  Ni2  1  0.000000  0.976826  0.338462  1
  Ni  Ni3  1  0.000000  0.476156  0.844337  1
  Ni  Ni4  1  0.000000  0.523844  0.155663  1
  Ni  Ni5  1  0.000000  0.023174  0.661538  1
  Ni  Ni6  1  0.500000  0.500000  0.000000  1
  Ni  Ni7  1  0.500000  0.000000  0.500000  1
  Ni  Ni8  1  0.500000  0.749540  0.247774  1
  Ni  Ni9  1  0.500000  0.250460  0.752226  1
  Pt  Pt10  1  0.500000  0.246399  0.245759  1
  Pt  Pt11  1  0.500000  0.753601  0.754241  1
