# generated using pymatgen
data_Dy6Tm10Cd4OsPt3
_symmetry_space_group_name_H-M   'P 1'
_cell_length_a   9.62006888
_cell_length_b   9.62006797
_cell_length_c   9.62006793
_cell_angle_alpha   59.52854165
_cell_angle_beta   59.52853600
_cell_angle_gamma   59.52853666
_symmetry_Int_Tables_number   1
_chemical_formula_structural   Dy6Tm10Cd4OsPt3
_chemical_formula_sum   'Dy6 Tm10 Cd4 Os1 Pt3'
_cell_volume   622.78550272
_cell_formula_units_Z   1
loop_
 _symmetry_equiv_pos_site_id
 _symmetry_equiv_pos_as_xyz
  1  'x, y, z'
loop_
 _atom_site_type_symbol
 _atom_site_label
 _atom_site_symmetry_multiplicity
 _atom_site_fract_x
 _atom_site_fract_y
 _atom_site_fract_z
 _atom_site_occupancy
  Dy  Dy0  1  0.936140  0.564781  0.564781  1
  Dy  Dy1  1  0.557519  0.938851  0.938851  1
  Dy  Dy2  1  0.564781  0.936140  0.564781  1
  Dy  Dy3  1  0.938851  0.557518  0.938851  1
  Dy  Dy4  1  0.564781  0.564781  0.936140  1
  Dy  Dy5  1  0.938851  0.938851  0.557518  1
  Tm  Tm6  1  0.351344  0.351344  0.351344  1
  Tm  Tm7  1  0.350105  0.350105  0.948471  1
  Tm  Tm8  1  0.350105  0.948471  0.350105  1
  Tm  Tm9  1  0.948471  0.350105  0.350105  1
  Tm  Tm10  1  0.814869  0.188172  0.188172  1
  Tm  Tm11  1  0.187232  0.810686  0.810686  1
  Tm  Tm12  1  0.188172  0.814869  0.188172  1
  Tm  Tm13  1  0.810686  0.187232  0.810686  1
  Tm  Tm14  1  0.188172  0.188172  0.814869  1
  Tm  Tm15  1  0.810686  0.810686  0.187232  1
  Cd  Cd16  1  0.580001  0.580001  0.580001  1
  Cd  Cd17  1  0.580562  0.580562  0.255418  1
  Cd  Cd18  1  0.580562  0.255418  0.580562  1
  Cd  Cd19  1  0.255418  0.580562  0.580562  1
  Os  Os20  1  0.143372  0.143372  0.143372  1
  Pt  Pt21  1  0.143212  0.143212  0.572895  1
  Pt  Pt22  1  0.143212  0.572895  0.143212  1
  Pt  Pt23  1  0.572895  0.143212  0.143212  1
