# generated using pymatgen
data_CaNd3(SnRh2)4
_symmetry_space_group_name_H-M   'P 1'
_cell_length_a   7.17473722
_cell_length_b   4.45167600
_cell_length_c   10.07147876
_cell_angle_alpha   90.00000000
_cell_angle_beta   90.06721467
_cell_angle_gamma   90.00000000
_symmetry_Int_Tables_number   1
_chemical_formula_structural   CaNd3(SnRh2)4
_chemical_formula_sum   'Ca1 Nd3 Sn4 Rh8'
_cell_volume   321.67883670
_cell_formula_units_Z   1
loop_
 _symmetry_equiv_pos_site_id
 _symmetry_equiv_pos_as_xyz
  1  'x, y, z'
loop_
 _atom_site_type_symbol
 _atom_site_label
 _atom_site_symmetry_multiplicity
 _atom_site_fract_x
 _atom_site_fract_y
 _atom_site_fract_z
 _atom_site_occupancy
  Ca  Ca0  1  0.167741  0.750000  0.906652  1
  Nd  Nd1  1  0.830186  0.250001  0.093642  1
  Nd  Nd2  1  0.328012  0.750000  0.406237  1
  Nd  Nd3  1  0.669444  0.250001  0.593461  1
  Sn  Sn4  1  0.308302  0.250001  0.137489  1
  Sn  Sn5  1  0.810672  0.750000  0.357103  1
  Sn  Sn6  1  0.192956  0.250001  0.647766  1
  Sn  Sn7  1  0.691766  0.750000  0.857424  1
  Rh  Rh8  1  0.523975  0.750000  0.107281  1
  Rh  Rh9  1  0.103845  0.750000  0.190133  1
  Rh  Rh10  1  0.599740  0.250001  0.309436  1
  Rh  Rh11  1  0.026519  0.250001  0.394245  1
  Rh  Rh12  1  0.972954  0.750000  0.615446  1
  Rh  Rh13  1  0.399545  0.750000  0.689062  1
  Rh  Rh14  1  0.896489  0.250001  0.809709  1
  Rh  Rh15  1  0.477854  0.250001  0.884912  1
