# generated using pymatgen
data_TbHo4Pd15
_symmetry_space_group_name_H-M   'P 1'
_cell_length_a   4.11549300
_cell_length_b   4.11549300
_cell_length_c   20.66965200
_cell_angle_alpha   90.00000000
_cell_angle_beta   90.00000000
_cell_angle_gamma   90.00000000
_symmetry_Int_Tables_number   1
_chemical_formula_structural   TbHo4Pd15
_chemical_formula_sum   'Tb1 Ho4 Pd15'
_cell_volume   350.08773785
_cell_formula_units_Z   1
loop_
 _symmetry_equiv_pos_site_id
 _symmetry_equiv_pos_as_xyz
  1  'x, y, z'
loop_
 _atom_site_type_symbol
 _atom_site_label
 _atom_site_symmetry_multiplicity
 _atom_site_fract_x
 _atom_site_fract_y
 _atom_site_fract_z
 _atom_site_occupancy
  Tb  Tb0  1  0.000000  0.000000  0.000000  1
  Ho  Ho1  1  0.000000  0.000000  0.199235  1
  Ho  Ho2  1  0.000000  0.000000  0.399112  1
  Ho  Ho3  1  0.000000  0.000000  0.600888  1
  Ho  Ho4  1  0.000000  0.000000  0.800765  1
  Pd  Pd5  1  0.500000  0.500000  0.000000  1
  Pd  Pd6  1  0.500000  0.500000  0.198484  1
  Pd  Pd7  1  0.500000  0.500000  0.399119  1
  Pd  Pd8  1  0.500000  0.500000  0.600881  1
  Pd  Pd9  1  0.500000  0.500000  0.801516  1
  Pd  Pd10  1  0.500000  0.000000  0.099968  1
  Pd  Pd11  1  0.500000  0.000000  0.298576  1
  Pd  Pd12  1  0.500000  0.000000  0.500000  1
  Pd  Pd13  1  0.500000  0.000000  0.701424  1
  Pd  Pd14  1  0.500000  0.000000  0.900032  1
  Pd  Pd15  1  0.000000  0.500000  0.099968  1
  Pd  Pd16  1  0.000000  0.500000  0.298576  1
  Pd  Pd17  1  0.000000  0.500000  0.500000  1
  Pd  Pd18  1  0.000000  0.500000  0.701424  1
  Pd  Pd19  1  0.000000  0.500000  0.900032  1
