# generated using pymatgen
data_Ta6Ga2Cu3NiN2
_symmetry_space_group_name_H-M   'P 1'
_cell_length_a   8.15013106
_cell_length_b   8.15013139
_cell_length_c   8.14350600
_cell_angle_alpha   60.02687935
_cell_angle_beta   60.02687800
_cell_angle_gamma   59.98586804
_symmetry_Int_Tables_number   1
_chemical_formula_structural   Ta6Ga2Cu3NiN2
_chemical_formula_sum   'Ta12 Ga4 Cu6 Ni2 N4'
_cell_volume   382.60928429
_cell_formula_units_Z   2
loop_
 _symmetry_equiv_pos_site_id
 _symmetry_equiv_pos_as_xyz
  1  'x, y, z'
loop_
 _atom_site_type_symbol
 _atom_site_label
 _atom_site_symmetry_multiplicity
 _atom_site_fract_x
 _atom_site_fract_y
 _atom_site_fract_z
 _atom_site_occupancy
  Ta  Ta0  1  0.813700  0.813700  0.186300  1
  Ta  Ta1  1  0.180410  0.180410  0.819590  1
  Ta  Ta2  1  0.816130  0.185218  0.816972  1
  Ta  Ta3  1  0.185218  0.816130  0.181681  1
  Ta  Ta4  1  0.185218  0.816130  0.816972  1
  Ta  Ta5  1  0.816130  0.185218  0.181681  1
  Ta  Ta6  1  0.429173  0.429173  0.070827  1
  Ta  Ta7  1  0.059288  0.059288  0.440712  1
  Ta  Ta8  1  0.433622  0.066115  0.435400  1
  Ta  Ta9  1  0.066115  0.433622  0.064864  1
  Ta  Ta10  1  0.066115  0.433622  0.435400  1
  Ta  Ta11  1  0.433622  0.066115  0.064864  1
  Ga  Ga12  1  0.119558  0.628933  0.625754  1
  Ga  Ga13  1  0.628933  0.119558  0.625754  1
  Ga  Ga14  1  0.627336  0.627336  0.122090  1
  Ga  Ga15  1  0.627336  0.627336  0.623238  1
  Cu  Cu16  1  0.748657  0.416582  0.417380  1
  Cu  Cu17  1  0.416582  0.748657  0.417380  1
  Cu  Cu18  1  0.418332  0.418332  0.744755  1
  Cu  Cu19  1  0.418332  0.418332  0.418579  1
  Cu  Cu20  1  0.507284  0.831782  0.830468  1
  Cu  Cu21  1  0.831782  0.507284  0.830468  1
  Ni  Ni22  1  0.836887  0.836887  0.489590  1
  Ni  Ni23  1  0.836887  0.836887  0.836637  1
  N  N24  1  0.625196  0.122909  0.125948  1
  N  N25  1  0.122909  0.625196  0.125948  1
  N  N26  1  0.124625  0.124625  0.622767  1
  N  N27  1  0.124625  0.124625  0.127983  1
