# generated using pymatgen
data_La16Cd4OsPt3
_symmetry_space_group_name_H-M   'P 1'
_cell_length_a   10.22176802
_cell_length_b   10.22176766
_cell_length_c   10.22176793
_cell_angle_alpha   59.46974919
_cell_angle_beta   59.46974763
_cell_angle_gamma   59.46974848
_symmetry_Int_Tables_number   1
_chemical_formula_structural   La16Cd4OsPt3
_chemical_formula_sum   'La16 Cd4 Os1 Pt3'
_cell_volume   746.09294136
_cell_formula_units_Z   1
loop_
 _symmetry_equiv_pos_site_id
 _symmetry_equiv_pos_as_xyz
  1  'x, y, z'
loop_
 _atom_site_type_symbol
 _atom_site_label
 _atom_site_symmetry_multiplicity
 _atom_site_fract_x
 _atom_site_fract_y
 _atom_site_fract_z
 _atom_site_occupancy
  La  La0  1  0.600624  0.600624  0.600624  1
  La  La1  1  0.595798  0.595798  0.205022  1
  La  La2  1  0.595798  0.205022  0.595798  1
  La  La3  1  0.205022  0.595798  0.595798  1
  La  La4  1  0.066838  0.439385  0.439385  1
  La  La5  1  0.441665  0.058036  0.058036  1
  La  La6  1  0.439385  0.066838  0.439385  1
  La  La7  1  0.058036  0.441665  0.058036  1
  La  La8  1  0.439385  0.439385  0.066838  1
  La  La9  1  0.058036  0.058036  0.441665  1
  La  La10  1  0.185789  0.813067  0.813067  1
  La  La11  1  0.808191  0.188773  0.188773  1
  La  La12  1  0.813067  0.185789  0.813067  1
  La  La13  1  0.188773  0.808191  0.188773  1
  La  La14  1  0.813067  0.813067  0.185789  1
  La  La15  1  0.188773  0.188773  0.808191  1
  Cd  Cd16  1  0.829611  0.829611  0.829611  1
  Cd  Cd17  1  0.829654  0.829654  0.510962  1
  Cd  Cd18  1  0.829654  0.510962  0.829654  1
  Cd  Cd19  1  0.510962  0.829654  0.829654  1
  Os  Os20  1  0.391803  0.391803  0.391803  1
  Pt  Pt21  1  0.393309  0.393309  0.823454  1
  Pt  Pt22  1  0.393309  0.823454  0.393309  1
  Pt  Pt23  1  0.823454  0.393309  0.393309  1
