# generated using pymatgen
data_Sr2HoGaO5
_symmetry_space_group_name_H-M   'P 1'
_cell_length_a   5.95189900
_cell_length_b   7.62128121
_cell_length_c   12.45829353
_cell_angle_alpha   91.49798334
_cell_angle_beta   90.00000000
_cell_angle_gamma   90.00000000
_symmetry_Int_Tables_number   1
_chemical_formula_structural   Sr2HoGaO5
_chemical_formula_sum   'Sr8 Ho4 Ga4 O20'
_cell_volume   564.92871636
_cell_formula_units_Z   4
loop_
 _symmetry_equiv_pos_site_id
 _symmetry_equiv_pos_as_xyz
  1  'x, y, z'
loop_
 _atom_site_type_symbol
 _atom_site_label
 _atom_site_symmetry_multiplicity
 _atom_site_fract_x
 _atom_site_fract_y
 _atom_site_fract_z
 _atom_site_occupancy
  Sr  Sr0  1  0.772687  0.486481  0.330170  1
  Sr  Sr1  1  0.727313  0.986481  0.830170  1
  Sr  Sr2  1  0.227313  0.513519  0.669830  1
  Sr  Sr3  1  0.272687  0.013519  0.169830  1
  Sr  Sr4  1  0.772101  0.985387  0.367726  1
  Sr  Sr5  1  0.727899  0.485387  0.867726  1
  Sr  Sr6  1  0.227899  0.014613  0.632274  1
  Sr  Sr7  1  0.272101  0.514613  0.132274  1
  Ho  Ho8  1  0.755332  0.270681  0.620365  1
  Ho  Ho9  1  0.744668  0.770681  0.120365  1
  Ho  Ho10  1  0.244668  0.729319  0.379635  1
  Ho  Ho11  1  0.255332  0.229319  0.879635  1
  Ga  Ga12  1  0.719735  0.742128  0.579924  1
  Ga  Ga13  1  0.780265  0.242128  0.079924  1
  Ga  Ga14  1  0.280265  0.257872  0.420076  1
  Ga  Ga15  1  0.219735  0.757872  0.920076  1
  O  O16  1  0.789087  0.971903  0.628364  1
  O  O17  1  0.710913  0.471903  0.128364  1
  O  O18  1  0.210913  0.028097  0.371636  1
  O  O19  1  0.289087  0.528097  0.871636  1
  O  O20  1  0.716828  0.066979  0.177016  1
  O  O21  1  0.783172  0.566979  0.677016  1
  O  O22  1  0.283172  0.933021  0.822984  1
  O  O23  1  0.216828  0.433021  0.322984  1
  O  O24  1  0.540207  0.747257  0.275371  1
  O  O25  1  0.959793  0.247257  0.775371  1
  O  O26  1  0.459793  0.252743  0.724629  1
  O  O27  1  0.040207  0.752743  0.224629  1
  O  O28  1  0.595308  0.212823  0.959804  1
  O  O29  1  0.904692  0.712823  0.459804  1
  O  O30  1  0.404692  0.787177  0.040196  1
  O  O31  1  0.095308  0.287177  0.540196  1
  O  O32  1  0.090103  0.236807  0.045875  1
  O  O33  1  0.409897  0.736807  0.545875  1
  O  O34  1  0.909897  0.763193  0.954125  1
  O  O35  1  0.590103  0.263193  0.454125  1
