# generated using pymatgen
data_Tb3Sm2In4PdRh
_symmetry_space_group_name_H-M   'P 1'
_cell_length_a   8.18348961
_cell_length_b   18.46387164
_cell_length_c   3.68392400
_cell_angle_alpha   90.00000000
_cell_angle_beta   90.00000000
_cell_angle_gamma   89.80578798
_symmetry_Int_Tables_number   1
_chemical_formula_structural   Tb3Sm2In4PdRh
_chemical_formula_sum   'Tb6 Sm4 In8 Pd2 Rh2'
_cell_volume   556.63367307
_cell_formula_units_Z   2
loop_
 _symmetry_equiv_pos_site_id
 _symmetry_equiv_pos_as_xyz
  1  'x, y, z'
loop_
 _atom_site_type_symbol
 _atom_site_label
 _atom_site_symmetry_multiplicity
 _atom_site_fract_x
 _atom_site_fract_y
 _atom_site_fract_z
 _atom_site_occupancy
  Tb  Tb0  1  0.745020  0.779839  0.000000  1
  Tb  Tb1  1  0.254980  0.220161  0.000000  1
  Tb  Tb2  1  0.615945  0.087220  0.000000  1
  Tb  Tb3  1  0.384055  0.912780  0.000000  1
  Tb  Tb4  1  0.881690  0.584856  0.000000  1
  Tb  Tb5  1  0.118310  0.415144  0.000000  1
  Sm  Sm6  1  0.500000  0.500000  0.000000  1
  Sm  Sm7  1  0.000000  0.000000  0.000000  1
  Sm  Sm8  1  0.734133  0.279042  0.000000  1
  Sm  Sm9  1  0.265867  0.720958  0.000000  1
  In  In10  1  0.706032  0.930626  0.500000  1
  In  In11  1  0.293968  0.069374  0.500000  1
  In  In12  1  0.795373  0.432375  0.500000  1
  In  In13  1  0.204627  0.567625  0.500000  1
  In  In14  1  0.577108  0.650205  0.500000  1
  In  In15  1  0.422892  0.349795  0.500000  1
  In  In16  1  0.925848  0.150546  0.500000  1
  In  In17  1  0.074152  0.849454  0.500000  1
  Pd  Pd18  1  0.974740  0.696264  0.500000  1
  Pd  Pd19  1  0.025260  0.303736  0.500000  1
  Rh  Rh20  1  0.519586  0.194083  0.500000  1
  Rh  Rh21  1  0.480414  0.805917  0.500000  1
