# generated using pymatgen
data_Tb11Sm(SiAu)12
_symmetry_space_group_name_H-M   'P 1'
_cell_length_a   4.35509300
_cell_length_b   7.52489690
_cell_length_c   22.60499400
_cell_angle_alpha   89.97204841
_cell_angle_beta   90.00000000
_cell_angle_gamma   90.00000000
_symmetry_Int_Tables_number   1
_chemical_formula_structural   Tb11Sm(SiAu)12
_chemical_formula_sum   'Tb11 Sm1 Si12 Au12'
_cell_volume   740.80231631
_cell_formula_units_Z   1
loop_
 _symmetry_equiv_pos_site_id
 _symmetry_equiv_pos_as_xyz
  1  'x, y, z'
loop_
 _atom_site_type_symbol
 _atom_site_label
 _atom_site_symmetry_multiplicity
 _atom_site_fract_x
 _atom_site_fract_y
 _atom_site_fract_z
 _atom_site_occupancy
  Tb  Tb0  1  0.750000  0.254890  0.666885  1
  Tb  Tb1  1  0.750000  0.247452  0.165448  1
  Tb  Tb2  1  0.250000  0.756117  0.833314  1
  Tb  Tb3  1  0.250000  0.752227  0.165477  1
  Tb  Tb4  1  0.750000  0.245263  0.832958  1
  Tb  Tb5  1  0.750000  0.252736  0.332860  1
  Tb  Tb6  1  0.250000  0.745691  0.667307  1
  Tb  Tb7  1  0.250000  0.744540  0.998897  1
  Tb  Tb8  1  0.750000  0.254826  0.998995  1
  Tb  Tb9  1  0.750000  0.246123  0.500633  1
  Tb  Tb10  1  0.250000  0.754689  0.501030  1
  Sm  Sm11  1  0.250000  0.746629  0.333524  1
  Si  Si12  1  0.250000  0.083529  0.079462  1
  Si  Si13  1  0.750000  0.916377  0.918101  1
  Si  Si14  1  0.750000  0.582738  0.420549  1
  Si  Si15  1  0.250000  0.416477  0.585213  1
  Si  Si16  1  0.250000  0.083699  0.252227  1
  Si  Si17  1  0.750000  0.916139  0.749547  1
  Si  Si18  1  0.750000  0.583096  0.250761  1
  Si  Si19  1  0.250000  0.415717  0.754048  1
  Si  Si20  1  0.250000  0.084882  0.417497  1
  Si  Si21  1  0.750000  0.916527  0.583337  1
  Si  Si22  1  0.750000  0.583340  0.078696  1
  Si  Si23  1  0.250000  0.416825  0.918609  1
  Au  Au24  1  0.250000  0.415584  0.245585  1
  Au  Au25  1  0.750000  0.582947  0.751253  1
  Au  Au26  1  0.750000  0.917453  0.246957  1
  Au  Au27  1  0.250000  0.083017  0.746965  1
  Au  Au28  1  0.250000  0.416363  0.418628  1
  Au  Au29  1  0.750000  0.582849  0.582748  1
  Au  Au30  1  0.750000  0.916570  0.084121  1
  Au  Au31  1  0.250000  0.083605  0.916376  1
  Au  Au32  1  0.250000  0.416823  0.087135  1
  Au  Au33  1  0.750000  0.582991  0.911443  1
  Au  Au34  1  0.750000  0.918026  0.416968  1
  Au  Au35  1  0.250000  0.083242  0.586441  1
