# generated using pymatgen
data_K12Li8Hf3ZrAs12
_symmetry_space_group_name_H-M   'P 1'
_cell_length_a   10.39461650
_cell_length_b   10.39461602
_cell_length_c   15.19306118
_cell_angle_alpha   90.00553838
_cell_angle_beta   90.00554382
_cell_angle_gamma   143.19966220
_symmetry_Int_Tables_number   1
_chemical_formula_structural   K12Li8Hf3ZrAs12
_chemical_formula_sum   'K12 Li8 Hf3 Zr1 As12'
_cell_volume   983.35321616
_cell_formula_units_Z   1
loop_
 _symmetry_equiv_pos_site_id
 _symmetry_equiv_pos_as_xyz
  1  'x, y, z'
loop_
 _atom_site_type_symbol
 _atom_site_label
 _atom_site_symmetry_multiplicity
 _atom_site_fract_x
 _atom_site_fract_y
 _atom_site_fract_z
 _atom_site_occupancy
  K  K0  1  0.605137  0.949471  0.826376  1
  K  K1  1  0.283726  0.284100  0.319120  1
  K  K2  1  0.215851  0.215899  0.819117  1
  K  K3  1  0.715900  0.716274  0.680880  1
  K  K4  1  0.449357  0.104652  0.674199  1
  K  K5  1  0.895348  0.550643  0.325801  1
  K  K6  1  0.050529  0.394863  0.173624  1
  K  K7  1  0.395160  0.050604  0.173368  1
  K  K8  1  0.550711  0.894743  0.325893  1
  K  K9  1  0.105257  0.449289  0.674107  1
  K  K10  1  0.949396  0.604840  0.826632  1
  K  K11  1  0.784101  0.784149  0.180883  1
  Li  Li12  1  0.082907  0.917093  0.000000  1
  Li  Li13  1  0.582413  0.417587  0.500000  1
  Li  Li14  1  0.917060  0.082940  0.000000  1
  Li  Li15  1  0.751433  0.248567  0.000000  1
  Li  Li16  1  0.748754  0.251246  0.500000  1
  Li  Li17  1  0.248637  0.751363  0.000000  1
  Li  Li18  1  0.252246  0.747754  0.500000  1
  Li  Li19  1  0.416797  0.583203  0.500000  1
  Hf  Hf20  1  0.412490  0.587510  0.000000  1
  Hf  Hf21  1  0.912025  0.087975  0.500000  1
  Hf  Hf22  1  0.587487  0.412513  0.000000  1
  Zr  Zr23  1  0.087947  0.912053  0.500000  1
  As  As24  1  0.071914  0.398111  0.406122  1
  As  As25  1  0.897857  0.572189  0.093657  1
  As  As26  1  0.427811  0.102143  0.906343  1
  As  As27  1  0.601889  0.928086  0.593878  1
  As  As28  1  0.927034  0.599699  0.594336  1
  As  As29  1  0.102118  0.427791  0.906371  1
  As  As30  1  0.572209  0.897882  0.093629  1
  As  As31  1  0.400301  0.072966  0.405664  1
  As  As32  1  0.229777  0.231567  0.589605  1
  As  As33  1  0.729717  0.729728  0.910624  1
  As  As34  1  0.270272  0.270283  0.089376  1
  As  As35  1  0.768433  0.770223  0.410395  1
