# generated using pymatgen
data_CsUSiS5
_symmetry_space_group_name_H-M   'P 1'
_cell_length_a   7.62920749
_cell_length_b   7.43964212
_cell_length_c   9.51257700
_cell_angle_alpha   67.12376575
_cell_angle_beta   76.87088146
_cell_angle_gamma   73.24269085
_symmetry_Int_Tables_number   1
_chemical_formula_structural   CsUSiS5
_chemical_formula_sum   'Cs2 U2 Si2 S10'
_cell_volume   472.26042430
_cell_formula_units_Z   2
loop_
 _symmetry_equiv_pos_site_id
 _symmetry_equiv_pos_as_xyz
  1  'x, y, z'
loop_
 _atom_site_type_symbol
 _atom_site_label
 _atom_site_symmetry_multiplicity
 _atom_site_fract_x
 _atom_site_fract_y
 _atom_site_fract_z
 _atom_site_occupancy
  Cs  Cs0  1  0.603026  0.350169  0.317997  1
  Cs  Cs1  1  0.396974  0.649831  0.682003  1
  U  U2  1  0.244163  0.006418  0.005353  1
  U  U3  1  0.755837  0.993582  0.994647  1
  Si  Si4  1  0.977753  0.693710  0.384123  1
  Si  Si5  1  0.022247  0.306290  0.615877  1
  S  S6  1  0.076139  0.755491  0.000506  1
  S  S7  1  0.436514  0.228847  0.025073  1
  S  S8  1  0.715348  0.841928  0.306392  1
  S  S9  1  0.188342  0.856776  0.313537  1
  S  S10  1  0.072965  0.399421  0.365601  1
  S  S11  1  0.927035  0.600579  0.634399  1
  S  S12  1  0.811658  0.143224  0.686463  1
  S  S13  1  0.284652  0.158072  0.693608  1
  S  S14  1  0.563486  0.771153  0.974927  1
  S  S15  1  0.923861  0.244509  0.999494  1
