# generated using pymatgen
data_Y3Sc2Sb3
_symmetry_space_group_name_H-M   'P 1'
_cell_length_a   6.10741300
_cell_length_b   8.84408018
_cell_length_c   8.84377415
_cell_angle_alpha   120.00114563
_cell_angle_beta   90.00000000
_cell_angle_gamma   90.00000000
_symmetry_Int_Tables_number   1
_chemical_formula_structural   Y3Sc2Sb3
_chemical_formula_sum   'Y6 Sc4 Sb6'
_cell_volume   413.68828437
_cell_formula_units_Z   2
loop_
 _symmetry_equiv_pos_site_id
 _symmetry_equiv_pos_as_xyz
  1  'x, y, z'
loop_
 _atom_site_type_symbol
 _atom_site_label
 _atom_site_symmetry_multiplicity
 _atom_site_fract_x
 _atom_site_fract_y
 _atom_site_fract_z
 _atom_site_occupancy
  Y  Y0  1  0.750004  0.247817  0.000000  1
  Y  Y1  1  0.750001  0.752244  0.752231  1
  Y  Y2  1  0.750001  0.000013  0.247769  1
  Y  Y3  1  0.250004  0.752183  0.000000  1
  Y  Y4  1  0.250001  0.247756  0.247769  1
  Y  Y5  1  0.250001  0.999987  0.752231  1
  Sc  Sc6  1  0.499991  0.333356  0.666715  1
  Sc  Sc7  1  0.499991  0.666641  0.333285  1
  Sc  Sc8  1  0.999991  0.666644  0.333285  1
  Sc  Sc9  1  0.999991  0.333359  0.666715  1
  Sb  Sb10  1  0.750004  0.607507  0.000000  1
  Sb  Sb11  1  0.750005  0.392508  0.392512  1
  Sb  Sb12  1  0.750005  0.999995  0.607488  1
  Sb  Sb13  1  0.250004  0.392493  0.000000  1
  Sb  Sb14  1  0.250005  0.607492  0.607488  1
  Sb  Sb15  1  0.250005  0.000005  0.392512  1
