# generated using pymatgen
data_Ho6ErTm13Pb16
_symmetry_space_group_name_H-M   'P 1'
_cell_length_a   8.14345459
_cell_length_b   8.20965529
_cell_length_c   15.48064840
_cell_angle_alpha   90.00545144
_cell_angle_beta   90.04876472
_cell_angle_gamma   89.98405975
_symmetry_Int_Tables_number   1
_chemical_formula_structural   Ho6ErTm13Pb16
_chemical_formula_sum   'Ho6 Er1 Tm13 Pb16'
_cell_volume   1034.95763304
_cell_formula_units_Z   1
loop_
 _symmetry_equiv_pos_site_id
 _symmetry_equiv_pos_as_xyz
  1  'x, y, z'
loop_
 _atom_site_type_symbol
 _atom_site_label
 _atom_site_symmetry_multiplicity
 _atom_site_fract_x
 _atom_site_fract_y
 _atom_site_fract_z
 _atom_site_occupancy
  Ho  Ho0  1  0.036081  0.176606  0.599907  1
  Ho  Ho1  1  0.463931  0.676610  0.400174  1
  Ho  Ho2  1  0.963799  0.823531  0.099828  1
  Ho  Ho3  1  0.463822  0.676500  0.099787  1
  Ho  Ho4  1  0.963911  0.823400  0.400181  1
  Ho  Ho5  1  0.536049  0.323452  0.599812  1
  Er  Er6  1  0.036169  0.176592  0.900122  1
  Tm  Tm7  1  0.377395  0.841109  0.878860  1
  Tm  Tm8  1  0.877333  0.658934  0.621164  1
  Tm  Tm9  1  0.622641  0.158997  0.378855  1
  Tm  Tm10  1  0.122446  0.340899  0.121094  1
  Tm  Tm11  1  0.622470  0.159146  0.121019  1
  Tm  Tm12  1  0.122633  0.340989  0.378846  1
  Tm  Tm13  1  0.377374  0.841080  0.621177  1
  Tm  Tm14  1  0.877375  0.658876  0.878859  1
  Tm  Tm15  1  0.536385  0.323521  0.900047  1
  Tm  Tm16  1  0.208641  0.504276  0.750124  1
  Tm  Tm17  1  0.708472  0.995662  0.750109  1
  Tm  Tm18  1  0.791474  0.495544  0.249970  1
  Tm  Tm19  1  0.291496  0.004459  0.249961  1
  Pb  Pb20  1  0.281270  0.033450  0.042463  1
  Pb  Pb21  1  0.781458  0.466544  0.457507  1
  Pb  Pb22  1  0.718507  0.966512  0.542513  1
  Pb  Pb23  1  0.219080  0.532871  0.957425  1
  Pb  Pb24  1  0.718456  0.966968  0.957449  1
  Pb  Pb25  1  0.218510  0.533521  0.542500  1
  Pb  Pb26  1  0.281479  0.033477  0.457518  1
  Pb  Pb27  1  0.781164  0.466293  0.042235  1
  Pb  Pb28  1  0.571693  0.627199  0.749997  1
  Pb  Pb29  1  0.071726  0.872688  0.750020  1
  Pb  Pb30  1  0.428270  0.372693  0.249992  1
  Pb  Pb31  1  0.928264  0.127365  0.250019  1
  Pb  Pb32  1  0.347981  0.153822  0.750311  1
  Pb  Pb33  1  0.847613  0.346442  0.750148  1
  Pb  Pb34  1  0.652332  0.846533  0.250001  1
  Pb  Pb35  1  0.152299  0.653443  0.250006  1
