# generated using pymatgen
data_Zr12Al7Cu5N4
_symmetry_space_group_name_H-M   'P 1'
_cell_length_a   8.59204375
_cell_length_b   8.56730023
_cell_length_c   8.59204300
_cell_angle_alpha   59.90422097
_cell_angle_beta   59.99989123
_cell_angle_gamma   59.90419724
_symmetry_Int_Tables_number   1
_chemical_formula_structural   Zr12Al7Cu5N4
_chemical_formula_sum   'Zr12 Al7 Cu5 N4'
_cell_volume   446.57173174
_cell_formula_units_Z   1
loop_
 _symmetry_equiv_pos_site_id
 _symmetry_equiv_pos_as_xyz
  1  'x, y, z'
loop_
 _atom_site_type_symbol
 _atom_site_label
 _atom_site_symmetry_multiplicity
 _atom_site_fract_x
 _atom_site_fract_y
 _atom_site_fract_z
 _atom_site_occupancy
  Zr  Zr0  1  0.935986  0.563875  0.564154  1
  Zr  Zr1  1  0.685808  0.314494  0.685807  1
  Zr  Zr2  1  0.935985  0.563876  0.935985  1
  Zr  Zr3  1  0.560745  0.939182  0.939328  1
  Zr  Zr4  1  0.311987  0.688281  0.311987  1
  Zr  Zr5  1  0.560746  0.939180  0.560746  1
  Zr  Zr6  1  0.687746  0.688280  0.311988  1
  Zr  Zr7  1  0.939329  0.939182  0.560745  1
  Zr  Zr8  1  0.313893  0.314493  0.685808  1
  Zr  Zr9  1  0.685808  0.314493  0.313893  1
  Zr  Zr10  1  0.564154  0.563876  0.935986  1
  Zr  Zr11  1  0.311988  0.688280  0.687745  1
  Al  Al12  1  0.241371  0.919774  0.919428  1
  Al  Al13  1  0.331815  0.322276  0.331815  1
  Al  Al14  1  0.331814  0.322275  0.014095  1
  Al  Al15  1  0.918726  0.243816  0.918727  1
  Al  Al16  1  0.919427  0.919774  0.919428  1
  Al  Al17  1  0.014095  0.322275  0.331814  1
  Al  Al18  1  0.919427  0.919774  0.241371  1
  Cu  Cu19  1  0.330445  0.008664  0.330444  1
  Cu  Cu20  1  0.125977  0.622072  0.125978  1
  Cu  Cu21  1  0.122960  0.124993  0.629090  1
  Cu  Cu22  1  0.629088  0.124992  0.122961  1
  Cu  Cu23  1  0.122953  0.124996  0.122953  1
  N  N24  1  0.625310  0.124070  0.625310  1
  N  N25  1  0.623329  0.627587  0.125756  1
  N  N26  1  0.125756  0.627587  0.623328  1
  N  N27  1  0.623329  0.627586  0.623330  1
