# generated using pymatgen
data_PrNd4TmTa2O14
_symmetry_space_group_name_H-M   'P 1'
_cell_length_a   6.66048938
_cell_length_b   6.62832018
_cell_length_c   7.69110701
_cell_angle_alpha   90.00279611
_cell_angle_beta   90.00333930
_cell_angle_gamma   108.85940335
_symmetry_Int_Tables_number   1
_chemical_formula_structural   PrNd4TmTa2O14
_chemical_formula_sum   'Pr1 Nd4 Tm1 Ta2 O14'
_cell_volume   321.31723855
_cell_formula_units_Z   1
loop_
 _symmetry_equiv_pos_site_id
 _symmetry_equiv_pos_as_xyz
  1  'x, y, z'
loop_
 _atom_site_type_symbol
 _atom_site_label
 _atom_site_symmetry_multiplicity
 _atom_site_fract_x
 _atom_site_fract_y
 _atom_site_fract_z
 _atom_site_occupancy
  Pr  Pr0  1  0.529417  0.522467  0.498167  1
  Nd  Nd1  1  0.532741  0.525301  0.001531  1
  Nd  Nd2  1  0.006336  0.463567  0.750665  1
  Nd  Nd3  1  0.533003  0.002993  0.750606  1
  Nd  Nd4  1  0.462560  0.002484  0.249281  1
  Tm  Tm5  1  0.002729  0.528939  0.249345  1
  Ta  Ta6  1  0.001072  0.001773  0.497057  1
  Ta  Ta7  1  0.001404  0.001948  0.002932  1
  O  O8  1  0.946188  0.057694  0.749997  1
  O  O9  1  0.059979  0.935671  0.250015  1
  O  O10  1  0.349021  0.633245  0.248337  1
  O  O11  1  0.642739  0.369308  0.751892  1
  O  O12  1  0.371232  0.631425  0.752066  1
  O  O13  1  0.648038  0.377841  0.247981  1
  O  O14  1  0.309950  0.073846  0.969838  1
  O  O15  1  0.678834  0.918809  0.472854  1
  O  O16  1  0.310546  0.073984  0.530186  1
  O  O17  1  0.678492  0.917084  0.027020  1
  O  O18  1  0.035552  0.301159  0.455486  1
  O  O19  1  0.932194  0.679976  0.978659  1
  O  O20  1  0.933330  0.680191  0.521486  1
  O  O21  1  0.034645  0.300296  0.044599  1
