# generated using pymatgen
data_CaHo3Cr2(SbO7)2
_symmetry_space_group_name_H-M   'P 1'
_cell_length_a   7.29591007
_cell_length_b   7.14829075
_cell_length_c   7.34861301
_cell_angle_alpha   90.00004150
_cell_angle_beta   59.75709773
_cell_angle_gamma   120.15442726
_symmetry_Int_Tables_number   1
_chemical_formula_structural   CaHo3Cr2(SbO7)2
_chemical_formula_sum   'Ca1 Ho3 Cr2 Sb2 O14'
_cell_volume   269.36594861
_cell_formula_units_Z   1
loop_
 _symmetry_equiv_pos_site_id
 _symmetry_equiv_pos_as_xyz
  1  'x, y, z'
loop_
 _atom_site_type_symbol
 _atom_site_label
 _atom_site_symmetry_multiplicity
 _atom_site_fract_x
 _atom_site_fract_y
 _atom_site_fract_z
 _atom_site_occupancy
  Ca  Ca0  1  0.500016  0.500026  0.000008  1
  Ho  Ho1  1  0.499996  0.000004  0.999994  1
  Ho  Ho2  1  0.999998  0.000003  0.499985  1
  Ho  Ho3  1  0.999957  0.999975  0.000021  1
  Cr  Cr4  1  0.500003  0.000009  0.499953  1
  Cr  Cr5  1  0.500013  0.499971  0.500056  1
  Sb  Sb6  1  0.999943  0.499962  0.000033  1
  Sb  Sb7  1  0.000033  0.500054  0.499982  1
  O  O8  1  0.239682  0.112016  0.130137  1
  O  O9  1  0.760309  0.887993  0.869834  1
  O  O10  1  0.651330  0.819179  0.424354  1
  O  O11  1  0.835498  0.415015  0.832251  1
  O  O12  1  0.248928  0.836637  0.834488  1
  O  O13  1  0.247727  0.418656  0.425337  1
  O  O14  1  0.247755  0.418682  0.826947  1
  O  O15  1  0.248945  0.836634  0.416537  1
  O  O16  1  0.348683  0.180831  0.575656  1
  O  O17  1  0.164517  0.584994  0.167727  1
  O  O18  1  0.751098  0.163379  0.165474  1
  O  O19  1  0.752279  0.581312  0.574696  1
  O  O20  1  0.752247  0.581317  0.173080  1
  O  O21  1  0.751046  0.163352  0.583449  1
