# generated using pymatgen
data_Ho4C2I3
_symmetry_space_group_name_H-M   'P 1'
_cell_length_a   3.76184300
_cell_length_b   11.08912700
_cell_length_c   21.57846100
_cell_angle_alpha   90.00000000
_cell_angle_beta   90.00000000
_cell_angle_gamma   90.00000000
_symmetry_Int_Tables_number   1
_chemical_formula_structural   Ho4C2I3
_chemical_formula_sum   'Ho16 C8 I12'
_cell_volume   900.15747194
_cell_formula_units_Z   4
loop_
 _symmetry_equiv_pos_site_id
 _symmetry_equiv_pos_as_xyz
  1  'x, y, z'
loop_
 _atom_site_type_symbol
 _atom_site_label
 _atom_site_symmetry_multiplicity
 _atom_site_fract_x
 _atom_site_fract_y
 _atom_site_fract_z
 _atom_site_occupancy
  Ho  Ho0  1  0.250000  0.868763  0.590492  1
  Ho  Ho1  1  0.750000  0.131237  0.409508  1
  Ho  Ho2  1  0.750000  0.631237  0.090492  1
  Ho  Ho3  1  0.250000  0.368763  0.909508  1
  Ho  Ho4  1  0.250000  0.865473  0.743826  1
  Ho  Ho5  1  0.750000  0.134527  0.256174  1
  Ho  Ho6  1  0.750000  0.634527  0.243826  1
  Ho  Ho7  1  0.250000  0.365473  0.756174  1
  Ho  Ho8  1  0.250000  0.862372  0.174462  1
  Ho  Ho9  1  0.750000  0.137628  0.825538  1
  Ho  Ho10  1  0.750000  0.637628  0.674462  1
  Ho  Ho11  1  0.250000  0.362372  0.325538  1
  Ho  Ho12  1  0.250000  0.905648  0.323164  1
  Ho  Ho13  1  0.750000  0.094352  0.676836  1
  Ho  Ho14  1  0.750000  0.594352  0.823164  1
  Ho  Ho15  1  0.250000  0.405648  0.176836  1
  C  C16  1  0.250000  0.614471  0.750256  1
  C  C17  1  0.750000  0.385529  0.249744  1
  C  C18  1  0.750000  0.885529  0.250256  1
  C  C19  1  0.250000  0.114471  0.749744  1
  C  C20  1  0.250000  0.632809  0.161719  1
  C  C21  1  0.750000  0.367191  0.838281  1
  C  C22  1  0.750000  0.867191  0.661719  1
  C  C23  1  0.250000  0.132809  0.338281  1
  I  I24  1  0.250000  0.612694  0.555766  1
  I  I25  1  0.750000  0.387306  0.444234  1
  I  I26  1  0.750000  0.887306  0.055766  1
  I  I27  1  0.250000  0.112694  0.944234  1
  I  I28  1  0.250000  0.628934  0.952664  1
  I  I29  1  0.750000  0.371066  0.047336  1
  I  I30  1  0.750000  0.871066  0.452664  1
  I  I31  1  0.250000  0.128934  0.547336  1
  I  I32  1  0.250000  0.635731  0.357493  1
  I  I33  1  0.750000  0.364269  0.642507  1
  I  I34  1  0.750000  0.864269  0.857493  1
  I  I35  1  0.250000  0.135731  0.142507  1
