# generated using pymatgen
data_TbYb6DyBi6
_symmetry_space_group_name_H-M   'P 1'
_cell_length_a   8.18586839
_cell_length_b   8.36588321
_cell_length_c   8.36588344
_cell_angle_alpha   109.90300035
_cell_angle_beta   109.03590978
_cell_angle_gamma   109.03591227
_symmetry_Int_Tables_number   1
_chemical_formula_structural   TbYb6DyBi6
_chemical_formula_sum   'Tb1 Yb6 Dy1 Bi6'
_cell_volume   443.37528805
_cell_formula_units_Z   1
loop_
 _symmetry_equiv_pos_site_id
 _symmetry_equiv_pos_as_xyz
  1  'x, y, z'
loop_
 _atom_site_type_symbol
 _atom_site_label
 _atom_site_symmetry_multiplicity
 _atom_site_fract_x
 _atom_site_fract_y
 _atom_site_fract_z
 _atom_site_occupancy
  Tb  Tb0  1  0.141418  0.500000  0.000000  1
  Yb  Yb1  1  0.500932  0.998951  0.646567  1
  Yb  Yb2  1  0.354472  0.352376  0.353561  1
  Yb  Yb3  1  0.502097  0.001185  0.147624  1
  Yb  Yb4  1  0.001982  0.647617  0.501049  1
  Yb  Yb5  1  0.854365  0.853433  0.852383  1
  Yb  Yb6  1  0.000910  0.146439  0.498815  1
  Dy  Dy7  1  0.641359  0.500000  0.000000  1
  Bi  Bi8  1  0.376958  0.623097  0.755648  1
  Bi  Bi9  1  0.876328  0.255414  0.123235  1
  Bi  Bi10  1  0.621310  0.744352  0.367448  1
  Bi  Bi11  1  0.120914  0.867820  0.244586  1
  Bi  Bi12  1  0.253862  0.132552  0.876903  1
  Bi  Bi13  1  0.753093  0.376765  0.632180  1
