# generated using pymatgen
data_Sm2V3As7Rh9
_symmetry_space_group_name_H-M   'P 1'
_cell_length_a   3.95720402
_cell_length_b   9.93787307
_cell_length_c   9.93843990
_cell_angle_alpha   119.98412837
_cell_angle_beta   89.99974220
_cell_angle_gamma   89.99263592
_symmetry_Int_Tables_number   1
_chemical_formula_structural   Sm2V3As7Rh9
_chemical_formula_sum   'Sm2 V3 As7 Rh9'
_cell_volume   338.53234121
_cell_formula_units_Z   1
loop_
 _symmetry_equiv_pos_site_id
 _symmetry_equiv_pos_as_xyz
  1  'x, y, z'
loop_
 _atom_site_type_symbol
 _atom_site_label
 _atom_site_symmetry_multiplicity
 _atom_site_fract_x
 _atom_site_fract_y
 _atom_site_fract_z
 _atom_site_occupancy
  Sm  Sm0  1  0.261921  0.666550  0.333282  1
  Sm  Sm1  1  0.761853  0.333472  0.666619  1
  V  V2  1  0.762113  0.096910  0.879703  1
  V  V3  1  0.762106  0.120457  0.217276  1
  V  V4  1  0.762074  0.782617  0.903206  1
  As  As5  1  0.262427  0.999993  0.000053  1
  As  As6  1  0.761780  0.884190  0.592993  1
  As  As7  1  0.761877  0.406805  0.291015  1
  As  As8  1  0.761737  0.708946  0.115947  1
  As  As9  1  0.261747  0.117143  0.410369  1
  As  As10  1  0.261750  0.589690  0.706936  1
  As  As11  1  0.261721  0.293200  0.882690  1
  Rh  Rh12  1  0.261875  0.881824  0.156628  1
  Rh  Rh13  1  0.261971  0.843551  0.725286  1
  Rh  Rh14  1  0.261835  0.274812  0.118304  1
  Rh  Rh15  1  0.761869  0.615659  0.564618  1
  Rh  Rh16  1  0.761938  0.435100  0.051008  1
  Rh  Rh17  1  0.761799  0.949057  0.384173  1
  Rh  Rh18  1  0.261877  0.371358  0.436366  1
  Rh  Rh19  1  0.261874  0.563664  0.934938  1
  Rh  Rh20  1  0.261858  0.065002  0.628587  1
