# generated using pymatgen
data_La5Eu3(CdTc)2
_symmetry_space_group_name_H-M   'P 1'
_cell_length_a   10.07536658
_cell_length_b   10.07536641
_cell_length_c   10.07536600
_cell_angle_alpha   59.99999477
_cell_angle_beta   59.99999534
_cell_angle_gamma   60.00000011
_symmetry_Int_Tables_number   1
_chemical_formula_structural   La5Eu3(CdTc)2
_chemical_formula_sum   'La10 Eu6 Cd4 Tc4'
_cell_volume   723.21513571
_cell_formula_units_Z   2
loop_
 _symmetry_equiv_pos_site_id
 _symmetry_equiv_pos_as_xyz
  1  'x, y, z'
loop_
 _atom_site_type_symbol
 _atom_site_label
 _atom_site_symmetry_multiplicity
 _atom_site_fract_x
 _atom_site_fract_y
 _atom_site_fract_z
 _atom_site_occupancy
  La  La0  1  0.345025  0.345025  0.345025  1
  La  La1  1  0.345025  0.345025  0.964926  1
  La  La2  1  0.345025  0.964926  0.345025  1
  La  La3  1  0.964926  0.345025  0.345025  1
  La  La4  1  0.811667  0.188333  0.188333  1
  La  La5  1  0.188333  0.811667  0.811667  1
  La  La6  1  0.188333  0.811667  0.188333  1
  La  La7  1  0.811667  0.188333  0.811667  1
  La  La8  1  0.188333  0.188333  0.811667  1
  La  La9  1  0.811667  0.811667  0.188333  1
  Eu  Eu10  1  0.941195  0.558805  0.558805  1
  Eu  Eu11  1  0.558805  0.941195  0.941195  1
  Eu  Eu12  1  0.558805  0.941195  0.558805  1
  Eu  Eu13  1  0.941195  0.558805  0.941195  1
  Eu  Eu14  1  0.558805  0.558805  0.941195  1
  Eu  Eu15  1  0.941195  0.941195  0.558805  1
  Cd  Cd16  1  0.579008  0.579008  0.579008  1
  Cd  Cd17  1  0.579008  0.579008  0.262975  1
  Cd  Cd18  1  0.579008  0.262975  0.579008  1
  Cd  Cd19  1  0.262975  0.579008  0.579008  1
  Tc  Tc20  1  0.133217  0.133217  0.133217  1
  Tc  Tc21  1  0.133217  0.133217  0.600350  1
  Tc  Tc22  1  0.133217  0.600350  0.133217  1
  Tc  Tc23  1  0.600350  0.133217  0.133217  1
