# generated using pymatgen
data_ErBi3RuRh3O14
_symmetry_space_group_name_H-M   'P 1'
_cell_length_a   7.26837117
_cell_length_b   7.32550293
_cell_length_c   7.32550200
_cell_angle_alpha   60.00000422
_cell_angle_beta   59.73964437
_cell_angle_gamma   59.73964756
_symmetry_Int_Tables_number   1
_chemical_formula_structural   ErBi3RuRh3O14
_chemical_formula_sum   'Er1 Bi3 Ru1 Rh3 O14'
_cell_volume   274.71137150
_cell_formula_units_Z   1
loop_
 _symmetry_equiv_pos_site_id
 _symmetry_equiv_pos_as_xyz
  1  'x, y, z'
loop_
 _atom_site_type_symbol
 _atom_site_label
 _atom_site_symmetry_multiplicity
 _atom_site_fract_x
 _atom_site_fract_y
 _atom_site_fract_z
 _atom_site_occupancy
  Er  Er0  1  0.625000  0.125000  0.125000  1
  Bi  Bi1  1  0.125000  0.125000  0.125000  1
  Bi  Bi2  1  0.125000  0.625000  0.125000  1
  Bi  Bi3  1  0.125000  0.125000  0.625000  1
  Ru  Ru4  1  0.125000  0.625000  0.625000  1
  Rh  Rh5  1  0.625000  0.625000  0.625000  1
  Rh  Rh6  1  0.625000  0.625000  0.125000  1
  Rh  Rh7  1  0.625000  0.125000  0.625000  1
  O  O8  1  0.258415  0.247195  0.247195  1
  O  O9  1  0.293088  0.704511  0.297891  1
  O  O10  1  0.956912  0.952109  0.545489  1
  O  O11  1  0.540772  0.963078  0.533071  1
  O  O12  1  0.709228  0.716929  0.286922  1
  O  O13  1  0.956912  0.545489  0.545489  1
  O  O14  1  0.709228  0.286922  0.716929  1
  O  O15  1  0.293088  0.297891  0.704511  1
  O  O16  1  0.709228  0.286922  0.286922  1
  O  O17  1  0.293088  0.704511  0.704511  1
  O  O18  1  0.956912  0.545489  0.952109  1
  O  O19  1  0.540772  0.533071  0.963078  1
  O  O20  1  0.991585  0.002805  0.002805  1
  O  O21  1  0.540772  0.963078  0.963078  1
