# generated using pymatgen
data_Li12Ca6Zn4N
_symmetry_space_group_name_H-M   'P 1'
_cell_length_a   8.64059164
_cell_length_b   8.64059034
_cell_length_c   8.64059000
_cell_angle_alpha   109.47122219
_cell_angle_beta   109.47121913
_cell_angle_gamma   109.47122520
_symmetry_Int_Tables_number   1
_chemical_formula_structural   Li12Ca6Zn4N
_chemical_formula_sum   'Li12 Ca6 Zn4 N1'
_cell_volume   496.60190180
_cell_formula_units_Z   1
loop_
 _symmetry_equiv_pos_site_id
 _symmetry_equiv_pos_as_xyz
  1  'x, y, z'
loop_
 _atom_site_type_symbol
 _atom_site_label
 _atom_site_symmetry_multiplicity
 _atom_site_fract_x
 _atom_site_fract_y
 _atom_site_fract_z
 _atom_site_occupancy
  Li  Li0  1  0.671408  0.335704  0.335704  1
  Li  Li1  1  0.335704  0.000000  0.664296  1
  Li  Li2  1  0.335704  0.671408  0.335704  1
  Li  Li3  1  0.335704  0.335704  0.671408  1
  Li  Li4  1  0.335704  0.664296  0.000000  1
  Li  Li5  1  0.000000  0.335704  0.664296  1
  Li  Li6  1  0.000000  0.664296  0.335704  1
  Li  Li7  1  0.664296  0.664296  0.328592  1
  Li  Li8  1  0.664296  0.000000  0.335704  1
  Li  Li9  1  0.664296  0.335704  0.000000  1
  Li  Li10  1  0.664296  0.328592  0.664296  1
  Li  Li11  1  0.328592  0.664296  0.664296  1
  Ca  Ca12  1  0.000000  0.243058  0.243058  1
  Ca  Ca13  1  0.243058  0.000000  0.243058  1
  Ca  Ca14  1  0.756942  0.000000  0.756942  1
  Ca  Ca15  1  0.756942  0.756942  0.000000  1
  Ca  Ca16  1  0.243058  0.243058  0.000000  1
  Ca  Ca17  1  0.000000  0.756942  0.756942  1
  Zn  Zn18  1  0.500000  0.500000  0.500000  1
  Zn  Zn19  1  0.500000  0.000000  0.000000  1
  Zn  Zn20  1  0.000000  0.500000  0.000000  1
  Zn  Zn21  1  0.000000  0.000000  0.500000  1
  N  N22  1  0.000000  0.000000  0.000000  1
