# generated using pymatgen
data_Hf6CoPPb
_symmetry_space_group_name_H-M   'P 1'
_cell_length_a   3.42909600
_cell_length_b   7.75012975
_cell_length_c   7.74943501
_cell_angle_alpha   120.00455052
_cell_angle_beta   90.00000000
_cell_angle_gamma   90.00000000
_symmetry_Int_Tables_number   1
_chemical_formula_structural   Hf6CoPPb
_chemical_formula_sum   'Hf6 Co1 P1 Pb1'
_cell_volume   178.34846395
_cell_formula_units_Z   1
loop_
 _symmetry_equiv_pos_site_id
 _symmetry_equiv_pos_as_xyz
  1  'x, y, z'
loop_
 _atom_site_type_symbol
 _atom_site_label
 _atom_site_symmetry_multiplicity
 _atom_site_fract_x
 _atom_site_fract_y
 _atom_site_fract_z
 _atom_site_occupancy
  Hf  Hf0  1  0.500000  0.614958  0.041812  1
  Hf  Hf1  1  0.500000  0.426825  0.385071  1
  Hf  Hf2  1  0.500000  0.958204  0.573150  1
  Hf  Hf3  1  0.000000  0.246246  0.004257  1
  Hf  Hf4  1  0.000000  0.757985  0.753710  1
  Hf  Hf5  1  0.000000  0.995725  0.241998  1
  Co  Co6  1  0.500000  0.999980  0.999999  1
  P  P7  1  0.000000  0.666681  0.333356  1
  Pb  Pb8  1  0.000000  0.333297  0.666648  1
