# generated using pymatgen
data_Ac8Si13Sb
_symmetry_space_group_name_H-M   'P 1'
_cell_length_a   8.50076976
_cell_length_b   8.39521255
_cell_length_c   9.15629600
_cell_angle_alpha   90.00000000
_cell_angle_beta   90.00000000
_cell_angle_gamma   120.31788808
_symmetry_Int_Tables_number   1
_chemical_formula_structural   Ac8Si13Sb
_chemical_formula_sum   'Ac8 Si13 Sb1'
_cell_volume   564.07950356
_cell_formula_units_Z   1
loop_
 _symmetry_equiv_pos_site_id
 _symmetry_equiv_pos_as_xyz
  1  'x, y, z'
loop_
 _atom_site_type_symbol
 _atom_site_label
 _atom_site_symmetry_multiplicity
 _atom_site_fract_x
 _atom_site_fract_y
 _atom_site_fract_z
 _atom_site_occupancy
  Ac  Ac0  1  0.258407  0.250396  0.992893  1
  Ac  Ac1  1  0.749217  0.750084  0.999111  1
  Ac  Ac2  1  0.749217  0.750084  0.500889  1
  Ac  Ac3  1  0.258407  0.250396  0.507107  1
  Ac  Ac4  1  0.250899  0.749602  0.498755  1
  Ac  Ac5  1  0.742219  0.249635  0.507311  1
  Ac  Ac6  1  0.742219  0.249635  0.992689  1
  Ac  Ac7  1  0.250899  0.749602  0.001245  1
  Si  Si8  1  0.923266  0.595113  0.750000  1
  Si  Si9  1  0.581829  0.414688  0.250000  1
  Si  Si10  1  0.416058  0.583882  0.750000  1
  Si  Si11  1  0.431153  0.593261  0.250000  1
  Si  Si12  1  0.588810  0.417397  0.750000  1
  Si  Si13  1  0.082103  0.927425  0.250000  1
  Si  Si14  1  0.918125  0.082261  0.750000  1
  Si  Si15  1  0.596138  0.927338  0.250000  1
  Si  Si16  1  0.409846  0.077261  0.750000  1
  Si  Si17  1  0.913481  0.592495  0.250000  1
  Si  Si18  1  0.076069  0.416576  0.750000  1
  Si  Si19  1  0.413969  0.074774  0.250000  1
  Si  Si20  1  0.584434  0.921237  0.750000  1
  Sb  Sb21  1  0.063235  0.376856  0.250000  1
