# generated using pymatgen
data_Dy5Mg3(Si3Ir4)4
_symmetry_space_group_name_H-M   'P 1'
_cell_length_a   12.99921500
_cell_length_b   12.99921489
_cell_length_c   3.99676000
_cell_angle_alpha   90.00000000
_cell_angle_beta   90.00000000
_cell_angle_gamma   120.00000283
_symmetry_Int_Tables_number   1
_chemical_formula_structural   Dy5Mg3(Si3Ir4)4
_chemical_formula_sum   'Dy5 Mg3 Si12 Ir16'
_cell_volume   584.88830739
_cell_formula_units_Z   1
loop_
 _symmetry_equiv_pos_site_id
 _symmetry_equiv_pos_as_xyz
  1  'x, y, z'
loop_
 _atom_site_type_symbol
 _atom_site_label
 _atom_site_symmetry_multiplicity
 _atom_site_fract_x
 _atom_site_fract_y
 _atom_site_fract_z
 _atom_site_occupancy
  Dy  Dy0  1  0.333333  0.666667  0.500000  1
  Dy  Dy1  1  0.666667  0.333333  0.500000  1
  Dy  Dy2  1  0.000000  0.817260  0.000000  1
  Dy  Dy3  1  0.182740  0.182740  0.000000  1
  Dy  Dy4  1  0.817260  0.000000  0.000000  1
  Mg  Mg5  1  0.000000  0.438232  0.500000  1
  Mg  Mg6  1  0.561768  0.561768  0.500000  1
  Mg  Mg7  1  0.438232  0.000000  0.500000  1
  Si  Si8  1  0.000000  0.635990  0.500000  1
  Si  Si9  1  0.364010  0.364010  0.500000  1
  Si  Si10  1  0.635990  0.000000  0.500000  1
  Si  Si11  1  0.517693  0.694491  0.000000  1
  Si  Si12  1  0.305509  0.823202  0.000000  1
  Si  Si13  1  0.176798  0.482307  0.000000  1
  Si  Si14  1  0.482307  0.176798  0.000000  1
  Si  Si15  1  0.694491  0.517693  0.000000  1
  Si  Si16  1  0.823202  0.305509  0.000000  1
  Si  Si17  1  0.000000  0.183515  0.500000  1
  Si  Si18  1  0.816485  0.816485  0.500000  1
  Si  Si19  1  0.183515  0.000000  0.500000  1
  Ir  Ir20  1  0.510123  0.875190  0.000000  1
  Ir  Ir21  1  0.124810  0.634934  0.000000  1
  Ir  Ir22  1  0.365066  0.489877  0.000000  1
  Ir  Ir23  1  0.489877  0.365066  0.000000  1
  Ir  Ir24  1  0.875190  0.510123  0.000000  1
  Ir  Ir25  1  0.634934  0.124810  0.000000  1
  Ir  Ir26  1  0.000000  0.281160  0.000000  1
  Ir  Ir27  1  0.718840  0.718840  0.000000  1
  Ir  Ir28  1  0.281160  0.000000  0.000000  1
  Ir  Ir29  1  0.624800  0.806631  0.500000  1
  Ir  Ir30  1  0.193369  0.818169  0.500000  1
  Ir  Ir31  1  0.181831  0.375200  0.500000  1
  Ir  Ir32  1  0.375200  0.181831  0.500000  1
  Ir  Ir33  1  0.806631  0.624800  0.500000  1
  Ir  Ir34  1  0.818169  0.193369  0.500000  1
  Ir  Ir35  1  0.000000  0.000000  0.500000  1
