# generated using pymatgen
data_Lu2Sn4Ir3
_symmetry_space_group_name_H-M   'P 1'
_cell_length_a   7.03933542
_cell_length_b   7.62249089
_cell_length_c   4.10463300
_cell_angle_alpha   90.00000000
_cell_angle_beta   90.00000000
_cell_angle_gamma   122.78043993
_symmetry_Int_Tables_number   1
_chemical_formula_structural   Lu2Sn4Ir3
_chemical_formula_sum   'Lu2 Sn4 Ir3'
_cell_volume   185.16996745
_cell_formula_units_Z   1
loop_
 _symmetry_equiv_pos_site_id
 _symmetry_equiv_pos_as_xyz
  1  'x, y, z'
loop_
 _atom_site_type_symbol
 _atom_site_label
 _atom_site_symmetry_multiplicity
 _atom_site_fract_x
 _atom_site_fract_y
 _atom_site_fract_z
 _atom_site_occupancy
  Lu  Lu0  1  0.585256  0.598376  0.500000  1
  Lu  Lu1  1  0.414744  0.013121  0.500000  1
  Sn  Sn2  1  0.000000  0.388451  0.500000  1
  Sn  Sn3  1  0.000000  0.764162  0.000000  1
  Sn  Sn4  1  0.280871  0.261874  0.000000  1
  Sn  Sn5  1  0.719129  0.981003  0.000000  1
  Ir  Ir6  1  0.288395  0.634067  0.000000  1
  Ir  Ir7  1  0.711605  0.345672  0.000000  1
  Ir  Ir8  1  0.000000  0.013274  0.500000  1
