# generated using pymatgen
data_Ho2Er3Sn4
_symmetry_space_group_name_H-M   'P 1'
_cell_length_a   7.99901600
_cell_length_b   8.11736900
_cell_length_c   15.35644900
_cell_angle_alpha   90.00000000
_cell_angle_beta   90.00000000
_cell_angle_gamma   90.00000000
_symmetry_Int_Tables_number   1
_chemical_formula_structural   Ho2Er3Sn4
_chemical_formula_sum   'Ho8 Er12 Sn16'
_cell_volume   997.10904500
_cell_formula_units_Z   4
loop_
 _symmetry_equiv_pos_site_id
 _symmetry_equiv_pos_as_xyz
  1  'x, y, z'
loop_
 _atom_site_type_symbol
 _atom_site_label
 _atom_site_symmetry_multiplicity
 _atom_site_fract_x
 _atom_site_fract_y
 _atom_site_fract_z
 _atom_site_occupancy
  Ho  Ho0  1  0.521284  0.320824  0.903055  1
  Ho  Ho1  1  0.021284  0.179176  0.596945  1
  Ho  Ho2  1  0.478716  0.679176  0.403055  1
  Ho  Ho3  1  0.978716  0.820824  0.096945  1
  Ho  Ho4  1  0.478716  0.679176  0.096945  1
  Ho  Ho5  1  0.978716  0.820824  0.403055  1
  Ho  Ho6  1  0.521284  0.320824  0.596945  1
  Ho  Ho7  1  0.021284  0.179176  0.903055  1
  Er  Er8  1  0.368120  0.837674  0.877353  1
  Er  Er9  1  0.868120  0.662326  0.622647  1
  Er  Er10  1  0.631880  0.162326  0.377353  1
  Er  Er11  1  0.131880  0.337674  0.122647  1
  Er  Er12  1  0.631880  0.162326  0.122647  1
  Er  Er13  1  0.131880  0.337674  0.377353  1
  Er  Er14  1  0.368120  0.837674  0.622647  1
  Er  Er15  1  0.868120  0.662326  0.877353  1
  Er  Er16  1  0.199037  0.503883  0.750000  1
  Er  Er17  1  0.699037  0.996117  0.750000  1
  Er  Er18  1  0.800963  0.496117  0.250000  1
  Er  Er19  1  0.300963  0.003883  0.250000  1
  Sn  Sn20  1  0.292889  0.037495  0.041472  1
  Sn  Sn21  1  0.792889  0.462505  0.458528  1
  Sn  Sn22  1  0.707111  0.962505  0.541472  1
  Sn  Sn23  1  0.207111  0.537495  0.958528  1
  Sn  Sn24  1  0.707111  0.962505  0.958528  1
  Sn  Sn25  1  0.207111  0.537495  0.541472  1
  Sn  Sn26  1  0.292889  0.037495  0.458528  1
  Sn  Sn27  1  0.792889  0.462505  0.041472  1
  Sn  Sn28  1  0.565391  0.618580  0.750000  1
  Sn  Sn29  1  0.065391  0.881420  0.750000  1
  Sn  Sn30  1  0.434609  0.381420  0.250000  1
  Sn  Sn31  1  0.934609  0.118580  0.250000  1
  Sn  Sn32  1  0.331701  0.148787  0.750000  1
  Sn  Sn33  1  0.831701  0.351213  0.750000  1
  Sn  Sn34  1  0.668299  0.851213  0.250000  1
  Sn  Sn35  1  0.168299  0.648787  0.250000  1
