# generated using pymatgen
data_Dy2CoB8Ru7
_symmetry_space_group_name_H-M   'P 1'
_cell_length_a   9.15660190
_cell_length_b   7.42923741
_cell_length_c   7.43391176
_cell_angle_alpha   89.93882671
_cell_angle_beta   113.89008233
_cell_angle_gamma   114.41079394
_symmetry_Int_Tables_number   1
_chemical_formula_structural   Dy2CoB8Ru7
_chemical_formula_sum   'Dy4 Co2 B16 Ru14'
_cell_volume   412.55852978
_cell_formula_units_Z   2
loop_
 _symmetry_equiv_pos_site_id
 _symmetry_equiv_pos_as_xyz
  1  'x, y, z'
loop_
 _atom_site_type_symbol
 _atom_site_label
 _atom_site_symmetry_multiplicity
 _atom_site_fract_x
 _atom_site_fract_y
 _atom_site_fract_z
 _atom_site_occupancy
  Dy  Dy0  1  0.747989  0.875633  0.124102  1
  Dy  Dy1  1  0.247998  0.625204  0.372382  1
  Dy  Dy2  1  0.750735  0.372766  0.631292  1
  Dy  Dy3  1  0.250579  0.118583  0.877094  1
  Co  Co4  1  0.875232  0.548397  0.038590  1
  Co  Co5  1  0.372535  0.834559  0.047515  1
  B  B6  1  0.914460  0.293800  0.065846  1
  B  B7  1  0.417963  0.576670  0.128559  1
  B  B8  1  0.085189  0.210785  0.152321  1
  B  B9  1  0.579341  0.147625  0.203396  1
  B  B10  1  0.403459  0.052492  0.278660  1
  B  B11  1  0.918251  0.629062  0.342399  1
  B  B12  1  0.587734  0.648946  0.375430  1
  B  B13  1  0.088647  0.878392  0.442366  1
  B  B14  1  0.910857  0.124045  0.560885  1
  B  B15  1  0.416221  0.348091  0.624796  1
  B  B16  1  0.086965  0.375837  0.657185  1
  B  B17  1  0.586683  0.935081  0.709719  1
  B  B18  1  0.415937  0.850332  0.794336  1
  B  B19  1  0.909325  0.783880  0.850053  1
  B  B20  1  0.592963  0.440060  0.877246  1
  B  B21  1  0.085415  0.708912  0.938984  1
  Ru  Ru22  1  0.115974  0.938920  0.165225  1
  Ru  Ru23  1  0.631298  0.464582  0.177069  1
  Ru  Ru24  1  0.373284  0.331192  0.316941  1
  Ru  Ru25  1  0.872845  0.323653  0.334088  1
  Ru  Ru26  1  0.620857  0.956731  0.438242  1
  Ru  Ru27  1  0.128436  0.181727  0.463486  1
  Ru  Ru28  1  0.873926  0.820686  0.539389  1
  Ru  Ru29  1  0.373768  0.037264  0.550856  1
  Ru  Ru30  1  0.130649  0.682036  0.672907  1
  Ru  Ru31  1  0.623944  0.664822  0.675823  1
  Ru  Ru32  1  0.375682  0.540864  0.825947  1
  Ru  Ru33  1  0.873651  0.053442  0.832207  1
  Ru  Ru34  1  0.630100  0.171615  0.947908  1
  Ru  Ru35  1  0.131108  0.453317  0.966760  1
