# generated using pymatgen
data_ZrSc3(Co3Si)2
_symmetry_space_group_name_H-M   'P 1'
_cell_length_a   5.02143700
_cell_length_b   5.02143675
_cell_length_c   7.50114900
_cell_angle_alpha   90.00000000
_cell_angle_beta   90.00000000
_cell_angle_gamma   119.99999509
_symmetry_Int_Tables_number   1
_chemical_formula_structural   ZrSc3(Co3Si)2
_chemical_formula_sum   'Zr1 Sc3 Co6 Si2'
_cell_volume   163.80021218
_cell_formula_units_Z   1
loop_
 _symmetry_equiv_pos_site_id
 _symmetry_equiv_pos_as_xyz
  1  'x, y, z'
loop_
 _atom_site_type_symbol
 _atom_site_label
 _atom_site_symmetry_multiplicity
 _atom_site_fract_x
 _atom_site_fract_y
 _atom_site_fract_z
 _atom_site_occupancy
  Zr  Zr0  1  0.333333  0.666667  0.563427  1
  Sc  Sc1  1  0.666667  0.333333  0.435683  1
  Sc  Sc2  1  0.666667  0.333333  0.059256  1
  Sc  Sc3  1  0.333333  0.666667  0.944201  1
  Co  Co4  1  0.829124  0.170876  0.748654  1
  Co  Co5  1  0.661384  0.830692  0.250903  1
  Co  Co6  1  0.169308  0.830692  0.250903  1
  Co  Co7  1  0.829124  0.658249  0.748654  1
  Co  Co8  1  0.169308  0.338616  0.250903  1
  Co  Co9  1  0.341751  0.170876  0.748654  1
  Si  Si10  1  0.000000  0.000000  0.500968  1
  Si  Si11  1  0.000000  0.000000  0.997795  1
