# generated using pymatgen
data_Hf4Ta6MnTc
_symmetry_space_group_name_H-M   'P 1'
_cell_length_a   5.68395900
_cell_length_b   5.68395935
_cell_length_c   8.29433800
_cell_angle_alpha   90.00000000
_cell_angle_beta   90.00000000
_cell_angle_gamma   120.00000380
_symmetry_Int_Tables_number   1
_chemical_formula_structural   Hf4Ta6MnTc
_chemical_formula_sum   'Hf4 Ta6 Mn1 Tc1'
_cell_volume   232.06745734
_cell_formula_units_Z   1
loop_
 _symmetry_equiv_pos_site_id
 _symmetry_equiv_pos_as_xyz
  1  'x, y, z'
loop_
 _atom_site_type_symbol
 _atom_site_label
 _atom_site_symmetry_multiplicity
 _atom_site_fract_x
 _atom_site_fract_y
 _atom_site_fract_z
 _atom_site_occupancy
  Hf  Hf0  1  0.333333  0.666667  0.062870  1
  Hf  Hf1  1  0.666667  0.333333  0.561854  1
  Hf  Hf2  1  0.666667  0.333333  0.937130  1
  Hf  Hf3  1  0.333333  0.666667  0.438146  1
  Ta  Ta4  1  0.167553  0.335107  0.755862  1
  Ta  Ta5  1  0.832447  0.167553  0.244138  1
  Ta  Ta6  1  0.832447  0.664893  0.244138  1
  Ta  Ta7  1  0.167553  0.832447  0.755862  1
  Ta  Ta8  1  0.664893  0.832447  0.755862  1
  Ta  Ta9  1  0.335107  0.167553  0.244138  1
  Mn  Mn10  1  0.000000  0.000000  0.000000  1
  Tc  Tc11  1  0.000000  0.000000  0.500000  1
