# generated using pymatgen
data_Sc12BeSi11Os4
_symmetry_space_group_name_H-M   'P 1'
_cell_length_a   3.97611400
_cell_length_b   10.31937612
_cell_length_c   11.65901368
_cell_angle_alpha   89.89746008
_cell_angle_beta   90.00000000
_cell_angle_gamma   90.00000000
_symmetry_Int_Tables_number   1
_chemical_formula_structural   Sc12BeSi11Os4
_chemical_formula_sum   'Sc12 Be1 Si11 Os4'
_cell_volume   478.38040917
_cell_formula_units_Z   1
loop_
 _symmetry_equiv_pos_site_id
 _symmetry_equiv_pos_as_xyz
  1  'x, y, z'
loop_
 _atom_site_type_symbol
 _atom_site_label
 _atom_site_symmetry_multiplicity
 _atom_site_fract_x
 _atom_site_fract_y
 _atom_site_fract_z
 _atom_site_occupancy
  Sc  Sc0  1  0.250000  0.878531  0.012381  1
  Sc  Sc1  1  0.250000  0.623791  0.519039  1
  Sc  Sc2  1  0.750000  0.120937  0.976446  1
  Sc  Sc3  1  0.750000  0.376595  0.482300  1
  Sc  Sc4  1  0.250000  0.922055  0.608834  1
  Sc  Sc5  1  0.250000  0.578581  0.104644  1
  Sc  Sc6  1  0.750000  0.078711  0.394473  1
  Sc  Sc7  1  0.750000  0.421132  0.894449  1
  Sc  Sc8  1  0.250000  0.660238  0.799070  1
  Sc  Sc9  1  0.250000  0.841469  0.297328  1
  Sc  Sc10  1  0.750000  0.341090  0.200989  1
  Sc  Sc11  1  0.750000  0.154822  0.705426  1
  Be  Be12  1  0.250000  0.015097  0.822866  1
  Si  Si13  1  0.250000  0.484341  0.322239  1
  Si  Si14  1  0.750000  0.984486  0.177506  1
  Si  Si15  1  0.750000  0.516342  0.678656  1
  Si  Si16  1  0.250000  0.247124  0.843241  1
  Si  Si17  1  0.250000  0.248554  0.343073  1
  Si  Si18  1  0.750000  0.748784  0.156411  1
  Si  Si19  1  0.750000  0.752713  0.657822  1
  Si  Si20  1  0.250000  0.193885  0.547086  1
  Si  Si21  1  0.250000  0.305577  0.044792  1
  Si  Si22  1  0.750000  0.806369  0.454796  1
  Si  Si23  1  0.750000  0.692989  0.954792  1
  Os  Os24  1  0.250000  0.389131  0.677229  1
  Os  Os25  1  0.250000  0.110337  0.176426  1
  Os  Os26  1  0.750000  0.610998  0.323518  1
  Os  Os27  1  0.750000  0.895320  0.824170  1
