# generated using pymatgen
data_Tb8In2PdPt
_symmetry_space_group_name_H-M   'P 1'
_cell_length_a   9.77973215
_cell_length_b   9.76388911
_cell_length_c   9.77972977
_cell_angle_alpha   60.05357609
_cell_angle_beta   60.03941221
_cell_angle_gamma   60.05353949
_symmetry_Int_Tables_number   1
_chemical_formula_structural   Tb8In2PdPt
_chemical_formula_sum   'Tb16 In4 Pd2 Pt2'
_cell_volume   661.06194156
_cell_formula_units_Z   2
loop_
 _symmetry_equiv_pos_site_id
 _symmetry_equiv_pos_as_xyz
  1  'x, y, z'
loop_
 _atom_site_type_symbol
 _atom_site_label
 _atom_site_symmetry_multiplicity
 _atom_site_fract_x
 _atom_site_fract_y
 _atom_site_fract_z
 _atom_site_occupancy
  Tb  Tb0  1  0.808380  0.810228  0.191509  1
  Tb  Tb1  1  0.809475  0.190525  0.809474  1
  Tb  Tb2  1  0.191508  0.189883  0.808381  1
  Tb  Tb3  1  0.648829  0.052206  0.648829  1
  Tb  Tb4  1  0.063258  0.063165  0.435516  1
  Tb  Tb5  1  0.435516  0.438062  0.063258  1
  Tb  Tb6  1  0.648829  0.650135  0.648829  1
  Tb  Tb7  1  0.808380  0.189883  0.191508  1
  Tb  Tb8  1  0.191508  0.810228  0.808381  1
  Tb  Tb9  1  0.056841  0.648136  0.646886  1
  Tb  Tb10  1  0.435516  0.063164  0.063258  1
  Tb  Tb11  1  0.435816  0.064184  0.435816  1
  Tb  Tb12  1  0.062694  0.437306  0.062693  1
  Tb  Tb13  1  0.646885  0.648137  0.056841  1
  Tb  Tb14  1  0.190490  0.809510  0.190491  1
  Tb  Tb15  1  0.063258  0.438062  0.435515  1
  In  In16  1  0.417100  0.416199  0.417100  1
  In  In17  1  0.418177  0.417210  0.747402  1
  In  In18  1  0.417100  0.749602  0.417100  1
  In  In19  1  0.747402  0.417211  0.418177  1
  Pd  Pd20  1  0.857383  0.430703  0.857383  1
  Pd  Pd21  1  0.857383  0.854532  0.857382  1
  Pt  Pt22  1  0.858945  0.855866  0.429323  1
  Pt  Pt23  1  0.429323  0.855866  0.858944  1
