# generated using pymatgen
data_Ca7Yb(ScSn3)2
_symmetry_space_group_name_H-M   'P 1'
_cell_length_a   9.19717639
_cell_length_b   9.19725096
_cell_length_c   9.19496773
_cell_angle_alpha   96.84390052
_cell_angle_beta   96.83648374
_cell_angle_gamma   139.62794630
_symmetry_Int_Tables_number   1
_chemical_formula_structural   Ca7Yb(ScSn3)2
_chemical_formula_sum   'Ca7 Yb1 Sc2 Sn6'
_cell_volume   472.85225166
_cell_formula_units_Z   1
loop_
 _symmetry_equiv_pos_site_id
 _symmetry_equiv_pos_as_xyz
  1  'x, y, z'
loop_
 _atom_site_type_symbol
 _atom_site_label
 _atom_site_symmetry_multiplicity
 _atom_site_fract_x
 _atom_site_fract_y
 _atom_site_fract_z
 _atom_site_occupancy
  Ca  Ca0  1  0.915954  0.786527  0.702468  1
  Ca  Ca1  1  0.786509  0.083937  0.870475  1
  Ca  Ca2  1  0.416139  0.713468  0.129631  1
  Ca  Ca3  1  0.213466  0.916091  0.129559  1
  Ca  Ca4  1  0.583932  0.286494  0.870431  1
  Ca  Ca5  1  0.713431  0.584114  0.297523  1
  Ca  Ca6  1  0.286301  0.415744  0.702041  1
  Yb  Yb7  1  0.083995  0.213434  0.297414  1
  Sc  Sc8  1  0.250063  0.749980  0.499998  1
  Sc  Sc9  1  0.750042  0.249941  0.500016  1
  Sn  Sn10  1  0.146552  0.646575  0.793022  1
  Sn  Sn11  1  0.853924  0.353247  0.207040  1
  Sn  Sn12  1  0.353043  0.146515  0.499674  1
  Sn  Sn13  1  0.646388  0.853089  0.499600  1
  Sn  Sn14  1  0.249725  0.250017  0.000554  1
  Sn  Sn15  1  0.750536  0.750828  0.000553  1
