# generated using pymatgen
data_Tb16Er4(Ir3Ru)3
_symmetry_space_group_name_H-M   'P 1'
_cell_length_a   10.85859200
_cell_length_b   10.85859200
_cell_length_c   6.42857000
_cell_angle_alpha   90.00000000
_cell_angle_beta   90.00000000
_cell_angle_gamma   90.00000000
_symmetry_Int_Tables_number   1
_chemical_formula_structural   Tb16Er4(Ir3Ru)3
_chemical_formula_sum   'Tb16 Er4 Ir9 Ru3'
_cell_volume   757.98639013
_cell_formula_units_Z   1
loop_
 _symmetry_equiv_pos_site_id
 _symmetry_equiv_pos_as_xyz
  1  'x, y, z'
loop_
 _atom_site_type_symbol
 _atom_site_label
 _atom_site_symmetry_multiplicity
 _atom_site_fract_x
 _atom_site_fract_y
 _atom_site_fract_z
 _atom_site_occupancy
  Tb  Tb0  1  0.292888  0.086551  0.377695  1
  Tb  Tb1  1  0.292891  0.913636  0.877933  1
  Tb  Tb2  1  0.707109  0.086364  0.877933  1
  Tb  Tb3  1  0.707112  0.913449  0.377695  1
  Tb  Tb4  1  0.586364  0.792891  0.877933  1
  Tb  Tb5  1  0.586551  0.207112  0.377695  1
  Tb  Tb6  1  0.413449  0.792888  0.377695  1
  Tb  Tb7  1  0.413636  0.207109  0.877933  1
  Tb  Tb8  1  0.208562  0.412998  0.623386  1
  Tb  Tb9  1  0.208440  0.586950  0.120911  1
  Tb  Tb10  1  0.791560  0.413050  0.120911  1
  Tb  Tb11  1  0.791438  0.587002  0.623386  1
  Tb  Tb12  1  0.913050  0.708440  0.120911  1
  Tb  Tb13  1  0.912998  0.291438  0.623386  1
  Tb  Tb14  1  0.087002  0.708562  0.623386  1
  Tb  Tb15  1  0.086950  0.291560  0.120911  1
  Er  Er16  1  0.000000  0.000000  0.499891  1
  Er  Er17  1  0.000000  0.000000  0.999833  1
  Er  Er18  1  0.500000  0.500000  0.999833  1
  Er  Er19  1  0.500000  0.500000  0.499891  1
  Ir  Ir20  1  0.848856  0.151545  0.250132  1
  Ir  Ir21  1  0.848606  0.848492  0.749860  1
  Ir  Ir22  1  0.151394  0.151508  0.749860  1
  Ir  Ir23  1  0.151144  0.848455  0.250132  1
  Ir  Ir24  1  0.651508  0.348606  0.749860  1
  Ir  Ir25  1  0.651545  0.651144  0.250132  1
  Ir  Ir26  1  0.348455  0.348856  0.250132  1
  Ir  Ir27  1  0.348492  0.651394  0.749860  1
  Ir  Ir28  1  0.000000  0.500000  0.379443  1
  Ru  Ru29  1  0.500000  0.000000  0.121060  1
  Ru  Ru30  1  0.500000  0.000000  0.620689  1
  Ru  Ru31  1  0.000000  0.500000  0.879695  1
