# generated using pymatgen
data_CeSm2Y5(ReB6)4
_symmetry_space_group_name_H-M   'P 1'
_cell_length_a   3.71132100
_cell_length_b   9.21940408
_cell_length_c   11.62736247
_cell_angle_alpha   90.08820356
_cell_angle_beta   90.00000000
_cell_angle_gamma   90.00000000
_symmetry_Int_Tables_number   1
_chemical_formula_structural   CeSm2Y5(ReB6)4
_chemical_formula_sum   'Ce1 Sm2 Y5 Re4 B24'
_cell_volume   397.84331606
_cell_formula_units_Z   1
loop_
 _symmetry_equiv_pos_site_id
 _symmetry_equiv_pos_as_xyz
  1  'x, y, z'
loop_
 _atom_site_type_symbol
 _atom_site_label
 _atom_site_symmetry_multiplicity
 _atom_site_fract_x
 _atom_site_fract_y
 _atom_site_fract_z
 _atom_site_occupancy
  Ce  Ce0  1  0.000000  0.323826  0.414215  1
  Sm  Sm1  1  0.000000  0.823297  0.085881  1
  Sm  Sm2  1  0.000000  0.176362  0.913669  1
  Y  Y3  1  0.000000  0.676958  0.586334  1
  Y  Y4  1  0.000000  0.443178  0.129726  1
  Y  Y5  1  0.000000  0.557100  0.869442  1
  Y  Y6  1  0.000000  0.942480  0.370673  1
  Y  Y7  1  0.000000  0.056511  0.629744  1
  Re  Re8  1  0.000000  0.139910  0.180993  1
  Re  Re9  1  0.000000  0.860741  0.819800  1
  Re  Re10  1  0.000000  0.637614  0.321727  1
  Re  Re11  1  0.000000  0.362004  0.677915  1
  B  B12  1  0.500000  0.054185  0.068619  1
  B  B13  1  0.500000  0.946027  0.931444  1
  B  B14  1  0.500000  0.553587  0.432290  1
  B  B15  1  0.500000  0.446072  0.567578  1
  B  B16  1  0.500000  0.248821  0.082846  1
  B  B17  1  0.500000  0.750851  0.916698  1
  B  B18  1  0.500000  0.748610  0.418654  1
  B  B19  1  0.500000  0.251782  0.581988  1
  B  B20  1  0.500000  0.291350  0.234906  1
  B  B21  1  0.500000  0.707983  0.764652  1
  B  B22  1  0.500000  0.790964  0.266926  1
  B  B23  1  0.500000  0.209144  0.733547  1
  B  B24  1  0.500000  0.131481  0.314530  1
  B  B25  1  0.500000  0.868510  0.685383  1
  B  B26  1  0.500000  0.630656  0.186604  1
  B  B27  1  0.500000  0.370088  0.813009  1
  B  B28  1  0.500000  0.483753  0.288298  1
  B  B29  1  0.500000  0.517514  0.711847  1
  B  B30  1  0.500000  0.983842  0.212960  1
  B  B31  1  0.500000  0.016003  0.787043  1
  B  B32  1  0.500000  0.101149  0.471940  1
  B  B33  1  0.500000  0.897357  0.528700  1
  B  B34  1  0.500000  0.599170  0.027409  1
  B  B35  1  0.500000  0.401120  0.972012  1
