# generated using pymatgen
data_La11In9(HgRh)2
_symmetry_space_group_name_H-M   'P 1'
_cell_length_a   13.96747530
_cell_length_b   13.84279517
_cell_length_c   3.89116500
_cell_angle_alpha   90.00000000
_cell_angle_beta   90.00000000
_cell_angle_gamma   111.89787727
_symmetry_Int_Tables_number   1
_chemical_formula_structural   La11In9(HgRh)2
_chemical_formula_sum   'La11 In9 Hg2 Rh2'
_cell_volume   698.07029414
_cell_formula_units_Z   1
loop_
 _symmetry_equiv_pos_site_id
 _symmetry_equiv_pos_as_xyz
  1  'x, y, z'
loop_
 _atom_site_type_symbol
 _atom_site_label
 _atom_site_symmetry_multiplicity
 _atom_site_fract_x
 _atom_site_fract_y
 _atom_site_fract_z
 _atom_site_occupancy
  La  La0  1  0.317477  0.297203  0.000000  1
  La  La1  1  0.682523  0.702797  0.000000  1
  La  La2  1  0.000000  0.000000  0.000000  1
  La  La3  1  0.058903  0.414394  0.000000  1
  La  La4  1  0.941097  0.585606  0.000000  1
  La  La5  1  0.416579  0.069856  0.000000  1
  La  La6  1  0.583421  0.930144  0.000000  1
  La  La7  1  0.840176  0.162242  0.000000  1
  La  La8  1  0.159824  0.837758  0.000000  1
  La  La9  1  0.612243  0.355697  0.000000  1
  La  La10  1  0.387757  0.644303  0.000000  1
  In  In11  1  0.835563  0.365566  0.500000  1
  In  In12  1  0.164437  0.634434  0.500000  1
  In  In13  1  0.367070  0.841226  0.500000  1
  In  In14  1  0.632930  0.158774  0.500000  1
  In  In15  1  0.075549  0.217941  0.500000  1
  In  In16  1  0.924451  0.782059  0.500000  1
  In  In17  1  0.218617  0.074739  0.500000  1
  In  In18  1  0.781383  0.925261  0.500000  1
  In  In19  1  0.500000  0.500000  0.500000  1
  Hg  Hg20  1  0.250572  0.450886  0.500000  1
  Hg  Hg21  1  0.749428  0.549114  0.500000  1
  Rh  Rh22  1  0.445789  0.237646  0.500000  1
  Rh  Rh23  1  0.554211  0.762354  0.500000  1
