# generated using pymatgen
data_Hf2AlZnFe8
_symmetry_space_group_name_H-M   'P 1'
_cell_length_a   8.34352306
_cell_length_b   8.34352385
_cell_length_c   8.34352260
_cell_angle_alpha   33.61647244
_cell_angle_beta   33.61646578
_cell_angle_gamma   33.61646333
_symmetry_Int_Tables_number   1
_chemical_formula_structural   Hf2AlZnFe8
_chemical_formula_sum   'Hf2 Al1 Zn1 Fe8'
_cell_volume   158.58945569
_cell_formula_units_Z   1
loop_
 _symmetry_equiv_pos_site_id
 _symmetry_equiv_pos_as_xyz
  1  'x, y, z'
loop_
 _atom_site_type_symbol
 _atom_site_label
 _atom_site_symmetry_multiplicity
 _atom_site_fract_x
 _atom_site_fract_y
 _atom_site_fract_z
 _atom_site_occupancy
  Hf  Hf0  1  0.999252  0.999252  0.999252  1
  Hf  Hf1  1  0.500662  0.500662  0.500662  1
  Al  Al2  1  0.124805  0.124805  0.124805  1
  Zn  Zn3  1  0.625177  0.625177  0.625177  1
  Fe  Fe4  1  0.563695  0.062002  0.563695  1
  Fe  Fe5  1  0.063977  0.558535  0.063977  1
  Fe  Fe6  1  0.062002  0.563695  0.563695  1
  Fe  Fe7  1  0.558535  0.063977  0.063977  1
  Fe  Fe8  1  0.812180  0.812180  0.812180  1
  Fe  Fe9  1  0.312046  0.312046  0.312046  1
  Fe  Fe10  1  0.563695  0.563695  0.062002  1
  Fe  Fe11  1  0.063977  0.063977  0.558535  1
