# generated using pymatgen
data_LuTh2Sn3Ir2Ru
_symmetry_space_group_name_H-M   'P 1'
_cell_length_a   7.49032400
_cell_length_b   7.51983936
_cell_length_c   4.07949400
_cell_angle_alpha   90.00000000
_cell_angle_beta   90.00000000
_cell_angle_gamma   119.87024681
_symmetry_Int_Tables_number   1
_chemical_formula_structural   LuTh2Sn3Ir2Ru
_chemical_formula_sum   'Lu1 Th2 Sn3 Ir2 Ru1'
_cell_volume   199.25647580
_cell_formula_units_Z   1
loop_
 _symmetry_equiv_pos_site_id
 _symmetry_equiv_pos_as_xyz
  1  'x, y, z'
loop_
 _atom_site_type_symbol
 _atom_site_label
 _atom_site_symmetry_multiplicity
 _atom_site_fract_x
 _atom_site_fract_y
 _atom_site_fract_z
 _atom_site_occupancy
  Lu  Lu0  1  0.404792  0.000000  0.500000  1
  Th  Th1  1  0.000046  0.411044  0.500000  1
  Th  Th2  1  0.589001  0.588956  0.500000  1
  Sn  Sn3  1  0.011524  0.758409  0.000000  1
  Sn  Sn4  1  0.253115  0.241591  0.000000  1
  Sn  Sn5  1  0.738843  0.000000  0.000000  1
  Ir  Ir6  1  0.332346  0.659402  0.000000  1
  Ir  Ir7  1  0.672945  0.340598  0.000000  1
  Ru  Ru8  1  0.997389  0.000000  0.500000  1
