# generated using pymatgen
data_Nd5ErIr18
_symmetry_space_group_name_H-M   'P 1'
_cell_length_a   5.37610100
_cell_length_b   5.37578303
_cell_length_c   17.60753100
_cell_angle_alpha   89.99961446
_cell_angle_beta   90.00002042
_cell_angle_gamma   120.00263611
_symmetry_Int_Tables_number   1
_chemical_formula_structural   Nd5ErIr18
_chemical_formula_sum   'Nd5 Er1 Ir18'
_cell_volume   440.68341663
_cell_formula_units_Z   1
loop_
 _symmetry_equiv_pos_site_id
 _symmetry_equiv_pos_as_xyz
  1  'x, y, z'
loop_
 _atom_site_type_symbol
 _atom_site_label
 _atom_site_symmetry_multiplicity
 _atom_site_fract_x
 _atom_site_fract_y
 _atom_site_fract_z
 _atom_site_occupancy
  Nd  Nd0  1  0.666667  0.333333  0.039715  1
  Nd  Nd1  1  0.666667  0.333333  0.459161  1
  Nd  Nd2  1  0.333334  0.666668  0.540992  1
  Nd  Nd3  1  0.333328  0.666653  0.751343  1
  Nd  Nd4  1  0.666669  0.333340  0.249535  1
  Er  Er5  1  0.333333  0.666665  0.958262  1
  Ir  Ir6  1  0.166384  0.833615  0.371387  1
  Ir  Ir7  1  0.166387  0.332773  0.371385  1
  Ir  Ir8  1  0.667229  0.833614  0.371386  1
  Ir  Ir9  1  0.833595  0.166408  0.628713  1
  Ir  Ir10  1  0.833590  0.667181  0.628714  1
  Ir  Ir11  1  0.332816  0.166409  0.628713  1
  Ir  Ir12  1  0.833251  0.166751  0.873638  1
  Ir  Ir13  1  0.833248  0.666495  0.873636  1
  Ir  Ir14  1  0.333502  0.166752  0.873638  1
  Ir  Ir15  1  0.166987  0.833012  0.126704  1
  Ir  Ir16  1  0.166989  0.333978  0.126705  1
  Ir  Ir17  1  0.666023  0.833011  0.126704  1
  Ir  Ir18  1  0.333334  0.666670  0.249507  1
  Ir  Ir19  1  0.666666  0.333331  0.750736  1
  Ir  Ir20  1  0.999998  0.999991  0.248732  1
  Ir  Ir21  1  0.000004  0.000010  0.751014  1
  Ir  Ir22  1  0.000000  0.000001  0.499961  1
  Ir  Ir23  1  0.000000  0.000002  0.999717  1
