# generated using pymatgen
data_Er4Tm8Co4SnPt
_symmetry_space_group_name_H-M   'P 1'
_cell_length_a   8.19749871
_cell_length_b   8.19749919
_cell_length_c   8.19749951
_cell_angle_alpha   111.02847706
_cell_angle_beta   110.67714698
_cell_angle_gamma   106.74222803
_symmetry_Int_Tables_number   1
_chemical_formula_structural   Er4Tm8Co4SnPt
_chemical_formula_sum   'Er4 Tm8 Co4 Sn1 Pt1'
_cell_volume   423.33370062
_cell_formula_units_Z   1
loop_
 _symmetry_equiv_pos_site_id
 _symmetry_equiv_pos_as_xyz
  1  'x, y, z'
loop_
 _atom_site_type_symbol
 _atom_site_label
 _atom_site_symmetry_multiplicity
 _atom_site_fract_x
 _atom_site_fract_y
 _atom_site_fract_z
 _atom_site_occupancy
  Er  Er0  1  0.184991  0.288069  0.473060  1
  Er  Er1  1  0.815009  0.711931  0.526940  1
  Er  Er2  1  0.184991  0.711931  0.896922  1
  Er  Er3  1  0.815009  0.288069  0.103078  1
  Tm  Tm4  1  0.314561  0.618982  0.304420  1
  Tm  Tm5  1  0.685439  0.381019  0.695580  1
  Tm  Tm6  1  0.314561  0.010141  0.695580  1
  Tm  Tm7  1  0.685439  0.989859  0.304420  1
  Tm  Tm8  1  0.417797  0.216993  0.200806  1
  Tm  Tm9  1  0.582203  0.783007  0.799194  1
  Tm  Tm10  1  0.016187  0.216993  0.799194  1
  Tm  Tm11  1  0.983813  0.783007  0.200806  1
  Co  Co12  1  0.112670  0.612670  0.500000  1
  Co  Co13  1  0.887331  0.387331  0.500000  1
  Co  Co14  1  0.377656  0.000000  0.377656  1
  Co  Co15  1  0.622344  0.000000  0.622344  1
  Sn  Sn16  1  0.500000  0.500000  0.000000  1
  Pt  Pt17  1  0.000000  0.000000  0.000000  1
