# generated using pymatgen
data_Tb7TmSc11Si16Hg
_symmetry_space_group_name_H-M   'P 1'
_cell_length_a   7.06447622
_cell_length_b   7.40625327
_cell_length_c   14.05121109
_cell_angle_alpha   89.96065515
_cell_angle_beta   90.02204082
_cell_angle_gamma   89.86873513
_symmetry_Int_Tables_number   1
_chemical_formula_structural   Tb7TmSc11Si16Hg
_chemical_formula_sum   'Tb7 Tm1 Sc11 Si16 Hg1'
_cell_volume   735.17547521
_cell_formula_units_Z   1
loop_
 _symmetry_equiv_pos_site_id
 _symmetry_equiv_pos_as_xyz
  1  'x, y, z'
loop_
 _atom_site_type_symbol
 _atom_site_label
 _atom_site_symmetry_multiplicity
 _atom_site_fract_x
 _atom_site_fract_y
 _atom_site_fract_z
 _atom_site_occupancy
  Tb  Tb0  1  0.990732  0.817532  0.901977  1
  Tb  Tb1  1  0.483847  0.672588  0.901750  1
  Tb  Tb2  1  0.990781  0.817493  0.598426  1
  Tb  Tb3  1  0.511189  0.324091  0.097399  1
  Tb  Tb4  1  0.010054  0.173293  0.403316  1
  Tb  Tb5  1  0.511265  0.324473  0.402259  1
  Tb  Tb6  1  0.484282  0.672679  0.598537  1
  Tm  Tm7  1  0.010576  0.174089  0.097542  1
  Sc  Sc8  1  0.838265  0.497806  0.249653  1
  Sc  Sc9  1  0.339412  0.003287  0.249700  1
  Sc  Sc10  1  0.657757  0.998479  0.750005  1
  Sc  Sc11  1  0.325369  0.183148  0.625622  1
  Sc  Sc12  1  0.671617  0.824031  0.374965  1
  Sc  Sc13  1  0.169464  0.680364  0.372932  1
  Sc  Sc14  1  0.671613  0.824569  0.124483  1
  Sc  Sc15  1  0.838541  0.325360  0.625706  1
  Sc  Sc16  1  0.325185  0.183090  0.874529  1
  Sc  Sc17  1  0.838671  0.324623  0.874548  1
  Sc  Sc18  1  0.169302  0.680659  0.126661  1
  Si  Si19  1  0.028018  0.096933  0.750250  1
  Si  Si20  1  0.967711  0.887572  0.249487  1
  Si  Si21  1  0.466754  0.619085  0.249714  1
  Si  Si22  1  0.545409  0.377774  0.750147  1
  Si  Si23  1  0.291447  0.889947  0.750089  1
  Si  Si24  1  0.714137  0.127496  0.249033  1
  Si  Si25  1  0.211465  0.373179  0.249274  1
  Si  Si26  1  0.770283  0.629383  0.750196  1
  Si  Si27  1  0.161440  0.459305  0.528219  1
  Si  Si28  1  0.842839  0.536064  0.461663  1
  Si  Si29  1  0.344961  0.965666  0.462121  1
  Si  Si30  1  0.843506  0.534571  0.038979  1
  Si  Si31  1  0.656966  0.033388  0.540637  1
  Si  Si32  1  0.160962  0.457444  0.972440  1
  Si  Si33  1  0.656948  0.033389  0.959287  1
  Si  Si34  1  0.342631  0.966814  0.038203  1
  Hg  Hg35  1  0.156602  0.510337  0.750251  1
