# generated using pymatgen
data_Na2Fe(PO3)4
_symmetry_space_group_name_H-M   'P 1'
_cell_length_a   8.64250307
_cell_length_b   8.64250309
_cell_length_c   7.73030230
_cell_angle_alpha   85.38626834
_cell_angle_beta   85.38627003
_cell_angle_gamma   112.49214486
_symmetry_Int_Tables_number   1
_chemical_formula_structural   Na2Fe(PO3)4
_chemical_formula_sum   'Na4 Fe2 P8 O24'
_cell_volume   527.85688619
_cell_formula_units_Z   2
loop_
 _symmetry_equiv_pos_site_id
 _symmetry_equiv_pos_as_xyz
  1  'x, y, z'
loop_
 _atom_site_type_symbol
 _atom_site_label
 _atom_site_symmetry_multiplicity
 _atom_site_fract_x
 _atom_site_fract_y
 _atom_site_fract_z
 _atom_site_occupancy
  Na  Na0  1  0.185103  0.463434  0.704925  1
  Na  Na1  1  0.814897  0.536566  0.295075  1
  Na  Na2  1  0.463434  0.185103  0.204925  1
  Na  Na3  1  0.536566  0.814897  0.795075  1
  Fe  Fe4  1  0.135393  0.864607  0.250000  1
  Fe  Fe5  1  0.864607  0.135393  0.750000  1
  P  P6  1  0.205639  0.058880  0.831844  1
  P  P7  1  0.941120  0.794361  0.668156  1
  P  P8  1  0.058880  0.205639  0.331844  1
  P  P9  1  0.234966  0.554475  0.129197  1
  P  P10  1  0.554475  0.234966  0.629197  1
  P  P11  1  0.445525  0.765034  0.370803  1
  P  P12  1  0.794361  0.941120  0.168156  1
  P  P13  1  0.765034  0.445525  0.870803  1
  O  O14  1  0.906691  0.844278  0.157926  1
  O  O15  1  0.115510  0.884490  0.750000  1
  O  O16  1  0.277788  0.021530  0.992924  1
  O  O17  1  0.387820  0.612180  0.250000  1
  O  O18  1  0.896476  0.379950  0.809547  1
  O  O19  1  0.978470  0.722212  0.507075  1
  O  O20  1  0.844278  0.906691  0.657926  1
  O  O21  1  0.155722  0.093309  0.342074  1
  O  O22  1  0.353342  0.162747  0.675293  1
  O  O23  1  0.620050  0.103524  0.690453  1
  O  O24  1  0.592547  0.308598  0.442043  1
  O  O25  1  0.103524  0.620050  0.190453  1
  O  O26  1  0.691402  0.407453  0.057957  1
  O  O27  1  0.308598  0.592547  0.942043  1
  O  O28  1  0.884490  0.115510  0.250000  1
  O  O29  1  0.162747  0.353342  0.175293  1
  O  O30  1  0.646658  0.837253  0.324707  1
  O  O31  1  0.722212  0.978470  0.007075  1
  O  O32  1  0.379950  0.896476  0.309547  1
  O  O33  1  0.837253  0.646658  0.824707  1
  O  O34  1  0.407453  0.691402  0.557957  1
  O  O35  1  0.093309  0.155722  0.842074  1
  O  O36  1  0.612180  0.387820  0.750000  1
  O  O37  1  0.021530  0.277788  0.492925  1
