# generated using pymatgen
data_AcPrEr2(WN3)4
_symmetry_space_group_name_H-M   'P 1'
_cell_length_a   7.32951703
_cell_length_b   7.32951763
_cell_length_c   6.18307735
_cell_angle_alpha   76.95032286
_cell_angle_beta   76.95033792
_cell_angle_gamma   84.79675822
_symmetry_Int_Tables_number   1
_chemical_formula_structural   AcPrEr2(WN3)4
_chemical_formula_sum   'Ac1 Pr1 Er2 W4 N12'
_cell_volume   314.95512286
_cell_formula_units_Z   1
loop_
 _symmetry_equiv_pos_site_id
 _symmetry_equiv_pos_as_xyz
  1  'x, y, z'
loop_
 _atom_site_type_symbol
 _atom_site_label
 _atom_site_symmetry_multiplicity
 _atom_site_fract_x
 _atom_site_fract_y
 _atom_site_fract_z
 _atom_site_occupancy
  Ac  Ac0  1  0.308760  0.691240  0.250000  1
  Pr  Pr1  1  0.692820  0.307180  0.750000  1
  Er  Er2  1  0.082389  0.917611  0.750000  1
  Er  Er3  1  0.908850  0.091150  0.250000  1
  W  W4  1  0.380295  0.195288  0.267476  1
  W  W5  1  0.621667  0.802103  0.729699  1
  W  W6  1  0.804712  0.619705  0.232524  1
  W  W7  1  0.197897  0.378333  0.770301  1
  N  N8  1  0.614405  0.102350  0.170305  1
  N  N9  1  0.371548  0.334380  0.502512  1
  N  N10  1  0.001935  0.213411  0.860965  1
  N  N11  1  0.384579  0.887563  0.820794  1
  N  N12  1  0.786589  0.998065  0.639035  1
  N  N13  1  0.112437  0.615421  0.679206  1
  N  N14  1  0.897650  0.385595  0.329694  1
  N  N15  1  0.629318  0.656189  0.501538  1
  N  N16  1  0.665620  0.628452  0.997488  1
  N  N17  1  0.343811  0.370682  0.998462  1
  N  N18  1  0.989804  0.795085  0.138923  1
  N  N19  1  0.204915  0.010196  0.361077  1
