# generated using pymatgen
data_Lu3Sc7Cd3Tc
_symmetry_space_group_name_H-M   'P 1'
_cell_length_a   9.10143600
_cell_length_b   9.10143482
_cell_length_c   9.28038000
_cell_angle_alpha   90.00000000
_cell_angle_beta   90.00000000
_cell_angle_gamma   119.99999703
_symmetry_Int_Tables_number   1
_chemical_formula_structural   Lu3Sc7Cd3Tc
_chemical_formula_sum   'Lu6 Sc14 Cd6 Tc2'
_cell_volume   665.75768281
_cell_formula_units_Z   2
loop_
 _symmetry_equiv_pos_site_id
 _symmetry_equiv_pos_as_xyz
  1  'x, y, z'
loop_
 _atom_site_type_symbol
 _atom_site_label
 _atom_site_symmetry_multiplicity
 _atom_site_fract_x
 _atom_site_fract_y
 _atom_site_fract_z
 _atom_site_occupancy
  Lu  Lu0  1  0.537570  0.462430  0.250000  1
  Lu  Lu1  1  0.537570  0.075141  0.250000  1
  Lu  Lu2  1  0.924859  0.462430  0.250000  1
  Lu  Lu3  1  0.462430  0.537570  0.750000  1
  Lu  Lu4  1  0.462430  0.924859  0.750000  1
  Lu  Lu5  1  0.075141  0.537570  0.750000  1
  Sc  Sc6  1  0.000000  0.000000  0.500000  1
  Sc  Sc7  1  0.000000  0.000000  0.000000  1
  Sc  Sc8  1  0.210802  0.789198  0.443527  1
  Sc  Sc9  1  0.210802  0.421607  0.443527  1
  Sc  Sc10  1  0.578393  0.789198  0.443527  1
  Sc  Sc11  1  0.789198  0.210802  0.556473  1
  Sc  Sc12  1  0.789198  0.578393  0.556473  1
  Sc  Sc13  1  0.421607  0.210802  0.556473  1
  Sc  Sc14  1  0.789198  0.210802  0.943527  1
  Sc  Sc15  1  0.789198  0.578393  0.943527  1
  Sc  Sc16  1  0.421607  0.210802  0.943527  1
  Sc  Sc17  1  0.210802  0.789198  0.056473  1
  Sc  Sc18  1  0.210802  0.421607  0.056473  1
  Sc  Sc19  1  0.578393  0.789198  0.056473  1
  Cd  Cd20  1  0.886969  0.113031  0.250000  1
  Cd  Cd21  1  0.886969  0.773939  0.250000  1
  Cd  Cd22  1  0.226061  0.113031  0.250000  1
  Cd  Cd23  1  0.113031  0.886969  0.750000  1
  Cd  Cd24  1  0.113031  0.226061  0.750000  1
  Cd  Cd25  1  0.773939  0.886969  0.750000  1
  Tc  Tc26  1  0.333333  0.666667  0.250000  1
  Tc  Tc27  1  0.666667  0.333333  0.750000  1
