# generated using pymatgen
data_Gd7Tm(Sc3Sn4)4
_symmetry_space_group_name_H-M   'P 1'
_cell_length_a   7.75744940
_cell_length_b   7.99640510
_cell_length_c   14.92022300
_cell_angle_alpha   89.98226615
_cell_angle_beta   89.95492382
_cell_angle_gamma   90.07959133
_symmetry_Int_Tables_number   1
_chemical_formula_structural   Gd7Tm(Sc3Sn4)4
_chemical_formula_sum   'Gd7 Tm1 Sc12 Sn16'
_cell_volume   925.52569176
_cell_formula_units_Z   1
loop_
 _symmetry_equiv_pos_site_id
 _symmetry_equiv_pos_as_xyz
  1  'x, y, z'
loop_
 _atom_site_type_symbol
 _atom_site_label
 _atom_site_symmetry_multiplicity
 _atom_site_fract_x
 _atom_site_fract_y
 _atom_site_fract_z
 _atom_site_occupancy
  Gd  Gd0  1  0.992204  0.176146  0.094265  1
  Gd  Gd1  1  0.007743  0.823299  0.904515  1
  Gd  Gd2  1  0.507137  0.674983  0.906167  1
  Gd  Gd3  1  0.007775  0.823414  0.594024  1
  Gd  Gd4  1  0.492187  0.324374  0.093996  1
  Gd  Gd5  1  0.993246  0.176485  0.407123  1
  Gd  Gd6  1  0.491828  0.324312  0.406457  1
  Tm  Tm7  1  0.509908  0.677591  0.594958  1
  Sc  Sc8  1  0.170529  0.496301  0.749533  1
  Sc  Sc9  1  0.829155  0.504204  0.250423  1
  Sc  Sc10  1  0.329698  0.995633  0.250318  1
  Sc  Sc11  1  0.669968  0.004186  0.749480  1
  Sc  Sc12  1  0.339273  0.160674  0.627472  1
  Sc  Sc13  1  0.659875  0.838669  0.372956  1
  Sc  Sc14  1  0.159127  0.660132  0.373406  1
  Sc  Sc15  1  0.660060  0.839445  0.127314  1
  Sc  Sc16  1  0.840856  0.340226  0.626560  1
  Sc  Sc17  1  0.340490  0.160696  0.871737  1
  Sc  Sc18  1  0.838406  0.339550  0.872527  1
  Sc  Sc19  1  0.160348  0.661050  0.127232  1
  Sn  Sn20  1  0.031577  0.126746  0.749644  1
  Sn  Sn21  1  0.967985  0.873593  0.250414  1
  Sn  Sn22  1  0.467102  0.626351  0.249802  1
  Sn  Sn23  1  0.532613  0.374547  0.749173  1
  Sn  Sn24  1  0.313486  0.849419  0.748707  1
  Sn  Sn25  1  0.688034  0.148618  0.250271  1
  Sn  Sn26  1  0.187772  0.351307  0.250291  1
  Sn  Sn27  1  0.810412  0.648557  0.748905  1
  Sn  Sn28  1  0.185693  0.458799  0.543871  1
  Sn  Sn29  1  0.815758  0.544503  0.457983  1
  Sn  Sn30  1  0.320562  0.954654  0.457896  1
  Sn  Sn31  1  0.819898  0.543800  0.042967  1
  Sn  Sn32  1  0.679778  0.041926  0.543254  1
  Sn  Sn33  1  0.179695  0.455577  0.956838  1
  Sn  Sn34  1  0.680583  0.043071  0.956831  1
  Sn  Sn35  1  0.319238  0.957163  0.042689  1
