# generated using pymatgen
data_Os(RhS4)2
_symmetry_space_group_name_H-M   'P 1'
_cell_length_a   5.70265549
_cell_length_b   5.69608661
_cell_length_c   5.68223961
_cell_angle_alpha   89.96927554
_cell_angle_beta   89.98695945
_cell_angle_gamma   89.61831152
_symmetry_Int_Tables_number   1
_chemical_formula_structural   Os(RhS4)2
_chemical_formula_sum   'Os1 Rh2 S8'
_cell_volume   184.57103712
_cell_formula_units_Z   1
loop_
 _symmetry_equiv_pos_site_id
 _symmetry_equiv_pos_as_xyz
  1  'x, y, z'
loop_
 _atom_site_type_symbol
 _atom_site_label
 _atom_site_symmetry_multiplicity
 _atom_site_fract_x
 _atom_site_fract_y
 _atom_site_fract_z
 _atom_site_occupancy
  Os  Os0  1  0.000000  0.500000  0.500000  1
  Rh  Rh1  1  0.500000  0.000000  0.500000  1
  Rh  Rh2  1  0.500000  0.500000  0.000000  1
  S  S3  1  0.393987  0.894017  0.104910  1
  S  S4  1  0.104293  0.393239  0.888567  1
  S  S5  1  0.892819  0.111996  0.396563  1
  S  S6  1  0.606013  0.105983  0.895090  1
  S  S7  1  0.895707  0.606761  0.111433  1
  S  S8  1  0.107181  0.888004  0.603437  1
  S  S9  1  0.618933  0.609496  0.610375  1
  S  S10  1  0.381067  0.390504  0.389625  1
