# generated using pymatgen
data_Rb12Li4Si15Ge
_symmetry_space_group_name_H-M   'P 1'
_cell_length_a   7.92014718
_cell_length_b   9.97421600
_cell_length_c   12.89097130
_cell_angle_alpha   90.00000000
_cell_angle_beta   89.97553822
_cell_angle_gamma   90.00000000
_symmetry_Int_Tables_number   1
_chemical_formula_structural   Rb12Li4Si15Ge
_chemical_formula_sum   'Rb12 Li4 Si15 Ge1'
_cell_volume   1018.35130176
_cell_formula_units_Z   1
loop_
 _symmetry_equiv_pos_site_id
 _symmetry_equiv_pos_as_xyz
  1  'x, y, z'
loop_
 _atom_site_type_symbol
 _atom_site_label
 _atom_site_symmetry_multiplicity
 _atom_site_fract_x
 _atom_site_fract_y
 _atom_site_fract_z
 _atom_site_occupancy
  Rb  Rb0  1  0.654682  0.250000  0.399632  1
  Rb  Rb1  1  0.154669  0.250000  0.100318  1
  Rb  Rb2  1  0.345110  0.750000  0.599647  1
  Rb  Rb3  1  0.845949  0.750000  0.899940  1
  Rb  Rb4  1  0.654433  0.444842  0.693677  1
  Rb  Rb5  1  0.153608  0.055796  0.806292  1
  Rb  Rb6  1  0.345765  0.945261  0.306646  1
  Rb  Rb7  1  0.845489  0.554843  0.193755  1
  Rb  Rb8  1  0.345765  0.554739  0.306646  1
  Rb  Rb9  1  0.845489  0.945157  0.193755  1
  Rb  Rb10  1  0.654433  0.055158  0.693677  1
  Rb  Rb11  1  0.153608  0.444204  0.806292  1
  Li  Li12  1  0.500004  0.499671  0.000472  1
  Li  Li13  1  0.999994  0.000030  0.500002  1
  Li  Li14  1  0.500004  0.000329  0.000472  1
  Li  Li15  1  0.999994  0.499970  0.500002  1
  Si  Si16  1  0.862893  0.750000  0.595621  1
  Si  Si17  1  0.637178  0.250000  0.095449  1
  Si  Si18  1  0.137066  0.250000  0.404489  1
  Si  Si19  1  0.722263  0.630416  0.453593  1
  Si  Si20  1  0.221993  0.869528  0.048255  1
  Si  Si21  1  0.277752  0.130422  0.546494  1
  Si  Si22  1  0.777695  0.369607  0.953532  1
  Si  Si23  1  0.013372  0.250000  0.579259  1
  Si  Si24  1  0.513389  0.250000  0.920578  1
  Si  Si25  1  0.986601  0.750000  0.420784  1
  Si  Si26  1  0.485883  0.750000  0.081015  1
  Si  Si27  1  0.221993  0.630472  0.048255  1
  Si  Si28  1  0.722263  0.869584  0.453593  1
  Si  Si29  1  0.777695  0.130393  0.953532  1
  Si  Si30  1  0.277752  0.369578  0.546494  1
  Ge  Ge31  1  0.365218  0.750000  0.897828  1
