# generated using pymatgen
data_Y4Er2Si11GePt8
_symmetry_space_group_name_H-M   'P 1'
_cell_length_a   4.26565100
_cell_length_b   8.56386544
_cell_length_c   12.94194626
_cell_angle_alpha   80.31215112
_cell_angle_beta   90.00000000
_cell_angle_gamma   90.00000000
_symmetry_Int_Tables_number   1
_chemical_formula_structural   Y4Er2Si11GePt8
_chemical_formula_sum   'Y4 Er2 Si11 Ge1 Pt8'
_cell_volume   466.03310210
_cell_formula_units_Z   1
loop_
 _symmetry_equiv_pos_site_id
 _symmetry_equiv_pos_as_xyz
  1  'x, y, z'
loop_
 _atom_site_type_symbol
 _atom_site_label
 _atom_site_symmetry_multiplicity
 _atom_site_fract_x
 _atom_site_fract_y
 _atom_site_fract_z
 _atom_site_occupancy
  Y  Y0  1  0.250000  0.584929  0.183918  1
  Y  Y1  1  0.750000  0.416339  0.814854  1
  Y  Y2  1  0.750000  0.926904  0.816291  1
  Y  Y3  1  0.250000  0.074427  0.183576  1
  Er  Er4  1  0.250000  0.763881  0.439517  1
  Er  Er5  1  0.750000  0.234107  0.561879  1
  Si  Si6  1  0.750000  0.588121  0.572323  1
  Si  Si7  1  0.750000  0.127509  0.003909  1
  Si  Si8  1  0.750000  0.871971  0.575170  1
  Si  Si9  1  0.250000  0.698225  0.714705  1
  Si  Si10  1  0.750000  0.305342  0.284673  1
  Si  Si11  1  0.750000  0.807926  0.275997  1
  Si  Si12  1  0.250000  0.873437  0.995424  1
  Si  Si13  1  0.250000  0.194442  0.723405  1
  Si  Si14  1  0.250000  0.378651  0.001474  1
  Si  Si15  1  0.250000  0.115249  0.430418  1
  Si  Si16  1  0.750000  0.622044  0.997861  1
  Ge  Ge17  1  0.250000  0.405075  0.426388  1
  Pt  Pt18  1  0.750000  0.352454  0.097755  1
  Pt  Pt19  1  0.250000  0.972252  0.623409  1
  Pt  Pt20  1  0.750000  0.850569  0.087619  1
  Pt  Pt21  1  0.750000  0.029669  0.375419  1
  Pt  Pt22  1  0.250000  0.648254  0.901892  1
  Pt  Pt23  1  0.250000  0.150545  0.911798  1
  Pt  Pt24  1  0.750000  0.539325  0.373593  1
  Pt  Pt25  1  0.250000  0.468352  0.626729  1
