# generated using pymatgen
data_Ti2V2SiP
_symmetry_space_group_name_H-M   'P 1'
_cell_length_a   3.32210600
_cell_length_b   6.49487612
_cell_length_c   7.81543163
_cell_angle_alpha   89.42578075
_cell_angle_beta   90.00000000
_cell_angle_gamma   90.00000000
_symmetry_Int_Tables_number   1
_chemical_formula_structural   Ti2V2SiP
_chemical_formula_sum   'Ti4 V4 Si2 P2'
_cell_volume   168.62249663
_cell_formula_units_Z   2
loop_
 _symmetry_equiv_pos_site_id
 _symmetry_equiv_pos_as_xyz
  1  'x, y, z'
loop_
 _atom_site_type_symbol
 _atom_site_label
 _atom_site_symmetry_multiplicity
 _atom_site_fract_x
 _atom_site_fract_y
 _atom_site_fract_z
 _atom_site_occupancy
  Ti  Ti0  1  0.250000  0.550551  0.169711  1
  Ti  Ti1  1  0.750000  0.449449  0.830289  1
  Ti  Ti2  1  0.750000  0.960013  0.663940  1
  Ti  Ti3  1  0.250000  0.039987  0.336060  1
  V  V4  1  0.250000  0.630078  0.557248  1
  V  V5  1  0.750000  0.369922  0.442752  1
  V  V6  1  0.750000  0.871255  0.063186  1
  V  V7  1  0.250000  0.128745  0.936814  1
  Si  Si8  1  0.250000  0.751463  0.859157  1
  Si  Si9  1  0.750000  0.248537  0.140843  1
  P  P10  1  0.750000  0.745010  0.360470  1
  P  P11  1  0.250000  0.254990  0.639530  1
