# generated using pymatgen
data_Pr3Nd2MnRuO12
_symmetry_space_group_name_H-M   'P 1'
_cell_length_a   7.10415775
_cell_length_b   7.10415683
_cell_length_c   7.60971429
_cell_angle_alpha   74.38730041
_cell_angle_beta   74.38731187
_cell_angle_gamma   50.12786861
_symmetry_Int_Tables_number   1
_chemical_formula_structural   Pr3Nd2MnRuO12
_chemical_formula_sum   'Pr3 Nd2 Mn1 Ru1 O12'
_cell_volume   281.44330381
_cell_formula_units_Z   1
loop_
 _symmetry_equiv_pos_site_id
 _symmetry_equiv_pos_as_xyz
  1  'x, y, z'
loop_
 _atom_site_type_symbol
 _atom_site_label
 _atom_site_symmetry_multiplicity
 _atom_site_fract_x
 _atom_site_fract_y
 _atom_site_fract_z
 _atom_site_occupancy
  Pr  Pr0  1  0.694530  0.694783  0.163877  1
  Pr  Pr1  1  0.305217  0.305470  0.836123  1
  Pr  Pr2  1  0.998425  0.001575  0.500000  1
  Nd  Nd3  1  0.310125  0.299846  0.357253  1
  Nd  Nd4  1  0.700154  0.689875  0.642747  1
  Mn  Mn5  1  0.749554  0.250446  0.000000  1
  Ru  Ru6  1  0.238935  0.761065  0.000000  1
  O  O7  1  0.096895  0.595984  0.575516  1
  O  O8  1  0.996025  0.002840  0.171834  1
  O  O9  1  0.404016  0.903105  0.424484  1
  O  O10  1  0.502500  0.496869  0.171768  1
  O  O11  1  0.099951  0.581684  0.079897  1
  O  O12  1  0.907559  0.403082  0.423186  1
  O  O13  1  0.997160  0.003975  0.828166  1
  O  O14  1  0.596918  0.092440  0.576814  1
  O  O15  1  0.503131  0.497500  0.828232  1
  O  O16  1  0.584226  0.103639  0.078262  1
  O  O17  1  0.418316  0.900049  0.920103  1
  O  O18  1  0.896361  0.415774  0.921738  1
