# generated using pymatgen
data_Tm12Os3Pd
_symmetry_space_group_name_H-M   'P 1'
_cell_length_a   7.27911779
_cell_length_b   8.92479200
_cell_length_c   6.33992556
_cell_angle_alpha   90.00000000
_cell_angle_beta   89.67659053
_cell_angle_gamma   90.00000000
_symmetry_Int_Tables_number   1
_chemical_formula_structural   Tm12Os3Pd
_chemical_formula_sum   'Tm12 Os3 Pd1'
_cell_volume   411.86424435
_cell_formula_units_Z   1
loop_
 _symmetry_equiv_pos_site_id
 _symmetry_equiv_pos_as_xyz
  1  'x, y, z'
loop_
 _atom_site_type_symbol
 _atom_site_label
 _atom_site_symmetry_multiplicity
 _atom_site_fract_x
 _atom_site_fract_y
 _atom_site_fract_z
 _atom_site_occupancy
  Tm  Tm0  1  0.032116  0.250000  0.626413  1
  Tm  Tm1  1  0.963677  0.750000  0.378385  1
  Tm  Tm2  1  0.462860  0.750000  0.128701  1
  Tm  Tm3  1  0.539016  0.250000  0.879744  1
  Tm  Tm4  1  0.170224  0.057421  0.161541  1
  Tm  Tm5  1  0.822986  0.938116  0.829427  1
  Tm  Tm6  1  0.322684  0.932721  0.676303  1
  Tm  Tm7  1  0.822986  0.561884  0.829427  1
  Tm  Tm8  1  0.684142  0.057552  0.328729  1
  Tm  Tm9  1  0.170224  0.442579  0.161541  1
  Tm  Tm10  1  0.684142  0.442448  0.328729  1
  Tm  Tm11  1  0.322684  0.567279  0.676303  1
  Os  Os12  1  0.614770  0.750000  0.535673  1
  Os  Os13  1  0.114592  0.750000  0.967831  1
  Os  Os14  1  0.884390  0.250000  0.036775  1
  Pd  Pd15  1  0.388509  0.250000  0.454480  1
