# generated using pymatgen
data_Dy16Hg4Ru3Pt
_symmetry_space_group_name_H-M   'P 1'
_cell_length_a   9.60471865
_cell_length_b   9.60471780
_cell_length_c   9.60471873
_cell_angle_alpha   59.82239063
_cell_angle_beta   59.82239773
_cell_angle_gamma   59.82239169
_symmetry_Int_Tables_number   1
_chemical_formula_structural   Dy16Hg4Ru3Pt
_chemical_formula_sum   'Dy16 Hg4 Ru3 Pt1'
_cell_volume   624.00003877
_cell_formula_units_Z   1
loop_
 _symmetry_equiv_pos_site_id
 _symmetry_equiv_pos_as_xyz
  1  'x, y, z'
loop_
 _atom_site_type_symbol
 _atom_site_label
 _atom_site_symmetry_multiplicity
 _atom_site_fract_x
 _atom_site_fract_y
 _atom_site_fract_z
 _atom_site_occupancy
  Dy  Dy0  1  0.599184  0.599184  0.599184  1
  Dy  Dy1  1  0.603056  0.603056  0.197592  1
  Dy  Dy2  1  0.603056  0.197592  0.603056  1
  Dy  Dy3  1  0.197592  0.603056  0.603056  1
  Dy  Dy4  1  0.053815  0.440963  0.440963  1
  Dy  Dy5  1  0.438153  0.059865  0.059865  1
  Dy  Dy6  1  0.440963  0.053815  0.440963  1
  Dy  Dy7  1  0.059865  0.438153  0.059865  1
  Dy  Dy8  1  0.440963  0.440963  0.053815  1
  Dy  Dy9  1  0.059865  0.059865  0.438153  1
  Dy  Dy10  1  0.188956  0.811541  0.811541  1
  Dy  Dy11  1  0.814465  0.188048  0.188048  1
  Dy  Dy12  1  0.811541  0.188956  0.811541  1
  Dy  Dy13  1  0.188048  0.814465  0.188048  1
  Dy  Dy14  1  0.811541  0.811541  0.188956  1
  Dy  Dy15  1  0.188048  0.188048  0.814465  1
  Hg  Hg16  1  0.834168  0.834168  0.834168  1
  Hg  Hg17  1  0.834240  0.834240  0.496885  1
  Hg  Hg18  1  0.834240  0.496885  0.834240  1
  Hg  Hg19  1  0.496885  0.834240  0.834240  1
  Ru  Ru20  1  0.390891  0.390891  0.828053  1
  Ru  Ru21  1  0.390891  0.828053  0.390891  1
  Ru  Ru22  1  0.828053  0.390891  0.390891  1
  Pt  Pt23  1  0.391520  0.391520  0.391520  1
