# generated using pymatgen
data_Mn3CoBi24(SO8)8
_symmetry_space_group_name_H-M   'P 1'
_cell_length_a   5.68820500
_cell_length_b   23.51955484
_cell_length_c   11.48185250
_cell_angle_alpha   85.42719438
_cell_angle_beta   89.99797734
_cell_angle_gamma   90.00246306
_symmetry_Int_Tables_number   1
_chemical_formula_structural   Mn3CoBi24(SO8)8
_chemical_formula_sum   'Mn3 Co1 Bi24 S8 O64'
_cell_volume   1531.19909049
_cell_formula_units_Z   1
loop_
 _symmetry_equiv_pos_site_id
 _symmetry_equiv_pos_as_xyz
  1  'x, y, z'
loop_
 _atom_site_type_symbol
 _atom_site_label
 _atom_site_symmetry_multiplicity
 _atom_site_fract_x
 _atom_site_fract_y
 _atom_site_fract_z
 _atom_site_occupancy
  Mn  Mn0  1  0.121508  0.500004  0.999996  1
  Mn  Mn1  1  0.645075  0.750056  0.500252  1
  Mn  Mn2  1  0.644713  0.249961  0.499796  1
  Co  Co3  1  0.106174  0.999999  0.999986  1
  Bi  Bi4  1  0.124650  0.826950  0.991776  1
  Bi  Bi5  1  0.625026  0.076603  0.496651  1
  Bi  Bi6  1  0.125408  0.326653  0.991991  1
  Bi  Bi7  1  0.626146  0.576906  0.494797  1
  Bi  Bi8  1  0.125296  0.673323  0.008074  1
  Bi  Bi9  1  0.625016  0.923382  0.503285  1
  Bi  Bi10  1  0.124728  0.173037  0.008177  1
  Bi  Bi11  1  0.626154  0.423141  0.505235  1
  Bi  Bi12  1  0.628710  0.762007  0.169146  1
  Bi  Bi13  1  0.128797  0.010333  0.671166  1
  Bi  Bi14  1  0.629417  0.261858  0.169162  1
  Bi  Bi15  1  0.129943  0.510719  0.669415  1
  Bi  Bi16  1  0.629375  0.738118  0.830889  1
  Bi  Bi17  1  0.128801  0.989664  0.328797  1
  Bi  Bi18  1  0.628866  0.237999  0.830853  1
  Bi  Bi19  1  0.130100  0.489297  0.330571  1
  Bi  Bi20  1  0.051671  0.668294  0.674643  1
  Bi  Bi21  1  0.546089  0.920312  0.167402  1
  Bi  Bi22  1  0.051030  0.168410  0.674530  1
  Bi  Bi23  1  0.549037  0.419508  0.170873  1
  Bi  Bi24  1  0.051040  0.831597  0.325359  1
  Bi  Bi25  1  0.546107  0.079695  0.832541  1
  Bi  Bi26  1  0.051580  0.331704  0.325471  1
  Bi  Bi27  1  0.548929  0.580474  0.829184  1
  S  S28  1  0.675759  0.924231  0.866047  1
  S  S29  1  0.172633  0.175793  0.367412  1
  S  S30  1  0.672253  0.423793  0.865102  1
  S  S31  1  0.173444  0.675927  0.367743  1
  S  S32  1  0.671918  0.576206  0.134934  1
  S  S33  1  0.172530  0.824172  0.632390  1
  S  S34  1  0.675789  0.075758  0.133921  1
  S  S35  1  0.173291  0.324119  0.632467  1
  O  O36  1  0.878574  0.750015  0.000096  1
  O  O37  1  0.379226  0.999992  0.499991  1
  O  O38  1  0.878632  0.249967  0.999923  1
  O  O39  1  0.379653  0.500018  0.499985  1
  O  O40  1  0.357577  0.750082  0.999938  1
  O  O41  1  0.858371  0.999996  0.499988  1
  O  O42  1  0.357730  0.249900  0.000083  1
  O  O43  1  0.858015  0.500021  0.499986  1
  O  O44  1  0.901098  0.938726  0.927239  1
  O  O45  1  0.396597  0.191300  0.426680  1
  O  O46  1  0.897032  0.438147  0.926105  1
  O  O47  1  0.397489  0.691295  0.427060  1
  O  O48  1  0.896465  0.561758  0.073839  1
  O  O49  1  0.396387  0.808708  0.572986  1
  O  O50  1  0.901156  0.061275  0.072733  1
  O  O51  1  0.397318  0.308656  0.573235  1
  O  O52  1  0.473648  0.933045  0.947448  1
  O  O53  1  0.970784  0.185318  0.449635  1
  O  O54  1  0.470935  0.433199  0.947183  1
  O  O55  1  0.971697  0.685453  0.450005  1
  O  O56  1  0.470398  0.566925  0.052896  1
  O  O57  1  0.970551  0.814625  0.550252  1
  O  O58  1  0.473708  0.066928  0.052516  1
  O  O59  1  0.971581  0.314645  0.550157  1
  O  O60  1  0.687932  0.864153  0.839366  1
  O  O61  1  0.182588  0.115314  0.343178  1
  O  O62  1  0.681809  0.363701  0.838346  1
  O  O63  1  0.182947  0.615480  0.343265  1
  O  O64  1  0.682038  0.636287  0.161751  1
  O  O65  1  0.182355  0.884648  0.656632  1
  O  O66  1  0.687912  0.135835  0.160602  1
  O  O67  1  0.183163  0.384571  0.656895  1
  O  O68  1  0.142222  0.715093  0.258977  1
  O  O69  1  0.647624  0.964185  0.758510  1
  O  O70  1  0.141311  0.214868  0.258552  1
  O  O71  1  0.645155  0.463909  0.757642  1
  O  O72  1  0.141466  0.785078  0.741247  1
  O  O73  1  0.647664  0.035801  0.241461  1
  O  O74  1  0.141756  0.284986  0.741249  1
  O  O75  1  0.644643  0.536083  0.242368  1
  O  O76  1  0.703175  0.796220  0.346961  1
  O  O77  1  0.200450  0.042103  0.854765  1
  O  O78  1  0.703395  0.296352  0.346885  1
  O  O79  1  0.201431  0.544583  0.848628  1
  O  O80  1  0.703495  0.703663  0.653207  1
  O  O81  1  0.200418  0.957891  0.145201  1
  O  O82  1  0.703155  0.203764  0.652972  1
  O  O83  1  0.201637  0.455435  0.151376  1
  O  O84  1  0.892541  0.833729  0.145075  1
  O  O85  1  0.391718  0.081962  0.650780  1
  O  O86  1  0.893281  0.333553  0.145186  1
  O  O87  1  0.394208  0.582475  0.648182  1
  O  O88  1  0.893186  0.666415  0.854901  1
  O  O89  1  0.391711  0.918040  0.349167  1
  O  O90  1  0.892639  0.166285  0.854844  1
  O  O91  1  0.394214  0.417531  0.351865  1
  O  O92  1  0.384000  0.836585  0.144837  1
  O  O93  1  0.887916  0.085045  0.647817  1
  O  O94  1  0.385464  0.336333  0.144983  1
  O  O95  1  0.887603  0.585230  0.646781  1
  O  O96  1  0.385379  0.663650  0.855072  1
  O  O97  1  0.887868  0.914960  0.352120  1
  O  O98  1  0.384100  0.163420  0.855118  1
  O  O99  1  0.887663  0.414786  0.353239  1
