# generated using pymatgen
data_Er2Mn7Nb2FeP6
_symmetry_space_group_name_H-M   'P 1'
_cell_length_a   3.61597000
_cell_length_b   10.86817900
_cell_length_c   12.48982700
_cell_angle_alpha   90.00000000
_cell_angle_beta   90.00000000
_cell_angle_gamma   90.00000000
_symmetry_Int_Tables_number   1
_chemical_formula_structural   Er2Mn7Nb2FeP6
_chemical_formula_sum   'Er4 Mn14 Nb4 Fe2 P12'
_cell_volume   490.83782641
_cell_formula_units_Z   2
loop_
 _symmetry_equiv_pos_site_id
 _symmetry_equiv_pos_as_xyz
  1  'x, y, z'
loop_
 _atom_site_type_symbol
 _atom_site_label
 _atom_site_symmetry_multiplicity
 _atom_site_fract_x
 _atom_site_fract_y
 _atom_site_fract_z
 _atom_site_occupancy
  Er  Er0  1  0.250000  0.587520  0.708796  1
  Er  Er1  1  0.250000  0.912480  0.208796  1
  Er  Er2  1  0.750000  0.415692  0.289473  1
  Er  Er3  1  0.750000  0.084308  0.789473  1
  Mn  Mn4  1  0.250000  0.411472  0.492616  1
  Mn  Mn5  1  0.250000  0.088529  0.992616  1
  Mn  Mn6  1  0.750000  0.590149  0.507937  1
  Mn  Mn7  1  0.750000  0.909851  0.007937  1
  Mn  Mn8  1  0.250000  0.215367  0.177302  1
  Mn  Mn9  1  0.250000  0.284633  0.677302  1
  Mn  Mn10  1  0.750000  0.786147  0.822522  1
  Mn  Mn11  1  0.750000  0.713853  0.322522  1
  Mn  Mn12  1  0.250000  0.881099  0.699426  1
  Mn  Mn13  1  0.250000  0.618901  0.199426  1
  Mn  Mn14  1  0.750000  0.118400  0.301797  1
  Mn  Mn15  1  0.750000  0.381600  0.801797  1
  Mn  Mn16  1  0.250000  0.462235  0.931200  1
  Mn  Mn17  1  0.250000  0.037765  0.431200  1
  Nb  Nb18  1  0.250000  0.706392  0.986217  1
  Nb  Nb19  1  0.250000  0.793608  0.486217  1
  Nb  Nb20  1  0.750000  0.292801  0.016546  1
  Nb  Nb21  1  0.750000  0.207199  0.516546  1
  Fe  Fe22  1  0.750000  0.536691  0.065619  1
  Fe  Fe23  1  0.750000  0.963309  0.565619  1
  P  P24  1  0.250000  0.425754  0.115806  1
  P  P25  1  0.250000  0.074246  0.615806  1
  P  P26  1  0.750000  0.578971  0.883210  1
  P  P27  1  0.750000  0.921029  0.383210  1
  P  P28  1  0.250000  0.262653  0.865931  1
  P  P29  1  0.250000  0.237347  0.365931  1
  P  P30  1  0.750000  0.731909  0.134670  1
  P  P31  1  0.750000  0.768091  0.634670  1
  P  P32  1  0.250000  0.586523  0.383515  1
  P  P33  1  0.250000  0.913477  0.883515  1
  P  P34  1  0.750000  0.414850  0.617415  1
  P  P35  1  0.750000  0.085150  0.117415  1
