# generated using pymatgen
data_Nd4Pd3Pt
_symmetry_space_group_name_H-M   'P 1'
_cell_length_a   4.69640400
_cell_length_b   5.72480125
_cell_length_c   7.29880732
_cell_angle_alpha   90.03396807
_cell_angle_beta   90.00000000
_cell_angle_gamma   90.00000000
_symmetry_Int_Tables_number   1
_chemical_formula_structural   Nd4Pd3Pt
_chemical_formula_sum   'Nd4 Pd3 Pt1'
_cell_volume   196.23554949
_cell_formula_units_Z   1
loop_
 _symmetry_equiv_pos_site_id
 _symmetry_equiv_pos_as_xyz
  1  'x, y, z'
loop_
 _atom_site_type_symbol
 _atom_site_label
 _atom_site_symmetry_multiplicity
 _atom_site_fract_x
 _atom_site_fract_y
 _atom_site_fract_z
 _atom_site_occupancy
  Nd  Nd0  1  0.250000  0.360103  0.685384  1
  Nd  Nd1  1  0.250000  0.141599  0.178325  1
  Nd  Nd2  1  0.750000  0.637507  0.317704  1
  Nd  Nd3  1  0.750000  0.861851  0.818891  1
  Pd  Pd4  1  0.250000  0.851796  0.542990  1
  Pd  Pd5  1  0.250000  0.650807  0.043854  1
  Pd  Pd6  1  0.750000  0.147357  0.456727  1
  Pt  Pt7  1  0.750000  0.348981  0.956125  1
