# generated using pymatgen
data_NaAc(U2S5)2
_symmetry_space_group_name_H-M   'P 1'
_cell_length_a   7.39888400
_cell_length_b   8.19885002
_cell_length_c   11.65014500
_cell_angle_alpha   89.60481717
_cell_angle_beta   90.00000000
_cell_angle_gamma   90.00000000
_symmetry_Int_Tables_number   1
_chemical_formula_structural   NaAc(U2S5)2
_chemical_formula_sum   'Na2 Ac2 U8 S20'
_cell_volume   706.70824939
_cell_formula_units_Z   2
loop_
 _symmetry_equiv_pos_site_id
 _symmetry_equiv_pos_as_xyz
  1  'x, y, z'
loop_
 _atom_site_type_symbol
 _atom_site_label
 _atom_site_symmetry_multiplicity
 _atom_site_fract_x
 _atom_site_fract_y
 _atom_site_fract_z
 _atom_site_occupancy
  Na  Na0  1  0.027717  0.999741  0.307403  1
  Na  Na1  1  0.527717  0.000259  0.192597  1
  Ac  Ac2  1  0.952444  0.993427  0.656201  1
  Ac  Ac3  1  0.452444  0.006573  0.843799  1
  U  U4  1  0.019467  0.497548  0.317008  1
  U  U5  1  0.519467  0.502452  0.182992  1
  U  U6  1  0.984179  0.501514  0.680893  1
  U  U7  1  0.484179  0.498486  0.819107  1
  U  U8  1  0.072526  0.739947  0.014541  1
  U  U9  1  0.572526  0.260053  0.485459  1
  U  U10  1  0.927545  0.249097  0.996354  1
  U  U11  1  0.427545  0.750903  0.503646  1
  S  S12  1  0.165959  0.447450  0.097351  1
  S  S13  1  0.665959  0.552550  0.402649  1
  S  S14  1  0.840204  0.542052  0.900129  1
  S  S15  1  0.340204  0.457948  0.599871  1
  S  S16  1  0.455973  0.711610  0.999759  1
  S  S17  1  0.955973  0.288390  0.500241  1
  S  S18  1  0.548344  0.283243  0.999175  1
  S  S19  1  0.048344  0.716757  0.500825  1
  S  S20  1  0.328412  0.282981  0.316324  1
  S  S21  1  0.828412  0.717019  0.183676  1
  S  S22  1  0.661841  0.729554  0.689214  1
  S  S23  1  0.161841  0.270446  0.810786  1
  S  S24  1  0.686720  0.963986  0.432529  1
  S  S25  1  0.186720  0.036014  0.067471  1
  S  S26  1  0.335819  0.041252  0.590407  1
  S  S27  1  0.835819  0.958748  0.909593  1
  S  S28  1  0.300831  0.731402  0.279566  1
  S  S29  1  0.800831  0.268598  0.220434  1
  S  S30  1  0.692021  0.263026  0.714740  1
  S  S31  1  0.192021  0.736974  0.785260  1
