# generated using pymatgen
data_BaCuF5
_symmetry_space_group_name_H-M   'P 1'
_cell_length_a   5.01664700
_cell_length_b   5.76802000
_cell_length_c   14.02328400
_cell_angle_alpha   90.00000000
_cell_angle_beta   90.00000000
_cell_angle_gamma   90.00000000
_symmetry_Int_Tables_number   1
_chemical_formula_structural   BaCuF5
_chemical_formula_sum   'Ba4 Cu4 F20'
_cell_volume   405.77943183
_cell_formula_units_Z   4
loop_
 _symmetry_equiv_pos_site_id
 _symmetry_equiv_pos_as_xyz
  1  'x, y, z'
loop_
 _atom_site_type_symbol
 _atom_site_label
 _atom_site_symmetry_multiplicity
 _atom_site_fract_x
 _atom_site_fract_y
 _atom_site_fract_z
 _atom_site_occupancy
  Ba  Ba0  1  0.728825  0.659850  0.656420  1
  Ba  Ba1  1  0.228825  0.840150  0.343580  1
  Ba  Ba2  1  0.271175  0.159850  0.843580  1
  Ba  Ba3  1  0.771175  0.340150  0.156420  1
  Cu  Cu4  1  0.324567  0.150472  0.584294  1
  Cu  Cu5  1  0.824567  0.349528  0.415706  1
  Cu  Cu6  1  0.675433  0.650472  0.915706  1
  Cu  Cu7  1  0.175433  0.849528  0.084294  1
  F  F8  1  0.968466  0.605039  0.483694  1
  F  F9  1  0.468466  0.894961  0.516306  1
  F  F10  1  0.031534  0.105039  0.016306  1
  F  F11  1  0.531534  0.394961  0.983694  1
  F  F12  1  0.664446  0.564530  0.328738  1
  F  F13  1  0.164446  0.935470  0.671262  1
  F  F14  1  0.335554  0.064530  0.171262  1
  F  F15  1  0.835554  0.435470  0.828738  1
  F  F16  1  0.196417  0.404850  0.659580  1
  F  F17  1  0.696417  0.095150  0.340420  1
  F  F18  1  0.803583  0.904850  0.840420  1
  F  F19  1  0.303583  0.595150  0.159580  1
  F  F20  1  0.619019  0.149985  0.671119  1
  F  F21  1  0.119019  0.350015  0.328881  1
  F  F22  1  0.380981  0.649985  0.828881  1
  F  F23  1  0.880981  0.850015  0.171119  1
  F  F24  1  0.515183  0.373211  0.503003  1
  F  F25  1  0.015183  0.126789  0.496997  1
  F  F26  1  0.484817  0.873211  0.996997  1
  F  F27  1  0.984817  0.626789  0.003003  1
