# generated using pymatgen
data_Pr8Lu12Sn13Au3
_symmetry_space_group_name_H-M   'P 1'
_cell_length_a   7.81972556
_cell_length_b   8.35007969
_cell_length_c   15.33254100
_cell_angle_alpha   90.00000000
_cell_angle_beta   90.00000000
_cell_angle_gamma   89.68442422
_symmetry_Int_Tables_number   1
_chemical_formula_structural   Pr8Lu12Sn13Au3
_chemical_formula_sum   'Pr8 Lu12 Sn13 Au3'
_cell_volume   1001.12816319
_cell_formula_units_Z   1
loop_
 _symmetry_equiv_pos_site_id
 _symmetry_equiv_pos_as_xyz
  1  'x, y, z'
loop_
 _atom_site_type_symbol
 _atom_site_label
 _atom_site_symmetry_multiplicity
 _atom_site_fract_x
 _atom_site_fract_y
 _atom_site_fract_z
 _atom_site_occupancy
  Pr  Pr0  1  0.503847  0.318779  0.905745  1
  Pr  Pr1  1  0.003489  0.182200  0.594170  1
  Pr  Pr2  1  0.496792  0.680666  0.408744  1
  Pr  Pr3  1  0.995946  0.820085  0.093250  1
  Pr  Pr4  1  0.496792  0.680666  0.091256  1
  Pr  Pr5  1  0.995946  0.820085  0.406750  1
  Pr  Pr6  1  0.503847  0.318779  0.594255  1
  Pr  Pr7  1  0.003489  0.182200  0.905830  1
  Lu  Lu8  1  0.338346  0.827841  0.867187  1
  Lu  Lu9  1  0.834755  0.669568  0.632416  1
  Lu  Lu10  1  0.649541  0.174432  0.371633  1
  Lu  Lu11  1  0.177863  0.335650  0.127420  1
  Lu  Lu12  1  0.649541  0.174432  0.128367  1
  Lu  Lu13  1  0.177863  0.335650  0.372580  1
  Lu  Lu14  1  0.338346  0.827841  0.632813  1
  Lu  Lu15  1  0.834755  0.669568  0.867584  1
  Lu  Lu16  1  0.185316  0.501102  0.750000  1
  Lu  Lu17  1  0.685814  0.998080  0.750000  1
  Lu  Lu18  1  0.814628  0.497351  0.250000  1
  Lu  Lu19  1  0.322466  0.998126  0.250000  1
  Sn  Sn20  1  0.319012  0.037529  0.038019  1
  Sn  Sn21  1  0.825598  0.459856  0.458800  1
  Sn  Sn22  1  0.681245  0.961874  0.541052  1
  Sn  Sn23  1  0.177264  0.538909  0.957736  1
  Sn  Sn24  1  0.681245  0.961874  0.958948  1
  Sn  Sn25  1  0.177264  0.538909  0.542264  1
  Sn  Sn26  1  0.319012  0.037529  0.461981  1
  Sn  Sn27  1  0.825598  0.459856  0.041200  1
  Sn  Sn28  1  0.959788  0.126257  0.250000  1
  Sn  Sn29  1  0.297878  0.132420  0.750000  1
  Sn  Sn30  1  0.797920  0.364529  0.750000  1
  Sn  Sn31  1  0.691338  0.858926  0.250000  1
  Sn  Sn32  1  0.201530  0.637094  0.250000  1
  Au  Au33  1  0.537710  0.626605  0.750000  1
  Au  Au34  1  0.036925  0.872148  0.750000  1
  Au  Au35  1  0.461290  0.372582  0.250000  1
