# generated using pymatgen
data_Ti8Al15Ir4Rh2Au
_symmetry_space_group_name_H-M   'P 1'
_cell_length_a   8.69014107
_cell_length_b   8.66031139
_cell_length_c   8.68845238
_cell_angle_alpha   119.87780040
_cell_angle_beta   119.84079012
_cell_angle_gamma   90.18487793
_symmetry_Int_Tables_number   1
_chemical_formula_structural   Ti8Al15Ir4Rh2Au
_chemical_formula_sum   'Ti8 Al15 Ir4 Rh2 Au1'
_cell_volume   463.58578297
_cell_formula_units_Z   1
loop_
 _symmetry_equiv_pos_site_id
 _symmetry_equiv_pos_as_xyz
  1  'x, y, z'
loop_
 _atom_site_type_symbol
 _atom_site_label
 _atom_site_symmetry_multiplicity
 _atom_site_fract_x
 _atom_site_fract_y
 _atom_site_fract_z
 _atom_site_occupancy
  Ti  Ti0  1  0.789959  0.292995  0.077437  1
  Ti  Ti1  1  0.217690  0.292342  0.501845  1
  Ti  Ti2  1  0.210786  0.708091  0.500905  1
  Ti  Ti3  1  0.213966  0.713284  0.920510  1
  Ti  Ti4  1  0.788980  0.712239  0.498833  1
  Ti  Ti5  1  0.782438  0.285890  0.499623  1
  Ti  Ti6  1  0.389807  0.126947  0.752422  1
  Ti  Ti7  1  0.379138  0.634210  0.257153  1
  Al  Al8  1  0.997289  0.496471  0.499404  1
  Al  Al9  1  0.153386  0.342690  0.190406  1
  Al  Al10  1  0.156307  0.964550  0.815873  1
  Al  Al11  1  0.152815  0.351852  0.808460  1
  Al  Al12  1  0.540517  0.345860  0.195981  1
  Al  Al13  1  0.845337  0.654424  0.808579  1
  Al  Al14  1  0.843435  0.039187  0.185057  1
  Al  Al15  1  0.840193  0.648947  0.181840  1
  Al  Al16  1  0.469289  0.655327  0.812870  1
  Al  Al17  1  0.378998  0.121905  0.258516  1
  Al  Al18  1  0.859864  0.125160  0.751230  1
  Al  Al19  1  0.610775  0.874687  0.249289  1
  Al  Al20  1  0.620688  0.365046  0.742090  1
  Al  Al21  1  0.620525  0.876564  0.741358  1
  Al  Al22  1  0.139531  0.875303  0.249429  1
  Ir  Ir23  1  0.498800  0.999757  0.999321  1
  Ir  Ir24  1  0.497822  0.498272  0.001527  1
  Ir  Ir25  1  0.497959  0.499909  0.498173  1
  Ir  Ir26  1  0.001904  0.499375  0.001628  1
  Rh  Rh27  1  0.999892  0.999722  0.999215  1
  Rh  Rh28  1  0.500228  0.999598  0.501227  1
  Au  Au29  1  0.001684  0.999390  0.499800  1
