# generated using pymatgen
data_NaRu(OF)2
_symmetry_space_group_name_H-M   'P 1'
_cell_length_a   5.40181600
_cell_length_b   7.23716262
_cell_length_c   8.13987099
_cell_angle_alpha   78.43975535
_cell_angle_beta   90.00000000
_cell_angle_gamma   90.00000000
_symmetry_Int_Tables_number   1
_chemical_formula_structural   NaRu(OF)2
_chemical_formula_sum   'Na4 Ru4 O8 F8'
_cell_volume   311.76344443
_cell_formula_units_Z   4
loop_
 _symmetry_equiv_pos_site_id
 _symmetry_equiv_pos_as_xyz
  1  'x, y, z'
loop_
 _atom_site_type_symbol
 _atom_site_label
 _atom_site_symmetry_multiplicity
 _atom_site_fract_x
 _atom_site_fract_y
 _atom_site_fract_z
 _atom_site_occupancy
  Na  Na0  1  0.785706  0.111617  0.625917  1
  Na  Na1  1  0.214294  0.888383  0.374083  1
  Na  Na2  1  0.714294  0.611617  0.625917  1
  Na  Na3  1  0.285706  0.388383  0.374083  1
  Ru  Ru4  1  0.737573  0.710005  0.147195  1
  Ru  Ru5  1  0.237573  0.789995  0.852805  1
  Ru  Ru6  1  0.262427  0.289995  0.852805  1
  Ru  Ru7  1  0.762427  0.210005  0.147195  1
  O  O8  1  0.451135  0.808545  0.032432  1
  O  O9  1  0.951135  0.691455  0.967568  1
  O  O10  1  0.848568  0.952892  0.162552  1
  O  O11  1  0.651432  0.452892  0.162552  1
  O  O12  1  0.548865  0.191455  0.967568  1
  O  O13  1  0.048865  0.308545  0.032432  1
  O  O14  1  0.151432  0.047108  0.837448  1
  O  O15  1  0.348568  0.547108  0.837448  1
  F  F16  1  0.462609  0.316594  0.634447  1
  F  F17  1  0.518062  0.874559  0.688727  1
  F  F18  1  0.962609  0.183406  0.365553  1
  F  F19  1  0.481938  0.125441  0.311273  1
  F  F20  1  0.018062  0.625441  0.311273  1
  F  F21  1  0.981938  0.374559  0.688727  1
  F  F22  1  0.537391  0.683406  0.365553  1
  F  F23  1  0.037391  0.816594  0.634447  1
