# generated using pymatgen
data_Th4Mg2Pt3Au
_symmetry_space_group_name_H-M   'P 1'
_cell_length_a   8.01366999
_cell_length_b   3.84269200
_cell_length_c   8.01366999
_cell_angle_alpha   90.00000000
_cell_angle_beta   89.62463718
_cell_angle_gamma   90.00000000
_symmetry_Int_Tables_number   1
_chemical_formula_structural   Th4Mg2Pt3Au
_chemical_formula_sum   'Th4 Mg2 Pt3 Au1'
_cell_volume   246.76818354
_cell_formula_units_Z   1
loop_
 _symmetry_equiv_pos_site_id
 _symmetry_equiv_pos_as_xyz
  1  'x, y, z'
loop_
 _atom_site_type_symbol
 _atom_site_label
 _atom_site_symmetry_multiplicity
 _atom_site_fract_x
 _atom_site_fract_y
 _atom_site_fract_z
 _atom_site_occupancy
  Th  Th0  1  0.331608  0.500000  0.182244  1
  Th  Th1  1  0.825424  0.500000  0.325424  1
  Th  Th2  1  0.161686  0.500000  0.661687  1
  Th  Th3  1  0.682245  0.500000  0.831608  1
  Mg  Mg4  1  0.001235  0.000000  0.001569  1
  Mg  Mg5  1  0.501569  0.000000  0.501235  1
  Pt  Pt6  1  0.631217  0.000000  0.131216  1
  Pt  Pt7  1  0.132139  0.000000  0.365964  1
  Pt  Pt8  1  0.865965  0.000000  0.632140  1
  Au  Au9  1  0.366918  0.000000  0.866919  1
