# generated using pymatgen
data_Tb2Th2Ga12Tc
_symmetry_space_group_name_H-M   'P 1'
_cell_length_a   7.55378317
_cell_length_b   7.62579736
_cell_length_c   7.55378310
_cell_angle_alpha   109.42925868
_cell_angle_beta   109.17000615
_cell_angle_gamma   109.42925223
_symmetry_Int_Tables_number   1
_chemical_formula_structural   Tb2Th2Ga12Tc
_chemical_formula_sum   'Tb2 Th2 Ga12 Tc1'
_cell_volume   336.54056430
_cell_formula_units_Z   1
loop_
 _symmetry_equiv_pos_site_id
 _symmetry_equiv_pos_as_xyz
  1  'x, y, z'
loop_
 _atom_site_type_symbol
 _atom_site_label
 _atom_site_symmetry_multiplicity
 _atom_site_fract_x
 _atom_site_fract_y
 _atom_site_fract_z
 _atom_site_occupancy
  Tb  Tb0  1  0.500000  0.500000  0.500000  1
  Tb  Tb1  1  0.000000  0.500000  0.000000  1
  Th  Th2  1  0.500000  0.000000  0.000000  1
  Th  Th3  1  0.000000  0.000000  0.500000  1
  Ga  Ga4  1  0.291533  0.000000  0.291533  1
  Ga  Ga5  1  0.505007  0.255049  0.750041  1
  Ga  Ga6  1  0.996346  0.705023  0.708677  1
  Ga  Ga7  1  0.708467  0.000000  0.708467  1
  Ga  Ga8  1  0.750000  0.500000  0.250000  1
  Ga  Ga9  1  0.249959  0.744951  0.494993  1
  Ga  Ga10  1  0.750041  0.255049  0.505007  1
  Ga  Ga11  1  0.708677  0.705023  0.996346  1
  Ga  Ga12  1  0.250000  0.500000  0.750000  1
  Ga  Ga13  1  0.494993  0.744951  0.249959  1
  Ga  Ga14  1  0.291323  0.294977  0.003654  1
  Ga  Ga15  1  0.003654  0.294977  0.291323  1
  Tc  Tc16  1  0.000000  0.000000  0.000000  1
