# generated using pymatgen
data_Nb12Al13Ga3(Cu3Ir)2
_symmetry_space_group_name_H-M   'P 1'
_cell_length_a   8.78372402
_cell_length_b   8.87227857
_cell_length_c   8.19733400
_cell_angle_alpha   90.00000000
_cell_angle_beta   90.00000000
_cell_angle_gamma   121.00278434
_symmetry_Int_Tables_number   1
_chemical_formula_structural   Nb12Al13Ga3(Cu3Ir)2
_chemical_formula_sum   'Nb12 Al13 Ga3 Cu6 Ir2'
_cell_volume   547.56968421
_cell_formula_units_Z   1
loop_
 _symmetry_equiv_pos_site_id
 _symmetry_equiv_pos_as_xyz
  1  'x, y, z'
loop_
 _atom_site_type_symbol
 _atom_site_label
 _atom_site_symmetry_multiplicity
 _atom_site_fract_x
 _atom_site_fract_y
 _atom_site_fract_z
 _atom_site_occupancy
  Nb  Nb0  1  0.328347  0.991638  0.068721  1
  Nb  Nb1  1  0.671510  0.008425  0.931416  1
  Nb  Nb2  1  0.998119  0.332413  0.068736  1
  Nb  Nb3  1  0.671510  0.008425  0.568584  1
  Nb  Nb4  1  0.998119  0.332413  0.431264  1
  Nb  Nb5  1  0.003003  0.667788  0.931263  1
  Nb  Nb6  1  0.328347  0.991638  0.431279  1
  Nb  Nb7  1  0.003003  0.667788  0.568737  1
  Nb  Nb8  1  0.667681  0.664744  0.068109  1
  Nb  Nb9  1  0.332182  0.336140  0.932469  1
  Nb  Nb10  1  0.332182  0.336140  0.567531  1
  Nb  Nb11  1  0.667681  0.664744  0.431891  1
  Al  Al12  1  0.345867  0.494463  0.250000  1
  Al  Al13  1  0.844922  0.341755  0.750000  1
  Al  Al14  1  0.155494  0.658235  0.250000  1
  Al  Al15  1  0.339948  0.665713  0.506169  1
  Al  Al16  1  0.659842  0.334500  0.494289  1
  Al  Al17  1  0.659842  0.334500  0.005711  1
  Al  Al18  1  0.339948  0.665713  0.993831  1
  Al  Al19  1  0.179124  0.009775  0.750000  1
  Al  Al20  1  0.820923  0.990423  0.250000  1
  Al  Al21  1  0.008713  0.178969  0.750000  1
  Al  Al22  1  0.991365  0.820485  0.250000  1
  Al  Al23  1  0.824147  0.833562  0.750000  1
  Al  Al24  1  0.174328  0.165488  0.250000  1
  Ga  Ga25  1  0.341857  0.847736  0.750000  1
  Ga  Ga26  1  0.655653  0.506515  0.750000  1
  Ga  Ga27  1  0.657624  0.151748  0.250000  1
  Cu  Cu28  1  0.167543  0.498070  0.750000  1
  Cu  Cu29  1  0.832115  0.501110  0.250000  1
  Cu  Cu30  1  0.505824  0.672344  0.750000  1
  Cu  Cu31  1  0.503372  0.172070  0.750000  1
  Cu  Cu32  1  0.494086  0.327903  0.250000  1
  Cu  Cu33  1  0.496327  0.828196  0.250000  1
  Ir  Ir34  1  0.999726  0.999217  0.500275  1
  Ir  Ir35  1  0.999726  0.999217  0.999725  1
