# generated using pymatgen
data_Er11LuSi12Rh3Au
_symmetry_space_group_name_H-M   'P 1'
_cell_length_a   4.21158800
_cell_length_b   10.65659209
_cell_length_c   12.25589396
_cell_angle_alpha   89.89830245
_cell_angle_beta   90.00000000
_cell_angle_gamma   90.00000000
_symmetry_Int_Tables_number   1
_chemical_formula_structural   Er11LuSi12Rh3Au
_chemical_formula_sum   'Er11 Lu1 Si12 Rh3 Au1'
_cell_volume   550.05805964
_cell_formula_units_Z   1
loop_
 _symmetry_equiv_pos_site_id
 _symmetry_equiv_pos_as_xyz
  1  'x, y, z'
loop_
 _atom_site_type_symbol
 _atom_site_label
 _atom_site_symmetry_multiplicity
 _atom_site_fract_x
 _atom_site_fract_y
 _atom_site_fract_z
 _atom_site_occupancy
  Er  Er0  1  0.250000  0.880156  0.023107  1
  Er  Er1  1  0.250000  0.624772  0.517667  1
  Er  Er2  1  0.750000  0.120081  0.980800  1
  Er  Er3  1  0.750000  0.378663  0.478166  1
  Er  Er4  1  0.250000  0.921646  0.599135  1
  Er  Er5  1  0.250000  0.579832  0.103343  1
  Er  Er6  1  0.750000  0.079341  0.394762  1
  Er  Er7  1  0.750000  0.420007  0.898094  1
  Er  Er8  1  0.250000  0.668945  0.803189  1
  Er  Er9  1  0.750000  0.340797  0.199256  1
  Er  Er10  1  0.750000  0.155709  0.699918  1
  Lu  Lu11  1  0.250000  0.841009  0.299983  1
  Si  Si12  1  0.250000  0.009799  0.822027  1
  Si  Si13  1  0.250000  0.484904  0.324336  1
  Si  Si14  1  0.750000  0.984419  0.178515  1
  Si  Si15  1  0.750000  0.526911  0.675323  1
  Si  Si16  1  0.250000  0.239660  0.848894  1
  Si  Si17  1  0.250000  0.251943  0.340278  1
  Si  Si18  1  0.750000  0.752567  0.160140  1
  Si  Si19  1  0.750000  0.752956  0.657060  1
  Si  Si20  1  0.250000  0.186226  0.535698  1
  Si  Si21  1  0.250000  0.300989  0.044423  1
  Si  Si22  1  0.750000  0.802304  0.454316  1
  Si  Si23  1  0.750000  0.699193  0.960456  1
  Rh  Rh24  1  0.250000  0.107074  0.182439  1
  Rh  Rh25  1  0.750000  0.610006  0.318742  1
  Rh  Rh26  1  0.750000  0.890248  0.818050  1
  Au  Au27  1  0.250000  0.389850  0.681888  1
