# generated using pymatgen
data_Ac3SiBr3
_symmetry_space_group_name_H-M   'P 1'
_cell_length_a   11.05808884
_cell_length_b   11.05808916
_cell_length_c   11.05808900
_cell_angle_alpha   109.47122218
_cell_angle_beta   109.47122277
_cell_angle_gamma   109.47121791
_symmetry_Int_Tables_number   1
_chemical_formula_structural   Ac3SiBr3
_chemical_formula_sum   'Ac12 Si4 Br12'
_cell_volume   1040.92238185
_cell_formula_units_Z   4
loop_
 _symmetry_equiv_pos_site_id
 _symmetry_equiv_pos_as_xyz
  1  'x, y, z'
loop_
 _atom_site_type_symbol
 _atom_site_label
 _atom_site_symmetry_multiplicity
 _atom_site_fract_x
 _atom_site_fract_y
 _atom_site_fract_z
 _atom_site_occupancy
  Ac  Ac0  1  0.488784  0.750000  0.011216  1
  Ac  Ac1  1  0.750000  0.238784  0.261216  1
  Ac  Ac2  1  0.238784  0.261216  0.750000  1
  Ac  Ac3  1  0.477569  0.488784  0.238784  1
  Ac  Ac4  1  0.261216  0.011216  0.022431  1
  Ac  Ac5  1  0.238784  0.477569  0.488784  1
  Ac  Ac6  1  0.011216  0.022431  0.261216  1
  Ac  Ac7  1  0.011216  0.488784  0.750000  1
  Ac  Ac8  1  0.488784  0.238784  0.477569  1
  Ac  Ac9  1  0.750000  0.011216  0.488784  1
  Ac  Ac10  1  0.022431  0.261216  0.011216  1
  Ac  Ac11  1  0.261216  0.750000  0.238784  1
  Si  Si12  1  0.250000  0.250000  0.250000  1
  Si  Si13  1  0.000000  0.250000  0.500000  1
  Si  Si14  1  0.250000  0.500000  0.000000  1
  Si  Si15  1  0.500000  0.000000  0.250000  1
  Br  Br16  1  0.996190  0.992380  0.746190  1
  Br  Br17  1  0.753810  0.746190  0.250000  1
  Br  Br18  1  0.992380  0.746190  0.996190  1
  Br  Br19  1  0.250000  0.996190  0.503810  1
  Br  Br20  1  0.746190  0.996190  0.992380  1
  Br  Br21  1  0.503810  0.250000  0.996190  1
  Br  Br22  1  0.746190  0.250000  0.753810  1
  Br  Br23  1  0.503810  0.753810  0.507620  1
  Br  Br24  1  0.753810  0.507620  0.503810  1
  Br  Br25  1  0.250000  0.753810  0.746190  1
  Br  Br26  1  0.507620  0.503810  0.753810  1
  Br  Br27  1  0.996190  0.503810  0.250000  1
