# generated using pymatgen
data_La6Zn(SiS7)2
_symmetry_space_group_name_H-M   'P 1'
_cell_length_a   10.38511300
_cell_length_b   10.38511266
_cell_length_c   5.78520200
_cell_angle_alpha   90.00000000
_cell_angle_beta   90.00000000
_cell_angle_gamma   120.00000426
_symmetry_Int_Tables_number   1
_chemical_formula_structural   La6Zn(SiS7)2
_chemical_formula_sum   'La6 Zn1 Si2 S14'
_cell_volume   540.34555031
_cell_formula_units_Z   1
loop_
 _symmetry_equiv_pos_site_id
 _symmetry_equiv_pos_as_xyz
  1  'x, y, z'
loop_
 _atom_site_type_symbol
 _atom_site_label
 _atom_site_symmetry_multiplicity
 _atom_site_fract_x
 _atom_site_fract_y
 _atom_site_fract_z
 _atom_site_occupancy
  La  La0  1  0.878453  0.234575  0.249410  1
  La  La1  1  0.765425  0.643879  0.249410  1
  La  La2  1  0.356121  0.121547  0.249410  1
  La  La3  1  0.122612  0.766743  0.753190  1
  La  La4  1  0.233257  0.355869  0.753190  1
  La  La5  1  0.644131  0.877388  0.753190  1
  Zn  Zn6  1  0.000000  0.000000  0.490796  1
  Si  Si7  1  0.666667  0.333333  0.833621  1
  Si  Si8  1  0.333333  0.666667  0.340760  1
  S  S9  1  0.666667  0.333333  0.469436  1
  S  S10  1  0.333333  0.666667  0.975920  1
  S  S11  1  0.916763  0.159123  0.726321  1
  S  S12  1  0.840877  0.757640  0.726321  1
  S  S13  1  0.242360  0.083237  0.726321  1
  S  S14  1  0.080801  0.838527  0.250064  1
  S  S15  1  0.161473  0.242273  0.250064  1
  S  S16  1  0.757727  0.919199  0.250064  1
  S  S17  1  0.592628  0.116178  0.975268  1
  S  S18  1  0.883822  0.476451  0.975268  1
  S  S19  1  0.523549  0.407372  0.975268  1
  S  S20  1  0.408903  0.884309  0.480787  1
  S  S21  1  0.115691  0.524594  0.480787  1
  S  S22  1  0.475406  0.591097  0.480787  1
