# generated using pymatgen
data_Y6ZrMn(Co4P3)4
_symmetry_space_group_name_H-M   'P 1'
_cell_length_a   3.69353400
_cell_length_b   10.56480000
_cell_length_c   12.26525000
_cell_angle_alpha   90.00000000
_cell_angle_beta   90.00000000
_cell_angle_gamma   90.00000000
_symmetry_Int_Tables_number   1
_chemical_formula_structural   Y6ZrMn(Co4P3)4
_chemical_formula_sum   'Y6 Zr1 Mn1 Co16 P12'
_cell_volume   478.60781512
_cell_formula_units_Z   1
loop_
 _symmetry_equiv_pos_site_id
 _symmetry_equiv_pos_as_xyz
  1  'x, y, z'
loop_
 _atom_site_type_symbol
 _atom_site_label
 _atom_site_symmetry_multiplicity
 _atom_site_fract_x
 _atom_site_fract_y
 _atom_site_fract_z
 _atom_site_occupancy
  Y  Y0  1  0.000000  0.500000  0.528761  1
  Y  Y1  1  0.500000  0.000000  0.477151  1
  Y  Y2  1  0.500000  0.820927  0.206356  1
  Y  Y3  1  0.500000  0.179073  0.206356  1
  Y  Y4  1  0.000000  0.682479  0.795651  1
  Y  Y5  1  0.000000  0.317521  0.795651  1
  Zr  Zr6  1  0.500000  0.500000  0.154597  1
  Mn  Mn7  1  0.000000  0.000000  0.837533  1
  Co  Co8  1  0.500000  0.500000  0.702838  1
  Co  Co9  1  0.000000  0.000000  0.297104  1
  Co  Co10  1  0.000000  0.500000  0.983192  1
  Co  Co11  1  0.500000  0.000000  0.012993  1
  Co  Co12  1  0.500000  0.327038  0.987816  1
  Co  Co13  1  0.500000  0.672962  0.987816  1
  Co  Co14  1  0.000000  0.161641  0.001874  1
  Co  Co15  1  0.000000  0.838359  0.001874  1
  Co  Co16  1  0.500000  0.294070  0.434825  1
  Co  Co17  1  0.500000  0.705930  0.434825  1
  Co  Co18  1  0.000000  0.201952  0.570979  1
  Co  Co19  1  0.000000  0.798048  0.570979  1
  Co  Co20  1  0.500000  0.880820  0.707825  1
  Co  Co21  1  0.500000  0.119180  0.707825  1
  Co  Co22  1  0.000000  0.622860  0.297813  1
  Co  Co23  1  0.000000  0.377140  0.297813  1
  P  P24  1  0.500000  0.500000  0.881464  1
  P  P25  1  0.000000  0.000000  0.117002  1
  P  P26  1  0.500000  0.500000  0.361352  1
  P  P27  1  0.000000  0.000000  0.654398  1
  P  P28  1  0.500000  0.309948  0.617817  1
  P  P29  1  0.500000  0.690052  0.617817  1
  P  P30  1  0.000000  0.187969  0.386165  1
  P  P31  1  0.000000  0.812031  0.386165  1
  P  P32  1  0.500000  0.851968  0.888549  1
  P  P33  1  0.500000  0.148032  0.888549  1
  P  P34  1  0.000000  0.664881  0.100138  1
  P  P35  1  0.000000  0.335119  0.100138  1
