# generated using pymatgen
data_Tb4Al6ReRu
_symmetry_space_group_name_H-M   'P 1'
_cell_length_a   5.53686300
_cell_length_b   5.53686237
_cell_length_c   8.89703400
_cell_angle_alpha   90.00000000
_cell_angle_beta   90.00000000
_cell_angle_gamma   120.00000973
_symmetry_Int_Tables_number   1
_chemical_formula_structural   Tb4Al6ReRu
_chemical_formula_sum   'Tb4 Al6 Re1 Ru1'
_cell_volume   236.21275534
_cell_formula_units_Z   1
loop_
 _symmetry_equiv_pos_site_id
 _symmetry_equiv_pos_as_xyz
  1  'x, y, z'
loop_
 _atom_site_type_symbol
 _atom_site_label
 _atom_site_symmetry_multiplicity
 _atom_site_fract_x
 _atom_site_fract_y
 _atom_site_fract_z
 _atom_site_occupancy
  Tb  Tb0  1  0.666667  0.333333  0.052392  1
  Tb  Tb1  1  0.666667  0.333333  0.447986  1
  Tb  Tb2  1  0.333334  0.666667  0.552014  1
  Tb  Tb3  1  0.333334  0.666667  0.947608  1
  Al  Al4  1  0.161849  0.323699  0.250848  1
  Al  Al5  1  0.161849  0.838150  0.250848  1
  Al  Al6  1  0.676302  0.838150  0.250848  1
  Al  Al7  1  0.323699  0.161849  0.749152  1
  Al  Al8  1  0.838150  0.161849  0.749152  1
  Al  Al9  1  0.838151  0.676301  0.749152  1
  Re  Re10  1  0.000000  0.000000  0.000000  1
  Ru  Ru11  1  0.000000  0.000000  0.500000  1
