# generated using pymatgen
data_Re2OsRu3Rh2
_symmetry_space_group_name_H-M   'P 1'
_cell_length_a   5.49908995
_cell_length_b   5.50333056
_cell_length_c   4.36024400
_cell_angle_alpha   90.00000000
_cell_angle_beta   90.00000000
_cell_angle_gamma   120.11164408
_symmetry_Int_Tables_number   1
_chemical_formula_structural   Re2OsRu3Rh2
_chemical_formula_sum   'Re2 Os1 Ru3 Rh2'
_cell_volume   114.14796335
_cell_formula_units_Z   1
loop_
 _symmetry_equiv_pos_site_id
 _symmetry_equiv_pos_as_xyz
  1  'x, y, z'
loop_
 _atom_site_type_symbol
 _atom_site_label
 _atom_site_symmetry_multiplicity
 _atom_site_fract_x
 _atom_site_fract_y
 _atom_site_fract_z
 _atom_site_occupancy
  Re  Re0  1  0.332164  0.666786  0.750000  1
  Re  Re1  1  0.667516  0.333042  0.250000  1
  Os  Os2  1  0.166033  0.335499  0.250000  1
  Ru  Ru3  1  0.167098  0.831405  0.250000  1
  Ru  Ru4  1  0.336775  0.166014  0.750000  1
  Ru  Ru5  1  0.830587  0.167550  0.750000  1
  Rh  Rh6  1  0.666661  0.832955  0.250000  1
  Rh  Rh7  1  0.833164  0.666749  0.750000  1
