# generated using pymatgen
data_Pr2DyEr3(IrO7)2
_symmetry_space_group_name_H-M   'P 1'
_cell_length_a   6.45576765
_cell_length_b   6.46079708
_cell_length_c   7.49478100
_cell_angle_alpha   90.00000000
_cell_angle_beta   90.00000000
_cell_angle_gamma   109.59119288
_symmetry_Int_Tables_number   1
_chemical_formula_structural   Pr2DyEr3(IrO7)2
_chemical_formula_sum   'Pr2 Dy1 Er3 Ir2 O14'
_cell_volume   294.50596440
_cell_formula_units_Z   1
loop_
 _symmetry_equiv_pos_site_id
 _symmetry_equiv_pos_as_xyz
  1  'x, y, z'
loop_
 _atom_site_type_symbol
 _atom_site_label
 _atom_site_symmetry_multiplicity
 _atom_site_fract_x
 _atom_site_fract_y
 _atom_site_fract_z
 _atom_site_occupancy
  Pr  Pr0  1  0.998608  0.999121  0.999288  1
  Pr  Pr1  1  0.998608  0.999121  0.500712  1
  Dy  Dy2  1  0.062987  0.515762  0.250000  1
  Er  Er3  1  0.485683  0.938326  0.750000  1
  Er  Er4  1  0.514388  0.060605  0.250000  1
  Er  Er5  1  0.937321  0.485914  0.750000  1
  Ir  Ir6  1  0.499264  0.499062  0.999385  1
  Ir  Ir7  1  0.499264  0.499062  0.500615  1
  O  O8  1  0.595787  0.595012  0.750000  1
  O  O9  1  0.412938  0.409577  0.250000  1
  O  O10  1  0.837227  0.123971  0.750000  1
  O  O11  1  0.161615  0.879955  0.250000  1
  O  O12  1  0.123662  0.837560  0.750000  1
  O  O13  1  0.875528  0.160487  0.250000  1
  O  O14  1  0.440562  0.178988  0.965946  1
  O  O15  1  0.558093  0.820017  0.466395  1
  O  O16  1  0.179356  0.438595  0.964071  1
  O  O17  1  0.820549  0.560632  0.467455  1
  O  O18  1  0.440562  0.178988  0.534054  1
  O  O19  1  0.558093  0.820017  0.033605  1
  O  O20  1  0.820549  0.560632  0.032545  1
  O  O21  1  0.179356  0.438595  0.535929  1
