# generated using pymatgen
data_Sc8Ga12Ir3Au
_symmetry_space_group_name_H-M   'P 1'
_cell_length_a   6.68571200
_cell_length_b   8.63885125
_cell_length_c   8.63885100
_cell_angle_alpha   119.99999522
_cell_angle_beta   90.00000000
_cell_angle_gamma   90.00000000
_symmetry_Int_Tables_number   1
_chemical_formula_structural   Sc8Ga12Ir3Au
_chemical_formula_sum   'Sc8 Ga12 Ir3 Au1'
_cell_volume   432.10599990
_cell_formula_units_Z   1
loop_
 _symmetry_equiv_pos_site_id
 _symmetry_equiv_pos_as_xyz
  1  'x, y, z'
loop_
 _atom_site_type_symbol
 _atom_site_label
 _atom_site_symmetry_multiplicity
 _atom_site_fract_x
 _atom_site_fract_y
 _atom_site_fract_z
 _atom_site_occupancy
  Sc  Sc0  1  0.758079  0.000000  0.000000  1
  Sc  Sc1  1  0.250253  0.000000  0.000000  1
  Sc  Sc2  1  0.750178  0.470444  0.529556  1
  Sc  Sc3  1  0.241995  0.519390  0.480610  1
  Sc  Sc4  1  0.750178  0.059113  0.529556  1
  Sc  Sc5  1  0.241995  0.961219  0.480610  1
  Sc  Sc6  1  0.750178  0.470444  0.940887  1
  Sc  Sc7  1  0.241995  0.519390  0.038781  1
  Ga  Ga8  1  0.949691  0.831392  0.168608  1
  Ga  Ga9  1  0.046219  0.166305  0.833695  1
  Ga  Ga10  1  0.949691  0.337217  0.168608  1
  Ga  Ga11  1  0.451164  0.167279  0.832721  1
  Ga  Ga12  1  0.046219  0.667389  0.833695  1
  Ga  Ga13  1  0.548074  0.836867  0.163133  1
  Ga  Ga14  1  0.949691  0.831392  0.662783  1
  Ga  Ga15  1  0.451164  0.665443  0.832721  1
  Ga  Ga16  1  0.046219  0.166305  0.332611  1
  Ga  Ga17  1  0.548074  0.326265  0.163133  1
  Ga  Ga18  1  0.451164  0.167279  0.334557  1
  Ga  Ga19  1  0.548074  0.836867  0.673735  1
  Ir  Ir20  1  0.986896  0.666667  0.333333  1
  Ir  Ir21  1  0.029878  0.333333  0.666667  1
  Ir  Ir22  1  0.469448  0.333333  0.666667  1
  Au  Au23  1  0.543478  0.666667  0.333333  1
