# generated using pymatgen
data_Lu12Fe3BiPb
_symmetry_space_group_name_H-M   'P 1'
_cell_length_a   8.22841943
_cell_length_b   8.22830227
_cell_length_c   8.22841901
_cell_angle_alpha   108.32440037
_cell_angle_beta   108.11650698
_cell_angle_gamma   112.00346725
_symmetry_Int_Tables_number   1
_chemical_formula_structural   Lu12Fe3BiPb
_chemical_formula_sum   'Lu12 Fe3 Bi1 Pb1'
_cell_volume   428.22985270
_cell_formula_units_Z   1
loop_
 _symmetry_equiv_pos_site_id
 _symmetry_equiv_pos_as_xyz
  1  'x, y, z'
loop_
 _atom_site_type_symbol
 _atom_site_label
 _atom_site_symmetry_multiplicity
 _atom_site_fract_x
 _atom_site_fract_y
 _atom_site_fract_z
 _atom_site_occupancy
  Lu  Lu0  1  0.310004  0.306751  0.616759  1
  Lu  Lu1  1  0.689996  0.693249  0.383241  1
  Lu  Lu2  1  0.689992  0.306751  0.996747  1
  Lu  Lu3  1  0.310008  0.693249  0.003253  1
  Lu  Lu4  1  0.194241  0.425905  0.231664  1
  Lu  Lu5  1  0.805759  0.574095  0.768336  1
  Lu  Lu6  1  0.194244  0.962580  0.768336  1
  Lu  Lu7  1  0.959253  0.192035  0.767221  1
  Lu  Lu8  1  0.805756  0.037420  0.231664  1
  Lu  Lu9  1  0.040747  0.807965  0.232779  1
  Lu  Lu10  1  0.424815  0.192035  0.232781  1
  Lu  Lu11  1  0.575185  0.807965  0.767219  1
  Fe  Fe12  1  0.382524  0.382518  0.999994  1
  Fe  Fe13  1  0.617476  0.617482  0.000006  1
  Fe  Fe14  1  0.000000  0.000000  0.000000  1
  Bi  Bi15  1  0.000000  0.500000  0.500000  1
  Pb  Pb16  1  0.500000  0.000000  0.500000  1
