# generated using pymatgen
data_Ca2Fe3CoAs4
_symmetry_space_group_name_H-M   'P 1'
_cell_length_a   5.58979900
_cell_length_b   6.01354221
_cell_length_c   5.59163926
_cell_angle_alpha   62.43378800
_cell_angle_beta   89.99990775
_cell_angle_gamma   89.99993817
_symmetry_Int_Tables_number   1
_chemical_formula_structural   Ca2Fe3CoAs4
_chemical_formula_sum   'Ca2 Fe3 Co1 As4'
_cell_volume   166.62224987
_cell_formula_units_Z   1
loop_
 _symmetry_equiv_pos_site_id
 _symmetry_equiv_pos_as_xyz
  1  'x, y, z'
loop_
 _atom_site_type_symbol
 _atom_site_label
 _atom_site_symmetry_multiplicity
 _atom_site_fract_x
 _atom_site_fract_y
 _atom_site_fract_z
 _atom_site_occupancy
  Ca  Ca0  1  0.498496  0.000000  0.500000  1
  Ca  Ca1  1  0.001413  0.000000  0.999999  1
  Fe  Fe2  1  0.751224  0.500000  0.000000  1
  Fe  Fe3  1  0.749174  0.500001  0.500000  1
  Fe  Fe4  1  0.250987  0.499999  0.500001  1
  Co  Co5  1  0.248650  0.500001  0.000000  1
  As  As6  1  0.502197  0.726055  0.137846  1
  As  As7  1  0.997831  0.726540  0.634528  1
  As  As8  1  0.997831  0.273459  0.365472  1
  As  As9  1  0.502197  0.273945  0.862154  1
