# generated using pymatgen
data_Y4Al4Ga13SiIr6
_symmetry_space_group_name_H-M   'P 1'
_cell_length_a   7.55679787
_cell_length_b   7.56352268
_cell_length_c   9.49938975
_cell_angle_alpha   89.84874895
_cell_angle_beta   90.03876298
_cell_angle_gamma   119.78358591
_symmetry_Int_Tables_number   1
_chemical_formula_structural   Y4Al4Ga13SiIr6
_chemical_formula_sum   'Y4 Al4 Ga13 Si1 Ir6'
_cell_volume   471.22636743
_cell_formula_units_Z   1
loop_
 _symmetry_equiv_pos_site_id
 _symmetry_equiv_pos_as_xyz
  1  'x, y, z'
loop_
 _atom_site_type_symbol
 _atom_site_label
 _atom_site_symmetry_multiplicity
 _atom_site_fract_x
 _atom_site_fract_y
 _atom_site_fract_z
 _atom_site_occupancy
  Y  Y0  1  0.004177  0.673380  0.248425  1
  Y  Y1  1  0.999046  0.329541  0.750368  1
  Y  Y2  1  0.667465  0.000945  0.248273  1
  Y  Y3  1  0.329723  0.999165  0.749874  1
  Al  Al4  1  0.331489  0.331946  0.553717  1
  Al  Al5  1  0.668693  0.668558  0.446004  1
  Al  Al6  1  0.668586  0.668056  0.055639  1
  Al  Al7  1  0.332004  0.335724  0.944902  1
  Ga  Ga8  1  0.128384  0.127939  0.250867  1
  Ga  Ga9  1  0.874697  0.874287  0.750845  1
  Ga  Ga10  1  0.000304  0.335113  0.080873  1
  Ga  Ga11  1  0.994572  0.659176  0.918546  1
  Ga  Ga12  1  0.998720  0.664144  0.579842  1
  Ga  Ga13  1  0.335293  0.000190  0.420897  1
  Ga  Ga14  1  0.999831  0.334837  0.420259  1
  Ga  Ga15  1  0.665423  0.999266  0.579629  1
  Ga  Ga16  1  0.669199  0.998964  0.918428  1
  Ga  Ga17  1  0.348818  0.551767  0.250531  1
  Ga  Ga18  1  0.651208  0.448425  0.750519  1
  Ga  Ga19  1  0.549864  0.349072  0.251494  1
  Ga  Ga20  1  0.448063  0.651919  0.751329  1
  Si  Si21  1  0.334780  0.001319  0.071706  1
  Ir  Ir22  1  0.656800  0.317805  0.001913  1
  Ir  Ir23  1  0.331387  0.681151  0.002955  1
  Ir  Ir24  1  0.330247  0.669386  0.500359  1
  Ir  Ir25  1  0.669274  0.329898  0.500393  1
  Ir  Ir26  1  0.011791  0.998585  0.001491  1
  Ir  Ir27  1  0.000163  0.999441  0.499922  1
