# generated using pymatgen
data_CaY3(Si2Ir)2
_symmetry_space_group_name_H-M   'P 1'
_cell_length_a   5.76560975
_cell_length_b   5.76560912
_cell_length_c   10.06720610
_cell_angle_alpha   62.91322887
_cell_angle_beta   62.91322142
_cell_angle_gamma   43.09386758
_symmetry_Int_Tables_number   1
_chemical_formula_structural   CaY3(Si2Ir)2
_chemical_formula_sum   'Ca1 Y3 Si4 Ir2'
_cell_volume   199.36477807
_cell_formula_units_Z   1
loop_
 _symmetry_equiv_pos_site_id
 _symmetry_equiv_pos_as_xyz
  1  'x, y, z'
loop_
 _atom_site_type_symbol
 _atom_site_label
 _atom_site_symmetry_multiplicity
 _atom_site_fract_x
 _atom_site_fract_y
 _atom_site_fract_z
 _atom_site_occupancy
  Ca  Ca0  1  0.813009  0.813009  0.107663  1
  Y  Y1  1  0.005039  0.005039  0.320670  1
  Y  Y2  1  0.181251  0.181251  0.890677  1
  Y  Y3  1  0.993926  0.993926  0.678102  1
  Si  Si4  1  0.496364  0.496364  0.873311  1
  Si  Si5  1  0.360637  0.360637  0.565086  1
  Si  Si6  1  0.503925  0.503925  0.123164  1
  Si  Si7  1  0.644382  0.644382  0.437927  1
  Ir  Ir8  1  0.729512  0.729512  0.625876  1
  Ir  Ir9  1  0.271954  0.271954  0.377525  1
