# generated using pymatgen
data_Tb3HoScPt3O14
_symmetry_space_group_name_H-M   'P 1'
_cell_length_a   7.27779185
_cell_length_b   7.27779165
_cell_length_c   7.34381127
_cell_angle_alpha   60.29693285
_cell_angle_beta   60.29694211
_cell_angle_gamma   60.00000569
_symmetry_Int_Tables_number   1
_chemical_formula_structural   Tb3HoScPt3O14
_chemical_formula_sum   'Tb3 Ho1 Sc1 Pt3 O14'
_cell_volume   276.27428886
_cell_formula_units_Z   1
loop_
 _symmetry_equiv_pos_site_id
 _symmetry_equiv_pos_as_xyz
  1  'x, y, z'
loop_
 _atom_site_type_symbol
 _atom_site_label
 _atom_site_symmetry_multiplicity
 _atom_site_fract_x
 _atom_site_fract_y
 _atom_site_fract_z
 _atom_site_occupancy
  Tb  Tb0  1  0.625000  0.625000  0.625000  1
  Tb  Tb1  1  0.625000  0.125000  0.625000  1
  Tb  Tb2  1  0.125000  0.625000  0.625000  1
  Ho  Ho3  1  0.625000  0.625000  0.125000  1
  Sc  Sc4  1  0.125000  0.125000  0.625000  1
  Pt  Pt5  1  0.125000  0.125000  0.125000  1
  Pt  Pt6  1  0.625000  0.125000  0.125000  1
  Pt  Pt7  1  0.125000  0.625000  0.125000  1
  O  O8  1  0.031757  0.476478  0.460008  1
  O  O9  1  0.788663  0.788663  0.202540  1
  O  O10  1  0.788663  0.220134  0.202540  1
  O  O11  1  0.476478  0.031757  0.460008  1
  O  O12  1  0.029866  0.461337  0.047460  1
  O  O13  1  0.746442  0.746442  0.760673  1
  O  O14  1  0.031757  0.031757  0.460008  1
  O  O15  1  0.220134  0.788663  0.202540  1
  O  O16  1  0.218243  0.218243  0.789992  1
  O  O17  1  0.503558  0.503558  0.489327  1
  O  O18  1  0.773522  0.218243  0.789992  1
  O  O19  1  0.461337  0.029866  0.047460  1
  O  O20  1  0.461337  0.461337  0.047460  1
  O  O21  1  0.218243  0.773522  0.789992  1
