# generated using pymatgen
data_Th3Fe7(CoP3)2
_symmetry_space_group_name_H-M   'P 1'
_cell_length_a   3.81494100
_cell_length_b   10.71554000
_cell_length_c   12.31947500
_cell_angle_alpha   90.00000000
_cell_angle_beta   90.00000000
_cell_angle_gamma   90.00000000
_symmetry_Int_Tables_number   1
_chemical_formula_structural   Th3Fe7(CoP3)2
_chemical_formula_sum   'Th6 Fe14 Co4 P12'
_cell_volume   503.60970197
_cell_formula_units_Z   2
loop_
 _symmetry_equiv_pos_site_id
 _symmetry_equiv_pos_as_xyz
  1  'x, y, z'
loop_
 _atom_site_type_symbol
 _atom_site_label
 _atom_site_symmetry_multiplicity
 _atom_site_fract_x
 _atom_site_fract_y
 _atom_site_fract_z
 _atom_site_occupancy
  Th  Th0  1  0.000000  0.500000  0.522586  1
  Th  Th1  1  0.500000  0.000000  0.478095  1
  Th  Th2  1  0.500000  0.818465  0.205093  1
  Th  Th3  1  0.500000  0.181535  0.205093  1
  Th  Th4  1  0.000000  0.682750  0.794550  1
  Th  Th5  1  0.000000  0.317250  0.794550  1
  Fe  Fe6  1  0.500000  0.500000  0.152740  1
  Fe  Fe7  1  0.000000  0.000000  0.849757  1
  Fe  Fe8  1  0.000000  0.500000  0.988552  1
  Fe  Fe9  1  0.500000  0.000000  0.011562  1
  Fe  Fe10  1  0.500000  0.333152  0.997507  1
  Fe  Fe11  1  0.500000  0.666848  0.997507  1
  Fe  Fe12  1  0.000000  0.167241  0.003159  1
  Fe  Fe13  1  0.000000  0.832759  0.003159  1
  Fe  Fe14  1  0.500000  0.300971  0.426531  1
  Fe  Fe15  1  0.500000  0.699029  0.426531  1
  Fe  Fe16  1  0.000000  0.199127  0.571576  1
  Fe  Fe17  1  0.000000  0.800873  0.571576  1
  Fe  Fe18  1  0.500000  0.883083  0.714923  1
  Fe  Fe19  1  0.500000  0.116917  0.714923  1
  Co  Co20  1  0.500000  0.500000  0.703045  1
  Co  Co21  1  0.000000  0.000000  0.296467  1
  Co  Co22  1  0.000000  0.618588  0.284674  1
  Co  Co23  1  0.000000  0.381412  0.284674  1
  P  P24  1  0.500000  0.500000  0.890938  1
  P  P25  1  0.000000  0.000000  0.108491  1
  P  P26  1  0.500000  0.500000  0.337890  1
  P  P27  1  0.000000  0.000000  0.664821  1
  P  P28  1  0.500000  0.300084  0.611543  1
  P  P29  1  0.500000  0.699916  0.611543  1
  P  P30  1  0.000000  0.198440  0.389072  1
  P  P31  1  0.000000  0.801560  0.389072  1
  P  P32  1  0.500000  0.847551  0.898878  1
  P  P33  1  0.500000  0.152449  0.898878  1
  P  P34  1  0.000000  0.653498  0.100021  1
  P  P35  1  0.000000  0.346502  0.100021  1
