# generated using pymatgen
data_Tm10Ga3TcBi2
_symmetry_space_group_name_H-M   'P 1'
_cell_length_a   8.61061585
_cell_length_b   8.61061619
_cell_length_c   8.72266105
_cell_angle_alpha   125.65093507
_cell_angle_beta   125.65093852
_cell_angle_gamma   79.58015703
_symmetry_Int_Tables_number   1
_chemical_formula_structural   Tm10Ga3TcBi2
_chemical_formula_sum   'Tm10 Ga3 Tc1 Bi2'
_cell_volume   414.48310344
_cell_formula_units_Z   1
loop_
 _symmetry_equiv_pos_site_id
 _symmetry_equiv_pos_as_xyz
  1  'x, y, z'
loop_
 _atom_site_type_symbol
 _atom_site_label
 _atom_site_symmetry_multiplicity
 _atom_site_fract_x
 _atom_site_fract_y
 _atom_site_fract_z
 _atom_site_occupancy
  Tm  Tm0  1  0.009245  0.004264  0.013510  1
  Tm  Tm1  1  0.495736  0.490755  0.986490  1
  Tm  Tm2  1  0.784000  0.297006  0.798811  1
  Tm  Tm3  1  0.202994  0.716000  0.201189  1
  Tm  Tm4  1  0.485189  0.998195  0.201189  1
  Tm  Tm5  1  0.304264  0.463390  0.500000  1
  Tm  Tm6  1  0.036610  0.195736  0.500000  1
  Tm  Tm7  1  0.501805  0.014811  0.798811  1
  Tm  Tm8  1  0.705798  0.516476  0.500000  1
  Tm  Tm9  1  0.983524  0.794202  0.500000  1
  Ga  Ga10  1  0.139784  0.645728  0.785513  1
  Ga  Ga11  1  0.854272  0.360216  0.214487  1
  Ga  Ga12  1  0.635479  0.864521  0.500000  1
  Tc  Tc13  1  0.373146  0.126854  0.500000  1
  Bi  Bi14  1  0.244077  0.255923  0.000000  1
  Bi  Bi15  1  0.744077  0.755923  0.000000  1
