# generated using pymatgen
data_Cs2Hf3VSe8
_symmetry_space_group_name_H-M   'P 1'
_cell_length_a   6.54108800
_cell_length_b   7.62800887
_cell_length_c   17.81789796
_cell_angle_alpha   90.19186791
_cell_angle_beta   90.00000000
_cell_angle_gamma   90.00000000
_symmetry_Int_Tables_number   1
_chemical_formula_structural   Cs2Hf3VSe8
_chemical_formula_sum   'Cs4 Hf6 V2 Se16'
_cell_volume   889.02753878
_cell_formula_units_Z   2
loop_
 _symmetry_equiv_pos_site_id
 _symmetry_equiv_pos_as_xyz
  1  'x, y, z'
loop_
 _atom_site_type_symbol
 _atom_site_label
 _atom_site_symmetry_multiplicity
 _atom_site_fract_x
 _atom_site_fract_y
 _atom_site_fract_z
 _atom_site_occupancy
  Cs  Cs0  1  0.356298  0.000000  0.000000  1
  Cs  Cs1  1  0.643702  0.500000  0.500000  1
  Cs  Cs2  1  0.038318  0.000000  0.500000  1
  Cs  Cs3  1  0.961682  0.500000  0.000000  1
  Hf  Hf4  1  0.998226  0.990993  0.249880  1
  Hf  Hf5  1  0.998226  0.009007  0.750120  1
  Hf  Hf6  1  0.001774  0.509007  0.250120  1
  Hf  Hf7  1  0.001774  0.490993  0.749880  1
  Hf  Hf8  1  0.500000  0.250000  0.250000  1
  Hf  Hf9  1  0.500000  0.750000  0.750000  1
  V  V10  1  0.500000  0.750000  0.250000  1
  V  V11  1  0.500000  0.250000  0.750000  1
  Se  Se12  1  0.835729  0.250415  0.337433  1
  Se  Se13  1  0.835729  0.749585  0.662567  1
  Se  Se14  1  0.171196  0.749776  0.161807  1
  Se  Se15  1  0.171196  0.250224  0.838193  1
  Se  Se16  1  0.164271  0.249585  0.162567  1
  Se  Se17  1  0.164271  0.750415  0.837433  1
  Se  Se18  1  0.828804  0.750224  0.338193  1
  Se  Se19  1  0.828804  0.249776  0.661807  1
  Se  Se20  1  0.666360  0.997111  0.163758  1
  Se  Se21  1  0.666360  0.002889  0.836242  1
  Se  Se22  1  0.333640  0.502889  0.336242  1
  Se  Se23  1  0.333640  0.497111  0.663758  1
  Se  Se24  1  0.337072  0.997546  0.335221  1
  Se  Se25  1  0.337072  0.002454  0.664779  1
  Se  Se26  1  0.662928  0.502454  0.164779  1
  Se  Se27  1  0.662928  0.497546  0.835221  1
