# generated using pymatgen
data_Ti10ZnCu(Sn2Bi)2
_symmetry_space_group_name_H-M   'P 1'
_cell_length_a   8.26470606
_cell_length_b   8.26470626
_cell_length_c   5.59450204
_cell_angle_alpha   89.96478311
_cell_angle_beta   89.96477359
_cell_angle_gamma   119.59087193
_symmetry_Int_Tables_number   1
_chemical_formula_structural   Ti10ZnCu(Sn2Bi)2
_chemical_formula_sum   'Ti10 Zn1 Cu1 Sn4 Bi2'
_cell_volume   332.29384683
_cell_formula_units_Z   1
loop_
 _symmetry_equiv_pos_site_id
 _symmetry_equiv_pos_as_xyz
  1  'x, y, z'
loop_
 _atom_site_type_symbol
 _atom_site_label
 _atom_site_symmetry_multiplicity
 _atom_site_fract_x
 _atom_site_fract_y
 _atom_site_fract_z
 _atom_site_occupancy
  Ti  Ti0  1  0.263810  0.990456  0.753096  1
  Ti  Ti1  1  0.736190  0.009544  0.246904  1
  Ti  Ti2  1  0.990456  0.263810  0.753096  1
  Ti  Ti3  1  0.009544  0.736190  0.246904  1
  Ti  Ti4  1  0.734441  0.734441  0.752394  1
  Ti  Ti5  1  0.265559  0.265559  0.247606  1
  Ti  Ti6  1  0.329847  0.670153  0.500000  1
  Ti  Ti7  1  0.670153  0.329847  0.500000  1
  Ti  Ti8  1  0.670474  0.329526  0.000000  1
  Ti  Ti9  1  0.329526  0.670474  0.000000  1
  Zn  Zn10  1  0.000000  0.000000  0.500000  1
  Cu  Cu11  1  0.000000  0.000000  0.000000  1
  Sn  Sn12  1  0.612705  0.996860  0.749032  1
  Sn  Sn13  1  0.387295  0.003140  0.250968  1
  Sn  Sn14  1  0.996860  0.612705  0.749032  1
  Sn  Sn15  1  0.003140  0.387295  0.250968  1
  Bi  Bi16  1  0.379560  0.379560  0.749211  1
  Bi  Bi17  1  0.620440  0.620440  0.250789  1
