# generated using pymatgen
data_Ho3ThIrAu
_symmetry_space_group_name_H-M   'P 1'
_cell_length_a   9.58190512
_cell_length_b   9.58190560
_cell_length_c   9.58190500
_cell_angle_alpha   59.99999862
_cell_angle_beta   59.99999697
_cell_angle_gamma   59.99999764
_symmetry_Int_Tables_number   1
_chemical_formula_structural   Ho3ThIrAu
_chemical_formula_sum   'Ho12 Th4 Ir4 Au4'
_cell_volume   622.07191562
_cell_formula_units_Z   4
loop_
 _symmetry_equiv_pos_site_id
 _symmetry_equiv_pos_as_xyz
  1  'x, y, z'
loop_
 _atom_site_type_symbol
 _atom_site_label
 _atom_site_symmetry_multiplicity
 _atom_site_fract_x
 _atom_site_fract_y
 _atom_site_fract_z
 _atom_site_occupancy
  Ho  Ho0  1  0.061707  0.438293  0.438293  1
  Ho  Ho1  1  0.438293  0.061707  0.061707  1
  Ho  Ho2  1  0.438293  0.061707  0.438293  1
  Ho  Ho3  1  0.061707  0.438293  0.061707  1
  Ho  Ho4  1  0.438293  0.438293  0.061707  1
  Ho  Ho5  1  0.061707  0.061707  0.438293  1
  Ho  Ho6  1  0.184100  0.815900  0.815900  1
  Ho  Ho7  1  0.815900  0.184100  0.184100  1
  Ho  Ho8  1  0.815900  0.184100  0.815900  1
  Ho  Ho9  1  0.184100  0.815900  0.184100  1
  Ho  Ho10  1  0.815900  0.815900  0.184100  1
  Ho  Ho11  1  0.184100  0.184100  0.815900  1
  Th  Th12  1  0.605233  0.605233  0.605233  1
  Th  Th13  1  0.605233  0.605233  0.184302  1
  Th  Th14  1  0.605233  0.184302  0.605233  1
  Th  Th15  1  0.184302  0.605233  0.605233  1
  Ir  Ir16  1  0.393414  0.393414  0.393414  1
  Ir  Ir17  1  0.393414  0.393414  0.819759  1
  Ir  Ir18  1  0.393414  0.819759  0.393414  1
  Ir  Ir19  1  0.819759  0.393414  0.393414  1
  Au  Au20  1  0.841652  0.841652  0.841652  1
  Au  Au21  1  0.841652  0.841652  0.475044  1
  Au  Au22  1  0.841652  0.475044  0.841652  1
  Au  Au23  1  0.475044  0.841652  0.841652  1
