# generated using pymatgen
data_Be7V4P
_symmetry_space_group_name_H-M   'P 1'
_cell_length_a   4.35331100
_cell_length_b   4.39340675
_cell_length_c   7.07770800
_cell_angle_alpha   90.00000000
_cell_angle_beta   90.00000000
_cell_angle_gamma   119.69856687
_symmetry_Int_Tables_number   1
_chemical_formula_structural   Be7V4P
_chemical_formula_sum   'Be7 V4 P1'
_cell_volume   117.58597528
_cell_formula_units_Z   1
loop_
 _symmetry_equiv_pos_site_id
 _symmetry_equiv_pos_as_xyz
  1  'x, y, z'
loop_
 _atom_site_type_symbol
 _atom_site_label
 _atom_site_symmetry_multiplicity
 _atom_site_fract_x
 _atom_site_fract_y
 _atom_site_fract_z
 _atom_site_occupancy
  Be  Be0  1  0.004627  0.009254  0.992753  1
  Be  Be1  1  0.004627  0.009254  0.507247  1
  Be  Be2  1  0.171214  0.829837  0.750000  1
  Be  Be3  1  0.658623  0.829837  0.750000  1
  Be  Be4  1  0.334090  0.161705  0.250000  1
  Be  Be5  1  0.827616  0.161705  0.250000  1
  Be  Be6  1  0.172895  0.345790  0.750000  1
  V  V7  1  0.331392  0.662784  0.067416  1
  V  V8  1  0.668946  0.337892  0.565571  1
  V  V9  1  0.668946  0.337892  0.934429  1
  V  V10  1  0.331392  0.662784  0.432584  1
  P  P11  1  0.825632  0.651265  0.250000  1
