# generated using pymatgen
data_Sr8La7Yb5Pt16
_symmetry_space_group_name_H-M   'P 1'
_cell_length_a   7.88967561
_cell_length_b   8.01307636
_cell_length_c   15.19410400
_cell_angle_alpha   90.01834048
_cell_angle_beta   89.97739302
_cell_angle_gamma   90.04919405
_symmetry_Int_Tables_number   1
_chemical_formula_structural   Sr8La7Yb5Pt16
_chemical_formula_sum   'Sr8 La7 Yb5 Pt16'
_cell_volume   960.57948585
_cell_formula_units_Z   1
loop_
 _symmetry_equiv_pos_site_id
 _symmetry_equiv_pos_as_xyz
  1  'x, y, z'
loop_
 _atom_site_type_symbol
 _atom_site_label
 _atom_site_symmetry_multiplicity
 _atom_site_fract_x
 _atom_site_fract_y
 _atom_site_fract_z
 _atom_site_occupancy
  Sr  Sr0  1  0.500112  0.325346  0.900808  1
  Sr  Sr1  1  0.995840  0.178147  0.600046  1
  Sr  Sr2  1  0.503137  0.678795  0.401040  1
  Sr  Sr3  1  0.001315  0.819438  0.095603  1
  Sr  Sr4  1  0.504172  0.678618  0.097579  1
  Sr  Sr5  1  0.003073  0.821070  0.401257  1
  Sr  Sr6  1  0.497055  0.321260  0.600302  1
  Sr  Sr7  1  0.995677  0.180507  0.900954  1
  La  La8  1  0.338837  0.834775  0.877858  1
  La  La9  1  0.838943  0.664034  0.623870  1
  La  La10  1  0.661130  0.164986  0.377843  1
  La  La11  1  0.161659  0.334983  0.121682  1
  La  La12  1  0.662147  0.164915  0.121290  1
  La  La13  1  0.161094  0.334996  0.378113  1
  La  La14  1  0.338404  0.834103  0.622549  1
  Yb  Yb15  1  0.839854  0.665213  0.877214  1
  Yb  Yb16  1  0.174431  0.489131  0.752135  1
  Yb  Yb17  1  0.681001  0.009547  0.752206  1
  Yb  Yb18  1  0.821429  0.513714  0.249347  1
  Yb  Yb19  1  0.320694  0.986221  0.249352  1
  Pt  Pt20  1  0.330249  0.040414  0.044196  1
  Pt  Pt21  1  0.831851  0.459057  0.455483  1
  Pt  Pt22  1  0.667619  0.957628  0.544412  1
  Pt  Pt23  1  0.167213  0.540942  0.956006  1
  Pt  Pt24  1  0.665793  0.961572  0.955042  1
  Pt  Pt25  1  0.167273  0.540907  0.544063  1
  Pt  Pt26  1  0.332357  0.040924  0.455497  1
  Pt  Pt27  1  0.836456  0.458647  0.044404  1
  Pt  Pt28  1  0.542056  0.631954  0.750654  1
  Pt  Pt29  1  0.042996  0.867880  0.748566  1
  Pt  Pt30  1  0.459301  0.369312  0.249893  1
  Pt  Pt31  1  0.959258  0.129762  0.250608  1
  Pt  Pt32  1  0.305667  0.122991  0.751116  1
  Pt  Pt33  1  0.801859  0.378338  0.749573  1
  Pt  Pt34  1  0.695198  0.877464  0.249656  1
  Pt  Pt35  1  0.194852  0.622411  0.249782  1
