# generated using pymatgen
data_Y7Er3TlPb5
_symmetry_space_group_name_H-M   'P 1'
_cell_length_a   9.04440406
_cell_length_b   9.04476172
_cell_length_c   6.66108100
_cell_angle_alpha   90.00147598
_cell_angle_beta   89.99353836
_cell_angle_gamma   120.03830801
_symmetry_Int_Tables_number   1
_chemical_formula_structural   Y7Er3TlPb5
_chemical_formula_sum   'Y7 Er3 Tl1 Pb5'
_cell_volume   471.72039697
_cell_formula_units_Z   1
loop_
 _symmetry_equiv_pos_site_id
 _symmetry_equiv_pos_as_xyz
  1  'x, y, z'
loop_
 _atom_site_type_symbol
 _atom_site_label
 _atom_site_symmetry_multiplicity
 _atom_site_fract_x
 _atom_site_fract_y
 _atom_site_fract_z
 _atom_site_occupancy
  Y  Y0  1  0.663887  0.333492  0.998000  1
  Y  Y1  1  0.760295  0.760410  0.749986  1
  Y  Y2  1  0.239227  0.004446  0.749938  1
  Y  Y3  1  0.004640  0.239377  0.750033  1
  Y  Y4  1  0.237991  0.238105  0.250035  1
  Y  Y5  1  0.762155  0.999673  0.250035  1
  Y  Y6  1  0.999774  0.762219  0.250089  1
  Er  Er7  1  0.333846  0.663577  0.998258  1
  Er  Er8  1  0.333755  0.663702  0.501729  1
  Er  Er9  1  0.663565  0.333786  0.501748  1
  Tl  Tl10  1  0.396818  0.397592  0.749031  1
  Pb  Pb11  1  0.605131  0.000028  0.748954  1
  Pb  Pb12  1  0.001380  0.605925  0.748982  1
  Pb  Pb13  1  0.603933  0.604764  0.251225  1
  Pb  Pb14  1  0.394785  0.997293  0.250970  1
  Pb  Pb15  1  0.998814  0.395608  0.250985  1
