# generated using pymatgen
data_K4H2N
_symmetry_space_group_name_H-M   'P 1'
_cell_length_a   4.90737350
_cell_length_b   6.56837720
_cell_length_c   9.15080879
_cell_angle_alpha   89.23147719
_cell_angle_beta   77.62298362
_cell_angle_gamma   91.11434150
_symmetry_Int_Tables_number   1
_chemical_formula_structural   K4H2N
_chemical_formula_sum   'K4 H2 N1'
_cell_volume   288.00582467
_cell_formula_units_Z   1
loop_
 _symmetry_equiv_pos_site_id
 _symmetry_equiv_pos_as_xyz
  1  'x, y, z'
loop_
 _atom_site_type_symbol
 _atom_site_label
 _atom_site_symmetry_multiplicity
 _atom_site_fract_x
 _atom_site_fract_y
 _atom_site_fract_z
 _atom_site_occupancy
  K  K0  1  0.734371  0.006613  0.837467  1
  K  K1  1  0.262905  0.444240  0.077738  1
  K  K2  1  0.707759  0.925842  0.335826  1
  K  K3  1  0.308436  0.420107  0.637903  1
  H  H4  1  0.790662  0.502576  0.906199  1
  H  H5  1  0.762224  0.546744  0.738609  1
  N  N6  1  0.726006  0.430832  0.818844  1
