# generated using pymatgen
data_Pr3EuHo3FeI12
_symmetry_space_group_name_H-M   'P 1'
_cell_length_a   9.97433940
_cell_length_b   9.79192491
_cell_length_c   9.99618429
_cell_angle_alpha   106.43807721
_cell_angle_beta   106.43157262
_cell_angle_gamma   107.07484827
_symmetry_Int_Tables_number   1
_chemical_formula_structural   Pr3EuHo3FeI12
_chemical_formula_sum   'Pr3 Eu1 Ho3 Fe1 I12'
_cell_volume   820.72995486
_cell_formula_units_Z   1
loop_
 _symmetry_equiv_pos_site_id
 _symmetry_equiv_pos_as_xyz
  1  'x, y, z'
loop_
 _atom_site_type_symbol
 _atom_site_label
 _atom_site_symmetry_multiplicity
 _atom_site_fract_x
 _atom_site_fract_y
 _atom_site_fract_z
 _atom_site_occupancy
  Pr  Pr0  1  0.476760  0.400725  0.192659  1
  Pr  Pr1  1  0.589271  0.775769  0.523217  1
  Pr  Pr2  1  0.410996  0.225065  0.477533  1
  Eu  Eu3  1  0.999298  0.999809  0.000449  1
  Ho  Ho4  1  0.797881  0.524887  0.598268  1
  Ho  Ho5  1  0.523603  0.596273  0.795002  1
  Ho  Ho6  1  0.202441  0.476459  0.406106  1
  Fe  Fe7  1  0.500537  0.500309  0.500294  1
  I  I8  1  0.731344  0.191493  0.576952  1
  I  I9  1  0.957394  0.871543  0.647729  1
  I  I10  1  0.576552  0.731482  0.178575  1
  I  I11  1  0.121850  0.361759  0.052797  1
  I  I12  1  0.643446  0.950970  0.877896  1
  I  I13  1  0.867551  0.637187  0.946995  1
  I  I14  1  0.043043  0.128241  0.353474  1
  I  I15  1  0.828471  0.430871  0.288337  1
  I  I16  1  0.350150  0.036450  0.121814  1
  I  I17  1  0.269020  0.808827  0.424013  1
  I  I18  1  0.184346  0.572377  0.720682  1
  I  I19  1  0.426046  0.279505  0.817208  1
