# generated using pymatgen
data_Eu2Cu17Si8Pt
_symmetry_space_group_name_H-M   'P 1'
_cell_length_a   8.17821273
_cell_length_b   8.17821316
_cell_length_c   8.17127180
_cell_angle_alpha   120.27133169
_cell_angle_beta   120.32642953
_cell_angle_gamma   89.53217743
_symmetry_Int_Tables_number   1
_chemical_formula_structural   Eu2Cu17Si8Pt
_chemical_formula_sum   'Eu2 Cu17 Si8 Pt1'
_cell_volume   384.52190992
_cell_formula_units_Z   1
loop_
 _symmetry_equiv_pos_site_id
 _symmetry_equiv_pos_as_xyz
  1  'x, y, z'
loop_
 _atom_site_type_symbol
 _atom_site_label
 _atom_site_symmetry_multiplicity
 _atom_site_fract_x
 _atom_site_fract_y
 _atom_site_fract_z
 _atom_site_occupancy
  Eu  Eu0  1  0.246740  0.249311  0.998646  1
  Eu  Eu1  1  0.749335  0.751906  0.998646  1
  Cu  Cu2  1  0.212879  0.056874  0.269752  1
  Cu  Cu3  1  0.792554  0.921278  0.713832  1
  Cu  Cu4  1  0.435377  0.296493  0.731870  1
  Cu  Cu5  1  0.065716  0.797462  0.863177  1
  Cu  Cu6  1  0.807446  0.059615  0.499044  1
  Cu  Cu7  1  0.559990  0.308932  0.504157  1
  Cu  Cu8  1  0.195224  0.944167  0.504157  1
  Cu  Cu9  1  0.439430  0.691599  0.499044  1
  Cu  Cu10  1  0.942057  0.441342  0.750951  1
  Cu  Cu11  1  0.684830  0.195999  0.253319  1
  Cu  Cu12  1  0.057319  0.568488  0.253319  1
  Cu  Cu13  1  0.700712  0.439468  0.140179  1
  Cu  Cu14  1  0.563063  0.703020  0.266082  1
  Cu  Cu15  1  0.502993  0.000488  0.503481  1
  Cu  Cu16  1  0.999151  0.507539  0.506690  1
  Cu  Cu17  1  0.309611  0.808897  0.750951  1
  Cu  Cu18  1  0.297221  0.563171  0.860393  1
  Si  Si19  1  0.793430  0.292997  0.852286  1
  Si  Si20  1  0.559289  0.058856  0.852286  1
  Si  Si21  1  0.058671  0.206314  0.498994  1
  Si  Si22  1  0.292680  0.440322  0.498994  1
  Si  Si23  1  0.942195  0.795098  0.498487  1
  Si  Si24  1  0.442375  0.939001  0.148123  1
  Si  Si25  1  0.209122  0.705747  0.148123  1
  Si  Si26  1  0.703389  0.556292  0.498487  1
  Pt  Pt27  1  0.937203  0.199328  0.136531  1
