# generated using pymatgen
data_Ho3Pt3Au7
_symmetry_space_group_name_H-M   'P 1'
_cell_length_a   10.83316700
_cell_length_b   10.83316554
_cell_length_c   4.93542700
_cell_angle_alpha   90.00000000
_cell_angle_beta   90.00000000
_cell_angle_gamma   119.99999531
_symmetry_Int_Tables_number   1
_chemical_formula_structural   Ho3Pt3Au7
_chemical_formula_sum   'Ho6 Pt6 Au14'
_cell_volume   501.61001898
_cell_formula_units_Z   2
loop_
 _symmetry_equiv_pos_site_id
 _symmetry_equiv_pos_as_xyz
  1  'x, y, z'
loop_
 _atom_site_type_symbol
 _atom_site_label
 _atom_site_symmetry_multiplicity
 _atom_site_fract_x
 _atom_site_fract_y
 _atom_site_fract_z
 _atom_site_occupancy
  Ho  Ho0  1  0.656125  0.756055  0.250000  1
  Ho  Ho1  1  0.243945  0.900071  0.250000  1
  Ho  Ho2  1  0.099929  0.343875  0.250000  1
  Ho  Ho3  1  0.343875  0.243945  0.750000  1
  Ho  Ho4  1  0.756055  0.099929  0.750000  1
  Ho  Ho5  1  0.900071  0.656125  0.750000  1
  Pt  Pt6  1  0.880516  0.050036  0.250000  1
  Pt  Pt7  1  0.949964  0.830480  0.250000  1
  Pt  Pt8  1  0.169520  0.119484  0.250000  1
  Pt  Pt9  1  0.119484  0.949964  0.750000  1
  Pt  Pt10  1  0.050036  0.169520  0.750000  1
  Pt  Pt11  1  0.830480  0.880516  0.750000  1
  Au  Au12  1  0.566316  0.979623  0.250000  1
  Au  Au13  1  0.020377  0.586692  0.250000  1
  Au  Au14  1  0.413308  0.433684  0.250000  1
  Au  Au15  1  0.433684  0.020377  0.750000  1
  Au  Au16  1  0.979623  0.413308  0.750000  1
  Au  Au17  1  0.586692  0.566316  0.750000  1
  Au  Au18  1  0.793956  0.280800  0.250000  1
  Au  Au19  1  0.719200  0.513156  0.250000  1
  Au  Au20  1  0.486844  0.206044  0.250000  1
  Au  Au21  1  0.206044  0.719200  0.750000  1
  Au  Au22  1  0.280800  0.486844  0.750000  1
  Au  Au23  1  0.513156  0.793956  0.750000  1
  Au  Au24  1  0.666667  0.333333  0.750000  1
  Au  Au25  1  0.333333  0.666667  0.250000  1
