# generated using pymatgen
data_Ca2Pr17ErGa12
_symmetry_space_group_name_H-M   'P 1'
_cell_length_a   7.92271300
_cell_length_b   7.92271300
_cell_length_c   14.65330700
_cell_angle_alpha   90.00000000
_cell_angle_beta   90.00000000
_cell_angle_gamma   90.00000000
_symmetry_Int_Tables_number   1
_chemical_formula_structural   Ca2Pr17ErGa12
_chemical_formula_sum   'Ca2 Pr17 Er1 Ga12'
_cell_volume   919.77901410
_cell_formula_units_Z   1
loop_
 _symmetry_equiv_pos_site_id
 _symmetry_equiv_pos_as_xyz
  1  'x, y, z'
loop_
 _atom_site_type_symbol
 _atom_site_label
 _atom_site_symmetry_multiplicity
 _atom_site_fract_x
 _atom_site_fract_y
 _atom_site_fract_z
 _atom_site_occupancy
  Ca  Ca0  1  0.000000  0.500000  0.242779  1
  Ca  Ca1  1  0.500000  0.000000  0.254868  1
  Pr  Pr2  1  0.817054  0.837357  0.604129  1
  Pr  Pr3  1  0.176445  0.832309  0.101058  1
  Pr  Pr4  1  0.167621  0.822808  0.398121  1
  Pr  Pr5  1  0.832379  0.177192  0.398121  1
  Pr  Pr6  1  0.677192  0.667621  0.398121  1
  Pr  Pr7  1  0.662643  0.317054  0.604129  1
  Pr  Pr8  1  0.337357  0.682946  0.604129  1
  Pr  Pr9  1  0.667691  0.676445  0.101058  1
  Pr  Pr10  1  0.682555  0.340395  0.895713  1
  Pr  Pr11  1  0.840395  0.817445  0.895713  1
  Pr  Pr12  1  0.322808  0.332379  0.398121  1
  Pr  Pr13  1  0.182946  0.162643  0.604129  1
  Pr  Pr14  1  0.823555  0.167691  0.101058  1
  Pr  Pr15  1  0.317445  0.659605  0.895713  1
  Pr  Pr16  1  0.332309  0.323555  0.101058  1
  Pr  Pr17  1  0.159605  0.182555  0.895713  1
  Pr  Pr18  1  0.500000  0.000000  0.786823  1
  Er  Er19  1  0.000000  0.500000  0.722740  1
  Ga  Ga20  1  0.617871  0.382608  0.249682  1
  Ga  Ga21  1  0.117412  0.876098  0.748773  1
  Ga  Ga22  1  0.376098  0.382588  0.748773  1
  Ga  Ga23  1  0.382129  0.617392  0.249682  1
  Ga  Ga24  1  0.882608  0.882129  0.249682  1
  Ga  Ga25  1  0.623902  0.617412  0.748773  1
  Ga  Ga26  1  0.000000  0.500000  0.508013  1
  Ga  Ga27  1  0.882588  0.123902  0.748773  1
  Ga  Ga28  1  0.500000  0.000000  0.490359  1
  Ga  Ga29  1  0.500000  0.000000  0.999654  1
  Ga  Ga30  1  0.117392  0.117871  0.249682  1
  Ga  Ga31  1  0.000000  0.500000  0.004860  1
