# generated using pymatgen
data_FeIr8(RhO8)3
_symmetry_space_group_name_H-M   'P 1'
_cell_length_a   4.56447879
_cell_length_b   10.54438433
_cell_length_c   9.13932000
_cell_angle_alpha   64.31814416
_cell_angle_beta   89.90874303
_cell_angle_gamma   89.96045164
_symmetry_Int_Tables_number   1
_chemical_formula_structural   FeIr8(RhO8)3
_chemical_formula_sum   'Fe1 Ir8 Rh3 O24'
_cell_volume   396.41842359
_cell_formula_units_Z   1
loop_
 _symmetry_equiv_pos_site_id
 _symmetry_equiv_pos_as_xyz
  1  'x, y, z'
loop_
 _atom_site_type_symbol
 _atom_site_label
 _atom_site_symmetry_multiplicity
 _atom_site_fract_x
 _atom_site_fract_y
 _atom_site_fract_z
 _atom_site_occupancy
  Fe  Fe0  1  0.000000  0.000000  0.000000  1
  Ir  Ir1  1  0.000000  0.668469  0.165766  1
  Ir  Ir2  1  0.000000  0.666092  0.666955  1
  Ir  Ir3  1  0.499690  0.166834  0.167311  1
  Ir  Ir4  1  0.500310  0.166834  0.665855  1
  Ir  Ir5  1  0.500310  0.833166  0.832689  1
  Ir  Ir6  1  0.499690  0.833166  0.334145  1
  Ir  Ir7  1  0.000000  0.333908  0.333045  1
  Ir  Ir8  1  0.000000  0.331531  0.834234  1
  Rh  Rh9  1  0.500000  0.500000  0.000000  1
  Rh  Rh10  1  0.000000  0.000000  0.500000  1
  Rh  Rh11  1  0.500000  0.500000  0.500000  1
  O  O12  1  0.689173  0.000000  0.155790  1
  O  O13  1  0.688919  0.000000  0.654989  1
  O  O14  1  0.810977  0.500579  0.155348  1
  O  O15  1  0.810977  0.499421  0.655927  1
  O  O16  1  0.189023  0.499421  0.844652  1
  O  O17  1  0.189023  0.500579  0.344073  1
  O  O18  1  0.311081  0.000000  0.345011  1
  O  O19  1  0.310827  0.000000  0.844210  1
  O  O20  1  0.694066  0.666952  0.818843  1
  O  O21  1  0.695223  0.668560  0.318734  1
  O  O22  1  0.304777  0.668560  0.012708  1
  O  O23  1  0.305934  0.666952  0.514207  1
  O  O24  1  0.305934  0.333048  0.181157  1
  O  O25  1  0.304777  0.331440  0.681266  1
  O  O26  1  0.193809  0.832194  0.680729  1
  O  O27  1  0.195443  0.833092  0.181437  1
  O  O28  1  0.804557  0.833092  0.985470  1
  O  O29  1  0.806191  0.832194  0.487076  1
  O  O30  1  0.806191  0.167806  0.319271  1
  O  O31  1  0.804557  0.166908  0.818563  1
  O  O32  1  0.195443  0.166908  0.014530  1
  O  O33  1  0.193809  0.167806  0.512924  1
  O  O34  1  0.695223  0.331440  0.987292  1
  O  O35  1  0.694066  0.333048  0.485793  1
