# generated using pymatgen
data_Ho10Lu2InCo4Os
_symmetry_space_group_name_H-M   'P 1'
_cell_length_a   8.22276852
_cell_length_b   8.23864320
_cell_length_c   8.22276966
_cell_angle_alpha   111.48433181
_cell_angle_beta   110.50987478
_cell_angle_gamma   106.38752889
_symmetry_Int_Tables_number   1
_chemical_formula_structural   Ho10Lu2InCo4Os
_chemical_formula_sum   'Ho10 Lu2 In1 Co4 Os1'
_cell_volume   428.27421976
_cell_formula_units_Z   1
loop_
 _symmetry_equiv_pos_site_id
 _symmetry_equiv_pos_as_xyz
  1  'x, y, z'
loop_
 _atom_site_type_symbol
 _atom_site_label
 _atom_site_symmetry_multiplicity
 _atom_site_fract_x
 _atom_site_fract_y
 _atom_site_fract_z
 _atom_site_occupancy
  Ho  Ho0  1  0.417323  0.221664  0.192996  1
  Ho  Ho1  1  0.582677  0.778336  0.807004  1
  Ho  Ho2  1  0.028668  0.221664  0.804341  1
  Ho  Ho3  1  0.971332  0.778336  0.195659  1
  Ho  Ho4  1  0.180264  0.277536  0.460686  1
  Ho  Ho5  1  0.819736  0.722464  0.539314  1
  Ho  Ho6  1  0.183149  0.722464  0.902729  1
  Ho  Ho7  1  0.816851  0.277536  0.097271  1
  Ho  Ho8  1  0.315178  0.621245  0.306066  1
  Ho  Ho9  1  0.684822  0.378755  0.693934  1
  Lu  Lu10  1  0.315480  0.007752  0.692272  1
  Lu  Lu11  1  0.684520  0.992248  0.307728  1
  In  In12  1  0.500000  0.500000  0.000000  1
  Co  Co13  1  0.375927  0.000000  0.375927  1
  Co  Co14  1  0.624073  0.000000  0.624073  1
  Co  Co15  1  0.111935  0.612641  0.500706  1
  Co  Co16  1  0.888065  0.387359  0.499294  1
  Os  Os17  1  0.000000  0.000000  0.000000  1
