# generated using pymatgen
data_Tb2Pr6Sc12Si15Hg
_symmetry_space_group_name_H-M   'P 1'
_cell_length_a   7.26287170
_cell_length_b   7.51427527
_cell_length_c   14.32428475
_cell_angle_alpha   89.95683071
_cell_angle_beta   89.71489710
_cell_angle_gamma   90.19064516
_symmetry_Int_Tables_number   1
_chemical_formula_structural   Tb2Pr6Sc12Si15Hg
_chemical_formula_sum   'Tb2 Pr6 Sc12 Si15 Hg1'
_cell_volume   781.73671307
_cell_formula_units_Z   1
loop_
 _symmetry_equiv_pos_site_id
 _symmetry_equiv_pos_as_xyz
  1  'x, y, z'
loop_
 _atom_site_type_symbol
 _atom_site_label
 _atom_site_symmetry_multiplicity
 _atom_site_fract_x
 _atom_site_fract_y
 _atom_site_fract_z
 _atom_site_occupancy
  Tb  Tb0  1  0.008001  0.171990  0.395577  1
  Tb  Tb1  1  0.512751  0.323179  0.396560  1
  Pr  Pr2  1  0.488507  0.672346  0.903308  1
  Pr  Pr3  1  0.494389  0.678709  0.598962  1
  Pr  Pr4  1  0.987886  0.834683  0.596374  1
  Pr  Pr5  1  0.987561  0.828556  0.903661  1
  Pr  Pr6  1  0.511684  0.327672  0.097996  1
  Pr  Pr7  1  0.012448  0.172551  0.098743  1
  Sc  Sc8  1  0.342705  0.169116  0.628238  1
  Sc  Sc9  1  0.665666  0.824500  0.373317  1
  Sc  Sc10  1  0.663877  0.001446  0.752231  1
  Sc  Sc11  1  0.168112  0.677389  0.371627  1
  Sc  Sc12  1  0.830021  0.323196  0.876702  1
  Sc  Sc13  1  0.823247  0.324339  0.624805  1
  Sc  Sc14  1  0.838321  0.500856  0.251175  1
  Sc  Sc15  1  0.339229  0.998303  0.250005  1
  Sc  Sc16  1  0.328404  0.174350  0.876428  1
  Sc  Sc17  1  0.169665  0.676001  0.126219  1
  Sc  Sc18  1  0.670743  0.824145  0.125767  1
  Sc  Sc19  1  0.161375  0.497806  0.754612  1
  Si  Si20  1  0.286015  0.881851  0.751395  1
  Si  Si21  1  0.465481  0.621760  0.249960  1
  Si  Si22  1  0.036177  0.128825  0.751020  1
  Si  Si23  1  0.535679  0.376395  0.751932  1
  Si  Si24  1  0.964649  0.877978  0.250194  1
  Si  Si25  1  0.711496  0.121905  0.251399  1
  Si  Si26  1  0.849077  0.537215  0.040026  1
  Si  Si27  1  0.348573  0.962244  0.040432  1
  Si  Si28  1  0.150827  0.462804  0.961892  1
  Si  Si29  1  0.653205  0.044110  0.534193  1
  Si  Si30  1  0.343016  0.967239  0.457416  1
  Si  Si31  1  0.834555  0.534674  0.455585  1
  Si  Si32  1  0.790752  0.617590  0.751658  1
  Si  Si33  1  0.212217  0.377838  0.251892  1
  Si  Si34  1  0.650497  0.037189  0.961028  1
  Hg  Hg35  1  0.163191  0.449247  0.537673  1
