# generated using pymatgen
data_Sc2B4Ru3W2
_symmetry_space_group_name_H-M   'P 1'
_cell_length_a   3.05967000
_cell_length_b   8.69733095
_cell_length_c   10.02431389
_cell_angle_alpha   89.99730409
_cell_angle_beta   90.00000000
_cell_angle_gamma   90.00000000
_symmetry_Int_Tables_number   1
_chemical_formula_structural   Sc2B4Ru3W2
_chemical_formula_sum   'Sc4 B8 Ru6 W4'
_cell_volume   266.75664156
_cell_formula_units_Z   2
loop_
 _symmetry_equiv_pos_site_id
 _symmetry_equiv_pos_as_xyz
  1  'x, y, z'
loop_
 _atom_site_type_symbol
 _atom_site_label
 _atom_site_symmetry_multiplicity
 _atom_site_fract_x
 _atom_site_fract_y
 _atom_site_fract_z
 _atom_site_occupancy
  Sc  Sc0  1  0.500000  0.840890  0.181126  1
  Sc  Sc1  1  0.500000  0.159110  0.818874  1
  Sc  Sc2  1  0.500000  0.659195  0.681005  1
  Sc  Sc3  1  0.500000  0.340805  0.318995  1
  B  B4  1  0.500000  0.966435  0.586498  1
  B  B5  1  0.500000  0.033565  0.413502  1
  B  B6  1  0.500000  0.853468  0.898526  1
  B  B7  1  0.500000  0.146532  0.101474  1
  B  B8  1  0.500000  0.646518  0.398399  1
  B  B9  1  0.500000  0.353482  0.601601  1
  B  B10  1  0.500000  0.466619  0.913467  1
  B  B11  1  0.500000  0.533381  0.086533  1
  Ru  Ru12  1  0.000000  0.000000  0.000000  1
  Ru  Ru13  1  0.000000  0.406118  0.760823  1
  Ru  Ru14  1  0.000000  0.593882  0.239177  1
  Ru  Ru15  1  0.000000  0.500000  0.500000  1
  Ru  Ru16  1  0.000000  0.906039  0.739223  1
  Ru  Ru17  1  0.000000  0.093961  0.260777  1
  W  W18  1  0.000000  0.663203  0.952444  1
  W  W19  1  0.000000  0.336797  0.047556  1
  W  W20  1  0.000000  0.836836  0.452347  1
  W  W21  1  0.000000  0.163164  0.547653  1
