# generated using pymatgen
data_Er2InB2Ru5
_symmetry_space_group_name_H-M   'P 1'
_cell_length_a   9.72232800
_cell_length_b   9.72232800
_cell_length_c   3.13807200
_cell_angle_alpha   90.00000000
_cell_angle_beta   90.00000000
_cell_angle_gamma   90.00000000
_symmetry_Int_Tables_number   1
_chemical_formula_structural   Er2InB2Ru5
_chemical_formula_sum   'Er4 In2 B4 Ru10'
_cell_volume   296.62205624
_cell_formula_units_Z   2
loop_
 _symmetry_equiv_pos_site_id
 _symmetry_equiv_pos_as_xyz
  1  'x, y, z'
loop_
 _atom_site_type_symbol
 _atom_site_label
 _atom_site_symmetry_multiplicity
 _atom_site_fract_x
 _atom_site_fract_y
 _atom_site_fract_z
 _atom_site_occupancy
  Er  Er0  1  0.675252  0.175252  0.000000  1
  Er  Er1  1  0.324748  0.824748  0.000000  1
  Er  Er2  1  0.175252  0.324748  0.000000  1
  Er  Er3  1  0.824748  0.675252  0.000000  1
  In  In4  1  0.000000  0.000000  0.000000  1
  In  In5  1  0.500000  0.500000  0.000000  1
  B  B6  1  0.121074  0.621074  0.000000  1
  B  B7  1  0.878926  0.378926  0.000000  1
  B  B8  1  0.621074  0.878926  0.000000  1
  B  B9  1  0.378926  0.121074  0.000000  1
  Ru  Ru10  1  0.224896  0.070595  0.500000  1
  Ru  Ru11  1  0.775104  0.929405  0.500000  1
  Ru  Ru12  1  0.070595  0.775104  0.500000  1
  Ru  Ru13  1  0.724896  0.429405  0.500000  1
  Ru  Ru14  1  0.929405  0.224896  0.500000  1
  Ru  Ru15  1  0.275104  0.570595  0.500000  1
  Ru  Ru16  1  0.570595  0.724896  0.500000  1
  Ru  Ru17  1  0.429405  0.275104  0.500000  1
  Ru  Ru18  1  0.500000  0.000000  0.500000  1
  Ru  Ru19  1  0.000000  0.500000  0.500000  1
