# generated using pymatgen
data_ErLu5Bi2Mo
_symmetry_space_group_name_H-M   'P 1'
_cell_length_a   8.15328900
_cell_length_b   8.13675675
_cell_length_c   4.34203000
_cell_angle_alpha   90.00000000
_cell_angle_beta   90.00000000
_cell_angle_gamma   120.06722194
_symmetry_Int_Tables_number   1
_chemical_formula_structural   ErLu5Bi2Mo
_chemical_formula_sum   'Er1 Lu5 Bi2 Mo1'
_cell_volume   249.29469847
_cell_formula_units_Z   1
loop_
 _symmetry_equiv_pos_site_id
 _symmetry_equiv_pos_as_xyz
  1  'x, y, z'
loop_
 _atom_site_type_symbol
 _atom_site_label
 _atom_site_symmetry_multiplicity
 _atom_site_fract_x
 _atom_site_fract_y
 _atom_site_fract_z
 _atom_site_occupancy
  Er  Er0  1  0.612744  0.000000  0.500000  1
  Lu  Lu1  1  0.384158  0.384448  0.500000  1
  Lu  Lu2  1  0.999711  0.615552  0.500000  1
  Lu  Lu3  1  0.001072  0.234905  0.000000  1
  Lu  Lu4  1  0.766167  0.765095  0.000000  1
  Lu  Lu5  1  0.234583  0.000000  0.000000  1
  Bi  Bi6  1  0.666987  0.334245  0.000000  1
  Bi  Bi7  1  0.332740  0.665755  0.000000  1
  Mo  Mo8  1  0.001839  0.000000  0.500000  1
