# generated using pymatgen
data_Pr12IrOsI17
_symmetry_space_group_name_H-M   'P 1'
_cell_length_a   10.17408934
_cell_length_b   12.17445179
_cell_length_c   12.21822201
_cell_angle_alpha   93.45212854
_cell_angle_beta   104.81124711
_cell_angle_gamma   114.55090457
_symmetry_Int_Tables_number   1
_chemical_formula_structural   Pr12IrOsI17
_chemical_formula_sum   'Pr12 Ir1 Os1 I17'
_cell_volume   1306.78294457
_cell_formula_units_Z   1
loop_
 _symmetry_equiv_pos_site_id
 _symmetry_equiv_pos_as_xyz
  1  'x, y, z'
loop_
 _atom_site_type_symbol
 _atom_site_label
 _atom_site_symmetry_multiplicity
 _atom_site_fract_x
 _atom_site_fract_y
 _atom_site_fract_z
 _atom_site_occupancy
  Pr  Pr0  1  0.057843  0.511632  0.323260  1
  Pr  Pr1  1  0.989211  0.811774  0.579680  1
  Pr  Pr2  1  0.643361  0.240359  0.284645  1
  Pr  Pr3  1  0.011331  0.189334  0.418129  1
  Pr  Pr4  1  0.224502  0.669227  0.991406  1
  Pr  Pr5  1  0.261244  0.988638  0.893227  1
  Pr  Pr6  1  0.357748  0.759691  0.714681  1
  Pr  Pr7  1  0.940460  0.486490  0.676052  1
  Pr  Pr8  1  0.739985  0.013114  0.107843  1
  Pr  Pr9  1  0.152832  0.287096  0.150932  1
  Pr  Pr10  1  0.776295  0.330496  0.010077  1
  Pr  Pr11  1  0.845989  0.712154  0.849739  1
  Ir  Ir12  1  0.104123  0.738347  0.785201  1
  Os  Os13  1  0.895779  0.261827  0.214293  1
  I  I14  1  0.785658  0.529172  0.418785  1
  I  I15  1  0.642149  0.419504  0.758610  1
  I  I16  1  0.842774  0.894454  0.325027  1
  I  I17  1  0.324908  0.212373  0.369504  1
  I  I18  1  0.157095  0.104597  0.676065  1
  I  I19  1  0.586622  0.052371  0.843328  1
  I  I20  1  0.755120  0.183345  0.537749  1
  I  I21  1  0.547999  0.706788  0.952720  1
  I  I22  1  0.358420  0.581164  0.241259  1
  I  I23  1  0.214388  0.471454  0.582744  1
  I  I24  1  0.055117  0.368257  0.896923  1
  I  I25  1  0.451593  0.292480  0.046526  1
  I  I26  1  0.999960  0.999310  0.999352  1
  I  I27  1  0.245319  0.817105  0.462897  1
  I  I28  1  0.411447  0.946593  0.155749  1
  I  I29  1  0.674678  0.787877  0.630774  1
  I  I30  1  0.946051  0.632976  0.102826  1
