# generated using pymatgen
data_Y3Lu7Cd3Co
_symmetry_space_group_name_H-M   'P 1'
_cell_length_a   9.49724900
_cell_length_b   9.49724834
_cell_length_c   9.53993400
_cell_angle_alpha   90.00000000
_cell_angle_beta   90.00000000
_cell_angle_gamma   119.99999186
_symmetry_Int_Tables_number   1
_chemical_formula_structural   Y3Lu7Cd3Co
_chemical_formula_sum   'Y6 Lu14 Cd6 Co2'
_cell_volume   745.19795804
_cell_formula_units_Z   2
loop_
 _symmetry_equiv_pos_site_id
 _symmetry_equiv_pos_as_xyz
  1  'x, y, z'
loop_
 _atom_site_type_symbol
 _atom_site_label
 _atom_site_symmetry_multiplicity
 _atom_site_fract_x
 _atom_site_fract_y
 _atom_site_fract_z
 _atom_site_occupancy
  Y  Y0  1  0.541347  0.458653  0.250000  1
  Y  Y1  1  0.541347  0.082692  0.250000  1
  Y  Y2  1  0.917308  0.458653  0.250000  1
  Y  Y3  1  0.458653  0.541347  0.750000  1
  Y  Y4  1  0.458653  0.917308  0.750000  1
  Y  Y5  1  0.082692  0.541347  0.750000  1
  Lu  Lu6  1  0.000000  0.000000  0.500000  1
  Lu  Lu7  1  0.000000  0.000000  0.000000  1
  Lu  Lu8  1  0.211930  0.788070  0.435649  1
  Lu  Lu9  1  0.211930  0.423860  0.435649  1
  Lu  Lu10  1  0.576140  0.788070  0.435649  1
  Lu  Lu11  1  0.788070  0.211930  0.564351  1
  Lu  Lu12  1  0.788070  0.576140  0.564351  1
  Lu  Lu13  1  0.423860  0.211930  0.564351  1
  Lu  Lu14  1  0.788070  0.211930  0.935649  1
  Lu  Lu15  1  0.788070  0.576140  0.935649  1
  Lu  Lu16  1  0.423860  0.211930  0.935649  1
  Lu  Lu17  1  0.211930  0.788070  0.064351  1
  Lu  Lu18  1  0.211930  0.423860  0.064351  1
  Lu  Lu19  1  0.576140  0.788070  0.064351  1
  Cd  Cd20  1  0.886594  0.113406  0.250000  1
  Cd  Cd21  1  0.886594  0.773189  0.250000  1
  Cd  Cd22  1  0.226811  0.113406  0.250000  1
  Cd  Cd23  1  0.113406  0.886594  0.750000  1
  Cd  Cd24  1  0.113406  0.226811  0.750000  1
  Cd  Cd25  1  0.773189  0.886594  0.750000  1
  Co  Co26  1  0.333333  0.666667  0.250000  1
  Co  Co27  1  0.666667  0.333333  0.750000  1
