# generated using pymatgen
data_NdEu(NiB4)2
_symmetry_space_group_name_H-M   'P 1'
_cell_length_a   6.94413331
_cell_length_b   6.94413259
_cell_length_c   6.94413220
_cell_angle_alpha   112.79795888
_cell_angle_beta   112.79795750
_cell_angle_gamma   103.00490549
_symmetry_Int_Tables_number   1
_chemical_formula_structural   NdEu(NiB4)2
_chemical_formula_sum   'Nd2 Eu2 Ni4 B16'
_cell_volume   255.34570575
_cell_formula_units_Z   2
loop_
 _symmetry_equiv_pos_site_id
 _symmetry_equiv_pos_as_xyz
  1  'x, y, z'
loop_
 _atom_site_type_symbol
 _atom_site_label
 _atom_site_symmetry_multiplicity
 _atom_site_fract_x
 _atom_site_fract_y
 _atom_site_fract_z
 _atom_site_occupancy
  Nd  Nd0  1  0.750000  0.250000  0.500000  1
  Nd  Nd1  1  0.250000  0.750000  0.500000  1
  Eu  Eu2  1  0.798901  0.798901  0.000000  1
  Eu  Eu3  1  0.201099  0.201099  0.000000  1
  Ni  Ni4  1  0.273099  0.500000  0.773099  1
  Ni  Ni5  1  0.726901  0.500000  0.226901  1
  Ni  Ni6  1  0.500000  0.726901  0.226901  1
  Ni  Ni7  1  0.500000  0.273099  0.773099  1
  B  B8  1  0.275989  0.112768  0.388758  1
  B  B9  1  0.724011  0.887232  0.611242  1
  B  B10  1  0.275989  0.887232  0.163221  1
  B  B11  1  0.724011  0.112768  0.836779  1
  B  B12  1  0.112768  0.724011  0.836779  1
  B  B13  1  0.887232  0.275989  0.163221  1
  B  B14  1  0.112768  0.275989  0.388758  1
  B  B15  1  0.887232  0.724011  0.611242  1
  B  B16  1  0.113050  0.113050  0.528929  1
  B  B17  1  0.584121  0.584121  0.471071  1
  B  B18  1  0.113050  0.584121  0.000000  1
  B  B19  1  0.584121  0.113050  0.000000  1
  B  B20  1  0.886950  0.886950  0.471071  1
  B  B21  1  0.415879  0.415879  0.528929  1
  B  B22  1  0.886951  0.415879  0.000000  1
  B  B23  1  0.415879  0.886951  0.000000  1
