# generated using pymatgen
data_Ho6Tm4(BiPb)3
_symmetry_space_group_name_H-M   'P 1'
_cell_length_a   6.43128500
_cell_length_b   9.06584121
_cell_length_c   9.06638405
_cell_angle_alpha   119.99801791
_cell_angle_beta   89.99941266
_cell_angle_gamma   90.00117545
_symmetry_Int_Tables_number   1
_chemical_formula_structural   Ho6Tm4(BiPb)3
_chemical_formula_sum   'Ho6 Tm4 Bi3 Pb3'
_cell_volume   457.80368113
_cell_formula_units_Z   1
loop_
 _symmetry_equiv_pos_site_id
 _symmetry_equiv_pos_as_xyz
  1  'x, y, z'
loop_
 _atom_site_type_symbol
 _atom_site_label
 _atom_site_symmetry_multiplicity
 _atom_site_fract_x
 _atom_site_fract_y
 _atom_site_fract_z
 _atom_site_occupancy
  Ho  Ho0  1  0.749993  0.238078  0.000000  1
  Ho  Ho1  1  0.750004  0.761854  0.761876  1
  Ho  Ho2  1  0.750004  0.999978  0.238124  1
  Ho  Ho3  1  0.250010  0.761607  0.000000  1
  Ho  Ho4  1  0.250001  0.238461  0.238428  1
  Ho  Ho5  1  0.250001  0.000033  0.761572  1
  Tm  Tm6  1  0.496954  0.333340  0.666694  1
  Tm  Tm7  1  0.496954  0.666646  0.333306  1
  Tm  Tm8  1  0.003041  0.666664  0.333310  1
  Tm  Tm9  1  0.003041  0.333354  0.666690  1
  Bi  Bi10  1  0.749993  0.605562  0.000000  1
  Bi  Bi11  1  0.750002  0.394395  0.394395  1
  Bi  Bi12  1  0.750002  0.000000  0.605605  1
  Pb  Pb13  1  0.249997  0.394323  0.000000  1
  Pb  Pb14  1  0.250003  0.605719  0.605733  1
  Pb  Pb15  1  0.250003  0.999986  0.394267  1
