# generated using pymatgen
data_Tb4C2Cl3
_symmetry_space_group_name_H-M   'P 1'
_cell_length_a   3.67112200
_cell_length_b   10.57693200
_cell_length_c   19.71346700
_cell_angle_alpha   90.00000000
_cell_angle_beta   90.00000000
_cell_angle_gamma   90.00000000
_symmetry_Int_Tables_number   1
_chemical_formula_structural   Tb4C2Cl3
_chemical_formula_sum   'Tb16 C8 Cl12'
_cell_volume   765.45830577
_cell_formula_units_Z   4
loop_
 _symmetry_equiv_pos_site_id
 _symmetry_equiv_pos_as_xyz
  1  'x, y, z'
loop_
 _atom_site_type_symbol
 _atom_site_label
 _atom_site_symmetry_multiplicity
 _atom_site_fract_x
 _atom_site_fract_y
 _atom_site_fract_z
 _atom_site_occupancy
  Tb  Tb0  1  0.250000  0.139253  0.572159  1
  Tb  Tb1  1  0.250000  0.639253  0.927841  1
  Tb  Tb2  1  0.750000  0.860747  0.427841  1
  Tb  Tb3  1  0.750000  0.360747  0.072159  1
  Tb  Tb4  1  0.250000  0.638087  0.755994  1
  Tb  Tb5  1  0.250000  0.138087  0.744006  1
  Tb  Tb6  1  0.750000  0.361913  0.244006  1
  Tb  Tb7  1  0.750000  0.861913  0.255994  1
  Tb  Tb8  1  0.250000  0.100515  0.332067  1
  Tb  Tb9  1  0.250000  0.600515  0.167933  1
  Tb  Tb10  1  0.750000  0.899485  0.667933  1
  Tb  Tb11  1  0.750000  0.399485  0.832067  1
  Tb  Tb12  1  0.250000  0.123484  0.163255  1
  Tb  Tb13  1  0.250000  0.623484  0.336745  1
  Tb  Tb14  1  0.750000  0.876516  0.836745  1
  Tb  Tb15  1  0.750000  0.376516  0.663255  1
  C  C16  1  0.250000  0.863524  0.348532  1
  C  C17  1  0.250000  0.363524  0.151468  1
  C  C18  1  0.750000  0.136476  0.651468  1
  C  C19  1  0.750000  0.636476  0.848532  1
  C  C20  1  0.250000  0.388618  0.749331  1
  C  C21  1  0.250000  0.888618  0.750669  1
  C  C22  1  0.750000  0.611382  0.250669  1
  C  C23  1  0.750000  0.111382  0.249331  1
  Cl  Cl24  1  0.250000  0.379105  0.951845  1
  Cl  Cl25  1  0.250000  0.879105  0.548155  1
  Cl  Cl26  1  0.750000  0.620895  0.048155  1
  Cl  Cl27  1  0.750000  0.120895  0.451845  1
  Cl  Cl28  1  0.250000  0.887862  0.946810  1
  Cl  Cl29  1  0.250000  0.387862  0.553190  1
  Cl  Cl30  1  0.750000  0.112138  0.053190  1
  Cl  Cl31  1  0.750000  0.612138  0.446810  1
  Cl  Cl32  1  0.250000  0.360102  0.355256  1
  Cl  Cl33  1  0.250000  0.860102  0.144744  1
  Cl  Cl34  1  0.750000  0.639898  0.644744  1
  Cl  Cl35  1  0.750000  0.139898  0.855256  1
