# generated using pymatgen
data_Er3Tm(Ga3Rh)6
_symmetry_space_group_name_H-M   'P 1'
_cell_length_a   7.55015045
_cell_length_b   7.55075763
_cell_length_c   9.49501000
_cell_angle_alpha   89.99906218
_cell_angle_beta   89.99973803
_cell_angle_gamma   119.88574516
_symmetry_Int_Tables_number   1
_chemical_formula_structural   Er3Tm(Ga3Rh)6
_chemical_formula_sum   'Er3 Tm1 Ga18 Rh6'
_cell_volume   469.32214872
_cell_formula_units_Z   1
loop_
 _symmetry_equiv_pos_site_id
 _symmetry_equiv_pos_as_xyz
  1  'x, y, z'
loop_
 _atom_site_type_symbol
 _atom_site_label
 _atom_site_symmetry_multiplicity
 _atom_site_fract_x
 _atom_site_fract_y
 _atom_site_fract_z
 _atom_site_occupancy
  Er  Er0  1  0.996881  0.667780  0.249980  1
  Er  Er1  1  0.003204  0.332287  0.750018  1
  Er  Er2  1  0.667746  0.996856  0.249988  1
  Tm  Tm3  1  0.332266  0.003175  0.750005  1
  Ga  Ga4  1  0.124538  0.124544  0.250006  1
  Ga  Ga5  1  0.875522  0.875434  0.749996  1
  Ga  Ga6  1  0.999805  0.334134  0.079731  1
  Ga  Ga7  1  0.000315  0.665951  0.920219  1
  Ga  Ga8  1  0.000317  0.665952  0.579787  1
  Ga  Ga9  1  0.334159  0.999812  0.420368  1
  Ga  Ga10  1  0.999821  0.334138  0.420266  1
  Ga  Ga11  1  0.665627  0.000166  0.579794  1
  Ga  Ga12  1  0.665622  0.000163  0.920208  1
  Ga  Ga13  1  0.334150  0.999799  0.079629  1
  Ga  Ga14  1  0.332799  0.332656  0.564498  1
  Ga  Ga15  1  0.667224  0.667222  0.435679  1
  Ga  Ga16  1  0.667231  0.667222  0.064306  1
  Ga  Ga17  1  0.332789  0.332649  0.935511  1
  Ga  Ga18  1  0.338297  0.547910  0.250003  1
  Ga  Ga19  1  0.661638  0.452087  0.750002  1
  Ga  Ga20  1  0.547891  0.338285  0.249995  1
  Ga  Ga21  1  0.452193  0.661828  0.750011  1
  Rh  Rh22  1  0.671594  0.328258  0.999980  1
  Rh  Rh23  1  0.328280  0.671662  0.999989  1
  Rh  Rh24  1  0.328276  0.671658  0.500015  1
  Rh  Rh25  1  0.671611  0.328260  0.500015  1
  Rh  Rh26  1  0.000101  0.000061  0.999940  1
  Rh  Rh27  1  0.000103  0.000053  0.500061  1
