# generated using pymatgen
data_Pu2TcWN4
_symmetry_space_group_name_H-M   'P 1'
_cell_length_a   3.22833700
_cell_length_b   5.59492000
_cell_length_c   10.80271400
_cell_angle_alpha   90.00000000
_cell_angle_beta   90.00000000
_cell_angle_gamma   90.00000000
_symmetry_Int_Tables_number   1
_chemical_formula_structural   Pu2TcWN4
_chemical_formula_sum   'Pu4 Tc2 W2 N8'
_cell_volume   195.12172333
_cell_formula_units_Z   2
loop_
 _symmetry_equiv_pos_site_id
 _symmetry_equiv_pos_as_xyz
  1  'x, y, z'
loop_
 _atom_site_type_symbol
 _atom_site_label
 _atom_site_symmetry_multiplicity
 _atom_site_fract_x
 _atom_site_fract_y
 _atom_site_fract_z
 _atom_site_occupancy
  Pu  Pu0  1  0.250000  0.077882  0.858265  1
  Pu  Pu1  1  0.250000  0.577882  0.641735  1
  Pu  Pu2  1  0.750000  0.925711  0.145082  1
  Pu  Pu3  1  0.750000  0.425711  0.354918  1
  Tc  Tc4  1  0.250000  0.429811  0.099466  1
  Tc  Tc5  1  0.250000  0.929811  0.400534  1
  W  W6  1  0.750000  0.570712  0.898246  1
  W  W7  1  0.750000  0.070712  0.601754  1
  N  N8  1  0.250000  0.160172  0.245788  1
  N  N9  1  0.250000  0.660172  0.254212  1
  N  N10  1  0.750000  0.834336  0.756919  1
  N  N11  1  0.750000  0.334336  0.743081  1
  N  N12  1  0.250000  0.751343  0.994576  1
  N  N13  1  0.250000  0.251343  0.505424  1
  N  N14  1  0.750000  0.250033  0.002529  1
  N  N15  1  0.750000  0.750033  0.497471  1
