# generated using pymatgen
data_Dy4B3(PtRh)6
_symmetry_space_group_name_H-M   'P 1'
_cell_length_a   4.23165900
_cell_length_b   4.23165900
_cell_length_c   16.53212100
_cell_angle_alpha   90.00000000
_cell_angle_beta   90.00000000
_cell_angle_gamma   90.00000000
_symmetry_Int_Tables_number   1
_chemical_formula_structural   Dy4B3(PtRh)6
_chemical_formula_sum   'Dy4 B3 Pt6 Rh6'
_cell_volume   296.03966397
_cell_formula_units_Z   1
loop_
 _symmetry_equiv_pos_site_id
 _symmetry_equiv_pos_as_xyz
  1  'x, y, z'
loop_
 _atom_site_type_symbol
 _atom_site_label
 _atom_site_symmetry_multiplicity
 _atom_site_fract_x
 _atom_site_fract_y
 _atom_site_fract_z
 _atom_site_occupancy
  Dy  Dy0  1  0.000000  0.000000  0.875856  1
  Dy  Dy1  1  0.000000  0.000000  0.124144  1
  Dy  Dy2  1  0.000000  0.000000  0.374607  1
  Dy  Dy3  1  0.000000  0.000000  0.625393  1
  B  B4  1  0.500000  0.500000  0.238719  1
  B  B5  1  0.500000  0.500000  0.500000  1
  B  B6  1  0.500000  0.500000  0.761281  1
  Pt  Pt7  1  0.500000  0.500000  0.885373  1
  Pt  Pt8  1  0.500000  0.500000  0.114627  1
  Pt  Pt9  1  0.500000  0.500000  0.371820  1
  Pt  Pt10  1  0.500000  0.500000  0.628180  1
  Pt  Pt11  1  0.500000  0.000000  0.000000  1
  Pt  Pt12  1  0.000000  0.500000  0.000000  1
  Rh  Rh13  1  0.500000  0.000000  0.250082  1
  Rh  Rh14  1  0.500000  0.000000  0.500000  1
  Rh  Rh15  1  0.500000  0.000000  0.749918  1
  Rh  Rh16  1  0.000000  0.500000  0.250082  1
  Rh  Rh17  1  0.000000  0.500000  0.500000  1
  Rh  Rh18  1  0.000000  0.500000  0.749918  1
