# generated using pymatgen
data_Sm5DySe8(O12F)2
_symmetry_space_group_name_H-M   'P 1'
_cell_length_a   10.56571416
_cell_length_b   10.56571541
_cell_length_c   7.05031985
_cell_angle_alpha   90.21836166
_cell_angle_beta   89.78148268
_cell_angle_gamma   119.66341018
_symmetry_Int_Tables_number   1
_chemical_formula_structural   Sm5DySe8(O12F)2
_chemical_formula_sum   'Sm5 Dy1 Se8 O24 F2'
_cell_volume   683.90538517
_cell_formula_units_Z   1
loop_
 _symmetry_equiv_pos_site_id
 _symmetry_equiv_pos_as_xyz
  1  'x, y, z'
loop_
 _atom_site_type_symbol
 _atom_site_label
 _atom_site_symmetry_multiplicity
 _atom_site_fract_x
 _atom_site_fract_y
 _atom_site_fract_z
 _atom_site_occupancy
  Sm  Sm0  1  0.462999  0.536997  0.317186  1
  Sm  Sm1  1  0.075041  0.537423  0.317217  1
  Sm  Sm2  1  0.462576  0.924960  0.317222  1
  Sm  Sm3  1  0.924516  0.462877  0.817207  1
  Sm  Sm4  1  0.537126  0.075486  0.817210  1
  Dy  Dy5  1  0.536983  0.463020  0.817887  1
  Se  Se6  1  0.158362  0.311191  0.082026  1
  Se  Se7  1  0.688809  0.841638  0.082027  1
  Se  Se8  1  0.154954  0.845047  0.086537  1
  Se  Se9  1  0.665948  0.334055  0.247564  1
  Se  Se10  1  0.841903  0.688472  0.588833  1
  Se  Se11  1  0.844802  0.155199  0.585464  1
  Se  Se12  1  0.311527  0.158096  0.588850  1
  Se  Se13  1  0.333430  0.666567  0.750422  1
  O  O14  1  0.082158  0.415201  0.014466  1
  O  O15  1  0.081207  0.666160  0.015606  1
  O  O16  1  0.583155  0.663165  0.010964  1
  O  O17  1  0.336836  0.416843  0.010966  1
  O  O18  1  0.333841  0.918795  0.015610  1
  O  O19  1  0.584801  0.917844  0.014470  1
  O  O20  1  0.581299  0.418706  0.135233  1
  O  O21  1  0.836218  0.417933  0.139617  1
  O  O22  1  0.582069  0.163784  0.139621  1
  O  O23  1  0.184431  0.363053  0.317434  1
  O  O24  1  0.181411  0.818587  0.320871  1
  O  O25  1  0.636944  0.815567  0.317434  1
  O  O26  1  0.418229  0.336939  0.521186  1
  O  O27  1  0.918830  0.333732  0.514463  1
  O  O28  1  0.918294  0.585170  0.516266  1
  O  O29  1  0.666268  0.081169  0.514465  1
  O  O30  1  0.663057  0.581767  0.521180  1
  O  O31  1  0.414822  0.081703  0.516276  1
  O  O32  1  0.164233  0.581513  0.639544  1
  O  O33  1  0.419124  0.580872  0.642743  1
  O  O34  1  0.418487  0.835766  0.639546  1
  O  O35  1  0.815970  0.635617  0.823127  1
  O  O36  1  0.364391  0.184034  0.823137  1
  O  O37  1  0.817346  0.182656  0.819821  1
  F  F38  1  0.333506  0.666494  0.271840  1
  F  F39  1  0.664100  0.335905  0.773033  1
