# generated using pymatgen
data_La2Sm4RuBr10
_symmetry_space_group_name_H-M   'P 1'
_cell_length_a   7.65295340
_cell_length_b   9.60692643
_cell_length_c   9.44077006
_cell_angle_alpha   107.99584459
_cell_angle_beta   95.45401323
_cell_angle_gamma   106.88269737
_symmetry_Int_Tables_number   1
_chemical_formula_structural   La2Sm4RuBr10
_chemical_formula_sum   'La2 Sm4 Ru1 Br10'
_cell_volume   618.53529096
_cell_formula_units_Z   1
loop_
 _symmetry_equiv_pos_site_id
 _symmetry_equiv_pos_as_xyz
  1  'x, y, z'
loop_
 _atom_site_type_symbol
 _atom_site_label
 _atom_site_symmetry_multiplicity
 _atom_site_fract_x
 _atom_site_fract_y
 _atom_site_fract_z
 _atom_site_occupancy
  La  La0  1  0.123412  0.046465  0.764198  1
  La  La1  1  0.876588  0.953535  0.235802  1
  Sm  Sm2  1  0.976533  0.306177  0.099115  1
  Sm  Sm3  1  0.023467  0.693823  0.900885  1
  Sm  Sm4  1  0.369664  0.141910  0.182931  1
  Sm  Sm5  1  0.630336  0.858090  0.817069  1
  Ru  Ru6  1  0.000000  0.000000  0.000000  1
  Br  Br7  1  0.552108  0.174223  0.919066  1
  Br  Br8  1  0.447892  0.825777  0.080934  1
  Br  Br9  1  0.354421  0.452611  0.271494  1
  Br  Br10  1  0.645579  0.547389  0.728506  1
  Br  Br11  1  0.259875  0.085898  0.451463  1
  Br  Br12  1  0.740125  0.914102  0.548537  1
  Br  Br13  1  0.790097  0.262365  0.345734  1
  Br  Br14  1  0.209903  0.737635  0.654266  1
  Br  Br15  1  0.086341  0.373069  0.832428  1
  Br  Br16  1  0.913659  0.626931  0.167572  1
