# generated using pymatgen
data_Sm2Dy2HoSn4
_symmetry_space_group_name_H-M   'P 1'
_cell_length_a   8.07721600
_cell_length_b   8.23460000
_cell_length_c   15.56220700
_cell_angle_alpha   90.00000000
_cell_angle_beta   90.00000000
_cell_angle_gamma   90.00000000
_symmetry_Int_Tables_number   1
_chemical_formula_structural   Sm2Dy2HoSn4
_chemical_formula_sum   'Sm8 Dy8 Ho4 Sn16'
_cell_volume   1035.08351652
_cell_formula_units_Z   4
loop_
 _symmetry_equiv_pos_site_id
 _symmetry_equiv_pos_as_xyz
  1  'x, y, z'
loop_
 _atom_site_type_symbol
 _atom_site_label
 _atom_site_symmetry_multiplicity
 _atom_site_fract_x
 _atom_site_fract_y
 _atom_site_fract_z
 _atom_site_occupancy
  Sm  Sm0  1  0.518951  0.320792  0.902345  1
  Sm  Sm1  1  0.018951  0.179208  0.597655  1
  Sm  Sm2  1  0.481049  0.679208  0.402345  1
  Sm  Sm3  1  0.981049  0.820792  0.097655  1
  Sm  Sm4  1  0.481049  0.679208  0.097655  1
  Sm  Sm5  1  0.981049  0.820792  0.402345  1
  Sm  Sm6  1  0.518951  0.320792  0.597655  1
  Sm  Sm7  1  0.018951  0.179208  0.902345  1
  Dy  Dy8  1  0.365264  0.835990  0.877665  1
  Dy  Dy9  1  0.865264  0.664010  0.622335  1
  Dy  Dy10  1  0.634736  0.164010  0.377665  1
  Dy  Dy11  1  0.134736  0.335990  0.122335  1
  Dy  Dy12  1  0.634736  0.164010  0.122335  1
  Dy  Dy13  1  0.134736  0.335990  0.377665  1
  Dy  Dy14  1  0.365264  0.835990  0.622335  1
  Dy  Dy15  1  0.865264  0.664010  0.877665  1
  Ho  Ho16  1  0.197525  0.503033  0.750000  1
  Ho  Ho17  1  0.697525  0.996967  0.750000  1
  Ho  Ho18  1  0.802475  0.496967  0.250000  1
  Ho  Ho19  1  0.302475  0.003033  0.250000  1
  Sn  Sn20  1  0.297253  0.037958  0.041999  1
  Sn  Sn21  1  0.797253  0.462042  0.458001  1
  Sn  Sn22  1  0.702747  0.962042  0.541999  1
  Sn  Sn23  1  0.202747  0.537958  0.958001  1
  Sn  Sn24  1  0.702747  0.962042  0.958001  1
  Sn  Sn25  1  0.202747  0.537958  0.541999  1
  Sn  Sn26  1  0.297253  0.037958  0.458001  1
  Sn  Sn27  1  0.797253  0.462042  0.041999  1
  Sn  Sn28  1  0.563630  0.620823  0.750000  1
  Sn  Sn29  1  0.063630  0.879177  0.750000  1
  Sn  Sn30  1  0.436370  0.379177  0.250000  1
  Sn  Sn31  1  0.936370  0.120823  0.250000  1
  Sn  Sn32  1  0.326948  0.144940  0.750000  1
  Sn  Sn33  1  0.826948  0.355060  0.750000  1
  Sn  Sn34  1  0.673052  0.855060  0.250000  1
  Sn  Sn35  1  0.173052  0.644940  0.250000  1
