# generated using pymatgen
data_Y8Re2B24OsRu
_symmetry_space_group_name_H-M   'P 1'
_cell_length_a   3.67488500
_cell_length_b   9.18634987
_cell_length_c   11.57909860
_cell_angle_alpha   89.81831063
_cell_angle_beta   90.00000000
_cell_angle_gamma   90.00000000
_symmetry_Int_Tables_number   1
_chemical_formula_structural   Y8Re2B24OsRu
_chemical_formula_sum   'Y8 Re2 B24 Os1 Ru1'
_cell_volume   390.89426916
_cell_formula_units_Z   1
loop_
 _symmetry_equiv_pos_site_id
 _symmetry_equiv_pos_as_xyz
  1  'x, y, z'
loop_
 _atom_site_type_symbol
 _atom_site_label
 _atom_site_symmetry_multiplicity
 _atom_site_fract_x
 _atom_site_fract_y
 _atom_site_fract_z
 _atom_site_occupancy
  Y  Y0  1  0.000000  0.820827  0.087636  1
  Y  Y1  1  0.000000  0.179214  0.912619  1
  Y  Y2  1  0.000000  0.324472  0.415294  1
  Y  Y3  1  0.000000  0.675322  0.584408  1
  Y  Y4  1  0.000000  0.443269  0.129027  1
  Y  Y5  1  0.000000  0.557490  0.870682  1
  Y  Y6  1  0.000000  0.942283  0.371409  1
  Y  Y7  1  0.000000  0.057397  0.629149  1
  Re  Re8  1  0.000000  0.638084  0.320414  1
  Re  Re9  1  0.000000  0.361954  0.679551  1
  B  B10  1  0.500000  0.053535  0.067028  1
  B  B11  1  0.500000  0.946250  0.932821  1
  B  B12  1  0.500000  0.553063  0.432890  1
  B  B13  1  0.500000  0.447013  0.567037  1
  B  B14  1  0.500000  0.247993  0.081406  1
  B  B15  1  0.500000  0.752046  0.918688  1
  B  B16  1  0.500000  0.748108  0.418745  1
  B  B17  1  0.500000  0.251736  0.581237  1
  B  B18  1  0.500000  0.290116  0.234026  1
  B  B19  1  0.500000  0.710015  0.765902  1
  B  B20  1  0.500000  0.791040  0.265416  1
  B  B21  1  0.500000  0.208892  0.734679  1
  B  B22  1  0.500000  0.130636  0.313675  1
  B  B23  1  0.500000  0.869173  0.686220  1
  B  B24  1  0.500000  0.631132  0.185410  1
  B  B25  1  0.500000  0.369015  0.814619  1
  B  B26  1  0.500000  0.482716  0.287626  1
  B  B27  1  0.500000  0.517458  0.712258  1
  B  B28  1  0.500000  0.982962  0.211841  1
  B  B29  1  0.500000  0.016779  0.788250  1
  B  B30  1  0.500000  0.103556  0.471142  1
  B  B31  1  0.500000  0.896146  0.529146  1
  B  B32  1  0.500000  0.604323  0.028651  1
  B  B33  1  0.500000  0.396076  0.971184  1
  Os  Os34  1  0.000000  0.137265  0.178174  1
  Ru  Ru35  1  0.000000  0.862641  0.821742  1
