# generated using pymatgen
data_Ru(IF)2
_symmetry_space_group_name_H-M   'P 1'
_cell_length_a   7.20415367
_cell_length_b   7.20415388
_cell_length_c   7.20415394
_cell_angle_alpha   113.15411823
_cell_angle_beta   109.26726714
_cell_angle_gamma   106.07045560
_symmetry_Int_Tables_number   1
_chemical_formula_structural   Ru(IF)2
_chemical_formula_sum   'Ru2 I4 F4'
_cell_volume   286.71707687
_cell_formula_units_Z   2
loop_
 _symmetry_equiv_pos_site_id
 _symmetry_equiv_pos_as_xyz
  1  'x, y, z'
loop_
 _atom_site_type_symbol
 _atom_site_label
 _atom_site_symmetry_multiplicity
 _atom_site_fract_x
 _atom_site_fract_y
 _atom_site_fract_z
 _atom_site_occupancy
  Ru  Ru0  1  0.000000  0.249720  0.249720  1
  Ru  Ru1  1  0.000000  0.750280  0.750280  1
  I  I2  1  0.785629  0.785629  0.000000  1
  I  I3  1  0.214371  0.214371  0.000000  1
  I  I4  1  0.786155  0.286155  0.500000  1
  I  I5  1  0.213845  0.713845  0.500000  1
  F  F6  1  0.771114  0.249553  0.020667  1
  F  F7  1  0.228886  0.249553  0.478440  1
  F  F8  1  0.771114  0.750447  0.521560  1
  F  F9  1  0.228886  0.750447  0.979333  1
