# generated using pymatgen
data_TbYb3Ho4(B6Ru)4
_symmetry_space_group_name_H-M   'P 1'
_cell_length_a   3.65543300
_cell_length_b   9.13723158
_cell_length_c   11.52699300
_cell_angle_alpha   89.92139652
_cell_angle_beta   90.00000000
_cell_angle_gamma   90.00000000
_symmetry_Int_Tables_number   1
_chemical_formula_structural   TbYb3Ho4(B6Ru)4
_chemical_formula_sum   'Tb1 Yb3 Ho4 B24 Ru4'
_cell_volume   385.00740360
_cell_formula_units_Z   1
loop_
 _symmetry_equiv_pos_site_id
 _symmetry_equiv_pos_as_xyz
  1  'x, y, z'
loop_
 _atom_site_type_symbol
 _atom_site_label
 _atom_site_symmetry_multiplicity
 _atom_site_fract_x
 _atom_site_fract_y
 _atom_site_fract_z
 _atom_site_occupancy
  Tb  Tb0  1  0.000000  0.175745  0.915260  1
  Yb  Yb1  1  0.000000  0.325055  0.414796  1
  Yb  Yb2  1  0.000000  0.675004  0.584490  1
  Yb  Yb3  1  0.000000  0.823518  0.085947  1
  Ho  Ho4  1  0.000000  0.940619  0.366413  1
  Ho  Ho5  1  0.000000  0.058389  0.631415  1
  Ho  Ho6  1  0.000000  0.442775  0.133453  1
  Ho  Ho7  1  0.000000  0.559145  0.867583  1
  B  B8  1  0.500000  0.553483  0.432987  1
  B  B9  1  0.500000  0.446058  0.567702  1
  B  B10  1  0.500000  0.053841  0.067258  1
  B  B11  1  0.500000  0.945581  0.933060  1
  B  B12  1  0.500000  0.748117  0.417341  1
  B  B13  1  0.500000  0.251813  0.582657  1
  B  B14  1  0.500000  0.248830  0.082702  1
  B  B15  1  0.500000  0.751937  0.917604  1
  B  B16  1  0.500000  0.790130  0.264245  1
  B  B17  1  0.500000  0.209458  0.735707  1
  B  B18  1  0.500000  0.290362  0.235405  1
  B  B19  1  0.500000  0.710540  0.764545  1
  B  B20  1  0.500000  0.630691  0.186124  1
  B  B21  1  0.500000  0.369557  0.814712  1
  B  B22  1  0.500000  0.130673  0.313618  1
  B  B23  1  0.500000  0.869532  0.685300  1
  B  B24  1  0.500000  0.983141  0.210475  1
  B  B25  1  0.500000  0.016476  0.788679  1
  B  B26  1  0.500000  0.483843  0.289640  1
  B  B27  1  0.500000  0.516221  0.711126  1
  B  B28  1  0.500000  0.598830  0.027424  1
  B  B29  1  0.500000  0.401190  0.972937  1
  B  B30  1  0.500000  0.096634  0.472600  1
  B  B31  1  0.500000  0.902853  0.526226  1
  Ru  Ru32  1  0.000000  0.638736  0.320474  1
  Ru  Ru33  1  0.000000  0.360140  0.680801  1
  Ru  Ru34  1  0.000000  0.138350  0.179183  1
  Ru  Ru35  1  0.000000  0.862729  0.820111  1
