# generated using pymatgen
data_Tb8Re9Si16W3
_symmetry_space_group_name_H-M   'P 1'
_cell_length_a   6.78368835
_cell_length_b   6.78368777
_cell_length_c   12.98671925
_cell_angle_alpha   89.93571334
_cell_angle_beta   90.06428337
_cell_angle_gamma   89.78431764
_symmetry_Int_Tables_number   1
_chemical_formula_structural   Tb8Re9Si16W3
_chemical_formula_sum   'Tb8 Re9 Si16 W3'
_cell_volume   597.62335870
_cell_formula_units_Z   1
loop_
 _symmetry_equiv_pos_site_id
 _symmetry_equiv_pos_as_xyz
  1  'x, y, z'
loop_
 _atom_site_type_symbol
 _atom_site_label
 _atom_site_symmetry_multiplicity
 _atom_site_fract_x
 _atom_site_fract_y
 _atom_site_fract_z
 _atom_site_occupancy
  Tb  Tb0  1  0.334026  0.989675  0.469922  1
  Tb  Tb1  1  0.510769  0.831045  0.718704  1
  Tb  Tb2  1  0.489914  0.169293  0.219696  1
  Tb  Tb3  1  0.831045  0.510769  0.281296  1
  Tb  Tb4  1  0.169293  0.489914  0.780304  1
  Tb  Tb5  1  0.667565  0.008415  0.970028  1
  Tb  Tb6  1  0.989675  0.334026  0.530078  1
  Tb  Tb7  1  0.008415  0.667565  0.029972  1
  Re  Re8  1  0.660830  0.660830  0.500000  1
  Re  Re9  1  0.189786  0.990197  0.869039  1
  Re  Re10  1  0.506278  0.689396  0.121079  1
  Re  Re11  1  0.492155  0.306288  0.619616  1
  Re  Re12  1  0.689396  0.506278  0.878921  1
  Re  Re13  1  0.306288  0.492155  0.380384  1
  Re  Re14  1  0.809773  0.015632  0.368575  1
  Re  Re15  1  0.990197  0.189786  0.130961  1
  Re  Re16  1  0.015632  0.809773  0.631425  1
  Si  Si17  1  0.199935  0.111170  0.682086  1
  Si  Si18  1  0.389485  0.698031  0.932690  1
  Si  Si19  1  0.607187  0.305012  0.433263  1
  Si  Si20  1  0.698031  0.389485  0.067310  1
  Si  Si21  1  0.305012  0.607187  0.566737  1
  Si  Si22  1  0.799876  0.888604  0.183184  1
  Si  Si23  1  0.111170  0.199935  0.317914  1
  Si  Si24  1  0.888604  0.799876  0.816816  1
  Si  Si25  1  0.276654  0.983095  0.060575  1
  Si  Si26  1  0.517836  0.779970  0.312171  1
  Si  Si27  1  0.482444  0.219030  0.810582  1
  Si  Si28  1  0.779970  0.517836  0.687829  1
  Si  Si29  1  0.219030  0.482444  0.189418  1
  Si  Si30  1  0.727947  0.012344  0.559031  1
  Si  Si31  1  0.983095  0.276654  0.939425  1
  Si  Si32  1  0.012344  0.727947  0.440969  1
  W  W33  1  0.339880  0.339880  0.000000  1
  W  W34  1  0.160247  0.840215  0.250137  1
  W  W35  1  0.840215  0.160247  0.749863  1
