# generated using pymatgen
data_Dy8Sc12Ga11Si5
_symmetry_space_group_name_H-M   'P 1'
_cell_length_a   7.18018269
_cell_length_b   7.53177250
_cell_length_c   14.29876919
_cell_angle_alpha   89.96892647
_cell_angle_beta   90.10505624
_cell_angle_gamma   90.18751668
_symmetry_Int_Tables_number   1
_chemical_formula_structural   Dy8Sc12Ga11Si5
_chemical_formula_sum   'Dy8 Sc12 Ga11 Si5'
_cell_volume   773.26477199
_cell_formula_units_Z   1
loop_
 _symmetry_equiv_pos_site_id
 _symmetry_equiv_pos_as_xyz
  1  'x, y, z'
loop_
 _atom_site_type_symbol
 _atom_site_label
 _atom_site_symmetry_multiplicity
 _atom_site_fract_x
 _atom_site_fract_y
 _atom_site_fract_z
 _atom_site_occupancy
  Dy  Dy0  1  0.013967  0.178077  0.405348  1
  Dy  Dy1  1  0.512522  0.322864  0.406001  1
  Dy  Dy2  1  0.489474  0.678650  0.905154  1
  Dy  Dy3  1  0.489165  0.679882  0.593331  1
  Dy  Dy4  1  0.988175  0.819514  0.593592  1
  Dy  Dy5  1  0.986067  0.823291  0.905188  1
  Dy  Dy6  1  0.510234  0.321698  0.094793  1
  Dy  Dy7  1  0.010935  0.179491  0.095152  1
  Sc  Sc8  1  0.327681  0.171669  0.621449  1
  Sc  Sc9  1  0.671969  0.823928  0.378362  1
  Sc  Sc10  1  0.664670  0.992156  0.751510  1
  Sc  Sc11  1  0.173811  0.674833  0.377557  1
  Sc  Sc12  1  0.824223  0.325946  0.877232  1
  Sc  Sc13  1  0.826374  0.329100  0.622206  1
  Sc  Sc14  1  0.839242  0.494217  0.251678  1
  Sc  Sc15  1  0.336412  0.007014  0.251915  1
  Sc  Sc16  1  0.330685  0.173988  0.876607  1
  Sc  Sc17  1  0.171873  0.671097  0.123761  1
  Sc  Sc18  1  0.671759  0.827260  0.122434  1
  Sc  Sc19  1  0.159783  0.505427  0.750506  1
  Ga  Ga20  1  0.284354  0.873366  0.749272  1
  Ga  Ga21  1  0.468636  0.614784  0.251053  1
  Ga  Ga22  1  0.030690  0.119540  0.748912  1
  Ga  Ga23  1  0.530486  0.386531  0.748621  1
  Ga  Ga24  1  0.159060  0.464660  0.540709  1
  Ga  Ga25  1  0.968589  0.881300  0.250295  1
  Ga  Ga26  1  0.715406  0.126902  0.250863  1
  Ga  Ga27  1  0.839772  0.535517  0.041387  1
  Ga  Ga28  1  0.339386  0.963403  0.041115  1
  Ga  Ga29  1  0.159363  0.463747  0.958072  1
  Ga  Ga30  1  0.660644  0.036336  0.540727  1
  Si  Si31  1  0.342606  0.965313  0.458107  1
  Si  Si32  1  0.844374  0.533600  0.457805  1
  Si  Si33  1  0.783258  0.623969  0.749258  1
  Si  Si34  1  0.217341  0.376229  0.250986  1
  Si  Si35  1  0.657016  0.034702  0.959037  1
