# generated using pymatgen
data_Dy2Er2Al24Pt8Au
_symmetry_space_group_name_H-M   'P 1'
_cell_length_a   7.55441887
_cell_length_b   7.57225349
_cell_length_c   13.15585543
_cell_angle_alpha   84.56039099
_cell_angle_beta   79.01553893
_cell_angle_gamma   59.88410872
_symmetry_Int_Tables_number   1
_chemical_formula_structural   Dy2Er2Al24Pt8Au
_chemical_formula_sum   'Dy2 Er2 Al24 Pt8 Au1'
_cell_volume   639.05293500
_cell_formula_units_Z   1
loop_
 _symmetry_equiv_pos_site_id
 _symmetry_equiv_pos_as_xyz
  1  'x, y, z'
loop_
 _atom_site_type_symbol
 _atom_site_label
 _atom_site_symmetry_multiplicity
 _atom_site_fract_x
 _atom_site_fract_y
 _atom_site_fract_z
 _atom_site_occupancy
  Dy  Dy0  1  0.734200  0.499005  0.808801  1
  Dy  Dy1  1  0.266782  0.501085  0.191464  1
  Er  Er2  1  0.392956  0.169106  0.808271  1
  Er  Er3  1  0.605887  0.831834  0.192863  1
  Al  Al4  1  0.682707  0.834691  0.945452  1
  Al  Al5  1  0.316072  0.165618  0.056029  1
  Al  Al6  1  0.146845  0.839125  0.559934  1
  Al  Al7  1  0.854332  0.167197  0.436347  1
  Al  Al8  1  0.488412  0.159483  0.557492  1
  Al  Al9  1  0.520105  0.833587  0.439689  1
  Al  Al10  1  0.218079  0.165089  0.328625  1
  Al  Al11  1  0.777252  0.839143  0.673508  1
  Al  Al12  1  0.440248  0.506759  0.673619  1
  Al  Al13  1  0.562901  0.493772  0.328366  1
  Al  Al14  1  0.109063  0.154676  0.672323  1
  Al  Al15  1  0.890263  0.839722  0.329708  1
  Al  Al16  1  0.353248  0.498552  0.944893  1
  Al  Al17  1  0.647141  0.501131  0.056383  1
  Al  Al18  1  0.015746  0.167592  0.953814  1
  Al  Al19  1  0.983538  0.832503  0.047760  1
  Al  Al20  1  0.188124  0.499559  0.436493  1
  Al  Al21  1  0.806773  0.500005  0.557376  1
  Al  Al22  1  0.734308  0.163332  0.183505  1
  Al  Al23  1  0.266617  0.836046  0.816689  1
  Al  Al24  1  0.060874  0.633151  0.817909  1
  Al  Al25  1  0.938174  0.369146  0.184871  1
  Al  Al26  1  0.853766  0.042091  0.816187  1
  Al  Al27  1  0.145024  0.958350  0.183942  1
  Pt  Pt28  1  0.879245  0.508618  0.361304  1
  Pt  Pt29  1  0.657360  0.171380  0.999502  1
  Pt  Pt30  1  0.342845  0.828460  0.999725  1
  Pt  Pt31  1  0.537554  0.166513  0.361353  1
  Pt  Pt32  1  0.462485  0.833476  0.638036  1
  Pt  Pt33  1  0.779134  0.175087  0.636717  1
  Pt  Pt34  1  0.221264  0.824787  0.362601  1
  Pt  Pt35  1  0.999946  0.499925  0.000238  1
  Au  Au36  1  0.120729  0.490405  0.638211  1
