# generated using pymatgen
data_YbEu7LuPt6
_symmetry_space_group_name_H-M   'P 1'
_cell_length_a   7.74750962
_cell_length_b   7.74750901
_cell_length_c   7.74751088
_cell_angle_alpha   69.86033792
_cell_angle_beta   69.86034050
_cell_angle_gamma   69.86034962
_symmetry_Int_Tables_number   1
_chemical_formula_structural   YbEu7LuPt6
_chemical_formula_sum   'Yb1 Eu7 Lu1 Pt6'
_cell_volume   396.23341060
_cell_formula_units_Z   1
loop_
 _symmetry_equiv_pos_site_id
 _symmetry_equiv_pos_as_xyz
  1  'x, y, z'
loop_
 _atom_site_type_symbol
 _atom_site_label
 _atom_site_symmetry_multiplicity
 _atom_site_fract_x
 _atom_site_fract_y
 _atom_site_fract_z
 _atom_site_occupancy
  Yb  Yb0  1  0.001691  0.001691  0.001691  1
  Eu  Eu1  1  0.198013  0.198013  0.198013  1
  Eu  Eu2  1  0.333223  0.604701  0.844523  1
  Eu  Eu3  1  0.844523  0.333223  0.604701  1
  Eu  Eu4  1  0.604701  0.844523  0.333223  1
  Eu  Eu5  1  0.667953  0.396415  0.152338  1
  Eu  Eu6  1  0.152338  0.667953  0.396415  1
  Eu  Eu7  1  0.396415  0.152338  0.667953  1
  Lu  Lu8  1  0.807358  0.807358  0.807358  1
  Pt  Pt9  1  0.146286  0.953400  0.602587  1
  Pt  Pt10  1  0.602587  0.146286  0.953400  1
  Pt  Pt11  1  0.953400  0.602587  0.146286  1
  Pt  Pt12  1  0.834376  0.034737  0.422397  1
  Pt  Pt13  1  0.422397  0.834376  0.034737  1
  Pt  Pt14  1  0.034737  0.422397  0.834376  1
