# generated using pymatgen
data_Gd3Lu(B4W)4
_symmetry_space_group_name_H-M   'P 1'
_cell_length_a   3.63545600
_cell_length_b   6.04605708
_cell_length_c   11.68937976
_cell_angle_alpha   90.08906000
_cell_angle_beta   90.00000000
_cell_angle_gamma   90.00000000
_symmetry_Int_Tables_number   1
_chemical_formula_structural   Gd3Lu(B4W)4
_chemical_formula_sum   'Gd3 Lu1 B16 W4'
_cell_volume   256.93429653
_cell_formula_units_Z   1
loop_
 _symmetry_equiv_pos_site_id
 _symmetry_equiv_pos_as_xyz
  1  'x, y, z'
loop_
 _atom_site_type_symbol
 _atom_site_label
 _atom_site_symmetry_multiplicity
 _atom_site_fract_x
 _atom_site_fract_y
 _atom_site_fract_z
 _atom_site_occupancy
  Gd  Gd0  1  0.500000  0.626879  0.850380  1
  Gd  Gd1  1  0.500000  0.126983  0.649936  1
  Gd  Gd2  1  0.500000  0.873283  0.349609  1
  Lu  Lu3  1  0.500000  0.373020  0.149462  1
  B  B4  1  0.000000  0.115660  0.048672  1
  B  B5  1  0.000000  0.886876  0.953818  1
  B  B6  1  0.000000  0.386162  0.546548  1
  B  B7  1  0.000000  0.613297  0.451986  1
  B  B8  1  0.000000  0.134283  0.467256  1
  B  B9  1  0.000000  0.865962  0.531659  1
  B  B10  1  0.000000  0.366642  0.969467  1
  B  B11  1  0.000000  0.633122  0.033071  1
  B  B12  1  0.000000  0.024913  0.193152  1
  B  B13  1  0.000000  0.976133  0.807780  1
  B  B14  1  0.000000  0.475857  0.692580  1
  B  B15  1  0.000000  0.522523  0.305349  1
  B  B16  1  0.000000  0.214054  0.312460  1
  B  B17  1  0.000000  0.786055  0.686110  1
  B  B18  1  0.000000  0.286048  0.814401  1
  B  B19  1  0.000000  0.711615  0.186001  1
  W  W20  1  0.500000  0.369295  0.414385  1
  W  W21  1  0.500000  0.630476  0.583948  1
  W  W22  1  0.500000  0.131245  0.916902  1
  W  W23  1  0.500000  0.869615  0.085069  1
