# generated using pymatgen
data_HoNb6Sb(PO4)12
_symmetry_space_group_name_H-M   'P 1'
_cell_length_a   8.92257450
_cell_length_b   9.00949115
_cell_length_c   12.50006233
_cell_angle_alpha   90.15572621
_cell_angle_beta   90.47502942
_cell_angle_gamma   89.95019178
_symmetry_Int_Tables_number   1
_chemical_formula_structural   HoNb6Sb(PO4)12
_chemical_formula_sum   'Ho1 Nb6 Sb1 P12 O48'
_cell_volume   1004.81460295
_cell_formula_units_Z   1
loop_
 _symmetry_equiv_pos_site_id
 _symmetry_equiv_pos_as_xyz
  1  'x, y, z'
loop_
 _atom_site_type_symbol
 _atom_site_label
 _atom_site_symmetry_multiplicity
 _atom_site_fract_x
 _atom_site_fract_y
 _atom_site_fract_z
 _atom_site_occupancy
  Ho  Ho0  1  0.749328  0.966486  0.376933  1
  Nb  Nb1  1  0.749794  0.465161  0.117053  1
  Nb  Nb2  1  0.747662  0.034746  0.884462  1
  Nb  Nb3  1  0.752036  0.534902  0.616950  1
  Nb  Nb4  1  0.249549  0.035552  0.617002  1
  Nb  Nb5  1  0.251417  0.965168  0.116392  1
  Nb  Nb6  1  0.248442  0.465454  0.385487  1
  Sb  Sb7  1  0.248805  0.533462  0.878444  1
  P  P8  1  0.539190  0.752033  0.004573  1
  P  P9  1  0.971373  0.256761  0.505559  1
  P  P10  1  0.470041  0.243120  0.005499  1
  P  P11  1  0.037320  0.748542  0.505036  1
  P  P12  1  0.611872  0.597567  0.352453  1
  P  P13  1  0.901900  0.119873  0.136565  1
  P  P14  1  0.876571  0.388194  0.852913  1
  P  P15  1  0.601530  0.884292  0.645285  1
  P  P16  1  0.402494  0.380668  0.636834  1
  P  P17  1  0.111669  0.903550  0.850786  1
  P  P18  1  0.101613  0.615025  0.147078  1
  P  P19  1  0.376279  0.110819  0.352916  1
  O  O20  1  0.928309  0.595028  0.144449  1
  O  O21  1  0.544597  0.104549  0.350882  1
  O  O22  1  0.575152  0.403937  0.640531  1
  O  O23  1  0.940717  0.940362  0.849841  1
  O  O24  1  0.045733  0.386159  0.850588  1
  O  O25  1  0.428309  0.905831  0.644101  1
  O  O26  1  0.440529  0.563291  0.349821  1
  O  O27  1  0.074724  0.096126  0.139285  1
  O  O28  1  0.951169  0.825106  0.417149  1
  O  O29  1  0.574990  0.331052  0.082963  1
  O  O30  1  0.566223  0.143314  0.932017  1
  O  O31  1  0.930468  0.662722  0.581750  1
  O  O32  1  0.076913  0.171467  0.584055  1
  O  O33  1  0.457768  0.675213  0.913731  1
  O  O34  1  0.430077  0.836639  0.080835  1
  O  O35  1  0.067557  0.356306  0.431988  1
  O  O36  1  0.684385  0.492005  0.267542  1
  O  O37  1  0.824742  0.019181  0.214169  1
  O  O38  1  0.811179  0.499186  0.767858  1
  O  O39  1  0.660854  0.966497  0.747516  1
  O  O40  1  0.322793  0.485314  0.711642  1
  O  O41  1  0.184713  0.010736  0.767684  1
  O  O42  1  0.159001  0.534554  0.250014  1
  O  O43  1  0.308560  0.000987  0.267253  1
  O  O44  1  0.677721  0.555683  0.463726  1
  O  O45  1  0.848096  0.091257  0.020685  1
  O  O46  1  0.813882  0.438268  0.963410  1
  O  O47  1  0.672998  0.942842  0.545984  1
  O  O48  1  0.350030  0.408489  0.520136  1
  O  O49  1  0.178686  0.941352  0.962712  1
  O  O50  1  0.175828  0.549972  0.050150  1
  O  O51  1  0.312192  0.062800  0.463128  1
  O  O52  1  0.628447  0.639772  0.076056  1
  O  O53  1  0.875280  0.156781  0.438472  1
  O  O54  1  0.874467  0.361597  0.575861  1
  O  O55  1  0.659477  0.860595  0.960617  1
  O  O56  1  0.371680  0.339900  0.936704  1
  O  O57  1  0.127560  0.861673  0.575657  1
  O  O58  1  0.157970  0.640740  0.460004  1
  O  O59  1  0.374062  0.138689  0.076391  1
  O  O60  1  0.636417  0.758386  0.325908  1
  O  O61  1  0.871848  0.287766  0.159616  1
  O  O62  1  0.813345  0.231097  0.824688  1
  O  O63  1  0.635388  0.715513  0.660160  1
  O  O64  1  0.372190  0.213490  0.660250  1
  O  O65  1  0.131644  0.743181  0.819386  1
  O  O66  1  0.135428  0.784045  0.159705  1
  O  O67  1  0.317018  0.269171  0.324715  1
