# generated using pymatgen
data_ZnIr4PdO12
_symmetry_space_group_name_H-M   'P 1'
_cell_length_a   4.57640415
_cell_length_b   4.57640415
_cell_length_c   9.53333300
_cell_angle_alpha   90.00000000
_cell_angle_beta   90.00000000
_cell_angle_gamma   90.31372217
_symmetry_Int_Tables_number   1
_chemical_formula_structural   ZnIr4PdO12
_chemical_formula_sum   'Zn1 Ir4 Pd1 O12'
_cell_volume   199.65812787
_cell_formula_units_Z   1
loop_
 _symmetry_equiv_pos_site_id
 _symmetry_equiv_pos_as_xyz
  1  'x, y, z'
loop_
 _atom_site_type_symbol
 _atom_site_label
 _atom_site_symmetry_multiplicity
 _atom_site_fract_x
 _atom_site_fract_y
 _atom_site_fract_z
 _atom_site_occupancy
  Zn  Zn0  1  0.500000  0.500000  0.500000  1
  Ir  Ir1  1  0.500000  0.500000  0.831648  1
  Ir  Ir2  1  0.000000  0.000000  0.333659  1
  Ir  Ir3  1  0.500000  0.500000  0.168352  1
  Ir  Ir4  1  0.000000  0.000000  0.666341  1
  Pd  Pd5  1  0.000000  0.000000  0.000000  1
  O  O6  1  0.697241  0.697241  0.670688  1
  O  O7  1  0.302759  0.302759  0.670688  1
  O  O8  1  0.697241  0.697241  0.329312  1
  O  O9  1  0.197390  0.802610  0.170918  1
  O  O10  1  0.802610  0.197390  0.170918  1
  O  O11  1  0.802610  0.197390  0.829082  1
  O  O12  1  0.313436  0.313436  0.000000  1
  O  O13  1  0.183591  0.816409  0.500000  1
  O  O14  1  0.816409  0.183591  0.500000  1
  O  O15  1  0.686564  0.686564  0.000000  1
  O  O16  1  0.302759  0.302759  0.329312  1
  O  O17  1  0.197390  0.802610  0.829082  1
