# generated using pymatgen
data_Tb2ErHfMg2Rh3
_symmetry_space_group_name_H-M   'P 1'
_cell_length_a   7.23458600
_cell_length_b   7.34051994
_cell_length_c   4.16186200
_cell_angle_alpha   90.00000000
_cell_angle_beta   90.00000000
_cell_angle_gamma   119.52374159
_symmetry_Int_Tables_number   1
_chemical_formula_structural   Tb2ErHfMg2Rh3
_chemical_formula_sum   'Tb2 Er1 Hf1 Mg2 Rh3'
_cell_volume   192.31939916
_cell_formula_units_Z   1
loop_
 _symmetry_equiv_pos_site_id
 _symmetry_equiv_pos_as_xyz
  1  'x, y, z'
loop_
 _atom_site_type_symbol
 _atom_site_label
 _atom_site_symmetry_multiplicity
 _atom_site_fract_x
 _atom_site_fract_y
 _atom_site_fract_z
 _atom_site_occupancy
  Tb  Tb0  1  0.991231  0.577654  0.500000  1
  Tb  Tb1  1  0.413577  0.422346  0.500000  1
  Er  Er2  1  0.601256  0.000000  0.500000  1
  Hf  Hf3  1  0.249412  0.000000  0.000000  1
  Mg  Mg4  1  0.752776  0.753203  0.000000  1
  Mg  Mg5  1  0.999573  0.246797  0.000000  1
  Rh  Rh6  1  0.642863  0.315896  0.000000  1
  Rh  Rh7  1  0.326966  0.684104  0.000000  1
  Rh  Rh8  1  0.022346  0.000000  0.500000  1
