# generated using pymatgen
data_LiMnIrS4
_symmetry_space_group_name_H-M   'P 1'
_cell_length_a   7.07605104
_cell_length_b   7.07603534
_cell_length_c   6.94110200
_cell_angle_alpha   60.62698225
_cell_angle_beta   60.62556635
_cell_angle_gamma   61.68347122
_symmetry_Int_Tables_number   1
_chemical_formula_structural   LiMnIrS4
_chemical_formula_sum   'Li2 Mn2 Ir2 S8'
_cell_volume   251.11295577
_cell_formula_units_Z   2
loop_
 _symmetry_equiv_pos_site_id
 _symmetry_equiv_pos_as_xyz
  1  'x, y, z'
loop_
 _atom_site_type_symbol
 _atom_site_label
 _atom_site_symmetry_multiplicity
 _atom_site_fract_x
 _atom_site_fract_y
 _atom_site_fract_z
 _atom_site_occupancy
  Li  Li0  1  0.249159  0.249161  0.250838  1
  Li  Li1  1  0.000841  0.000839  0.999162  1
  Mn  Mn2  1  0.625000  0.625000  0.125000  1
  Mn  Mn3  1  0.625000  0.625000  0.625000  1
  Ir  Ir4  1  0.125000  0.625000  0.625000  1
  Ir  Ir5  1  0.625000  0.125000  0.625000  1
  S  S6  1  0.413416  0.858617  0.863990  1
  S  S7  1  0.861375  0.861376  0.415085  1
  S  S8  1  0.861368  0.861369  0.862165  1
  S  S9  1  0.836584  0.391383  0.386010  1
  S  S10  1  0.391383  0.836581  0.386010  1
  S  S11  1  0.388625  0.388624  0.834915  1
  S  S12  1  0.858617  0.413419  0.863990  1
  S  S13  1  0.388632  0.388631  0.387835  1
