# generated using pymatgen
data_SrTlBi2(Ir2O7)2
_symmetry_space_group_name_H-M   'P 1'
_cell_length_a   7.42156250
_cell_length_b   7.34727729
_cell_length_c   7.40909665
_cell_angle_alpha   59.33380338
_cell_angle_beta   59.94432488
_cell_angle_gamma   59.66497499
_symmetry_Int_Tables_number   1
_chemical_formula_structural   SrTlBi2(Ir2O7)2
_chemical_formula_sum   'Sr1 Tl1 Bi2 Ir4 O14'
_cell_volume   283.37175140
_cell_formula_units_Z   1
loop_
 _symmetry_equiv_pos_site_id
 _symmetry_equiv_pos_as_xyz
  1  'x, y, z'
loop_
 _atom_site_type_symbol
 _atom_site_label
 _atom_site_symmetry_multiplicity
 _atom_site_fract_x
 _atom_site_fract_y
 _atom_site_fract_z
 _atom_site_occupancy
  Sr  Sr0  1  0.125000  0.125000  0.625000  1
  Tl  Tl1  1  0.125000  0.625000  0.125000  1
  Bi  Bi2  1  0.625000  0.125000  0.125000  1
  Bi  Bi3  1  0.125000  0.125000  0.125000  1
  Ir  Ir4  1  0.125000  0.625000  0.625000  1
  Ir  Ir5  1  0.625000  0.125000  0.625000  1
  Ir  Ir6  1  0.625000  0.625000  0.125000  1
  Ir  Ir7  1  0.625000  0.625000  0.625000  1
  O  O8  1  0.703968  0.703383  0.294783  1
  O  O9  1  0.297913  0.296971  0.710839  1
  O  O10  1  0.694277  0.296971  0.710839  1
  O  O11  1  0.297866  0.703383  0.294783  1
  O  O12  1  0.301949  0.686492  0.709610  1
  O  O13  1  0.703293  0.297159  0.296256  1
  O  O14  1  0.546032  0.546617  0.955217  1
  O  O15  1  0.952087  0.953029  0.539161  1
  O  O16  1  0.555723  0.953029  0.539161  1
  O  O17  1  0.952134  0.546617  0.955217  1
  O  O18  1  0.948051  0.563508  0.540390  1
  O  O19  1  0.546707  0.952841  0.953744  1
  O  O20  1  0.255280  0.255550  0.233890  1
  O  O21  1  0.994720  0.994450  0.016110  1
