# generated using pymatgen
data_Hf3Zr3Zn22SiPt
_symmetry_space_group_name_H-M   'P 1'
_cell_length_a   8.74866125
_cell_length_b   8.75178958
_cell_length_c   8.75484201
_cell_angle_alpha   59.96483176
_cell_angle_beta   60.00028182
_cell_angle_gamma   60.03490582
_symmetry_Int_Tables_number   1
_chemical_formula_structural   Hf3Zr3Zn22SiPt
_chemical_formula_sum   'Hf3 Zr3 Zn22 Si1 Pt1'
_cell_volume   473.99255717
_cell_formula_units_Z   1
loop_
 _symmetry_equiv_pos_site_id
 _symmetry_equiv_pos_as_xyz
  1  'x, y, z'
loop_
 _atom_site_type_symbol
 _atom_site_label
 _atom_site_symmetry_multiplicity
 _atom_site_fract_x
 _atom_site_fract_y
 _atom_site_fract_z
 _atom_site_occupancy
  Hf  Hf0  1  0.711244  0.288756  0.288670  1
  Hf  Hf1  1  0.288670  0.711330  0.711244  1
  Hf  Hf2  1  0.288445  0.711555  0.288445  1
  Zr  Zr3  1  0.711567  0.288433  0.711567  1
  Zr  Zr4  1  0.288061  0.288130  0.711870  1
  Zr  Zr5  1  0.711870  0.711939  0.288061  1
  Zn  Zn6  1  0.122352  0.122348  0.123774  1
  Zn  Zn7  1  0.878057  0.876669  0.876563  1
  Zn  Zn8  1  0.123331  0.121943  0.631290  1
  Zn  Zn9  1  0.123774  0.631527  0.122352  1
  Zn  Zn10  1  0.877652  0.877648  0.368473  1
  Zn  Zn11  1  0.876563  0.368710  0.878057  1
  Zn  Zn12  1  0.631290  0.123437  0.123331  1
  Zn  Zn13  1  0.368473  0.876226  0.877652  1
  Zn  Zn14  1  0.499604  0.999946  0.000054  1
  Zn  Zn15  1  0.000054  0.500396  0.499604  1
  Zn  Zn16  1  0.999785  0.500215  0.999785  1
  Zn  Zn17  1  0.499785  0.000215  0.499785  1
  Zn  Zn18  1  0.000079  0.999921  0.499616  1
  Zn  Zn19  1  0.499616  0.500384  0.000079  1
  Zn  Zn20  1  0.338404  0.338489  0.337547  1
  Zn  Zn21  1  0.661733  0.662690  0.662571  1
  Zn  Zn22  1  0.337310  0.338267  0.986993  1
  Zn  Zn23  1  0.337547  0.985562  0.338404  1
  Zn  Zn24  1  0.661511  0.661596  0.014438  1
  Zn  Zn25  1  0.662571  0.013007  0.661733  1
  Zn  Zn26  1  0.986993  0.337429  0.337310  1
  Zn  Zn27  1  0.014438  0.662453  0.661511  1
  Si  Si28  1  0.499363  0.500637  0.499363  1
  Pt  Pt29  1  0.999857  0.000143  0.999857  1
