# generated using pymatgen
data_Nd6In8GePb
_symmetry_space_group_name_H-M   'P 1'
_cell_length_a   8.56118777
_cell_length_b   8.56118791
_cell_length_c   8.56118800
_cell_angle_alpha   119.69792641
_cell_angle_beta   119.69791754
_cell_angle_gamma   90.52401931
_symmetry_Int_Tables_number   1
_chemical_formula_structural   Nd6In8GePb
_chemical_formula_sum   'Nd6 In8 Ge1 Pb1'
_cell_volume   445.70329182
_cell_formula_units_Z   1
loop_
 _symmetry_equiv_pos_site_id
 _symmetry_equiv_pos_as_xyz
  1  'x, y, z'
loop_
 _atom_site_type_symbol
 _atom_site_label
 _atom_site_symmetry_multiplicity
 _atom_site_fract_x
 _atom_site_fract_y
 _atom_site_fract_z
 _atom_site_occupancy
  Nd  Nd0  1  0.738321  0.738321  0.000000  1
  Nd  Nd1  1  0.261679  0.261679  0.000000  1
  Nd  Nd2  1  0.646901  0.175204  0.822105  1
  Nd  Nd3  1  0.353099  0.824796  0.177895  1
  Nd  Nd4  1  0.175204  0.353099  0.528303  1
  Nd  Nd5  1  0.824796  0.646901  0.471697  1
  In  In6  1  0.319500  0.830503  0.789124  1
  In  In7  1  0.680500  0.169497  0.210876  1
  In  In8  1  0.041379  0.530375  0.210876  1
  In  In9  1  0.830503  0.041379  0.511004  1
  In  In10  1  0.469625  0.680500  0.511004  1
  In  In11  1  0.958621  0.469625  0.789124  1
  In  In12  1  0.169497  0.958621  0.488996  1
  In  In13  1  0.530375  0.319500  0.488996  1
  Ge  Ge14  1  0.500000  0.500000  0.000000  1
  Pb  Pb15  1  0.000000  0.000000  0.000000  1
