# generated using pymatgen
data_Ho2Al3ZnAu2
_symmetry_space_group_name_H-M   'P 1'
_cell_length_a   5.58950348
_cell_length_b   5.58950278
_cell_length_c   6.80110925
_cell_angle_alpha   90.08617986
_cell_angle_beta   89.91381980
_cell_angle_gamma   133.19236534
_symmetry_Int_Tables_number   1
_chemical_formula_structural   Ho2Al3ZnAu2
_chemical_formula_sum   'Ho2 Al3 Zn1 Au2'
_cell_volume   154.91331562
_cell_formula_units_Z   1
loop_
 _symmetry_equiv_pos_site_id
 _symmetry_equiv_pos_as_xyz
  1  'x, y, z'
loop_
 _atom_site_type_symbol
 _atom_site_label
 _atom_site_symmetry_multiplicity
 _atom_site_fract_x
 _atom_site_fract_y
 _atom_site_fract_z
 _atom_site_occupancy
  Ho  Ho0  1  0.581416  0.418586  0.248697  1
  Ho  Ho1  1  0.416814  0.583188  0.755249  1
  Al  Al2  1  0.869573  0.130428  0.441785  1
  Al  Al3  1  0.128011  0.871990  0.553430  1
  Al  Al4  1  0.131235  0.868766  0.948179  1
  Zn  Zn5  1  0.877042  0.122959  0.051819  1
  Au  Au6  1  0.291651  0.708350  0.254211  1
  Au  Au7  1  0.704264  0.295737  0.746631  1
