# generated using pymatgen
data_Ce3Dy(Si5Os3)2
_symmetry_space_group_name_H-M   'P 1'
_cell_length_a   8.18202284
_cell_length_b   8.18022688
_cell_length_c   5.83884202
_cell_angle_alpha   70.55063920
_cell_angle_beta   70.42347965
_cell_angle_gamma   93.65349775
_symmetry_Int_Tables_number   1
_chemical_formula_structural   Ce3Dy(Si5Os3)2
_chemical_formula_sum   'Ce3 Dy1 Si10 Os6'
_cell_volume   340.37180129
_cell_formula_units_Z   1
loop_
 _symmetry_equiv_pos_site_id
 _symmetry_equiv_pos_as_xyz
  1  'x, y, z'
loop_
 _atom_site_type_symbol
 _atom_site_label
 _atom_site_symmetry_multiplicity
 _atom_site_fract_x
 _atom_site_fract_y
 _atom_site_fract_z
 _atom_site_occupancy
  Ce  Ce0  1  0.867665  0.600951  0.757775  1
  Ce  Ce1  1  0.399227  0.132937  0.742182  1
  Ce  Ce2  1  0.132390  0.399135  0.241764  1
  Dy  Dy3  1  0.600840  0.867271  0.257879  1
  Si  Si4  1  0.062189  0.262403  0.834690  1
  Si  Si5  1  0.738307  0.936803  0.664292  1
  Si  Si6  1  0.935005  0.739465  0.165120  1
  Si  Si7  1  0.260999  0.061209  0.335884  1
  Si  Si8  1  0.206081  0.791865  0.754406  1
  Si  Si9  1  0.791655  0.205290  0.248305  1
  Si  Si10  1  0.513665  0.487836  0.750672  1
  Si  Si11  1  0.488463  0.515654  0.246994  1
  Si  Si12  1  0.773943  0.224766  0.753153  1
  Si  Si13  1  0.227554  0.772987  0.248475  1
  Os  Os14  1  0.256486  0.543959  0.633678  1
  Os  Os15  1  0.458309  0.745039  0.865528  1
  Os  Os16  1  0.745204  0.456059  0.367063  1
  Os  Os17  1  0.540904  0.255034  0.134956  1
  Os  Os18  1  0.003059  0.997814  0.748784  1
  Os  Os19  1  0.998054  0.003527  0.248401  1
