# generated using pymatgen
data_Pu2MnFeB8
_symmetry_space_group_name_H-M   'P 1'
_cell_length_a   5.92025103
_cell_length_b   11.46625106
_cell_length_c   3.36883800
_cell_angle_alpha   90.00000000
_cell_angle_beta   90.00000000
_cell_angle_gamma   89.98782635
_symmetry_Int_Tables_number   1
_chemical_formula_structural   Pu2MnFeB8
_chemical_formula_sum   'Pu4 Mn2 Fe2 B16'
_cell_volume   228.68711018
_cell_formula_units_Z   2
loop_
 _symmetry_equiv_pos_site_id
 _symmetry_equiv_pos_as_xyz
  1  'x, y, z'
loop_
 _atom_site_type_symbol
 _atom_site_label
 _atom_site_symmetry_multiplicity
 _atom_site_fract_x
 _atom_site_fract_y
 _atom_site_fract_z
 _atom_site_occupancy
  Pu  Pu0  1  0.625759  0.348918  0.000000  1
  Pu  Pu1  1  0.374241  0.651082  0.000000  1
  Pu  Pu2  1  0.126331  0.149981  0.000000  1
  Pu  Pu3  1  0.873669  0.850019  0.000000  1
  Mn  Mn4  1  0.130389  0.412937  0.000000  1
  Mn  Mn5  1  0.869611  0.587063  0.000000  1
  Fe  Fe6  1  0.631257  0.087305  0.000000  1
  Fe  Fe7  1  0.368743  0.912695  0.000000  1
  B  B8  1  0.780727  0.184154  0.500000  1
  B  B9  1  0.219273  0.815846  0.500000  1
  B  B10  1  0.281657  0.315343  0.500000  1
  B  B11  1  0.718343  0.684657  0.500000  1
  B  B12  1  0.861418  0.032930  0.500000  1
  B  B13  1  0.138582  0.967070  0.500000  1
  B  B14  1  0.362068  0.466945  0.500000  1
  B  B15  1  0.637932  0.533055  0.500000  1
  B  B16  1  0.887419  0.454029  0.500000  1
  B  B17  1  0.112581  0.545971  0.500000  1
  B  B18  1  0.388035  0.045985  0.500000  1
  B  B19  1  0.611965  0.954015  0.500000  1
  B  B20  1  0.974979  0.309470  0.500000  1
  B  B21  1  0.025021  0.690530  0.500000  1
  B  B22  1  0.475840  0.190177  0.500000  1
  B  B23  1  0.524160  0.809823  0.500000  1
