# generated using pymatgen
data_Dy2P6Rh12Pb
_symmetry_space_group_name_H-M   'P 1'
_cell_length_a   9.81885300
_cell_length_b   9.81885227
_cell_length_c   3.88579200
_cell_angle_alpha   90.00000000
_cell_angle_beta   90.00000000
_cell_angle_gamma   120.00000584
_symmetry_Int_Tables_number   1
_chemical_formula_structural   Dy2P6Rh12Pb
_chemical_formula_sum   'Dy2 P6 Rh12 Pb1'
_cell_volume   324.43794353
_cell_formula_units_Z   1
loop_
 _symmetry_equiv_pos_site_id
 _symmetry_equiv_pos_as_xyz
  1  'x, y, z'
loop_
 _atom_site_type_symbol
 _atom_site_label
 _atom_site_symmetry_multiplicity
 _atom_site_fract_x
 _atom_site_fract_y
 _atom_site_fract_z
 _atom_site_occupancy
  Dy  Dy0  1  0.333333  0.666667  0.753472  1
  Dy  Dy1  1  0.666667  0.333333  0.246528  1
  P  P2  1  0.406832  0.288461  0.744487  1
  P  P3  1  0.711539  0.118371  0.744487  1
  P  P4  1  0.881629  0.593168  0.744487  1
  P  P5  1  0.593168  0.711539  0.255513  1
  P  P6  1  0.288461  0.881629  0.255513  1
  P  P7  1  0.118371  0.406832  0.255513  1
  Rh  Rh8  1  0.454352  0.067321  0.746538  1
  Rh  Rh9  1  0.932679  0.387031  0.746538  1
  Rh  Rh10  1  0.612969  0.545648  0.746538  1
  Rh  Rh11  1  0.545648  0.932679  0.253462  1
  Rh  Rh12  1  0.067321  0.612969  0.253462  1
  Rh  Rh13  1  0.387031  0.454352  0.253462  1
  Rh  Rh14  1  0.164419  0.294029  0.763050  1
  Rh  Rh15  1  0.705971  0.870391  0.763050  1
  Rh  Rh16  1  0.129609  0.835581  0.763050  1
  Rh  Rh17  1  0.835581  0.705971  0.236950  1
  Rh  Rh18  1  0.294029  0.129609  0.236950  1
  Rh  Rh19  1  0.870391  0.164419  0.236950  1
  Pb  Pb20  1  0.000000  0.000000  0.500000  1
