# generated using pymatgen
data_Tb7Np(Si4W3)4
_symmetry_space_group_name_H-M   'P 1'
_cell_length_a   6.79454118
_cell_length_b   6.95178147
_cell_length_c   12.97285946
_cell_angle_alpha   90.01531058
_cell_angle_beta   90.04660293
_cell_angle_gamma   90.19482476
_symmetry_Int_Tables_number   1
_chemical_formula_structural   Tb7Np(Si4W3)4
_chemical_formula_sum   'Tb7 Np1 Si16 W12'
_cell_volume   612.75842292
_cell_formula_units_Z   1
loop_
 _symmetry_equiv_pos_site_id
 _symmetry_equiv_pos_as_xyz
  1  'x, y, z'
loop_
 _atom_site_type_symbol
 _atom_site_label
 _atom_site_symmetry_multiplicity
 _atom_site_fract_x
 _atom_site_fract_y
 _atom_site_fract_z
 _atom_site_occupancy
  Tb  Tb0  1  0.497265  0.668122  0.592723  1
  Tb  Tb1  1  0.994965  0.833959  0.906680  1
  Tb  Tb2  1  0.503003  0.333714  0.093784  1
  Tb  Tb3  1  0.005167  0.165055  0.407890  1
  Tb  Tb4  1  0.502436  0.331702  0.406383  1
  Tb  Tb5  1  0.002612  0.167744  0.093898  1
  Tb  Tb6  1  0.496068  0.667154  0.906307  1
  Np  Np7  1  0.992564  0.829350  0.598957  1
  Si  Si8  1  0.662251  0.956695  0.454892  1
  Si  Si9  1  0.160316  0.543036  0.045830  1
  Si  Si10  1  0.339152  0.043099  0.952763  1
  Si  Si11  1  0.840322  0.456492  0.546141  1
  Si  Si12  1  0.334423  0.041162  0.545073  1
  Si  Si13  1  0.839829  0.457483  0.953366  1
  Si  Si14  1  0.659333  0.957709  0.045951  1
  Si  Si15  1  0.162147  0.545841  0.456389  1
  Si  Si16  1  0.464015  0.369037  0.747953  1
  Si  Si17  1  0.962839  0.128453  0.748847  1
  Si  Si18  1  0.537306  0.629810  0.250002  1
  Si  Si19  1  0.037724  0.870347  0.249721  1
  Si  Si20  1  0.696904  0.868822  0.750281  1
  Si  Si21  1  0.197234  0.633039  0.749230  1
  Si  Si22  1  0.303149  0.131695  0.249973  1
  Si  Si23  1  0.803281  0.368446  0.251045  1
  W  W24  1  0.669662  0.157957  0.625363  1
  W  W25  1  0.165701  0.335073  0.873418  1
  W  W26  1  0.332861  0.835493  0.124978  1
  W  W27  1  0.835695  0.667900  0.376960  1
  W  W28  1  0.335654  0.835644  0.373807  1
  W  W29  1  0.833917  0.665788  0.125562  1
  W  W30  1  0.665982  0.165697  0.874006  1
  W  W31  1  0.169001  0.337678  0.625366  1
  W  W32  1  0.836593  0.501583  0.747251  1
  W  W33  1  0.331197  0.999098  0.747098  1
  W  W34  1  0.163791  0.503337  0.251544  1
  W  W35  1  0.665642  0.996785  0.250566  1
