# generated using pymatgen
data_K3Ir2(O2F3)2
_symmetry_space_group_name_H-M   'P 1'
_cell_length_a   8.31317034
_cell_length_b   8.31317027
_cell_length_c   8.72153314
_cell_angle_alpha   71.69081373
_cell_angle_beta   71.69081118
_cell_angle_gamma   90.64584202
_symmetry_Int_Tables_number   1
_chemical_formula_structural   K3Ir2(O2F3)2
_chemical_formula_sum   'K6 Ir4 O8 F12'
_cell_volume   539.19474801
_cell_formula_units_Z   2
loop_
 _symmetry_equiv_pos_site_id
 _symmetry_equiv_pos_as_xyz
  1  'x, y, z'
loop_
 _atom_site_type_symbol
 _atom_site_label
 _atom_site_symmetry_multiplicity
 _atom_site_fract_x
 _atom_site_fract_y
 _atom_site_fract_z
 _atom_site_occupancy
  K  K0  1  0.957400  0.745487  0.995837  1
  K  K1  1  0.254513  0.042600  0.504163  1
  K  K2  1  0.042600  0.254513  0.004163  1
  K  K3  1  0.745487  0.957400  0.495837  1
  K  K4  1  0.500000  0.500000  0.000000  1
  K  K5  1  0.500000  0.500000  0.500000  1
  Ir  Ir6  1  0.029183  0.425706  0.359330  1
  Ir  Ir7  1  0.574294  0.970817  0.140670  1
  Ir  Ir8  1  0.970817  0.574294  0.640670  1
  Ir  Ir9  1  0.425706  0.029183  0.859330  1
  O  O10  1  0.947407  0.359438  0.603912  1
  O  O11  1  0.640562  0.052593  0.896088  1
  O  O12  1  0.052593  0.640562  0.396088  1
  O  O13  1  0.359438  0.947407  0.103912  1
  O  O14  1  0.833260  0.443532  0.313771  1
  O  O15  1  0.556468  0.166740  0.186229  1
  O  O16  1  0.166740  0.556468  0.686229  1
  O  O17  1  0.443532  0.833260  0.813771  1
  F  F18  1  0.155575  0.506210  0.102790  1
  F  F19  1  0.493790  0.844425  0.397210  1
  F  F20  1  0.844425  0.493790  0.897210  1
  F  F21  1  0.506210  0.155575  0.602790  1
  F  F22  1  0.028822  0.186673  0.342509  1
  F  F23  1  0.813327  0.971178  0.157491  1
  F  F24  1  0.971178  0.813327  0.657491  1
  F  F25  1  0.186673  0.028822  0.842509  1
  F  F26  1  0.731399  0.611122  0.634597  1
  F  F27  1  0.388878  0.268601  0.865403  1
  F  F28  1  0.268601  0.388878  0.365403  1
  F  F29  1  0.611122  0.731399  0.134597  1
