# generated using pymatgen
data_Ca20InAg8Hg3
_symmetry_space_group_name_H-M   'P 1'
_cell_length_a   8.15777900
_cell_length_b   8.15777900
_cell_length_c   14.81165300
_cell_angle_alpha   90.00000000
_cell_angle_beta   90.00000000
_cell_angle_gamma   90.00000000
_symmetry_Int_Tables_number   1
_chemical_formula_structural   Ca20InAg8Hg3
_chemical_formula_sum   'Ca20 In1 Ag8 Hg3'
_cell_volume   985.70600122
_cell_formula_units_Z   1
loop_
 _symmetry_equiv_pos_site_id
 _symmetry_equiv_pos_as_xyz
  1  'x, y, z'
loop_
 _atom_site_type_symbol
 _atom_site_label
 _atom_site_symmetry_multiplicity
 _atom_site_fract_x
 _atom_site_fract_y
 _atom_site_fract_z
 _atom_site_occupancy
  Ca  Ca0  1  0.668998  0.165691  0.105498  1
  Ca  Ca1  1  0.168118  0.667242  0.607200  1
  Ca  Ca2  1  0.331002  0.834309  0.105498  1
  Ca  Ca3  1  0.831882  0.332758  0.607200  1
  Ca  Ca4  1  0.834309  0.668998  0.105498  1
  Ca  Ca5  1  0.332758  0.168118  0.607200  1
  Ca  Ca6  1  0.165691  0.331002  0.105498  1
  Ca  Ca7  1  0.667242  0.831882  0.607200  1
  Ca  Ca8  1  0.834309  0.331002  0.894502  1
  Ca  Ca9  1  0.332758  0.831882  0.392800  1
  Ca  Ca10  1  0.165691  0.668998  0.894502  1
  Ca  Ca11  1  0.667242  0.168118  0.392800  1
  Ca  Ca12  1  0.668998  0.834309  0.894502  1
  Ca  Ca13  1  0.168118  0.332758  0.392800  1
  Ca  Ca14  1  0.331002  0.165691  0.894502  1
  Ca  Ca15  1  0.831882  0.667242  0.392800  1
  Ca  Ca16  1  0.500000  0.500000  0.754088  1
  Ca  Ca17  1  0.000000  0.000000  0.249965  1
  Ca  Ca18  1  0.000000  0.000000  0.750035  1
  Ca  Ca19  1  0.500000  0.500000  0.245912  1
  In  In20  1  0.000000  0.000000  0.000000  1
  Ag  Ag21  1  0.625157  0.126369  0.750905  1
  Ag  Ag22  1  0.126369  0.625157  0.249095  1
  Ag  Ag23  1  0.873631  0.374843  0.249095  1
  Ag  Ag24  1  0.374843  0.873631  0.750905  1
  Ag  Ag25  1  0.873631  0.625157  0.750905  1
  Ag  Ag26  1  0.374843  0.126369  0.249095  1
  Ag  Ag27  1  0.126369  0.374843  0.750905  1
  Ag  Ag28  1  0.625157  0.873631  0.249095  1
  Hg  Hg29  1  0.500000  0.500000  0.500000  1
  Hg  Hg30  1  0.500000  0.500000  0.000000  1
  Hg  Hg31  1  0.000000  0.000000  0.500000  1
