# generated using pymatgen
data_Yb4Sn5AsRh7
_symmetry_space_group_name_H-M   'P 1'
_cell_length_a   7.52451021
_cell_length_b   7.52451054
_cell_length_c   7.52450970
_cell_angle_alpha   109.61212317
_cell_angle_beta   109.18977568
_cell_angle_gamma   109.61212591
_symmetry_Int_Tables_number   1
_chemical_formula_structural   Yb4Sn5AsRh7
_chemical_formula_sum   'Yb4 Sn5 As1 Rh7'
_cell_volume   327.94798619
_cell_formula_units_Z   1
loop_
 _symmetry_equiv_pos_site_id
 _symmetry_equiv_pos_as_xyz
  1  'x, y, z'
loop_
 _atom_site_type_symbol
 _atom_site_label
 _atom_site_symmetry_multiplicity
 _atom_site_fract_x
 _atom_site_fract_y
 _atom_site_fract_z
 _atom_site_occupancy
  Yb  Yb0  1  0.483554  0.475632  0.483554  1
  Yb  Yb1  1  0.007922  0.524368  0.007922  1
  Yb  Yb2  1  0.483554  0.000000  0.007922  1
  Yb  Yb3  1  0.007922  0.000000  0.483554  1
  Sn  Sn4  1  0.698789  0.000000  0.698789  1
  Sn  Sn5  1  0.673596  0.682847  0.990750  1
  Sn  Sn6  1  0.307903  0.317153  0.990750  1
  Sn  Sn7  1  0.990750  0.682847  0.673596  1
  Sn  Sn8  1  0.990750  0.317153  0.307903  1
  As  As9  1  0.337715  0.000000  0.337715  1
  Rh  Rh10  1  0.501471  0.754924  0.256395  1
  Rh  Rh11  1  0.746547  0.245076  0.501471  1
  Rh  Rh12  1  0.256395  0.754924  0.501471  1
  Rh  Rh13  1  0.242607  0.500000  0.742607  1
  Rh  Rh14  1  0.026445  0.000000  0.026445  1
  Rh  Rh15  1  0.501471  0.245076  0.746547  1
  Rh  Rh16  1  0.742607  0.500000  0.242607  1
