# generated using pymatgen
data_VS27
_symmetry_space_group_name_H-M   'P 1'
_cell_length_a   14.93476356
_cell_length_b   14.93476368
_cell_length_c   14.93476303
_cell_angle_alpha   118.81045718
_cell_angle_beta   118.81045997
_cell_angle_gamma   118.81045959
_symmetry_Int_Tables_number   1
_chemical_formula_structural   VS27
_chemical_formula_sum   'V1 S27'
_cell_volume   938.87688552
_cell_formula_units_Z   1
loop_
 _symmetry_equiv_pos_site_id
 _symmetry_equiv_pos_as_xyz
  1  'x, y, z'
loop_
 _atom_site_type_symbol
 _atom_site_label
 _atom_site_symmetry_multiplicity
 _atom_site_fract_x
 _atom_site_fract_y
 _atom_site_fract_z
 _atom_site_occupancy
  V  V0  1  0.816292  0.816292  0.816292  1
  S  S1  1  0.804910  0.524898  0.524898  1
  S  S2  1  0.524898  0.524898  0.804910  1
  S  S3  1  0.524898  0.804910  0.524898  1
  S  S4  1  0.240389  0.371439  0.629035  1
  S  S5  1  0.358928  0.959780  0.358928  1
  S  S6  1  0.358928  0.358928  0.959780  1
  S  S7  1  0.959780  0.358928  0.358928  1
  S  S8  1  0.122676  0.737013  0.253042  1
  S  S9  1  0.253042  0.122676  0.737013  1
  S  S10  1  0.737013  0.253042  0.122676  1
  S  S11  1  0.737013  0.122676  0.253042  1
  S  S12  1  0.253042  0.737013  0.122676  1
  S  S13  1  0.122676  0.253042  0.737013  1
  S  S14  1  0.350790  0.883628  0.535486  1
  S  S15  1  0.535486  0.350790  0.883628  1
  S  S16  1  0.883628  0.535486  0.350790  1
  S  S17  1  0.883628  0.350790  0.535486  1
  S  S18  1  0.535486  0.883628  0.350790  1
  S  S19  1  0.350790  0.535486  0.883628  1
  S  S20  1  0.240389  0.629035  0.371439  1
  S  S21  1  0.371439  0.240389  0.629035  1
  S  S22  1  0.629035  0.371439  0.240389  1
  S  S23  1  0.629035  0.240389  0.371439  1
  S  S24  1  0.371439  0.629035  0.240389  1
  S  S25  1  0.890484  0.019591  0.019591  1
  S  S26  1  0.019591  0.019591  0.890484  1
  S  S27  1  0.019591  0.890484  0.019591  1
