# generated using pymatgen
data_Tb7HoHf11Si16Os
_symmetry_space_group_name_H-M   'P 1'
_cell_length_a   7.24801299
_cell_length_b   7.24814239
_cell_length_c   13.26118728
_cell_angle_alpha   89.88115602
_cell_angle_beta   90.15100466
_cell_angle_gamma   90.00388665
_symmetry_Int_Tables_number   1
_chemical_formula_structural   Tb7HoHf11Si16Os
_chemical_formula_sum   'Tb7 Ho1 Hf11 Si16 Os1'
_cell_volume   696.66765065
_cell_formula_units_Z   1
loop_
 _symmetry_equiv_pos_site_id
 _symmetry_equiv_pos_as_xyz
  1  'x, y, z'
loop_
 _atom_site_type_symbol
 _atom_site_label
 _atom_site_symmetry_multiplicity
 _atom_site_fract_x
 _atom_site_fract_y
 _atom_site_fract_z
 _atom_site_occupancy
  Tb  Tb0  1  0.005184  0.654730  0.717368  1
  Tb  Tb1  1  0.155801  0.494541  0.465090  1
  Tb  Tb2  1  0.501928  0.846527  0.032710  1
  Tb  Tb3  1  0.846567  0.501849  0.967449  1
  Tb  Tb4  1  0.494562  0.155887  0.534724  1
  Tb  Tb5  1  0.343605  0.998709  0.788243  1
  Tb  Tb6  1  0.654901  0.005291  0.282608  1
  Ho  Ho7  1  0.999006  0.343811  0.211654  1
  Hf  Hf8  1  0.824833  0.824752  0.499936  1
  Hf  Hf9  1  0.324134  0.674596  0.247860  1
  Hf  Hf10  1  0.674855  0.324376  0.752112  1
  Hf  Hf11  1  0.146922  0.997800  0.371817  1
  Hf  Hf12  1  0.852972  0.004417  0.878539  1
  Hf  Hf13  1  0.503146  0.647270  0.625317  1
  Hf  Hf14  1  0.351423  0.496404  0.877274  1
  Hf  Hf15  1  0.496476  0.351488  0.122838  1
  Hf  Hf16  1  0.647399  0.503010  0.374548  1
  Hf  Hf17  1  0.997659  0.147120  0.628014  1
  Hf  Hf18  1  0.004367  0.853098  0.121569  1
  Si  Si19  1  0.359989  0.295402  0.315088  1
  Si  Si20  1  0.638923  0.705010  0.818255  1
  Si  Si21  1  0.205544  0.861697  0.566882  1
  Si  Si22  1  0.136444  0.794404  0.931225  1
  Si  Si23  1  0.794863  0.136903  0.069052  1
  Si  Si24  1  0.861710  0.205620  0.433021  1
  Si  Si25  1  0.295302  0.360493  0.684796  1
  Si  Si26  1  0.705320  0.638631  0.181737  1
  Si  Si27  1  0.292387  0.054583  0.180143  1
  Si  Si28  1  0.704122  0.950556  0.686126  1
  Si  Si29  1  0.449375  0.796186  0.434786  1
  Si  Si30  1  0.206222  0.547324  0.064630  1
  Si  Si31  1  0.547783  0.206579  0.935581  1
  Si  Si32  1  0.796195  0.449383  0.565200  1
  Si  Si33  1  0.054289  0.292678  0.819841  1
  Si  Si34  1  0.950663  0.703617  0.313722  1
  Os  Os35  1  0.175133  0.175264  0.000246  1
