# generated using pymatgen
data_Er3Hf(Al3Rh)6
_symmetry_space_group_name_H-M   'P 1'
_cell_length_a   7.52651389
_cell_length_b   7.51225643
_cell_length_c   9.37786400
_cell_angle_alpha   90.00000000
_cell_angle_beta   90.00000000
_cell_angle_gamma   119.48249544
_symmetry_Int_Tables_number   1
_chemical_formula_structural   Er3Hf(Al3Rh)6
_chemical_formula_sum   'Er3 Hf1 Al18 Rh6'
_cell_volume   461.57259806
_cell_formula_units_Z   1
loop_
 _symmetry_equiv_pos_site_id
 _symmetry_equiv_pos_as_xyz
  1  'x, y, z'
loop_
 _atom_site_type_symbol
 _atom_site_label
 _atom_site_symmetry_multiplicity
 _atom_site_fract_x
 _atom_site_fract_y
 _atom_site_fract_z
 _atom_site_occupancy
  Er  Er0  1  0.006971  0.327267  0.250000  1
  Er  Er1  1  0.672269  0.995540  0.750000  1
  Er  Er2  1  0.328077  0.006914  0.250000  1
  Hf  Hf3  1  0.996012  0.672596  0.750000  1
  Al  Al4  1  0.124839  0.122465  0.750000  1
  Al  Al5  1  0.871203  0.869948  0.250000  1
  Al  Al6  1  0.999544  0.338659  0.580238  1
  Al  Al7  1  0.999876  0.664496  0.427390  1
  Al  Al8  1  0.999876  0.664496  0.072610  1
  Al  Al9  1  0.332529  0.997187  0.919653  1
  Al  Al10  1  0.999544  0.338659  0.919762  1
  Al  Al11  1  0.664239  0.998844  0.075982  1
  Al  Al12  1  0.664239  0.998844  0.424018  1
  Al  Al13  1  0.332529  0.997187  0.580347  1
  Al  Al14  1  0.333553  0.333506  0.048108  1
  Al  Al15  1  0.669987  0.667698  0.942779  1
  Al  Al16  1  0.669987  0.667698  0.557221  1
  Al  Al17  1  0.333553  0.333506  0.451892  1
  Al  Al18  1  0.335870  0.551897  0.750000  1
  Al  Al19  1  0.660458  0.449905  0.250000  1
  Al  Al20  1  0.556851  0.344423  0.750000  1
  Al  Al21  1  0.448759  0.658510  0.250000  1
  Rh  Rh22  1  0.672842  0.328068  0.501416  1
  Rh  Rh23  1  0.327704  0.672923  0.502059  1
  Rh  Rh24  1  0.327704  0.672923  0.997941  1
  Rh  Rh25  1  0.672842  0.328068  0.998584  1
  Rh  Rh26  1  0.999072  0.998886  0.501477  1
  Rh  Rh27  1  0.999072  0.998886  0.998523  1
