# generated using pymatgen
data_YbNb6VSe12
_symmetry_space_group_name_H-M   'P 1'
_cell_length_a   6.07078900
_cell_length_b   6.07079005
_cell_length_c   13.87309400
_cell_angle_alpha   90.00000000
_cell_angle_beta   90.00000000
_cell_angle_gamma   119.99998881
_symmetry_Int_Tables_number   1
_chemical_formula_structural   YbNb6VSe12
_chemical_formula_sum   'Yb1 Nb6 V1 Se12'
_cell_volume   442.78649052
_cell_formula_units_Z   1
loop_
 _symmetry_equiv_pos_site_id
 _symmetry_equiv_pos_as_xyz
  1  'x, y, z'
loop_
 _atom_site_type_symbol
 _atom_site_label
 _atom_site_symmetry_multiplicity
 _atom_site_fract_x
 _atom_site_fract_y
 _atom_site_fract_z
 _atom_site_occupancy
  Yb  Yb0  1  0.333333  0.666667  0.250000  1
  Nb  Nb1  1  0.000000  0.000000  0.519352  1
  Nb  Nb2  1  0.000000  0.000000  0.980648  1
  Nb  Nb3  1  0.333333  0.666667  0.981113  1
  Nb  Nb4  1  0.666667  0.333333  0.980900  1
  Nb  Nb5  1  0.666667  0.333333  0.519100  1
  Nb  Nb6  1  0.333333  0.666667  0.518887  1
  V  V7  1  0.666667  0.333333  0.750000  1
  Se  Se8  1  0.332876  0.329221  0.397748  1
  Se  Se9  1  0.670779  0.003654  0.397748  1
  Se  Se10  1  0.996346  0.667124  0.397748  1
  Se  Se11  1  0.331347  0.333578  0.639315  1
  Se  Se12  1  0.002231  0.668653  0.639315  1
  Se  Se13  1  0.666422  0.997769  0.639315  1
  Se  Se14  1  0.666422  0.668653  0.860685  1
  Se  Se15  1  0.331347  0.997769  0.860685  1
  Se  Se16  1  0.002231  0.333578  0.860685  1
  Se  Se17  1  0.670779  0.667124  0.102252  1
  Se  Se18  1  0.996346  0.329221  0.102252  1
  Se  Se19  1  0.332876  0.003654  0.102252  1
