# generated using pymatgen
data_TmCd3P6N13
_symmetry_space_group_name_H-M   'P 1'
_cell_length_a   7.27738592
_cell_length_b   7.30649251
_cell_length_c   7.30649324
_cell_angle_alpha   109.55177693
_cell_angle_beta   109.39055035
_cell_angle_gamma   109.39054254
_symmetry_Int_Tables_number   1
_chemical_formula_structural   TmCd3P6N13
_chemical_formula_sum   'Tm1 Cd3 P6 N13'
_cell_volume   299.36626465
_cell_formula_units_Z   1
loop_
 _symmetry_equiv_pos_site_id
 _symmetry_equiv_pos_as_xyz
  1  'x, y, z'
loop_
 _atom_site_type_symbol
 _atom_site_label
 _atom_site_symmetry_multiplicity
 _atom_site_fract_x
 _atom_site_fract_y
 _atom_site_fract_z
 _atom_site_occupancy
  Tm  Tm0  1  0.683353  0.000000  0.000000  1
  Cd  Cd1  1  0.001393  0.000000  0.708330  1
  Cd  Cd2  1  0.001393  0.708330  0.000000  1
  Cd  Cd3  1  0.293063  0.291670  0.291670  1
  P  P4  1  0.249518  0.748908  0.497552  1
  P  P5  1  0.751967  0.251356  0.502448  1
  P  P6  1  0.751967  0.502448  0.251356  1
  P  P7  1  0.249518  0.497552  0.748908  1
  P  P8  1  0.500611  0.748644  0.251092  1
  P  P9  1  0.500611  0.251092  0.748644  1
  N  N10  1  0.982224  0.000000  0.000000  1
  N  N11  1  0.718275  0.283008  0.283008  1
  N  N12  1  0.279778  0.713847  0.278652  1
  N  N13  1  0.301915  0.576921  0.576921  1
  N  N14  1  0.565931  0.564805  0.286153  1
  N  N15  1  0.435267  0.716992  0.000000  1
  N  N16  1  0.001126  0.721348  0.435195  1
  N  N17  1  0.565931  0.286153  0.564805  1
  N  N18  1  0.724994  0.000000  0.423079  1
  N  N19  1  0.435267  0.000000  0.716992  1
  N  N20  1  0.724994  0.423079  0.000000  1
  N  N21  1  0.279778  0.278652  0.713847  1
  N  N22  1  0.001126  0.435195  0.721348  1
