# generated using pymatgen
data_TmLu11GaCo4Rh
_symmetry_space_group_name_H-M   'P 1'
_cell_length_a   8.06386304
_cell_length_b   8.05983345
_cell_length_c   8.05983316
_cell_angle_alpha   111.04536442
_cell_angle_beta   111.00442823
_cell_angle_gamma   106.38752268
_symmetry_Int_Tables_number   1
_chemical_formula_structural   TmLu11GaCo4Rh
_chemical_formula_sum   'Tm1 Lu11 Ga1 Co4 Rh1'
_cell_volume   402.47946122
_cell_formula_units_Z   1
loop_
 _symmetry_equiv_pos_site_id
 _symmetry_equiv_pos_as_xyz
  1  'x, y, z'
loop_
 _atom_site_type_symbol
 _atom_site_label
 _atom_site_symmetry_multiplicity
 _atom_site_fract_x
 _atom_site_fract_y
 _atom_site_fract_z
 _atom_site_occupancy
  Tm  Tm0  1  0.416895  0.723211  0.693684  1
  Lu  Lu1  1  0.581999  0.276597  0.305401  1
  Lu  Lu2  1  0.185855  0.213790  0.400051  1
  Lu  Lu3  1  0.185855  0.785804  0.972066  1
  Lu  Lu4  1  0.684192  0.486783  0.803267  1
  Lu  Lu5  1  0.684192  0.880926  0.197410  1
  Lu  Lu6  1  0.970778  0.277055  0.693724  1
  Lu  Lu7  1  0.028545  0.723341  0.305202  1
  Lu  Lu8  1  0.315616  0.119499  0.802956  1
  Lu  Lu9  1  0.315616  0.512661  0.196117  1
  Lu  Lu10  1  0.814618  0.215083  0.029444  1
  Lu  Lu11  1  0.814618  0.785173  0.599535  1
  Ga  Ga12  1  0.500541  0.000630  0.499911  1
  Co  Co13  1  0.887051  0.886080  0.000971  1
  Co  Co14  1  0.374163  0.499629  0.874534  1
  Co  Co15  1  0.626974  0.500138  0.126836  1
  Co  Co16  1  0.114251  0.113991  0.000260  1
  Rh  Rh17  1  0.998241  0.499609  0.498632  1
