# generated using pymatgen
data_Lu12GaNi4Bi
_symmetry_space_group_name_H-M   'P 1'
_cell_length_a   8.21553394
_cell_length_b   8.21505280
_cell_length_c   8.21553626
_cell_angle_alpha   112.29705551
_cell_angle_beta   110.44002299
_cell_angle_gamma   105.74776658
_symmetry_Int_Tables_number   1
_chemical_formula_structural   Lu12GaNi4Bi
_chemical_formula_sum   'Lu12 Ga1 Ni4 Bi1'
_cell_volume   425.36183215
_cell_formula_units_Z   1
loop_
 _symmetry_equiv_pos_site_id
 _symmetry_equiv_pos_as_xyz
  1  'x, y, z'
loop_
 _atom_site_type_symbol
 _atom_site_label
 _atom_site_symmetry_multiplicity
 _atom_site_fract_x
 _atom_site_fract_y
 _atom_site_fract_z
 _atom_site_occupancy
  Lu  Lu0  1  0.676762  0.864916  0.188155  1
  Lu  Lu1  1  0.323199  0.511340  0.188140  1
  Lu  Lu2  1  0.821690  0.783845  0.605500  1
  Lu  Lu3  1  0.178345  0.783845  0.962154  1
  Lu  Lu4  1  0.821655  0.216155  0.037846  1
  Lu  Lu5  1  0.178310  0.216155  0.394500  1
  Lu  Lu6  1  0.676801  0.488660  0.811860  1
  Lu  Lu7  1  0.323238  0.135084  0.811845  1
  Lu  Lu8  1  0.570031  0.272109  0.297926  1
  Lu  Lu9  1  0.429969  0.727891  0.702074  1
  Lu  Lu10  1  0.025818  0.727891  0.297921  1
  Lu  Lu11  1  0.974182  0.272109  0.702079  1
  Ga  Ga12  1  0.000000  0.500000  0.500000  1
  Ni  Ni13  1  0.349047  0.500000  0.849047  1
  Ni  Ni14  1  0.650953  0.500000  0.150953  1
  Ni  Ni15  1  0.877664  0.877648  0.999984  1
  Ni  Ni16  1  0.122336  0.122352  0.000016  1
  Bi  Bi17  1  0.500000  0.000000  0.500000  1
