# generated using pymatgen
data_Tm3ScMn4F28
_symmetry_space_group_name_H-M   'P 1'
_cell_length_a   5.38347427
_cell_length_b   8.59022778
_cell_length_c   11.58876000
_cell_angle_alpha   62.73624119
_cell_angle_beta   90.01822065
_cell_angle_gamma   90.00599218
_symmetry_Int_Tables_number   1
_chemical_formula_structural   Tm3ScMn4F28
_chemical_formula_sum   'Tm3 Sc1 Mn4 F28'
_cell_volume   476.38784737
_cell_formula_units_Z   1
loop_
 _symmetry_equiv_pos_site_id
 _symmetry_equiv_pos_as_xyz
  1  'x, y, z'
loop_
 _atom_site_type_symbol
 _atom_site_label
 _atom_site_symmetry_multiplicity
 _atom_site_fract_x
 _atom_site_fract_y
 _atom_site_fract_z
 _atom_site_occupancy
  Tm  Tm0  1  0.763644  0.810517  0.764573  1
  Tm  Tm1  1  0.262482  0.189404  0.735010  1
  Tm  Tm2  1  0.238482  0.184558  0.235892  1
  Sc  Sc3  1  0.730481  0.811862  0.263085  1
  Mn  Mn4  1  0.758182  0.271842  0.957469  1
  Mn  Mn5  1  0.263570  0.726264  0.540763  1
  Mn  Mn6  1  0.235804  0.727682  0.047881  1
  Mn  Mn7  1  0.740168  0.277613  0.454258  1
  F  F8  1  0.433910  0.704915  0.927918  1
  F  F9  1  0.936161  0.298101  0.575863  1
  F  F10  1  0.562759  0.293133  0.079332  1
  F  F11  1  0.069466  0.699020  0.423254  1
  F  F12  1  0.453238  0.282523  0.540373  1
  F  F13  1  0.952064  0.721263  0.959804  1
  F  F14  1  0.552982  0.722762  0.452879  1
  F  F15  1  0.045086  0.276375  0.044853  1
  F  F16  1  0.774900  0.513995  0.863216  1
  F  F17  1  0.282169  0.486007  0.638564  1
  F  F18  1  0.221978  0.486237  0.142009  1
  F  F19  1  0.727300  0.520008  0.358727  1
  F  F20  1  0.753310  0.033844  0.045527  1
  F  F21  1  0.256409  0.966008  0.448831  1
  F  F22  1  0.241010  0.966465  0.954735  1
  F  F23  1  0.743218  0.038574  0.545646  1
  F  F24  1  0.986307  0.728032  0.634487  1
  F  F25  1  0.479770  0.273472  0.864577  1
  F  F26  1  0.016090  0.271443  0.361603  1
  F  F27  1  0.512993  0.729671  0.142498  1
  F  F28  1  0.033778  0.748976  0.172490  1
  F  F29  1  0.546884  0.257922  0.327979  1
  F  F30  1  0.951522  0.256725  0.829865  1
  F  F31  1  0.457022  0.747129  0.667152  1
  F  F32  1  0.426724  0.966355  0.230515  1
  F  F33  1  0.913031  0.011557  0.268660  1
  F  F34  1  0.588084  0.028967  0.770226  1
  F  F35  1  0.089027  0.970779  0.729489  1
