# generated using pymatgen
data_PrNd3(Sc3Si4)2
_symmetry_space_group_name_H-M   'P 1'
_cell_length_a   7.23262122
_cell_length_b   7.51634000
_cell_length_c   14.23069844
_cell_angle_alpha   90.00000000
_cell_angle_beta   90.02850797
_cell_angle_gamma   90.00000000
_symmetry_Int_Tables_number   1
_chemical_formula_structural   PrNd3(Sc3Si4)2
_chemical_formula_sum   'Pr2 Nd6 Sc12 Si16'
_cell_volume   773.62108962
_cell_formula_units_Z   2
loop_
 _symmetry_equiv_pos_site_id
 _symmetry_equiv_pos_as_xyz
  1  'x, y, z'
loop_
 _atom_site_type_symbol
 _atom_site_label
 _atom_site_symmetry_multiplicity
 _atom_site_fract_x
 _atom_site_fract_y
 _atom_site_fract_z
 _atom_site_occupancy
  Pr  Pr0  1  0.512073  0.328103  0.097349  1
  Pr  Pr1  1  0.012073  0.171897  0.097349  1
  Nd  Nd2  1  0.012165  0.172460  0.402438  1
  Nd  Nd3  1  0.512165  0.327540  0.402438  1
  Nd  Nd4  1  0.487881  0.672526  0.902217  1
  Nd  Nd5  1  0.487795  0.672476  0.597629  1
  Nd  Nd6  1  0.987795  0.827524  0.597629  1
  Nd  Nd7  1  0.987881  0.827474  0.902217  1
  Sc  Sc8  1  0.329913  0.176067  0.625190  1
  Sc  Sc9  1  0.670106  0.823966  0.374813  1
  Sc  Sc10  1  0.660649  0.000246  0.749998  1
  Sc  Sc11  1  0.170106  0.676034  0.374813  1
  Sc  Sc12  1  0.829926  0.324167  0.874615  1
  Sc  Sc13  1  0.829913  0.323933  0.625190  1
  Sc  Sc14  1  0.839353  0.500485  0.250196  1
  Sc  Sc15  1  0.339353  0.999515  0.250196  1
  Sc  Sc16  1  0.329926  0.175833  0.874615  1
  Sc  Sc17  1  0.170079  0.676117  0.125274  1
  Sc  Sc18  1  0.670079  0.823883  0.125274  1
  Sc  Sc19  1  0.160649  0.499754  0.749998  1
  Si  Si20  1  0.287628  0.882115  0.750007  1
  Si  Si21  1  0.465400  0.625008  0.250248  1
  Si  Si22  1  0.034480  0.124515  0.749978  1
  Si  Si23  1  0.534480  0.375485  0.749978  1
  Si  Si24  1  0.152179  0.463159  0.539723  1
  Si  Si25  1  0.965400  0.874992  0.250248  1
  Si  Si26  1  0.712181  0.117252  0.250558  1
  Si  Si27  1  0.848331  0.537792  0.039415  1
  Si  Si28  1  0.348331  0.962208  0.039415  1
  Si  Si29  1  0.152064  0.463820  0.960011  1
  Si  Si30  1  0.652179  0.036841  0.539723  1
  Si  Si31  1  0.347797  0.963176  0.460339  1
  Si  Si32  1  0.847797  0.536824  0.460339  1
  Si  Si33  1  0.787628  0.617885  0.750007  1
  Si  Si34  1  0.212181  0.382748  0.250558  1
  Si  Si35  1  0.652064  0.036180  0.960011  1
