# generated using pymatgen
data_PrS23
_symmetry_space_group_name_H-M   'P 1'
_cell_length_a   5.13596239
_cell_length_b   9.68554013
_cell_length_c   15.06800920
_cell_angle_alpha   94.07564304
_cell_angle_beta   90.63557013
_cell_angle_gamma   88.49053985
_symmetry_Int_Tables_number   1
_chemical_formula_structural   PrS23
_chemical_formula_sum   'Pr1 S23'
_cell_volume   747.36468531
_cell_formula_units_Z   1
loop_
 _symmetry_equiv_pos_site_id
 _symmetry_equiv_pos_as_xyz
  1  'x, y, z'
loop_
 _atom_site_type_symbol
 _atom_site_label
 _atom_site_symmetry_multiplicity
 _atom_site_fract_x
 _atom_site_fract_y
 _atom_site_fract_z
 _atom_site_occupancy
  Pr  Pr0  1  0.547950  0.203775  0.337625  1
  S  S1  1  0.462896  0.800179  0.394794  1
  S  S2  1  0.970226  0.328139  0.127498  1
  S  S3  1  0.822343  0.203284  0.491823  1
  S  S4  1  0.278143  0.773376  0.513971  1
  S  S5  1  0.191026  0.285563  0.015093  1
  S  S6  1  0.775697  0.754346  0.002061  1
  S  S7  1  0.162292  0.405469  0.366487  1
  S  S8  1  0.673755  0.620483  0.361492  1
  S  S9  1  0.837057  0.138400  0.166100  1
  S  S10  1  0.283070  0.800036  0.144828  1
  S  S11  1  0.745860  0.612949  0.628562  1
  S  S12  1  0.293547  0.381026  0.591076  1
  S  S13  1  0.230449  0.873577  0.873469  1
  S  S14  1  0.774888  0.123920  0.869816  1
  S  S15  1  0.979223  0.688830  0.116621  1
  S  S16  1  0.536824  0.797587  0.619243  1
  S  S17  1  0.461829  0.184443  0.545904  1
  S  S18  1  0.011447  0.703376  0.895037  1
  S  S19  1  0.957641  0.307144  0.903540  1
  S  S20  1  0.424709  0.487289  0.284142  1
  S  S21  1  0.044064  0.057562  0.270865  1
  S  S22  1  0.517561  0.474133  0.689713  1
  S  S23  1  0.017500  0.995112  0.790239  1
