# generated using pymatgen
data_Er10In8Ag2PtRh
_symmetry_space_group_name_H-M   'P 1'
_cell_length_a   3.60145500
_cell_length_b   8.15129926
_cell_length_c   18.33098606
_cell_angle_alpha   90.00990776
_cell_angle_beta   90.00000000
_cell_angle_gamma   90.00000000
_symmetry_Int_Tables_number   1
_chemical_formula_structural   Er10In8Ag2PtRh
_chemical_formula_sum   'Er10 In8 Ag2 Pt1 Rh1'
_cell_volume   538.13427146
_cell_formula_units_Z   1
loop_
 _symmetry_equiv_pos_site_id
 _symmetry_equiv_pos_as_xyz
  1  'x, y, z'
loop_
 _atom_site_type_symbol
 _atom_site_label
 _atom_site_symmetry_multiplicity
 _atom_site_fract_x
 _atom_site_fract_y
 _atom_site_fract_z
 _atom_site_occupancy
  Er  Er0  1  0.000000  0.120879  0.422538  1
  Er  Er1  1  0.000000  0.878297  0.578169  1
  Er  Er2  1  0.000000  0.384653  0.914560  1
  Er  Er3  1  0.000000  0.618555  0.083022  1
  Er  Er4  1  0.000000  0.254421  0.214509  1
  Er  Er5  1  0.000000  0.736376  0.784667  1
  Er  Er6  1  0.000000  0.283046  0.723229  1
  Er  Er7  1  0.000000  0.722447  0.278968  1
  Er  Er8  1  0.000000  0.999314  0.999336  1
  Er  Er9  1  0.000000  0.499411  0.500499  1
  In  In10  1  0.500000  0.414057  0.352537  1
  In  In11  1  0.500000  0.583161  0.649203  1
  In  In12  1  0.500000  0.079547  0.851049  1
  In  In13  1  0.500000  0.922735  0.148349  1
  In  In14  1  0.500000  0.293385  0.063804  1
  In  In15  1  0.500000  0.706535  0.933137  1
  In  In16  1  0.500000  0.209446  0.570408  1
  In  In17  1  0.500000  0.790431  0.430603  1
  Ag  Ag18  1  0.500000  0.025642  0.301914  1
  Ag  Ag19  1  0.500000  0.976216  0.698853  1
  Pt  Pt20  1  0.500000  0.525258  0.195031  1
  Rh  Rh21  1  0.500000  0.476188  0.805615  1
