# generated using pymatgen
data_Nd2Zr(TaSn)18
_symmetry_space_group_name_H-M   'P 1'
_cell_length_a   5.79130188
_cell_length_b   9.64995098
_cell_length_c   16.01036863
_cell_angle_alpha   107.53797558
_cell_angle_beta   100.27733985
_cell_angle_gamma   90.05213386
_symmetry_Int_Tables_number   1
_chemical_formula_structural   Nd2Zr(TaSn)18
_chemical_formula_sum   'Nd2 Zr1 Ta18 Sn18'
_cell_volume   838.04664794
_cell_formula_units_Z   1
loop_
 _symmetry_equiv_pos_site_id
 _symmetry_equiv_pos_as_xyz
  1  'x, y, z'
loop_
 _atom_site_type_symbol
 _atom_site_label
 _atom_site_symmetry_multiplicity
 _atom_site_fract_x
 _atom_site_fract_y
 _atom_site_fract_z
 _atom_site_occupancy
  Nd  Nd0  1  0.332228  0.831603  0.665895  1
  Nd  Nd1  1  0.666887  0.166537  0.334746  1
  Zr  Zr2  1  0.999621  0.999034  0.000317  1
  Ta  Ta3  1  0.165818  0.415234  0.332978  1
  Ta  Ta4  1  0.332226  0.833021  0.166128  1
  Ta  Ta5  1  0.666953  0.668172  0.835265  1
  Ta  Ta6  1  0.500124  0.750018  0.000208  1
  Ta  Ta7  1  0.166385  0.165716  0.834872  1
  Ta  Ta8  1  0.833739  0.330613  0.165874  1
  Ta  Ta9  1  0.832767  0.083286  0.667747  1
  Ta  Ta10  1  0.165462  0.667784  0.834733  1
  Ta  Ta11  1  0.499634  0.999100  0.500318  1
  Ta  Ta12  1  0.499159  0.248346  0.000424  1
  Ta  Ta13  1  0.999587  0.999085  0.500316  1
  Ta  Ta14  1  0.999632  0.499111  0.500299  1
  Ta  Ta15  1  0.832897  0.832555  0.165773  1
  Ta  Ta16  1  0.833481  0.583011  0.667661  1
  Ta  Ta17  1  0.332349  0.330077  0.165345  1
  Ta  Ta18  1  0.166455  0.914983  0.332913  1
  Ta  Ta19  1  0.666971  0.165392  0.834510  1
  Ta  Ta20  1  0.499663  0.499093  0.500299  1
  Sn  Sn21  1  0.999104  0.321140  0.000049  1
  Sn  Sn22  1  0.888909  0.889126  0.779838  1
  Sn  Sn23  1  0.110335  0.109243  0.220791  1
  Sn  Sn24  1  0.221945  0.221521  0.445152  1
  Sn  Sn25  1  0.443859  0.443586  0.889084  1
  Sn  Sn26  1  0.109245  0.608889  0.220247  1
  Sn  Sn27  1  0.778559  0.278351  0.558575  1
  Sn  Sn28  1  0.889923  0.389418  0.780453  1
  Sn  Sn29  1  0.220620  0.719797  0.441990  1
  Sn  Sn30  1  0.334298  0.494033  0.667800  1
  Sn  Sn31  1  0.555207  0.053804  0.109925  1
  Sn  Sn32  1  0.665173  0.504011  0.332880  1
  Sn  Sn33  1  0.444100  0.944603  0.890693  1
  Sn  Sn34  1  0.331835  0.171787  0.667480  1
  Sn  Sn35  1  0.777250  0.776743  0.555478  1
  Sn  Sn36  1  0.667312  0.826563  0.333196  1
  Sn  Sn37  1  0.555318  0.554687  0.111486  1
  Sn  Sn38  1  0.000226  0.676976  0.000626  1
