# generated using pymatgen
data_Er3Tm(MnRe3)2
_symmetry_space_group_name_H-M   'P 1'
_cell_length_a   5.29535400
_cell_length_b   5.29535393
_cell_length_c   8.91301100
_cell_angle_alpha   90.00000000
_cell_angle_beta   90.00000000
_cell_angle_gamma   120.00000047
_symmetry_Int_Tables_number   1
_chemical_formula_structural   Er3Tm(MnRe3)2
_chemical_formula_sum   'Er3 Tm1 Mn2 Re6'
_cell_volume   216.44375661
_cell_formula_units_Z   1
loop_
 _symmetry_equiv_pos_site_id
 _symmetry_equiv_pos_as_xyz
  1  'x, y, z'
loop_
 _atom_site_type_symbol
 _atom_site_label
 _atom_site_symmetry_multiplicity
 _atom_site_fract_x
 _atom_site_fract_y
 _atom_site_fract_z
 _atom_site_occupancy
  Er  Er0  1  0.333333  0.666667  0.436704  1
  Er  Er1  1  0.666667  0.333333  0.563222  1
  Er  Er2  1  0.666667  0.333333  0.936949  1
  Tm  Tm3  1  0.333333  0.666667  0.063384  1
  Mn  Mn4  1  0.000000  0.000000  0.499959  1
  Mn  Mn5  1  0.000000  0.000000  0.000073  1
  Re  Re6  1  0.831666  0.168334  0.249725  1
  Re  Re7  1  0.831666  0.663331  0.249725  1
  Re  Re8  1  0.336669  0.168334  0.249725  1
  Re  Re9  1  0.168297  0.831703  0.750178  1
  Re  Re10  1  0.168297  0.336595  0.750178  1
  Re  Re11  1  0.663405  0.831703  0.750178  1
