# generated using pymatgen
data_LiEr16Co4Hg3
_symmetry_space_group_name_H-M   'P 1'
_cell_length_a   9.38931828
_cell_length_b   9.38931864
_cell_length_c   9.38931878
_cell_angle_alpha   59.83966590
_cell_angle_beta   59.83966549
_cell_angle_gamma   59.83966677
_symmetry_Int_Tables_number   1
_chemical_formula_structural   LiEr16Co4Hg3
_chemical_formula_sum   'Li1 Er16 Co4 Hg3'
_cell_volume   583.18188161
_cell_formula_units_Z   1
loop_
 _symmetry_equiv_pos_site_id
 _symmetry_equiv_pos_as_xyz
  1  'x, y, z'
loop_
 _atom_site_type_symbol
 _atom_site_label
 _atom_site_symmetry_multiplicity
 _atom_site_fract_x
 _atom_site_fract_y
 _atom_site_fract_z
 _atom_site_occupancy
  Li  Li0  1  0.820819  0.820819  0.820819  1
  Er  Er1  1  0.598756  0.598756  0.598756  1
  Er  Er2  1  0.595647  0.595647  0.210755  1
  Er  Er3  1  0.595647  0.210755  0.595647  1
  Er  Er4  1  0.210755  0.595647  0.595647  1
  Er  Er5  1  0.061191  0.439270  0.439270  1
  Er  Er6  1  0.436234  0.063259  0.063259  1
  Er  Er7  1  0.439270  0.061191  0.439270  1
  Er  Er8  1  0.063259  0.436234  0.063259  1
  Er  Er9  1  0.439270  0.439270  0.061191  1
  Er  Er10  1  0.063259  0.063259  0.436234  1
  Er  Er11  1  0.190085  0.811706  0.811706  1
  Er  Er12  1  0.812453  0.187900  0.187900  1
  Er  Er13  1  0.811706  0.190085  0.811706  1
  Er  Er14  1  0.187900  0.812453  0.187900  1
  Er  Er15  1  0.811706  0.811706  0.190085  1
  Er  Er16  1  0.187900  0.187900  0.812453  1
  Co  Co17  1  0.391128  0.391128  0.391128  1
  Co  Co18  1  0.392093  0.392093  0.826336  1
  Co  Co19  1  0.392093  0.826336  0.392093  1
  Co  Co20  1  0.826336  0.392093  0.392093  1
  Hg  Hg21  1  0.835897  0.835897  0.500699  1
  Hg  Hg22  1  0.835897  0.500699  0.835897  1
  Hg  Hg23  1  0.500699  0.835897  0.835897  1
