# generated using pymatgen
data_Ca2Zn3Fe(PO4)4
_symmetry_space_group_name_H-M   'P 1'
_cell_length_a   5.06559421
_cell_length_b   8.56429863
_cell_length_c   9.07983413
_cell_angle_alpha   113.24137984
_cell_angle_beta   102.74833653
_cell_angle_gamma   94.47568550
_symmetry_Int_Tables_number   1
_chemical_formula_structural   Ca2Zn3Fe(PO4)4
_chemical_formula_sum   'Ca2 Zn3 Fe1 P4 O16'
_cell_volume   346.98143223
_cell_formula_units_Z   1
loop_
 _symmetry_equiv_pos_site_id
 _symmetry_equiv_pos_as_xyz
  1  'x, y, z'
loop_
 _atom_site_type_symbol
 _atom_site_label
 _atom_site_symmetry_multiplicity
 _atom_site_fract_x
 _atom_site_fract_y
 _atom_site_fract_z
 _atom_site_occupancy
  Ca  Ca0  1  0.772954  0.266520  0.948657  1
  Ca  Ca1  1  0.225026  0.734120  0.052816  1
  Zn  Zn2  1  0.380901  0.608521  0.409024  1
  Zn  Zn3  1  0.842704  0.080096  0.284130  1
  Zn  Zn4  1  0.156757  0.916253  0.712453  1
  Fe  Fe5  1  0.633934  0.392728  0.597954  1
  P  P6  1  0.890161  0.718600  0.301498  1
  P  P7  1  0.108645  0.277420  0.696277  1
  P  P8  1  0.323113  0.209943  0.183498  1
  P  P9  1  0.676123  0.793383  0.817579  1
  O  O10  1  0.025157  0.435127  0.823761  1
  O  O11  1  0.959865  0.561306  0.167267  1
  O  O12  1  0.442197  0.052909  0.199502  1
  O  O13  1  0.557884  0.951088  0.803122  1
  O  O14  1  0.061778  0.727557  0.474316  1
  O  O15  1  0.949361  0.267245  0.521207  1
  O  O16  1  0.993461  0.115346  0.714508  1
  O  O17  1  0.004207  0.881435  0.283242  1
  O  O18  1  0.438520  0.367755  0.359634  1
  O  O19  1  0.559905  0.636376  0.641758  1
  O  O20  1  0.605743  0.744567  0.950132  1
  O  O21  1  0.391478  0.257286  0.049764  1
  O  O22  1  0.421475  0.293161  0.714749  1
  O  O23  1  0.579196  0.710059  0.292842  1
  O  O24  1  0.996185  0.830137  0.852159  1
  O  O25  1  0.003270  0.171064  0.148152  1
