# generated using pymatgen
data_Hf8BeFe5Si15Ru7
_symmetry_space_group_name_H-M   'P 1'
_cell_length_a   9.75184798
_cell_length_b   9.73727234
_cell_length_c   13.10682829
_cell_angle_alpha   53.82597316
_cell_angle_beta   53.86453259
_cell_angle_gamma   30.98132637
_symmetry_Int_Tables_number   1
_chemical_formula_structural   Hf8BeFe5Si15Ru7
_chemical_formula_sum   'Hf8 Be1 Fe5 Si15 Ru7'
_cell_volume   506.56536418
_cell_formula_units_Z   1
loop_
 _symmetry_equiv_pos_site_id
 _symmetry_equiv_pos_as_xyz
  1  'x, y, z'
loop_
 _atom_site_type_symbol
 _atom_site_label
 _atom_site_symmetry_multiplicity
 _atom_site_fract_x
 _atom_site_fract_y
 _atom_site_fract_z
 _atom_site_occupancy
  Hf  Hf0  1  0.292436  0.560569  0.647646  1
  Hf  Hf1  1  0.438978  0.708922  0.851870  1
  Hf  Hf2  1  0.709332  0.433018  0.354861  1
  Hf  Hf3  1  0.565519  0.289975  0.148161  1
  Hf  Hf4  1  0.038059  0.295948  0.635623  1
  Hf  Hf5  1  0.704294  0.964327  0.861530  1
  Hf  Hf6  1  0.959126  0.711496  0.360095  1
  Hf  Hf7  1  0.285475  0.042418  0.140287  1
  Be  Be8  1  0.873044  0.131272  0.246955  1
  Fe  Fe9  1  0.651953  0.825865  0.278508  1
  Fe  Fe10  1  0.172274  0.345860  0.223572  1
  Fe  Fe11  1  0.767170  0.480158  0.066630  1
  Fe  Fe12  1  0.825958  0.651300  0.779671  1
  Fe  Fe13  1  0.908940  0.140684  0.579699  1
  Si  Si14  1  0.117229  0.883295  0.746428  1
  Si  Si15  1  0.398332  0.609572  0.245727  1
  Si  Si16  1  0.621586  0.377295  0.744879  1
  Si  Si17  1  0.963681  0.268526  0.896518  1
  Si  Si18  1  0.747740  0.034837  0.604033  1
  Si  Si19  1  0.026431  0.733725  0.113078  1
  Si  Si20  1  0.260694  0.972613  0.391256  1
  Si  Si21  1  0.564087  0.085078  0.073302  1
  Si  Si22  1  0.916559  0.427980  0.429544  1
  Si  Si23  1  0.444451  0.896169  0.938099  1
  Si  Si24  1  0.078114  0.577866  0.568201  1
  Si  Si25  1  0.387605  0.143646  0.389752  1
  Si  Si26  1  0.855369  0.608482  0.109585  1
  Si  Si27  1  0.614600  0.856419  0.604345  1
  Si  Si28  1  0.129073  0.392980  0.899118  1
  Ru  Ru29  1  0.851964  0.105605  0.916657  1
  Ru  Ru30  1  0.103331  0.858363  0.413116  1
  Ru  Ru31  1  0.143374  0.894102  0.084812  1
  Ru  Ru32  1  0.234695  0.518433  0.937093  1
  Ru  Ru33  1  0.483730  0.760299  0.563664  1
  Ru  Ru34  1  0.513386  0.242102  0.432340  1
  Ru  Ru35  1  0.351411  0.170802  0.723343  1
