# generated using pymatgen
data_Lu3Pt2Au
_symmetry_space_group_name_H-M   'P 1'
_cell_length_a   4.50753900
_cell_length_b   5.49066690
_cell_length_c   10.36746900
_cell_angle_alpha   83.15924155
_cell_angle_beta   90.00000000
_cell_angle_gamma   90.00000000
_symmetry_Int_Tables_number   1
_chemical_formula_structural   Lu3Pt2Au
_chemical_formula_sum   'Lu6 Pt4 Au2'
_cell_volume   254.76194059
_cell_formula_units_Z   2
loop_
 _symmetry_equiv_pos_site_id
 _symmetry_equiv_pos_as_xyz
  1  'x, y, z'
loop_
 _atom_site_type_symbol
 _atom_site_label
 _atom_site_symmetry_multiplicity
 _atom_site_fract_x
 _atom_site_fract_y
 _atom_site_fract_z
 _atom_site_occupancy
  Lu  Lu0  1  0.250000  0.407458  0.793273  1
  Lu  Lu1  1  0.750000  0.592542  0.206727  1
  Lu  Lu2  1  0.250000  0.119474  0.117462  1
  Lu  Lu3  1  0.750000  0.880526  0.882538  1
  Lu  Lu4  1  0.250000  0.248965  0.451412  1
  Lu  Lu5  1  0.750000  0.751035  0.548588  1
  Pt  Pt6  1  0.250000  0.653662  0.028944  1
  Pt  Pt7  1  0.750000  0.346338  0.971056  1
  Pt  Pt8  1  0.250000  0.908495  0.696614  1
  Pt  Pt9  1  0.750000  0.091505  0.303386  1
  Au  Au10  1  0.250000  0.760651  0.359607  1
  Au  Au11  1  0.750000  0.239349  0.640393  1
