# generated using pymatgen
data_Tm4Al13Au9
_symmetry_space_group_name_H-M   'P 1'
_cell_length_a   11.72886800
_cell_length_b   11.72886781
_cell_length_c   4.11272000
_cell_angle_alpha   90.00000000
_cell_angle_beta   90.00000000
_cell_angle_gamma   119.99999490
_symmetry_Int_Tables_number   1
_chemical_formula_structural   Tm4Al13Au9
_chemical_formula_sum   'Tm4 Al13 Au9'
_cell_volume   489.97281766
_cell_formula_units_Z   1
loop_
 _symmetry_equiv_pos_site_id
 _symmetry_equiv_pos_as_xyz
  1  'x, y, z'
loop_
 _atom_site_type_symbol
 _atom_site_label
 _atom_site_symmetry_multiplicity
 _atom_site_fract_x
 _atom_site_fract_y
 _atom_site_fract_z
 _atom_site_occupancy
  Tm  Tm0  1  0.206092  0.793908  0.500000  1
  Tm  Tm1  1  0.587816  0.793908  0.500000  1
  Tm  Tm2  1  0.206092  0.412184  0.500000  1
  Tm  Tm3  1  0.666667  0.333333  0.000000  1
  Al  Al4  1  0.949423  0.295051  0.000000  1
  Al  Al5  1  0.704949  0.654371  0.000000  1
  Al  Al6  1  0.949423  0.654371  0.000000  1
  Al  Al7  1  0.345629  0.050577  0.000000  1
  Al  Al8  1  0.171407  0.085703  0.500000  1
  Al  Al9  1  0.914297  0.828593  0.500000  1
  Al  Al10  1  0.704949  0.050577  0.000000  1
  Al  Al11  1  0.531731  0.063461  0.500000  1
  Al  Al12  1  0.914297  0.085703  0.500000  1
  Al  Al13  1  0.345629  0.295051  0.000000  1
  Al  Al14  1  0.531731  0.468269  0.500000  1
  Al  Al15  1  0.936539  0.468269  0.500000  1
  Al  Al16  1  0.333333  0.666667  0.000000  1
  Au  Au17  1  0.453920  0.546080  0.000000  1
  Au  Au18  1  0.820209  0.910105  0.000000  1
  Au  Au19  1  0.453920  0.907837  0.000000  1
  Au  Au20  1  0.089895  0.179791  0.000000  1
  Au  Au21  1  0.089895  0.910105  0.000000  1
  Au  Au22  1  0.784695  0.569389  0.500000  1
  Au  Au23  1  0.092163  0.546080  0.000000  1
  Au  Au24  1  0.784695  0.215305  0.500000  1
  Au  Au25  1  0.430611  0.215305  0.500000  1
