# generated using pymatgen
data_Na5PuO6
_symmetry_space_group_name_H-M   'P 1'
_cell_length_a   5.83771071
_cell_length_b   5.83771106
_cell_length_c   5.81251890
_cell_angle_alpha   79.64477539
_cell_angle_beta   79.64477435
_cell_angle_gamma   119.41810823
_symmetry_Int_Tables_number   1
_chemical_formula_structural   Na5PuO6
_chemical_formula_sum   'Na5 Pu1 O6'
_cell_volume   161.21444400
_cell_formula_units_Z   1
loop_
 _symmetry_equiv_pos_site_id
 _symmetry_equiv_pos_as_xyz
  1  'x, y, z'
loop_
 _atom_site_type_symbol
 _atom_site_label
 _atom_site_symmetry_multiplicity
 _atom_site_fract_x
 _atom_site_fract_y
 _atom_site_fract_z
 _atom_site_occupancy
  Na  Na0  1  0.666847  0.333153  0.000000  1
  Na  Na1  1  0.172542  0.827458  0.500000  1
  Na  Na2  1  0.500000  0.500000  0.500000  1
  Na  Na3  1  0.333153  0.666847  0.000000  1
  Na  Na4  1  0.827458  0.172542  0.500000  1
  Pu  Pu5  1  0.000000  0.000000  0.000000  1
  O  O6  1  0.791827  0.791827  0.792262  1
  O  O7  1  0.208173  0.208173  0.207738  1
  O  O8  1  0.073187  0.359343  0.777285  1
  O  O9  1  0.640657  0.926813  0.222715  1
  O  O10  1  0.926813  0.640657  0.222715  1
  O  O11  1  0.359343  0.073187  0.777285  1
