# generated using pymatgen
data_Pr12Os3Rh
_symmetry_space_group_name_H-M   'P 1'
_cell_length_a   6.58630497
_cell_length_b   7.53475523
_cell_length_c   9.84669900
_cell_angle_alpha   90.00000000
_cell_angle_beta   90.00000000
_cell_angle_gamma   90.08842803
_symmetry_Int_Tables_number   1
_chemical_formula_structural   Pr12Os3Rh
_chemical_formula_sum   'Pr12 Os3 Rh1'
_cell_volume   488.65363098
_cell_formula_units_Z   1
loop_
 _symmetry_equiv_pos_site_id
 _symmetry_equiv_pos_as_xyz
  1  'x, y, z'
loop_
 _atom_site_type_symbol
 _atom_site_label
 _atom_site_symmetry_multiplicity
 _atom_site_fract_x
 _atom_site_fract_y
 _atom_site_fract_z
 _atom_site_occupancy
  Pr  Pr0  1  0.331677  0.673602  0.065674  1
  Pr  Pr1  1  0.171254  0.177886  0.434227  1
  Pr  Pr2  1  0.672818  0.323646  0.567441  1
  Pr  Pr3  1  0.825916  0.824277  0.930221  1
  Pr  Pr4  1  0.672818  0.323646  0.932559  1
  Pr  Pr5  1  0.825916  0.824277  0.569779  1
  Pr  Pr6  1  0.331677  0.673602  0.434326  1
  Pr  Pr7  1  0.171254  0.177886  0.065773  1
  Pr  Pr8  1  0.855719  0.538170  0.250000  1
  Pr  Pr9  1  0.641891  0.042694  0.250000  1
  Pr  Pr10  1  0.143106  0.461488  0.750000  1
  Pr  Pr11  1  0.355091  0.960728  0.750000  1
  Os  Os12  1  0.445610  0.384396  0.250000  1
  Os  Os13  1  0.948063  0.114221  0.750000  1
  Os  Os14  1  0.552547  0.615325  0.750000  1
  Rh  Rh15  1  0.054644  0.884156  0.250000  1
