# generated using pymatgen
data_Tb16In4Ir3Pt
_symmetry_space_group_name_H-M   'P 1'
_cell_length_a   9.71392867
_cell_length_b   9.71392837
_cell_length_c   9.71392918
_cell_angle_alpha   60.22530492
_cell_angle_beta   60.22530354
_cell_angle_gamma   60.22530137
_symmetry_Int_Tables_number   1
_chemical_formula_structural   Tb16In4Ir3Pt
_chemical_formula_sum   'Tb16 In4 Ir3 Pt1'
_cell_volume   651.44746233
_cell_formula_units_Z   1
loop_
 _symmetry_equiv_pos_site_id
 _symmetry_equiv_pos_as_xyz
  1  'x, y, z'
loop_
 _atom_site_type_symbol
 _atom_site_label
 _atom_site_symmetry_multiplicity
 _atom_site_fract_x
 _atom_site_fract_y
 _atom_site_fract_z
 _atom_site_occupancy
  Tb  Tb0  1  0.100874  0.701493  0.100874  1
  Tb  Tb1  1  0.940935  0.940935  0.555338  1
  Tb  Tb2  1  0.940935  0.555338  0.940935  1
  Tb  Tb3  1  0.309968  0.690261  0.309968  1
  Tb  Tb4  1  0.940545  0.559478  0.559478  1
  Tb  Tb5  1  0.309968  0.309968  0.690261  1
  Tb  Tb6  1  0.099162  0.099162  0.099162  1
  Tb  Tb7  1  0.559478  0.559478  0.940545  1
  Tb  Tb8  1  0.100874  0.100874  0.701493  1
  Tb  Tb9  1  0.688945  0.311979  0.688945  1
  Tb  Tb10  1  0.688945  0.688945  0.311979  1
  Tb  Tb11  1  0.690261  0.309968  0.309968  1
  Tb  Tb12  1  0.311979  0.688945  0.688945  1
  Tb  Tb13  1  0.559478  0.940545  0.559478  1
  Tb  Tb14  1  0.701493  0.100874  0.100874  1
  Tb  Tb15  1  0.555338  0.940935  0.940935  1
  In  In16  1  0.333010  0.333010  0.333010  1
  In  In17  1  0.000514  0.333553  0.333553  1
  In  In18  1  0.333553  0.000514  0.333553  1
  In  In19  1  0.333553  0.333553  0.000514  1
  Ir  Ir20  1  0.891677  0.891677  0.324731  1
  Ir  Ir21  1  0.324731  0.891677  0.891677  1
  Ir  Ir22  1  0.891677  0.324731  0.891677  1
  Pt  Pt23  1  0.892105  0.892105  0.892105  1
