# generated using pymatgen
data_Eu(CdAu2)2
_symmetry_space_group_name_H-M   'P 1'
_cell_length_a   5.87725911
_cell_length_b   5.87725865
_cell_length_c   5.87725941
_cell_angle_alpha   103.44757751
_cell_angle_beta   103.44757742
_cell_angle_gamma   122.33638176
_symmetry_Int_Tables_number   1
_chemical_formula_structural   Eu(CdAu2)2
_chemical_formula_sum   'Eu1 Cd2 Au4'
_cell_volume   150.26738954
_cell_formula_units_Z   1
loop_
 _symmetry_equiv_pos_site_id
 _symmetry_equiv_pos_as_xyz
  1  'x, y, z'
loop_
 _atom_site_type_symbol
 _atom_site_label
 _atom_site_symmetry_multiplicity
 _atom_site_fract_x
 _atom_site_fract_y
 _atom_site_fract_z
 _atom_site_occupancy
  Eu  Eu0  1  0.000000  0.000000  0.000000  1
  Cd  Cd1  1  0.250000  0.750000  0.500000  1
  Cd  Cd2  1  0.750000  0.250000  0.500000  1
  Au  Au3  1  0.303814  0.303814  0.607628  1
  Au  Au4  1  0.696186  0.696186  0.392372  1
  Au  Au5  1  0.696186  0.303814  0.000000  1
  Au  Au6  1  0.303814  0.696186  0.000000  1
