# generated using pymatgen
data_Ba7Ru6O19
_symmetry_space_group_name_H-M   'P 1'
_cell_length_a   8.01580546
_cell_length_b   8.01580603
_cell_length_c   11.12426356
_cell_angle_alpha   81.48745406
_cell_angle_beta   81.48745294
_cell_angle_gamma   42.67145710
_symmetry_Int_Tables_number   1
_chemical_formula_structural   Ba7Ru6O19
_chemical_formula_sum   'Ba7 Ru6 O19'
_cell_volume   478.30903310
_cell_formula_units_Z   1
loop_
 _symmetry_equiv_pos_site_id
 _symmetry_equiv_pos_as_xyz
  1  'x, y, z'
loop_
 _atom_site_type_symbol
 _atom_site_label
 _atom_site_symmetry_multiplicity
 _atom_site_fract_x
 _atom_site_fract_y
 _atom_site_fract_z
 _atom_site_occupancy
  Ba  Ba0  1  0.500000  0.500000  0.500000  1
  Ba  Ba1  1  0.851140  0.851140  0.949174  1
  Ba  Ba2  1  0.148860  0.148860  0.050826  1
  Ba  Ba3  1  0.572469  0.572469  0.836355  1
  Ba  Ba4  1  0.427531  0.427531  0.163645  1
  Ba  Ba5  1  0.801981  0.801981  0.592778  1
  Ba  Ba6  1  0.198019  0.198019  0.407222  1
  Ru  Ru7  1  0.184135  0.184135  0.730693  1
  Ru  Ru8  1  0.815865  0.815865  0.269307  1
  Ru  Ru9  1  0.347380  0.347380  0.778791  1
  Ru  Ru10  1  0.652620  0.652620  0.221209  1
  Ru  Ru11  1  0.022788  0.022788  0.674378  1
  Ru  Ru12  1  0.977212  0.977212  0.325622  1
  O  O13  1  0.000000  0.000000  0.500000  1
  O  O14  1  0.699253  0.699253  0.388193  1
  O  O15  1  0.300747  0.300747  0.611807  1
  O  O16  1  0.059512  0.059512  0.844602  1
  O  O17  1  0.940488  0.940488  0.155398  1
  O  O18  1  0.390667  0.390667  0.937950  1
  O  O19  1  0.609333  0.609333  0.062050  1
  O  O20  1  0.821664  0.316844  0.282630  1
  O  O21  1  0.683156  0.178336  0.717370  1
  O  O22  1  0.178336  0.683156  0.717370  1
  O  O23  1  0.316844  0.821664  0.282630  1
  O  O24  1  0.524500  0.984851  0.169839  1
  O  O25  1  0.015149  0.475500  0.830161  1
  O  O26  1  0.645593  0.106069  0.368183  1
  O  O27  1  0.893931  0.354407  0.631817  1
  O  O28  1  0.354407  0.893931  0.631817  1
  O  O29  1  0.106069  0.645593  0.368183  1
  O  O30  1  0.984851  0.524500  0.169839  1
  O  O31  1  0.475500  0.015149  0.830161  1
