# generated using pymatgen
data_Tb5Er(SnRh)6
_symmetry_space_group_name_H-M   'P 1'
_cell_length_a   7.50275690
_cell_length_b   7.49945207
_cell_length_c   7.90943800
_cell_angle_alpha   90.00000000
_cell_angle_beta   90.00000000
_cell_angle_gamma   120.03035561
_symmetry_Int_Tables_number   1
_chemical_formula_structural   Tb5Er(SnRh)6
_chemical_formula_sum   'Tb5 Er1 Sn6 Rh6'
_cell_volume   385.29532671
_cell_formula_units_Z   1
loop_
 _symmetry_equiv_pos_site_id
 _symmetry_equiv_pos_as_xyz
  1  'x, y, z'
loop_
 _atom_site_type_symbol
 _atom_site_label
 _atom_site_symmetry_multiplicity
 _atom_site_fract_x
 _atom_site_fract_y
 _atom_site_fract_z
 _atom_site_occupancy
  Tb  Tb0  1  0.407385  0.408146  0.750000  1
  Tb  Tb1  1  0.001014  0.592795  0.750000  1
  Tb  Tb2  1  0.591324  0.000662  0.250000  1
  Tb  Tb3  1  0.408097  0.407891  0.250000  1
  Tb  Tb4  1  0.998603  0.591243  0.250000  1
  Er  Er5  1  0.593920  0.999418  0.750000  1
  Sn  Sn6  1  0.259244  0.000071  0.998633  1
  Sn  Sn7  1  0.741012  0.741279  0.500512  1
  Sn  Sn8  1  0.999681  0.258479  0.500304  1
  Sn  Sn9  1  0.999681  0.258479  0.999696  1
  Sn  Sn10  1  0.741012  0.741279  0.999488  1
  Sn  Sn11  1  0.259244  0.000071  0.501367  1
  Rh  Rh12  1  0.666405  0.331997  0.994938  1
  Rh  Rh13  1  0.666405  0.331997  0.505062  1
  Rh  Rh14  1  0.334369  0.668200  0.999531  1
  Rh  Rh15  1  0.334369  0.668200  0.500469  1
  Rh  Rh16  1  0.998632  0.000001  0.750000  1
  Rh  Rh17  1  0.999604  0.999791  0.250000  1
