# generated using pymatgen
data_La8SmDy(USe10)2
_symmetry_space_group_name_H-M   'P 1'
_cell_length_a   7.96088378
_cell_length_b   8.55499100
_cell_length_c   12.54439921
_cell_angle_alpha   90.00000000
_cell_angle_beta   90.05047251
_cell_angle_gamma   90.00000000
_symmetry_Int_Tables_number   1
_chemical_formula_structural   La8SmDy(USe10)2
_chemical_formula_sum   'La8 Sm1 Dy1 U2 Se20'
_cell_volume   854.33960280
_cell_formula_units_Z   1
loop_
 _symmetry_equiv_pos_site_id
 _symmetry_equiv_pos_as_xyz
  1  'x, y, z'
loop_
 _atom_site_type_symbol
 _atom_site_label
 _atom_site_symmetry_multiplicity
 _atom_site_fract_x
 _atom_site_fract_y
 _atom_site_fract_z
 _atom_site_occupancy
  La  La0  1  0.531381  0.502333  0.323278  1
  La  La1  1  0.968761  0.997856  0.823384  1
  La  La2  1  0.473530  0.998249  0.676794  1
  La  La3  1  0.026773  0.501695  0.177198  1
  La  La4  1  0.473530  0.501751  0.676794  1
  La  La5  1  0.026773  0.998305  0.177198  1
  La  La6  1  0.531381  0.997667  0.323278  1
  La  La7  1  0.968761  0.502144  0.823384  1
  Sm  Sm8  1  0.424427  0.750000  0.991952  1
  Dy  Dy9  1  0.074139  0.750000  0.492703  1
  U  U10  1  0.940723  0.250000  0.506404  1
  U  U11  1  0.559822  0.250000  0.006344  1
  Se  Se12  1  0.834729  0.966767  0.592025  1
  Se  Se13  1  0.667022  0.531492  0.093185  1
  Se  Se14  1  0.165019  0.453914  0.408446  1
  Se  Se15  1  0.333781  0.050114  0.907193  1
  Se  Se16  1  0.165019  0.046086  0.408446  1
  Se  Se17  1  0.333781  0.449886  0.907193  1
  Se  Se18  1  0.834729  0.533233  0.592025  1
  Se  Se19  1  0.667022  0.968508  0.093185  1
  Se  Se20  1  0.834269  0.750000  0.311708  1
  Se  Se21  1  0.668392  0.750000  0.809521  1
  Se  Se22  1  0.162513  0.250000  0.684379  1
  Se  Se23  1  0.337439  0.250000  0.184415  1
  Se  Se24  1  0.455820  0.750000  0.497820  1
  Se  Se25  1  0.041130  0.750000  0.998074  1
  Se  Se26  1  0.549348  0.250000  0.500867  1
  Se  Se27  1  0.950772  0.250000  0.000922  1
  Se  Se28  1  0.190704  0.750000  0.714884  1
  Se  Se29  1  0.308089  0.750000  0.216759  1
  Se  Se30  1  0.812065  0.250000  0.290317  1
  Se  Se31  1  0.688358  0.250000  0.789927  1
