# generated using pymatgen
data_La2Ga5SnAu6
_symmetry_space_group_name_H-M   'P 1'
_cell_length_a   4.65813500
_cell_length_b   7.07310400
_cell_length_c   8.87465800
_cell_angle_alpha   90.00000000
_cell_angle_beta   90.00000000
_cell_angle_gamma   90.00000000
_symmetry_Int_Tables_number   1
_chemical_formula_structural   La2Ga5SnAu6
_chemical_formula_sum   'La2 Ga5 Sn1 Au6'
_cell_volume   292.39755751
_cell_formula_units_Z   1
loop_
 _symmetry_equiv_pos_site_id
 _symmetry_equiv_pos_as_xyz
  1  'x, y, z'
loop_
 _atom_site_type_symbol
 _atom_site_label
 _atom_site_symmetry_multiplicity
 _atom_site_fract_x
 _atom_site_fract_y
 _atom_site_fract_z
 _atom_site_occupancy
  La  La0  1  0.500000  0.000000  0.756112  1
  La  La1  1  0.000000  0.500000  0.235755  1
  Ga  Ga2  1  0.000000  0.306616  0.888642  1
  Ga  Ga3  1  0.500000  0.195960  0.112282  1
  Ga  Ga4  1  0.000000  0.693384  0.888642  1
  Ga  Ga5  1  0.500000  0.804040  0.112282  1
  Ga  Ga6  1  0.500000  0.500000  0.634504  1
  Sn  Sn7  1  0.000000  0.000000  0.371951  1
  Au  Au8  1  0.000000  0.727328  0.602677  1
  Au  Au9  1  0.500000  0.741530  0.402031  1
  Au  Au10  1  0.500000  0.500000  0.936317  1
  Au  Au11  1  0.000000  0.000000  0.054098  1
  Au  Au12  1  0.500000  0.258470  0.402031  1
  Au  Au13  1  0.000000  0.272672  0.602677  1
