# generated using pymatgen
data_YbEr3(SiPd2)4
_symmetry_space_group_name_H-M   'P 1'
_cell_length_a   5.53639505
_cell_length_b   6.98987600
_cell_length_c   7.27868407
_cell_angle_alpha   90.00000000
_cell_angle_beta   90.01567977
_cell_angle_gamma   90.00000000
_symmetry_Int_Tables_number   1
_chemical_formula_structural   YbEr3(SiPd2)4
_chemical_formula_sum   'Yb1 Er3 Si4 Pd8'
_cell_volume   281.67570905
_cell_formula_units_Z   1
loop_
 _symmetry_equiv_pos_site_id
 _symmetry_equiv_pos_as_xyz
  1  'x, y, z'
loop_
 _atom_site_type_symbol
 _atom_site_label
 _atom_site_symmetry_multiplicity
 _atom_site_fract_x
 _atom_site_fract_y
 _atom_site_fract_z
 _atom_site_occupancy
  Yb  Yb0  1  0.140090  0.750000  0.526505  1
  Er  Er1  1  0.640563  0.250000  0.973254  1
  Er  Er2  1  0.859423  0.250000  0.472741  1
  Er  Er3  1  0.359330  0.750000  0.027064  1
  Si  Si4  1  0.858984  0.750000  0.879318  1
  Si  Si5  1  0.360880  0.250000  0.621147  1
  Si  Si6  1  0.140069  0.250000  0.121403  1
  Si  Si7  1  0.639579  0.750000  0.378418  1
  Pd  Pd8  1  0.903929  0.948304  0.178671  1
  Pd  Pd9  1  0.406623  0.051459  0.320998  1
  Pd  Pd10  1  0.094886  0.447529  0.822017  1
  Pd  Pd11  1  0.595104  0.551220  0.678389  1
  Pd  Pd12  1  0.094886  0.052471  0.822017  1
  Pd  Pd13  1  0.595104  0.948780  0.678389  1
  Pd  Pd14  1  0.903929  0.551696  0.178671  1
  Pd  Pd15  1  0.406623  0.448541  0.320998  1
