# generated using pymatgen
data_Ti6Re6Ge5P
_symmetry_space_group_name_H-M   'P 1'
_cell_length_a   7.64298725
_cell_length_b   7.63962094
_cell_length_c   7.64298829
_cell_angle_alpha   126.28325361
_cell_angle_beta   129.26856058
_cell_angle_gamma   77.02228807
_symmetry_Int_Tables_number   1
_chemical_formula_structural   Ti6Re6Ge5P
_chemical_formula_sum   'Ti6 Re6 Ge5 P1'
_cell_volume   270.34147291
_cell_formula_units_Z   1
loop_
 _symmetry_equiv_pos_site_id
 _symmetry_equiv_pos_as_xyz
  1  'x, y, z'
loop_
 _atom_site_type_symbol
 _atom_site_label
 _atom_site_symmetry_multiplicity
 _atom_site_fract_x
 _atom_site_fract_y
 _atom_site_fract_z
 _atom_site_occupancy
  Ti  Ti0  1  0.549432  0.096289  0.046857  1
  Ti  Ti1  1  0.447674  0.497074  0.549400  1
  Ti  Ti2  1  0.952174  0.497990  0.045814  1
  Ti  Ti3  1  0.048022  0.092289  0.544267  1
  Ti  Ti4  1  0.752225  0.900117  0.647891  1
  Ti  Ti5  1  0.249997  0.896844  0.146848  1
  Re  Re6  1  0.511723  0.239543  0.750452  1
  Re  Re7  1  0.989091  0.239543  0.227819  1
  Re  Re8  1  0.120208  0.753778  0.616881  1
  Re  Re9  1  0.858499  0.496972  0.613077  1
  Re  Re10  1  0.636896  0.753778  0.133570  1
  Re  Re11  1  0.383895  0.496972  0.138472  1
  Ge  Ge12  1  0.247366  0.493393  0.746026  1
  Ge  Ge13  1  0.336231  0.830296  0.498735  1
  Ge  Ge14  1  0.665249  0.164684  0.495645  1
  Ge  Ge15  1  0.831561  0.830296  0.994065  1
  Ge  Ge16  1  0.169038  0.164684  0.999433  1
  P  P17  1  0.750717  0.497659  0.246942  1
