# generated using pymatgen
data_YEr3AgRh
_symmetry_space_group_name_H-M   'P 1'
_cell_length_a   9.46599499
_cell_length_b   9.45940107
_cell_length_c   9.46743778
_cell_angle_alpha   60.22582283
_cell_angle_beta   60.33957506
_cell_angle_gamma   60.42990117
_symmetry_Int_Tables_number   1
_chemical_formula_structural   YEr3AgRh
_chemical_formula_sum   'Y4 Er12 Ag4 Rh4'
_cell_volume   603.93793189
_cell_formula_units_Z   4
loop_
 _symmetry_equiv_pos_site_id
 _symmetry_equiv_pos_as_xyz
  1  'x, y, z'
loop_
 _atom_site_type_symbol
 _atom_site_label
 _atom_site_symmetry_multiplicity
 _atom_site_fract_x
 _atom_site_fract_y
 _atom_site_fract_z
 _atom_site_occupancy
  Y  Y0  1  0.187628  0.188297  0.812713  1
  Y  Y1  1  0.436413  0.064086  0.065224  1
  Y  Y2  1  0.435333  0.065721  0.434912  1
  Y  Y3  1  0.064916  0.435517  0.065408  1
  Er  Er4  1  0.647566  0.058687  0.646173  1
  Er  Er5  1  0.187642  0.813034  0.813416  1
  Er  Er6  1  0.063805  0.062713  0.436913  1
  Er  Er7  1  0.812797  0.187740  0.187863  1
  Er  Er8  1  0.814014  0.813345  0.186891  1
  Er  Er9  1  0.646868  0.646214  0.060208  1
  Er  Er10  1  0.646717  0.646413  0.644832  1
  Er  Er11  1  0.064391  0.436111  0.435077  1
  Er  Er12  1  0.057386  0.647312  0.646721  1
  Er  Er13  1  0.813102  0.187666  0.812738  1
  Er  Er14  1  0.436989  0.437823  0.063704  1
  Er  Er15  1  0.187646  0.812766  0.188189  1
  Ag  Ag16  1  0.416752  0.744728  0.418643  1
  Ag  Ag17  1  0.418233  0.418943  0.744449  1
  Ag  Ag18  1  0.746150  0.417030  0.418469  1
  Ag  Ag19  1  0.416851  0.418317  0.417300  1
  Rh  Rh20  1  0.851858  0.432947  0.856392  1
  Rh  Rh21  1  0.856750  0.855888  0.430891  1
  Rh  Rh22  1  0.433482  0.851276  0.856821  1
  Rh  Rh23  1  0.856712  0.857426  0.856053  1
