# generated using pymatgen
data_Nd6Al24Ir5Ru3
_symmetry_space_group_name_H-M   'P 1'
_cell_length_a   8.85753200
_cell_length_b   8.89955086
_cell_length_c   9.65980700
_cell_angle_alpha   90.09760218
_cell_angle_beta   90.00000000
_cell_angle_gamma   119.84394535
_symmetry_Int_Tables_number   1
_chemical_formula_structural   Nd6Al24Ir5Ru3
_chemical_formula_sum   'Nd6 Al24 Ir5 Ru3'
_cell_volume   660.48027179
_cell_formula_units_Z   1
loop_
 _symmetry_equiv_pos_site_id
 _symmetry_equiv_pos_as_xyz
  1  'x, y, z'
loop_
 _atom_site_type_symbol
 _atom_site_label
 _atom_site_symmetry_multiplicity
 _atom_site_fract_x
 _atom_site_fract_y
 _atom_site_fract_z
 _atom_site_occupancy
  Nd  Nd0  1  0.191159  0.382316  0.249998  1
  Nd  Nd1  1  0.808841  0.617684  0.750002  1
  Nd  Nd2  1  0.618119  0.810521  0.250134  1
  Nd  Nd3  1  0.381881  0.189479  0.749866  1
  Nd  Nd4  1  0.192403  0.810521  0.250134  1
  Nd  Nd5  1  0.807597  0.189479  0.749866  1
  Al  Al6  1  0.333674  0.667351  0.022147  1
  Al  Al7  1  0.666326  0.332649  0.977853  1
  Al  Al8  1  0.665452  0.330901  0.522042  1
  Al  Al9  1  0.334548  0.669099  0.477958  1
  Al  Al10  1  0.163414  0.326827  0.574274  1
  Al  Al11  1  0.836586  0.673173  0.425726  1
  Al  Al12  1  0.672615  0.837343  0.575256  1
  Al  Al13  1  0.837012  0.674024  0.074936  1
  Al  Al14  1  0.327385  0.162657  0.424744  1
  Al  Al15  1  0.162988  0.325976  0.925064  1
  Al  Al16  1  0.164727  0.837343  0.575256  1
  Al  Al17  1  0.327031  0.164235  0.075394  1
  Al  Al18  1  0.835273  0.162657  0.424744  1
  Al  Al19  1  0.672969  0.835765  0.924606  1
  Al  Al20  1  0.837205  0.164235  0.075394  1
  Al  Al21  1  0.162795  0.835765  0.924606  1
  Al  Al22  1  0.562871  0.125742  0.251168  1
  Al  Al23  1  0.437129  0.874258  0.748832  1
  Al  Al24  1  0.874364  0.438080  0.249783  1
  Al  Al25  1  0.125636  0.561920  0.750217  1
  Al  Al26  1  0.563716  0.438080  0.249783  1
  Al  Al27  1  0.436284  0.561920  0.750217  1
  Al  Al28  1  0.000990  0.001982  0.250015  1
  Al  Al29  1  0.999010  0.998018  0.749985  1
  Ir  Ir30  1  0.500000  0.000000  0.000000  1
  Ir  Ir31  1  0.000000  0.500000  0.000000  1
  Ir  Ir32  1  0.500000  0.500000  0.000000  1
  Ir  Ir33  1  0.000000  0.500000  0.500000  1
  Ir  Ir34  1  0.500000  0.500000  0.500000  1
  Ru  Ru35  1  0.500000  0.000000  0.500000  1
  Ru  Ru36  1  0.000000  0.000000  0.000000  1
  Ru  Ru37  1  0.000000  0.000000  0.500000  1
