# generated using pymatgen
data_PrEu3(BeSi3)2
_symmetry_space_group_name_H-M   'P 1'
_cell_length_a   7.91939700
_cell_length_b   7.91939726
_cell_length_c   8.70109400
_cell_angle_alpha   90.00000000
_cell_angle_beta   90.00000000
_cell_angle_gamma   120.00000308
_symmetry_Int_Tables_number   1
_chemical_formula_structural   PrEu3(BeSi3)2
_chemical_formula_sum   'Pr2 Eu6 Be4 Si12'
_cell_volume   472.59456479
_cell_formula_units_Z   2
loop_
 _symmetry_equiv_pos_site_id
 _symmetry_equiv_pos_as_xyz
  1  'x, y, z'
loop_
 _atom_site_type_symbol
 _atom_site_label
 _atom_site_symmetry_multiplicity
 _atom_site_fract_x
 _atom_site_fract_y
 _atom_site_fract_z
 _atom_site_occupancy
  Pr  Pr0  1  0.000000  0.000000  0.750000  1
  Pr  Pr1  1  0.000000  0.000000  0.250000  1
  Eu  Eu2  1  0.499813  0.500187  0.750000  1
  Eu  Eu3  1  0.500187  0.499813  0.250000  1
  Eu  Eu4  1  0.000376  0.500187  0.750000  1
  Eu  Eu5  1  0.999624  0.499813  0.250000  1
  Eu  Eu6  1  0.499813  0.999624  0.750000  1
  Eu  Eu7  1  0.500187  0.000376  0.250000  1
  Be  Be8  1  0.666667  0.333333  0.997737  1
  Be  Be9  1  0.333333  0.666667  0.002263  1
  Be  Be10  1  0.333333  0.666667  0.497737  1
  Be  Be11  1  0.666667  0.333333  0.502263  1
  Si  Si12  1  0.827617  0.172383  0.000179  1
  Si  Si13  1  0.172383  0.827617  0.999821  1
  Si  Si14  1  0.344765  0.172383  0.000179  1
  Si  Si15  1  0.172383  0.827617  0.500179  1
  Si  Si16  1  0.655235  0.827617  0.999821  1
  Si  Si17  1  0.827617  0.172383  0.499821  1
  Si  Si18  1  0.827617  0.655235  0.000179  1
  Si  Si19  1  0.655235  0.827617  0.500179  1
  Si  Si20  1  0.172383  0.344765  0.999821  1
  Si  Si21  1  0.344765  0.172383  0.499821  1
  Si  Si22  1  0.172383  0.344765  0.500179  1
  Si  Si23  1  0.827617  0.655235  0.499821  1
