# generated using pymatgen
data_TmZnSi2Pd
_symmetry_space_group_name_H-M   'P 1'
_cell_length_a   5.94029267
_cell_length_b   5.94029242
_cell_length_c   5.94029231
_cell_angle_alpha   140.58380781
_cell_angle_beta   140.58380208
_cell_angle_gamma   56.96793241
_symmetry_Int_Tables_number   1
_chemical_formula_structural   TmZnSi2Pd
_chemical_formula_sum   'Tm1 Zn1 Si2 Pd1'
_cell_volume   83.81003107
_cell_formula_units_Z   1
loop_
 _symmetry_equiv_pos_site_id
 _symmetry_equiv_pos_as_xyz
  1  'x, y, z'
loop_
 _atom_site_type_symbol
 _atom_site_label
 _atom_site_symmetry_multiplicity
 _atom_site_fract_x
 _atom_site_fract_y
 _atom_site_fract_z
 _atom_site_occupancy
  Tm  Tm0  1  0.000000  0.000000  0.000000  1
  Zn  Zn1  1  0.250000  0.750000  0.500000  1
  Si  Si2  1  0.389664  0.389664  0.000000  1
  Si  Si3  1  0.610336  0.610336  0.000000  1
  Pd  Pd4  1  0.750000  0.250000  0.500000  1
