# generated using pymatgen
data_MgSc5(B2Ir5)2
_symmetry_space_group_name_H-M   'P 1'
_cell_length_a   3.06778600
_cell_length_b   9.56729300
_cell_length_c   9.56729300
_cell_angle_alpha   90.00000000
_cell_angle_beta   90.00000000
_cell_angle_gamma   90.00000000
_symmetry_Int_Tables_number   1
_chemical_formula_structural   MgSc5(B2Ir5)2
_chemical_formula_sum   'Mg1 Sc5 B4 Ir10'
_cell_volume   280.80394844
_cell_formula_units_Z   1
loop_
 _symmetry_equiv_pos_site_id
 _symmetry_equiv_pos_as_xyz
  1  'x, y, z'
loop_
 _atom_site_type_symbol
 _atom_site_label
 _atom_site_symmetry_multiplicity
 _atom_site_fract_x
 _atom_site_fract_y
 _atom_site_fract_z
 _atom_site_occupancy
  Mg  Mg0  1  0.000000  0.000000  0.000000  1
  Sc  Sc1  1  0.000000  0.175255  0.678485  1
  Sc  Sc2  1  0.000000  0.824745  0.321515  1
  Sc  Sc3  1  0.000000  0.321515  0.175255  1
  Sc  Sc4  1  0.000000  0.678485  0.824745  1
  Sc  Sc5  1  0.000000  0.500000  0.500000  1
  B  B6  1  0.000000  0.627589  0.120176  1
  B  B7  1  0.000000  0.372411  0.879824  1
  B  B8  1  0.000000  0.879824  0.627589  1
  B  B9  1  0.000000  0.120176  0.372411  1
  Ir  Ir10  1  0.500000  0.068588  0.219656  1
  Ir  Ir11  1  0.500000  0.931412  0.780344  1
  Ir  Ir12  1  0.500000  0.780344  0.068588  1
  Ir  Ir13  1  0.500000  0.428771  0.722986  1
  Ir  Ir14  1  0.500000  0.219656  0.931412  1
  Ir  Ir15  1  0.500000  0.571229  0.277014  1
  Ir  Ir16  1  0.500000  0.722986  0.571229  1
  Ir  Ir17  1  0.500000  0.277014  0.428771  1
  Ir  Ir18  1  0.500000  0.000000  0.500000  1
  Ir  Ir19  1  0.500000  0.500000  0.000000  1
