# generated using pymatgen
data_LiDy16Tl(CdCo2)2
_symmetry_space_group_name_H-M   'P 1'
_cell_length_a   9.49421768
_cell_length_b   9.48007171
_cell_length_c   9.49421908
_cell_angle_alpha   59.94315814
_cell_angle_beta   59.94504947
_cell_angle_gamma   59.94315803
_symmetry_Int_Tables_number   1
_chemical_formula_structural   LiDy16Tl(CdCo2)2
_chemical_formula_sum   'Li1 Dy16 Tl1 Cd2 Co4'
_cell_volume   603.47741455
_cell_formula_units_Z   1
loop_
 _symmetry_equiv_pos_site_id
 _symmetry_equiv_pos_as_xyz
  1  'x, y, z'
loop_
 _atom_site_type_symbol
 _atom_site_label
 _atom_site_symmetry_multiplicity
 _atom_site_fract_x
 _atom_site_fract_y
 _atom_site_fract_z
 _atom_site_occupancy
  Li  Li0  1  0.929485  0.928475  0.929485  1
  Dy  Dy1  1  0.153478  0.536614  0.153478  1
  Dy  Dy2  1  0.687914  0.313207  0.687914  1
  Dy  Dy3  1  0.689795  0.310116  0.310745  1
  Dy  Dy4  1  0.938246  0.564266  0.559541  1
  Dy  Dy5  1  0.537440  0.153782  0.154166  1
  Dy  Dy6  1  0.154166  0.153782  0.537440  1
  Dy  Dy7  1  0.939124  0.939525  0.560551  1
  Dy  Dy8  1  0.311253  0.688406  0.311253  1
  Dy  Dy9  1  0.560551  0.939525  0.939124  1
  Dy  Dy10  1  0.561902  0.939198  0.561902  1
  Dy  Dy11  1  0.686151  0.686008  0.316154  1
  Dy  Dy12  1  0.559541  0.564266  0.938246  1
  Dy  Dy13  1  0.938550  0.562293  0.938550  1
  Dy  Dy14  1  0.316154  0.686008  0.686151  1
  Dy  Dy15  1  0.152676  0.152971  0.152676  1
  Dy  Dy16  1  0.310745  0.310116  0.689795  1
  Tl  Tl17  1  0.916091  0.246669  0.916091  1
  Cd  Cd18  1  0.918847  0.915370  0.244035  1
  Cd  Cd19  1  0.244035  0.915370  0.918847  1
  Co  Co20  1  0.357461  0.356828  0.921269  1
  Co  Co21  1  0.356794  0.922367  0.356794  1
  Co  Co22  1  0.921269  0.356828  0.357461  1
  Co  Co23  1  0.358335  0.358013  0.358335  1
