# generated using pymatgen
data_Er2GaNiRu
_symmetry_space_group_name_H-M   'P 1'
_cell_length_a   4.11005268
_cell_length_b   5.58224336
_cell_length_c   5.39659053
_cell_angle_alpha   121.14469865
_cell_angle_beta   112.38329253
_cell_angle_gamma   90.00000388
_symmetry_Int_Tables_number   1
_chemical_formula_structural   Er2GaNiRu
_chemical_formula_sum   'Er2 Ga1 Ni1 Ru1'
_cell_volume   94.90240642
_cell_formula_units_Z   1
loop_
 _symmetry_equiv_pos_site_id
 _symmetry_equiv_pos_as_xyz
  1  'x, y, z'
loop_
 _atom_site_type_symbol
 _atom_site_label
 _atom_site_symmetry_multiplicity
 _atom_site_fract_x
 _atom_site_fract_y
 _atom_site_fract_z
 _atom_site_occupancy
  Er  Er0  1  0.795949  0.288928  0.591899  1
  Er  Er1  1  0.204051  0.697030  0.408101  1
  Ga  Ga2  1  0.000000  0.996057  0.000000  1
  Ni  Ni3  1  0.500000  0.737584  0.000000  1
  Ru  Ru4  1  0.500000  0.280401  0.000000  1
