# generated using pymatgen
data_La(Sn2Rh3)2
_symmetry_space_group_name_H-M   'P 1'
_cell_length_a   7.65828900
_cell_length_b   7.65828804
_cell_length_c   4.11480900
_cell_angle_alpha   90.00000000
_cell_angle_beta   90.00000000
_cell_angle_gamma   119.99999984
_symmetry_Int_Tables_number   1
_chemical_formula_structural   La(Sn2Rh3)2
_chemical_formula_sum   'La1 Sn4 Rh6'
_cell_volume   208.99878497
_cell_formula_units_Z   1
loop_
 _symmetry_equiv_pos_site_id
 _symmetry_equiv_pos_as_xyz
  1  'x, y, z'
loop_
 _atom_site_type_symbol
 _atom_site_label
 _atom_site_symmetry_multiplicity
 _atom_site_fract_x
 _atom_site_fract_y
 _atom_site_fract_z
 _atom_site_occupancy
  La  La0  1  0.000000  0.000000  0.000000  1
  Sn  Sn1  1  0.333333  0.666666  0.000000  1
  Sn  Sn2  1  0.394885  0.197443  0.500000  1
  Sn  Sn3  1  0.802556  0.197443  0.500000  1
  Sn  Sn4  1  0.802557  0.605115  0.500000  1
  Rh  Rh5  1  0.533220  0.066439  0.000000  1
  Rh  Rh6  1  0.933561  0.466780  0.000000  1
  Rh  Rh7  1  0.533219  0.466780  0.000000  1
  Rh  Rh8  1  0.201418  0.402838  0.500000  1
  Rh  Rh9  1  0.201418  0.798582  0.500000  1
  Rh  Rh10  1  0.597163  0.798582  0.500000  1
