# generated using pymatgen
data_RbBa(AsPt)2
_symmetry_space_group_name_H-M   'P 1'
_cell_length_a   6.82353566
_cell_length_b   6.84105500
_cell_length_c   6.83112752
_cell_angle_alpha   90.00000000
_cell_angle_beta   89.68624316
_cell_angle_gamma   90.00000000
_symmetry_Int_Tables_number   1
_chemical_formula_structural   RbBa(AsPt)2
_chemical_formula_sum   'Rb2 Ba2 As4 Pt4'
_cell_volume   318.87349998
_cell_formula_units_Z   2
loop_
 _symmetry_equiv_pos_site_id
 _symmetry_equiv_pos_as_xyz
  1  'x, y, z'
loop_
 _atom_site_type_symbol
 _atom_site_label
 _atom_site_symmetry_multiplicity
 _atom_site_fract_x
 _atom_site_fract_y
 _atom_site_fract_z
 _atom_site_occupancy
  Rb  Rb0  1  0.619018  0.377646  0.873855  1
  Rb  Rb1  1  0.380982  0.877646  0.626145  1
  Ba  Ba2  1  0.123843  0.119495  0.115606  1
  Ba  Ba3  1  0.876157  0.619495  0.384394  1
  As  As4  1  0.159591  0.339169  0.662635  1
  As  As5  1  0.664477  0.164605  0.336204  1
  As  As6  1  0.335523  0.664605  0.163796  1
  As  As7  1  0.840409  0.839169  0.837365  1
  Pt  Pt8  1  0.601274  0.901168  0.101732  1
  Pt  Pt9  1  0.096381  0.597917  0.905869  1
  Pt  Pt10  1  0.398726  0.401168  0.398268  1
  Pt  Pt11  1  0.903619  0.097917  0.594131  1
