# generated using pymatgen
data_CaDy4Sc(Si3Ru)8
_symmetry_space_group_name_H-M   'P 1'
_cell_length_a   10.11348831
_cell_length_b   10.11202737
_cell_length_c   8.12709707
_cell_angle_alpha   89.90625571
_cell_angle_beta   90.08156198
_cell_angle_gamma   132.61034576
_symmetry_Int_Tables_number   1
_chemical_formula_structural   CaDy4Sc(Si3Ru)8
_chemical_formula_sum   'Ca1 Dy4 Sc1 Si24 Ru8'
_cell_volume   611.69793532
_cell_formula_units_Z   1
loop_
 _symmetry_equiv_pos_site_id
 _symmetry_equiv_pos_as_xyz
  1  'x, y, z'
loop_
 _atom_site_type_symbol
 _atom_site_label
 _atom_site_symmetry_multiplicity
 _atom_site_fract_x
 _atom_site_fract_y
 _atom_site_fract_z
 _atom_site_occupancy
  Ca  Ca0  1  0.501765  0.001875  0.749801  1
  Dy  Dy1  1  0.000345  0.000289  0.999433  1
  Dy  Dy2  1  0.998678  0.498512  0.250145  1
  Dy  Dy3  1  0.497413  0.997396  0.250251  1
  Dy  Dy4  1  0.002523  0.502619  0.749909  1
  Sc  Sc5  1  0.500099  0.500255  0.500421  1
  Si  Si6  1  0.793891  0.204783  0.500137  1
  Si  Si7  1  0.295670  0.705496  0.999046  1
  Si  Si8  1  0.206048  0.794916  0.500852  1
  Si  Si9  1  0.704044  0.294430  0.999912  1
  Si  Si10  1  0.334093  0.335362  0.830516  1
  Si  Si11  1  0.665611  0.667054  0.169422  1
  Si  Si12  1  0.170699  0.169646  0.334519  1
  Si  Si13  1  0.831368  0.830261  0.665473  1
  Si  Si14  1  0.119672  0.885318  0.727584  1
  Si  Si15  1  0.111929  0.878240  0.272781  1
  Si  Si16  1  0.610143  0.379109  0.230316  1
  Si  Si17  1  0.622631  0.391302  0.769811  1
  Si  Si18  1  0.879197  0.112791  0.272270  1
  Si  Si19  1  0.889002  0.123088  0.727546  1
  Si  Si20  1  0.387869  0.619657  0.769980  1
  Si  Si21  1  0.378734  0.609780  0.229727  1
  Si  Si22  1  0.345180  0.113910  0.502388  1
  Si  Si23  1  0.885659  0.654511  0.494981  1
  Si  Si24  1  0.388465  0.154943  0.006062  1
  Si  Si25  1  0.844048  0.611410  0.995042  1
  Si  Si26  1  0.654174  0.885691  0.494237  1
  Si  Si27  1  0.114483  0.345076  0.504349  1
  Si  Si28  1  0.611190  0.844314  0.997459  1
  Si  Si29  1  0.155625  0.388638  0.005401  1
  Ru  Ru30  1  0.669239  0.332029  0.499384  1
  Ru  Ru31  1  0.167707  0.828727  0.001698  1
  Ru  Ru32  1  0.330320  0.666968  0.498481  1
  Ru  Ru33  1  0.831147  0.170636  0.000692  1
  Ru  Ru34  1  0.126665  0.126416  0.627387  1
  Ru  Ru35  1  0.873839  0.874200  0.372808  1
  Ru  Ru36  1  0.373512  0.372948  0.126812  1
  Ru  Ru37  1  0.627321  0.627406  0.872965  1
