# generated using pymatgen
data_Tl2Te3RhO12
_symmetry_space_group_name_H-M   'P 1'
_cell_length_a   7.23085504
_cell_length_b   7.27516263
_cell_length_c   7.23088300
_cell_angle_alpha   90.00000000
_cell_angle_beta   60.40598747
_cell_angle_gamma   120.20289934
_symmetry_Int_Tables_number   1
_chemical_formula_structural   Tl2Te3RhO12
_chemical_formula_sum   'Tl2 Te3 Rh1 O12'
_cell_volume   269.78894218
_cell_formula_units_Z   1
loop_
 _symmetry_equiv_pos_site_id
 _symmetry_equiv_pos_as_xyz
  1  'x, y, z'
loop_
 _atom_site_type_symbol
 _atom_site_label
 _atom_site_symmetry_multiplicity
 _atom_site_fract_x
 _atom_site_fract_y
 _atom_site_fract_z
 _atom_site_occupancy
  Tl  Tl0  1  0.265536  0.130095  0.632764  1
  Tl  Tl1  1  0.734464  0.864559  0.367236  1
  Te  Te2  1  0.499923  0.497223  0.000054  1
  Te  Te3  1  0.500077  0.997300  0.999946  1
  Te  Te4  1  0.000000  0.497261  0.500000  1
  Rh  Rh5  1  0.000000  0.497393  0.000000  1
  O  O6  1  0.647384  0.820978  0.927218  1
  O  O7  1  0.847826  0.421324  0.330438  1
  O  O8  1  0.254355  0.421288  0.923917  1
  O  O9  1  0.250899  0.821013  0.323690  1
  O  O10  1  0.254316  0.827788  0.923945  1
  O  O11  1  0.250934  0.424554  0.323698  1
  O  O12  1  0.352616  0.173593  0.072782  1
  O  O13  1  0.152174  0.573498  0.669562  1
  O  O14  1  0.745684  0.573470  0.076055  1
  O  O15  1  0.749066  0.173618  0.676302  1
  O  O16  1  0.745645  0.166933  0.076083  1
  O  O17  1  0.749101  0.570114  0.676310  1
