# generated using pymatgen
data_PrNd4GeBi3
_symmetry_space_group_name_H-M   'P 1'
_cell_length_a   9.73465800
_cell_length_b   9.73465876
_cell_length_c   6.65440700
_cell_angle_alpha   90.00000000
_cell_angle_beta   90.00000000
_cell_angle_gamma   119.99999743
_symmetry_Int_Tables_number   1
_chemical_formula_structural   PrNd4GeBi3
_chemical_formula_sum   'Pr2 Nd8 Ge2 Bi6'
_cell_volume   546.11164014
_cell_formula_units_Z   2
loop_
 _symmetry_equiv_pos_site_id
 _symmetry_equiv_pos_as_xyz
  1  'x, y, z'
loop_
 _atom_site_type_symbol
 _atom_site_label
 _atom_site_symmetry_multiplicity
 _atom_site_fract_x
 _atom_site_fract_y
 _atom_site_fract_z
 _atom_site_occupancy
  Pr  Pr0  1  0.666667  0.333333  0.000000  1
  Pr  Pr1  1  0.333333  0.666667  0.000000  1
  Nd  Nd2  1  0.333333  0.666667  0.500000  1
  Nd  Nd3  1  0.666667  0.333333  0.500000  1
  Nd  Nd4  1  0.747564  0.747564  0.749760  1
  Nd  Nd5  1  0.252436  0.000000  0.749760  1
  Nd  Nd6  1  0.000000  0.252436  0.749760  1
  Nd  Nd7  1  0.252436  0.252436  0.250240  1
  Nd  Nd8  1  0.747564  0.000000  0.250240  1
  Nd  Nd9  1  0.000000  0.747564  0.250240  1
  Ge  Ge10  1  0.000000  0.000000  0.000000  1
  Ge  Ge11  1  0.000000  0.000000  0.500000  1
  Bi  Bi12  1  0.389847  0.389847  0.748863  1
  Bi  Bi13  1  0.610153  0.000000  0.748863  1
  Bi  Bi14  1  0.000000  0.610153  0.748863  1
  Bi  Bi15  1  0.610153  0.610153  0.251137  1
  Bi  Bi16  1  0.389847  0.000000  0.251137  1
  Bi  Bi17  1  0.000000  0.389847  0.251137  1
