# generated using pymatgen
data_Nd5IrPdO12
_symmetry_space_group_name_H-M   'P 1'
_cell_length_a   7.11480784
_cell_length_b   7.11480663
_cell_length_c   7.55508721
_cell_angle_alpha   74.56702602
_cell_angle_beta   74.56703052
_cell_angle_gamma   51.02035543
_symmetry_Int_Tables_number   1
_chemical_formula_structural   Nd5IrPdO12
_chemical_formula_sum   'Nd5 Ir1 Pd1 O12'
_cell_volume   284.08138643
_cell_formula_units_Z   1
loop_
 _symmetry_equiv_pos_site_id
 _symmetry_equiv_pos_as_xyz
  1  'x, y, z'
loop_
 _atom_site_type_symbol
 _atom_site_label
 _atom_site_symmetry_multiplicity
 _atom_site_fract_x
 _atom_site_fract_y
 _atom_site_fract_z
 _atom_site_occupancy
  Nd  Nd0  1  0.311295  0.294838  0.358464  1
  Nd  Nd1  1  0.705162  0.688705  0.641536  1
  Nd  Nd2  1  0.696413  0.691347  0.165764  1
  Nd  Nd3  1  0.308653  0.303587  0.834236  1
  Nd  Nd4  1  0.002786  0.997214  0.500000  1
  Ir  Ir5  1  0.241335  0.758665  0.000000  1
  Pd  Pd6  1  0.748435  0.251565  0.000000  1
  O  O7  1  0.100040  0.597507  0.573602  1
  O  O8  1  0.998441  0.000846  0.174277  1
  O  O9  1  0.402493  0.899960  0.426398  1
  O  O10  1  0.494687  0.505678  0.176933  1
  O  O11  1  0.101265  0.583082  0.080170  1
  O  O12  1  0.908656  0.401052  0.422166  1
  O  O13  1  0.999154  0.001559  0.825723  1
  O  O14  1  0.598948  0.091343  0.577834  1
  O  O15  1  0.494322  0.505313  0.823067  1
  O  O16  1  0.568391  0.097393  0.082239  1
  O  O17  1  0.416918  0.898735  0.919830  1
  O  O18  1  0.902607  0.431609  0.917761  1
