# generated using pymatgen
data_TbY15(HoSn4)4
_symmetry_space_group_name_H-M   'P 1'
_cell_length_a   8.04039540
_cell_length_b   8.18021107
_cell_length_c   15.48960150
_cell_angle_alpha   89.97248245
_cell_angle_beta   89.87623692
_cell_angle_gamma   90.15862798
_symmetry_Int_Tables_number   1
_chemical_formula_structural   TbY15(HoSn4)4
_chemical_formula_sum   'Tb1 Y15 Ho4 Sn16'
_cell_volume   1018.77770380
_cell_formula_units_Z   1
loop_
 _symmetry_equiv_pos_site_id
 _symmetry_equiv_pos_as_xyz
  1  'x, y, z'
loop_
 _atom_site_type_symbol
 _atom_site_label
 _atom_site_symmetry_multiplicity
 _atom_site_fract_x
 _atom_site_fract_y
 _atom_site_fract_z
 _atom_site_occupancy
  Tb  Tb0  1  0.019966  0.179284  0.902624  1
  Y  Y1  1  0.366950  0.837071  0.877653  1
  Y  Y2  1  0.867270  0.662848  0.622224  1
  Y  Y3  1  0.632695  0.162720  0.377690  1
  Y  Y4  1  0.133086  0.337133  0.122376  1
  Y  Y5  1  0.633054  0.162753  0.122441  1
  Y  Y6  1  0.132739  0.337285  0.377678  1
  Y  Y7  1  0.367272  0.837212  0.622269  1
  Y  Y8  1  0.866914  0.662870  0.877664  1
  Y  Y9  1  0.520494  0.321029  0.902640  1
  Y  Y10  1  0.020947  0.179050  0.597619  1
  Y  Y11  1  0.479109  0.678993  0.402521  1
  Y  Y12  1  0.979563  0.820941  0.097439  1
  Y  Y13  1  0.479599  0.679010  0.097355  1
  Y  Y14  1  0.979088  0.821079  0.402503  1
  Y  Y15  1  0.520785  0.321007  0.597390  1
  Ho  Ho16  1  0.198683  0.502657  0.749957  1
  Ho  Ho17  1  0.698710  0.997200  0.749911  1
  Ho  Ho18  1  0.801339  0.497279  0.250018  1
  Ho  Ho19  1  0.301287  0.002742  0.249990  1
  Sn  Sn20  1  0.293769  0.035991  0.042097  1
  Sn  Sn21  1  0.792530  0.464091  0.457846  1
  Sn  Sn22  1  0.707434  0.964252  0.542097  1
  Sn  Sn23  1  0.206742  0.536365  0.957800  1
  Sn  Sn24  1  0.706495  0.963822  0.958270  1
  Sn  Sn25  1  0.207370  0.536020  0.542116  1
  Sn  Sn26  1  0.292593  0.036201  0.457892  1
  Sn  Sn27  1  0.793494  0.463557  0.041988  1
  Sn  Sn28  1  0.564316  0.618641  0.749988  1
  Sn  Sn29  1  0.064883  0.880803  0.749899  1
  Sn  Sn30  1  0.435559  0.381461  0.249987  1
  Sn  Sn31  1  0.935385  0.118540  0.250132  1
  Sn  Sn32  1  0.329878  0.147802  0.749997  1
  Sn  Sn33  1  0.829669  0.352319  0.749938  1
  Sn  Sn34  1  0.670135  0.852051  0.249977  1
  Sn  Sn35  1  0.170198  0.647919  0.250011  1
