# generated using pymatgen
data_Tm4AlB4Ir9
_symmetry_space_group_name_H-M   'P 1'
_cell_length_a   10.75176081
_cell_length_b   10.75176067
_cell_length_c   10.75176169
_cell_angle_alpha   29.62258261
_cell_angle_beta   29.62258467
_cell_angle_gamma   29.62258647
_symmetry_Int_Tables_number   1
_chemical_formula_structural   Tm4AlB4Ir9
_chemical_formula_sum   'Tm4 Al1 B4 Ir9'
_cell_volume   268.83028245
_cell_formula_units_Z   1
loop_
 _symmetry_equiv_pos_site_id
 _symmetry_equiv_pos_as_xyz
  1  'x, y, z'
loop_
 _atom_site_type_symbol
 _atom_site_label
 _atom_site_symmetry_multiplicity
 _atom_site_fract_x
 _atom_site_fract_y
 _atom_site_fract_z
 _atom_site_occupancy
  Tm  Tm0  1  0.150541  0.150541  0.150541  1
  Tm  Tm1  1  0.950058  0.950058  0.950058  1
  Tm  Tm2  1  0.849459  0.849459  0.849459  1
  Tm  Tm3  1  0.049942  0.049942  0.049942  1
  Al  Al4  1  0.500000  0.500000  0.500000  1
  B  B5  1  0.615526  0.615526  0.615526  1
  B  B6  1  0.717689  0.717689  0.717689  1
  B  B7  1  0.384474  0.384474  0.384474  1
  B  B8  1  0.282311  0.282311  0.282311  1
  Ir  Ir9  1  0.401043  0.902000  0.401043  1
  Ir  Ir10  1  0.902000  0.401043  0.401043  1
  Ir  Ir11  1  0.500000  0.500000  0.000000  1
  Ir  Ir12  1  0.500000  0.000000  0.500000  1
  Ir  Ir13  1  0.000000  0.500000  0.500000  1
  Ir  Ir14  1  0.598957  0.098000  0.598957  1
  Ir  Ir15  1  0.598957  0.598957  0.098000  1
  Ir  Ir16  1  0.098000  0.598957  0.598957  1
  Ir  Ir17  1  0.401043  0.401043  0.902000  1
