# generated using pymatgen
data_Ho3Hg5Ir
_symmetry_space_group_name_H-M   'P 1'
_cell_length_a   8.09885800
_cell_length_b   8.09885993
_cell_length_c   3.74815400
_cell_angle_alpha   90.00000000
_cell_angle_beta   90.00000000
_cell_angle_gamma   119.99998504
_symmetry_Int_Tables_number   1
_chemical_formula_structural   Ho3Hg5Ir
_chemical_formula_sum   'Ho3 Hg5 Ir1'
_cell_volume   212.90987058
_cell_formula_units_Z   1
loop_
 _symmetry_equiv_pos_site_id
 _symmetry_equiv_pos_as_xyz
  1  'x, y, z'
loop_
 _atom_site_type_symbol
 _atom_site_label
 _atom_site_symmetry_multiplicity
 _atom_site_fract_x
 _atom_site_fract_y
 _atom_site_fract_z
 _atom_site_occupancy
  Ho  Ho0  1  0.577487  0.619033  0.000000  1
  Ho  Ho1  1  0.380967  0.958454  0.000000  1
  Ho  Ho2  1  0.041546  0.422513  0.000000  1
  Hg  Hg3  1  0.999170  0.717163  0.500000  1
  Hg  Hg4  1  0.282837  0.282008  0.500000  1
  Hg  Hg5  1  0.717992  0.000830  0.500000  1
  Hg  Hg6  1  0.000000  0.000000  0.000000  1
  Hg  Hg7  1  0.666667  0.333333  0.500000  1
  Ir  Ir8  1  0.333333  0.666667  0.500000  1
