# generated using pymatgen
data_YHf2(FeCo2)3
_symmetry_space_group_name_H-M   'P 1'
_cell_length_a   4.98146600
_cell_length_b   4.98146641
_cell_length_c   15.45865100
_cell_angle_alpha   90.00000000
_cell_angle_beta   90.00000000
_cell_angle_gamma   120.00001056
_symmetry_Int_Tables_number   1
_chemical_formula_structural   YHf2(FeCo2)3
_chemical_formula_sum   'Y2 Hf4 Fe6 Co12'
_cell_volume   332.21294769
_cell_formula_units_Z   2
loop_
 _symmetry_equiv_pos_site_id
 _symmetry_equiv_pos_as_xyz
  1  'x, y, z'
loop_
 _atom_site_type_symbol
 _atom_site_label
 _atom_site_symmetry_multiplicity
 _atom_site_fract_x
 _atom_site_fract_y
 _atom_site_fract_z
 _atom_site_occupancy
  Y  Y0  1  0.333333  0.666667  0.750000  1
  Y  Y1  1  0.666667  0.333333  0.250000  1
  Hf  Hf2  1  0.333333  0.666667  0.962583  1
  Hf  Hf3  1  0.666667  0.333333  0.037417  1
  Hf  Hf4  1  0.666667  0.333333  0.462583  1
  Hf  Hf5  1  0.333333  0.666667  0.537417  1
  Fe  Fe6  1  0.333333  0.666667  0.250000  1
  Fe  Fe7  1  0.666667  0.333333  0.750000  1
  Fe  Fe8  1  0.000000  0.000000  0.250000  1
  Fe  Fe9  1  0.000000  0.000000  0.750000  1
  Fe  Fe10  1  0.000000  0.000000  0.500000  1
  Fe  Fe11  1  0.000000  0.000000  0.000000  1
  Co  Co12  1  0.169004  0.830996  0.377847  1
  Co  Co13  1  0.169004  0.338009  0.377847  1
  Co  Co14  1  0.661991  0.830996  0.377847  1
  Co  Co15  1  0.830996  0.169004  0.622153  1
  Co  Co16  1  0.830996  0.661991  0.622153  1
  Co  Co17  1  0.338009  0.169004  0.622153  1
  Co  Co18  1  0.830996  0.169004  0.877847  1
  Co  Co19  1  0.830996  0.661991  0.877847  1
  Co  Co20  1  0.338009  0.169004  0.877847  1
  Co  Co21  1  0.169004  0.830996  0.122153  1
  Co  Co22  1  0.169004  0.338009  0.122153  1
  Co  Co23  1  0.661991  0.830996  0.122153  1
