# generated using pymatgen
data_Ti6SiGeO2
_symmetry_space_group_name_H-M   'P 1'
_cell_length_a   5.44459017
_cell_length_b   5.44458861
_cell_length_c   8.06512000
_cell_angle_alpha   90.00000000
_cell_angle_beta   90.00000000
_cell_angle_gamma   146.08586812
_symmetry_Int_Tables_number   1
_chemical_formula_structural   Ti6SiGeO2
_chemical_formula_sum   'Ti6 Si1 Ge1 O2'
_cell_volume   133.39398122
_cell_formula_units_Z   1
loop_
 _symmetry_equiv_pos_site_id
 _symmetry_equiv_pos_as_xyz
  1  'x, y, z'
loop_
 _atom_site_type_symbol
 _atom_site_label
 _atom_site_symmetry_multiplicity
 _atom_site_fract_x
 _atom_site_fract_y
 _atom_site_fract_z
 _atom_site_occupancy
  Ti  Ti0  1  0.636670  0.363330  0.552518  1
  Ti  Ti1  1  0.364547  0.635453  0.043970  1
  Ti  Ti2  1  0.364547  0.635453  0.456030  1
  Ti  Ti3  1  0.636670  0.363330  0.947482  1
  Ti  Ti4  1  0.950067  0.049933  0.750000  1
  Ti  Ti5  1  0.045629  0.954371  0.250000  1
  Si  Si6  1  0.256992  0.743008  0.750000  1
  Ge  Ge7  1  0.744384  0.255616  0.250000  1
  O  O8  1  0.000248  0.999752  0.500160  1
  O  O9  1  0.000248  0.999752  0.999840  1
