# generated using pymatgen
data_ErLu3Cu2(Si2Ru)2
_symmetry_space_group_name_H-M   'P 1'
_cell_length_a   4.18699300
_cell_length_b   6.82484833
_cell_length_c   7.30921645
_cell_angle_alpha   91.03713110
_cell_angle_beta   90.00000000
_cell_angle_gamma   90.00000000
_symmetry_Int_Tables_number   1
_chemical_formula_structural   ErLu3Cu2(Si2Ru)2
_chemical_formula_sum   'Er1 Lu3 Cu2 Si4 Ru2'
_cell_volume   208.83097128
_cell_formula_units_Z   1
loop_
 _symmetry_equiv_pos_site_id
 _symmetry_equiv_pos_as_xyz
  1  'x, y, z'
loop_
 _atom_site_type_symbol
 _atom_site_label
 _atom_site_symmetry_multiplicity
 _atom_site_fract_x
 _atom_site_fract_y
 _atom_site_fract_z
 _atom_site_occupancy
  Er  Er0  1  0.750000  0.504737  0.311881  1
  Lu  Lu1  1  0.250000  0.995426  0.799021  1
  Lu  Lu2  1  0.750000  0.003940  0.200067  1
  Lu  Lu3  1  0.250000  0.493672  0.691726  1
  Cu  Cu4  1  0.750000  0.833763  0.573764  1
  Cu  Cu5  1  0.250000  0.167529  0.426725  1
  Si  Si6  1  0.250000  0.295787  0.092516  1
  Si  Si7  1  0.750000  0.704479  0.905460  1
  Si  Si8  1  0.250000  0.794264  0.389763  1
  Si  Si9  1  0.750000  0.205337  0.611272  1
  Ru  Ru10  1  0.750000  0.343481  0.935704  1
  Ru  Ru11  1  0.250000  0.657585  0.062102  1
