# generated using pymatgen
data_Sr4ScRuO8
_symmetry_space_group_name_H-M   'P 1'
_cell_length_a   6.98440237
_cell_length_b   6.98440209
_cell_length_c   5.67778600
_cell_angle_alpha   90.00000000
_cell_angle_beta   90.00000000
_cell_angle_gamma   132.06569570
_symmetry_Int_Tables_number   1
_chemical_formula_structural   Sr4ScRuO8
_chemical_formula_sum   'Sr4 Sc1 Ru1 O8'
_cell_volume   205.61844771
_cell_formula_units_Z   1
loop_
 _symmetry_equiv_pos_site_id
 _symmetry_equiv_pos_as_xyz
  1  'x, y, z'
loop_
 _atom_site_type_symbol
 _atom_site_label
 _atom_site_symmetry_multiplicity
 _atom_site_fract_x
 _atom_site_fract_y
 _atom_site_fract_z
 _atom_site_occupancy
  Sr  Sr0  1  0.646103  0.353897  0.000000  1
  Sr  Sr1  1  0.145179  0.854821  0.500000  1
  Sr  Sr2  1  0.854821  0.145179  0.500000  1
  Sr  Sr3  1  0.353897  0.646103  0.000000  1
  Sc  Sc4  1  0.000000  0.000000  0.000000  1
  Ru  Ru5  1  0.500000  0.500000  0.500000  1
  O  O6  1  0.743764  0.743764  0.258705  1
  O  O7  1  0.256236  0.256236  0.741295  1
  O  O8  1  0.256236  0.256236  0.258705  1
  O  O9  1  0.743764  0.743764  0.741295  1
  O  O10  1  0.834466  0.165534  0.000000  1
  O  O11  1  0.340869  0.659131  0.500000  1
  O  O12  1  0.659131  0.340869  0.500000  1
  O  O13  1  0.165534  0.834466  0.000000  1
