# generated using pymatgen
data_V10Ga4Si2N
_symmetry_space_group_name_H-M   'P 1'
_cell_length_a   7.26415520
_cell_length_b   7.28016049
_cell_length_c   4.87465787
_cell_angle_alpha   89.93168866
_cell_angle_beta   90.03423160
_cell_angle_gamma   120.07292101
_symmetry_Int_Tables_number   1
_chemical_formula_structural   V10Ga4Si2N
_chemical_formula_sum   'V10 Ga4 Si2 N1'
_cell_volume   223.09043059
_cell_formula_units_Z   1
loop_
 _symmetry_equiv_pos_site_id
 _symmetry_equiv_pos_as_xyz
  1  'x, y, z'
loop_
 _atom_site_type_symbol
 _atom_site_label
 _atom_site_symmetry_multiplicity
 _atom_site_fract_x
 _atom_site_fract_y
 _atom_site_fract_z
 _atom_site_occupancy
  V  V0  1  0.000000  0.772758  0.258140  1
  V  V1  1  0.233353  0.232492  0.258162  1
  V  V2  1  0.766647  0.999139  0.258162  1
  V  V3  1  0.000000  0.226523  0.741426  1
  V  V4  1  0.765814  0.771529  0.741437  1
  V  V5  1  0.234186  0.005715  0.741437  1
  V  V6  1  0.339519  0.667928  0.504581  1
  V  V7  1  0.660481  0.328407  0.504581  1
  V  V8  1  0.661016  0.328689  0.995360  1
  V  V9  1  0.338984  0.667674  0.995360  1
  Ga  Ga10  1  0.000000  0.404429  0.243895  1
  Ga  Ga11  1  0.598881  0.595800  0.243251  1
  Ga  Ga12  1  0.401119  0.996919  0.243251  1
  Ga  Ga13  1  0.000000  0.599356  0.756449  1
  Si  Si14  1  0.401200  0.402429  0.758260  1
  Si  Si15  1  0.598800  0.001230  0.758260  1
  N  N16  1  0.000000  0.998982  0.497985  1
