# generated using pymatgen
data_CeDy4MoRu6
_symmetry_space_group_name_H-M   'P 1'
_cell_length_a   5.70170961
_cell_length_b   5.22136317
_cell_length_c   9.25014800
_cell_angle_alpha   90.00000000
_cell_angle_beta   90.00000000
_cell_angle_gamma   123.07003121
_symmetry_Int_Tables_number   1
_chemical_formula_structural   CeDy4MoRu6
_chemical_formula_sum   'Ce1 Dy4 Mo1 Ru6'
_cell_volume   230.77241487
_cell_formula_units_Z   1
loop_
 _symmetry_equiv_pos_site_id
 _symmetry_equiv_pos_as_xyz
  1  'x, y, z'
loop_
 _atom_site_type_symbol
 _atom_site_label
 _atom_site_symmetry_multiplicity
 _atom_site_fract_x
 _atom_site_fract_y
 _atom_site_fract_z
 _atom_site_occupancy
  Ce  Ce0  1  0.840243  0.681739  0.250000  1
  Dy  Dy1  1  0.667034  0.333889  0.574181  1
  Dy  Dy2  1  0.332383  0.664842  0.442025  1
  Dy  Dy3  1  0.332383  0.664842  0.057975  1
  Dy  Dy4  1  0.667034  0.333889  0.925819  1
  Mo  Mo5  1  0.147523  0.294212  0.750000  1
  Ru  Ru6  1  0.008706  0.017200  0.507323  1
  Ru  Ru7  1  0.008706  0.017200  0.992677  1
  Ru  Ru8  1  0.167031  0.805987  0.750000  1
  Ru  Ru9  1  0.638738  0.806216  0.750000  1
  Ru  Ru10  1  0.838586  0.189814  0.250000  1
  Ru  Ru11  1  0.351632  0.190168  0.250000  1
