# generated using pymatgen
data_Hf2Zr2Fe4Si3P
_symmetry_space_group_name_H-M   'P 1'
_cell_length_a   3.90493500
_cell_length_b   6.36027871
_cell_length_c   7.01883427
_cell_angle_alpha   90.25681739
_cell_angle_beta   90.00000000
_cell_angle_gamma   90.00000000
_symmetry_Int_Tables_number   1
_chemical_formula_structural   Hf2Zr2Fe4Si3P
_chemical_formula_sum   'Hf2 Zr2 Fe4 Si3 P1'
_cell_volume   174.32135018
_cell_formula_units_Z   1
loop_
 _symmetry_equiv_pos_site_id
 _symmetry_equiv_pos_as_xyz
  1  'x, y, z'
loop_
 _atom_site_type_symbol
 _atom_site_label
 _atom_site_symmetry_multiplicity
 _atom_site_fract_x
 _atom_site_fract_y
 _atom_site_fract_z
 _atom_site_occupancy
  Hf  Hf0  1  0.250000  0.502818  0.194428  1
  Hf  Hf1  1  0.750000  0.499797  0.802019  1
  Zr  Zr2  1  0.250000  0.003664  0.305371  1
  Zr  Zr3  1  0.750000  0.002278  0.696289  1
  Fe  Fe4  1  0.250000  0.157792  0.929099  1
  Fe  Fe5  1  0.250000  0.643908  0.567040  1
  Fe  Fe6  1  0.750000  0.844511  0.066682  1
  Fe  Fe7  1  0.750000  0.344378  0.437596  1
  Si  Si8  1  0.250000  0.787712  0.893341  1
  Si  Si9  1  0.750000  0.709925  0.394327  1
  Si  Si10  1  0.750000  0.213978  0.105387  1
  P  P11  1  0.250000  0.289237  0.608421  1
