# generated using pymatgen
data_Ca5Ge10Sb2Rh19
_symmetry_space_group_name_H-M   'P 1'
_cell_length_a   13.21092000
_cell_length_b   13.21712874
_cell_length_c   4.12485200
_cell_angle_alpha   90.00000000
_cell_angle_beta   90.00000000
_cell_angle_gamma   119.98446203
_symmetry_Int_Tables_number   1
_chemical_formula_structural   Ca5Ge10Sb2Rh19
_chemical_formula_sum   'Ca5 Ge10 Sb2 Rh19'
_cell_volume   623.84566523
_cell_formula_units_Z   1
loop_
 _symmetry_equiv_pos_site_id
 _symmetry_equiv_pos_as_xyz
  1  'x, y, z'
loop_
 _atom_site_type_symbol
 _atom_site_label
 _atom_site_symmetry_multiplicity
 _atom_site_fract_x
 _atom_site_fract_y
 _atom_site_fract_z
 _atom_site_occupancy
  Ca  Ca0  1  0.999909  0.178939  0.500000  1
  Ca  Ca1  1  0.820970  0.821061  0.500000  1
  Ca  Ca2  1  0.186802  0.000000  0.500000  1
  Ca  Ca3  1  0.664975  0.331830  0.000000  1
  Ca  Ca4  1  0.333143  0.668170  0.000000  1
  Ge  Ge5  1  0.477877  0.314391  0.500000  1
  Ge  Ge6  1  0.817278  0.000000  0.000000  1
  Ge  Ge7  1  0.183717  0.181615  0.000000  1
  Ge  Ge8  1  0.002102  0.818385  0.000000  1
  Ge  Ge9  1  0.370236  0.000000  0.000000  1
  Ge  Ge10  1  0.677847  0.158672  0.500000  1
  Ge  Ge11  1  0.840473  0.521949  0.500000  1
  Ge  Ge12  1  0.519174  0.841328  0.500000  1
  Ge  Ge13  1  0.163486  0.685609  0.500000  1
  Ge  Ge14  1  0.318524  0.478051  0.500000  1
  Sb  Sb15  1  0.999792  0.368405  0.000000  1
  Sb  Sb16  1  0.631387  0.631595  0.000000  1
  Rh  Rh17  1  0.798413  0.177078  0.000000  1
  Rh  Rh18  1  0.376513  0.192227  0.000000  1
  Rh  Rh19  1  0.645159  0.509916  0.500000  1
  Rh  Rh20  1  0.863922  0.352223  0.500000  1
  Rh  Rh21  1  0.354917  0.874049  0.500000  1
  Rh  Rh22  1  0.511699  0.647777  0.500000  1
  Rh  Rh23  1  0.135243  0.490084  0.500000  1
  Rh  Rh24  1  0.823234  0.623304  0.000000  1
  Rh  Rh25  1  0.621335  0.822922  0.000000  1
  Rh  Rh26  1  0.184286  0.807773  0.000000  1
  Rh  Rh27  1  0.199930  0.376696  0.000000  1
  Rh  Rh28  1  0.001776  0.721136  0.500000  1
  Rh  Rh29  1  0.280640  0.278864  0.500000  1
  Rh  Rh30  1  0.718632  0.000000  0.500000  1
  Rh  Rh31  1  0.001743  0.562094  0.000000  1
  Rh  Rh32  1  0.439649  0.437906  0.000000  1
  Rh  Rh33  1  0.554077  0.000000  0.000000  1
  Rh  Rh34  1  0.000271  0.000000  0.000000  1
  Rh  Rh35  1  0.480868  0.125951  0.500000  1
