# generated using pymatgen
data_Nd4Co4AuBr
_symmetry_space_group_name_H-M   'P 1'
_cell_length_a   3.98908200
_cell_length_b   3.98908120
_cell_length_c   16.73528800
_cell_angle_alpha   90.00000000
_cell_angle_beta   90.00000000
_cell_angle_gamma   119.99999007
_symmetry_Int_Tables_number   1
_chemical_formula_structural   Nd4Co4AuBr
_chemical_formula_sum   'Nd4 Co4 Au1 Br1'
_cell_volume   230.62676433
_cell_formula_units_Z   1
loop_
 _symmetry_equiv_pos_site_id
 _symmetry_equiv_pos_as_xyz
  1  'x, y, z'
loop_
 _atom_site_type_symbol
 _atom_site_label
 _atom_site_symmetry_multiplicity
 _atom_site_fract_x
 _atom_site_fract_y
 _atom_site_fract_z
 _atom_site_occupancy
  Nd  Nd0  1  0.000000  0.000000  0.124668  1
  Nd  Nd1  1  0.000000  0.000000  0.896896  1
  Nd  Nd2  1  0.000000  0.000000  0.603104  1
  Nd  Nd3  1  0.000000  0.000000  0.375332  1
  Co  Co4  1  0.333333  0.666667  0.492952  1
  Co  Co5  1  0.666667  0.333333  0.492677  1
  Co  Co6  1  0.666667  0.333333  0.007323  1
  Co  Co7  1  0.333333  0.666667  0.007048  1
  Au  Au8  1  0.333333  0.666667  0.250000  1
  Br  Br9  1  0.666667  0.333333  0.750000  1
