# generated using pymatgen
data_HfScRe3Mo
_symmetry_space_group_name_H-M   'P 1'
_cell_length_a   5.31881200
_cell_length_b   5.31881073
_cell_length_c   8.64650200
_cell_angle_alpha   90.00000000
_cell_angle_beta   90.00000000
_cell_angle_gamma   119.99998301
_symmetry_Int_Tables_number   1
_chemical_formula_structural   HfScRe3Mo
_chemical_formula_sum   'Hf2 Sc2 Re6 Mo2'
_cell_volume   211.83627379
_cell_formula_units_Z   2
loop_
 _symmetry_equiv_pos_site_id
 _symmetry_equiv_pos_as_xyz
  1  'x, y, z'
loop_
 _atom_site_type_symbol
 _atom_site_label
 _atom_site_symmetry_multiplicity
 _atom_site_fract_x
 _atom_site_fract_y
 _atom_site_fract_z
 _atom_site_occupancy
  Hf  Hf0  1  0.666667  0.333333  0.937426  1
  Hf  Hf1  1  0.333333  0.666667  0.437426  1
  Sc  Sc2  1  0.333333  0.666667  0.062494  1
  Sc  Sc3  1  0.666667  0.333333  0.562494  1
  Re  Re4  1  0.828607  0.657215  0.250017  1
  Re  Re5  1  0.171393  0.828607  0.750017  1
  Re  Re6  1  0.657215  0.828607  0.750017  1
  Re  Re7  1  0.342785  0.171393  0.250017  1
  Re  Re8  1  0.828607  0.171393  0.250017  1
  Re  Re9  1  0.171393  0.342785  0.750017  1
  Mo  Mo10  1  0.000000  0.000000  0.000028  1
  Mo  Mo11  1  0.000000  0.000000  0.500028  1
