# generated using pymatgen
data_V3Te3ClO10
_symmetry_space_group_name_H-M   'P 1'
_cell_length_a   16.44255800
_cell_length_b   5.00460363
_cell_length_c   13.09847000
_cell_angle_alpha   70.13556998
_cell_angle_beta   90.00000000
_cell_angle_gamma   90.00000000
_symmetry_Int_Tables_number   1
_chemical_formula_structural   V3Te3ClO10
_chemical_formula_sum   'V12 Te12 Cl4 O40'
_cell_volume   1013.72018930
_cell_formula_units_Z   4
loop_
 _symmetry_equiv_pos_site_id
 _symmetry_equiv_pos_as_xyz
  1  'x, y, z'
loop_
 _atom_site_type_symbol
 _atom_site_label
 _atom_site_symmetry_multiplicity
 _atom_site_fract_x
 _atom_site_fract_y
 _atom_site_fract_z
 _atom_site_occupancy
  V  V0  1  0.763833  0.791813  0.222169  1
  V  V1  1  0.263833  0.208187  0.277831  1
  V  V2  1  0.236167  0.208187  0.777831  1
  V  V3  1  0.736167  0.791813  0.722169  1
  V  V4  1  0.947812  0.641779  0.396226  1
  V  V5  1  0.447812  0.358221  0.103774  1
  V  V6  1  0.052188  0.358221  0.603774  1
  V  V7  1  0.552188  0.641779  0.896226  1
  V  V8  1  0.064157  0.137140  0.403950  1
  V  V9  1  0.564157  0.862860  0.096050  1
  V  V10  1  0.935843  0.862860  0.596050  1
  V  V11  1  0.435843  0.137140  0.903950  1
  Te  Te12  1  0.752460  0.566278  0.498546  1
  Te  Te13  1  0.252460  0.433722  0.001454  1
  Te  Te14  1  0.247540  0.433722  0.501454  1
  Te  Te15  1  0.747540  0.566278  0.998546  1
  Te  Te16  1  0.916217  0.369644  0.195721  1
  Te  Te17  1  0.416217  0.630356  0.304279  1
  Te  Te18  1  0.083783  0.630356  0.804279  1
  Te  Te19  1  0.583783  0.369644  0.695721  1
  Te  Te20  1  0.119920  0.830219  0.214645  1
  Te  Te21  1  0.619920  0.169781  0.285355  1
  Te  Te22  1  0.880080  0.169781  0.785355  1
  Te  Te23  1  0.380080  0.830219  0.714645  1
  Cl  Cl24  1  0.913111  0.423756  0.947866  1
  Cl  Cl25  1  0.413111  0.576244  0.552134  1
  Cl  Cl26  1  0.086889  0.576244  0.052134  1
  Cl  Cl27  1  0.586889  0.423756  0.447866  1
  O  O28  1  0.696735  0.757062  0.579377  1
  O  O29  1  0.196735  0.242938  0.920623  1
  O  O30  1  0.303265  0.242938  0.420623  1
  O  O31  1  0.803265  0.757062  0.079377  1
  O  O32  1  0.860386  0.735581  0.495768  1
  O  O33  1  0.360386  0.264419  0.004232  1
  O  O34  1  0.139614  0.264419  0.504232  1
  O  O35  1  0.639614  0.735581  0.995768  1
  O  O36  1  0.730334  0.848126  0.359447  1
  O  O37  1  0.230334  0.151874  0.140553  1
  O  O38  1  0.269666  0.151874  0.640553  1
  O  O39  1  0.769666  0.848126  0.859447  1
  O  O40  1  0.867874  0.540416  0.298522  1
  O  O41  1  0.367874  0.459584  0.201478  1
  O  O42  1  0.132126  0.459584  0.701478  1
  O  O43  1  0.632126  0.540416  0.798522  1
  O  O44  1  0.829534  0.145591  0.181113  1
  O  O45  1  0.329534  0.854409  0.318887  1
  O  O46  1  0.170466  0.854409  0.818887  1
  O  O47  1  0.670466  0.145591  0.681113  1
  O  O48  1  0.973163  0.055632  0.303189  1
  O  O49  1  0.473163  0.944368  0.196811  1
  O  O50  1  0.026837  0.944368  0.696811  1
  O  O51  1  0.526837  0.055632  0.803189  1
  O  O52  1  0.976046  0.249206  0.498383  1
  O  O53  1  0.476046  0.750794  0.001617  1
  O  O54  1  0.023954  0.750794  0.501617  1
  O  O55  1  0.523954  0.249206  0.998383  1
  O  O56  1  0.040427  0.545731  0.306830  1
  O  O57  1  0.540427  0.454269  0.193170  1
  O  O58  1  0.959573  0.454269  0.693170  1
  O  O59  1  0.459573  0.545731  0.806830  1
  O  O60  1  0.202657  0.562846  0.252363  1
  O  O61  1  0.702657  0.437154  0.247637  1
  O  O62  1  0.797343  0.437154  0.747637  1
  O  O63  1  0.297343  0.562846  0.752363  1
  O  O64  1  0.151566  0.982500  0.331845  1
  O  O65  1  0.651566  0.017500  0.168155  1
  O  O66  1  0.848434  0.017500  0.668155  1
  O  O67  1  0.348434  0.982500  0.831845  1
