# generated using pymatgen
data_Ho7Lu3In8RuPt3
_symmetry_space_group_name_H-M   'P 1'
_cell_length_a   3.60759400
_cell_length_b   8.09327969
_cell_length_c   18.12317468
_cell_angle_alpha   90.02138069
_cell_angle_beta   90.00000000
_cell_angle_gamma   90.00000000
_symmetry_Int_Tables_number   1
_chemical_formula_structural   Ho7Lu3In8RuPt3
_chemical_formula_sum   'Ho7 Lu3 In8 Ru1 Pt3'
_cell_volume   529.14713793
_cell_formula_units_Z   1
loop_
 _symmetry_equiv_pos_site_id
 _symmetry_equiv_pos_as_xyz
  1  'x, y, z'
loop_
 _atom_site_type_symbol
 _atom_site_label
 _atom_site_symmetry_multiplicity
 _atom_site_fract_x
 _atom_site_fract_y
 _atom_site_fract_z
 _atom_site_occupancy
  Ho  Ho0  1  0.000000  0.618651  0.086514  1
  Ho  Ho1  1  0.000000  0.233433  0.222892  1
  Ho  Ho2  1  0.000000  0.757597  0.778923  1
  Ho  Ho3  1  0.000000  0.257186  0.721270  1
  Ho  Ho4  1  0.000000  0.750630  0.278876  1
  Ho  Ho5  1  0.000000  0.999798  0.000279  1
  Ho  Ho6  1  0.000000  0.500687  0.499255  1
  Lu  Lu7  1  0.000000  0.115590  0.411770  1
  Lu  Lu8  1  0.000000  0.884358  0.585844  1
  Lu  Lu9  1  0.000000  0.384253  0.913908  1
  In  In10  1  0.500000  0.421637  0.351581  1
  In  In11  1  0.500000  0.576721  0.647610  1
  In  In12  1  0.500000  0.076693  0.852255  1
  In  In13  1  0.500000  0.931216  0.149959  1
  In  In14  1  0.500000  0.293020  0.065291  1
  In  In15  1  0.500000  0.706033  0.933821  1
  In  In16  1  0.500000  0.206566  0.565852  1
  In  In17  1  0.500000  0.796726  0.432050  1
  Ru  Ru18  1  0.500000  0.019445  0.305282  1
  Pt  Pt19  1  0.500000  0.975513  0.694872  1
  Pt  Pt20  1  0.500000  0.475905  0.805205  1
  Pt  Pt21  1  0.500000  0.518343  0.196694  1
