# generated using pymatgen
data_TbNd11(Si7Br3)2
_symmetry_space_group_name_H-M   'P 1'
_cell_length_a   4.07808000
_cell_length_b   11.68851444
_cell_length_c   16.48794149
_cell_angle_alpha   89.80194693
_cell_angle_beta   90.00000000
_cell_angle_gamma   90.00000000
_symmetry_Int_Tables_number   1
_chemical_formula_structural   TbNd11(Si7Br3)2
_chemical_formula_sum   'Tb1 Nd11 Si14 Br6'
_cell_volume   785.92101532
_cell_formula_units_Z   1
loop_
 _symmetry_equiv_pos_site_id
 _symmetry_equiv_pos_as_xyz
  1  'x, y, z'
loop_
 _atom_site_type_symbol
 _atom_site_label
 _atom_site_symmetry_multiplicity
 _atom_site_fract_x
 _atom_site_fract_y
 _atom_site_fract_z
 _atom_site_occupancy
  Tb  Tb0  1  0.000000  0.932254  0.381681  1
  Nd  Nd1  1  0.500000  0.340936  0.499914  1
  Nd  Nd2  1  0.000000  0.658572  0.999699  1
  Nd  Nd3  1  0.500000  0.358651  0.756700  1
  Nd  Nd4  1  0.000000  0.641399  0.742999  1
  Nd  Nd5  1  0.500000  0.358058  0.243818  1
  Nd  Nd6  1  0.000000  0.642126  0.256825  1
  Nd  Nd7  1  0.500000  0.064331  0.879892  1
  Nd  Nd8  1  0.000000  0.935345  0.618921  1
  Nd  Nd9  1  0.500000  0.063867  0.120583  1
  Nd  Nd10  1  0.500000  0.355788  0.000026  1
  Nd  Nd11  1  0.000000  0.646275  0.499304  1
  Si  Si12  1  0.000000  0.150015  0.000117  1
  Si  Si13  1  0.500000  0.853577  0.498479  1
  Si  Si14  1  0.500000  0.568419  0.876297  1
  Si  Si15  1  0.000000  0.431747  0.623308  1
  Si  Si16  1  0.500000  0.568720  0.123948  1
  Si  Si17  1  0.000000  0.431599  0.376372  1
  Si  Si18  1  0.000000  0.252682  0.873369  1
  Si  Si19  1  0.500000  0.748257  0.625615  1
  Si  Si20  1  0.000000  0.252584  0.126727  1
  Si  Si21  1  0.500000  0.751190  0.372278  1
  Si  Si22  1  0.000000  0.458294  0.876937  1
  Si  Si23  1  0.500000  0.542230  0.623232  1
  Si  Si24  1  0.500000  0.542905  0.376793  1
  Si  Si25  1  0.000000  0.458367  0.123182  1
  Br  Br26  1  0.500000  0.109382  0.692716  1
  Br  Br27  1  0.000000  0.890340  0.807166  1
  Br  Br28  1  0.000000  0.136389  0.497683  1
  Br  Br29  1  0.500000  0.860766  0.000135  1
  Br  Br30  1  0.500000  0.103025  0.309666  1
  Br  Br31  1  0.000000  0.891908  0.195621  1
