# generated using pymatgen
data_Dy6Al24IrOs3Ru4
_symmetry_space_group_name_H-M   'P 1'
_cell_length_a   8.81611500
_cell_length_b   8.80638203
_cell_length_c   9.58000617
_cell_angle_alpha   89.89660832
_cell_angle_beta   89.92595840
_cell_angle_gamma   120.04682871
_symmetry_Int_Tables_number   1
_chemical_formula_structural   Dy6Al24IrOs3Ru4
_chemical_formula_sum   'Dy6 Al24 Ir1 Os3 Ru4'
_cell_volume   643.81924884
_cell_formula_units_Z   1
loop_
 _symmetry_equiv_pos_site_id
 _symmetry_equiv_pos_as_xyz
  1  'x, y, z'
loop_
 _atom_site_type_symbol
 _atom_site_label
 _atom_site_symmetry_multiplicity
 _atom_site_fract_x
 _atom_site_fract_y
 _atom_site_fract_z
 _atom_site_occupancy
  Dy  Dy0  1  0.191733  0.804933  0.250721  1
  Dy  Dy1  1  0.194753  0.387754  0.250823  1
  Dy  Dy2  1  0.613584  0.804691  0.249846  1
  Dy  Dy3  1  0.808267  0.195067  0.749279  1
  Dy  Dy4  1  0.805247  0.612246  0.749177  1
  Dy  Dy5  1  0.386416  0.195309  0.750154  1
  Al  Al6  1  0.561681  0.437586  0.250059  1
  Al  Al7  1  0.561660  0.121908  0.248661  1
  Al  Al8  1  0.876914  0.437351  0.249567  1
  Al  Al9  1  0.438319  0.562414  0.749941  1
  Al  Al10  1  0.438340  0.878092  0.751339  1
  Al  Al11  1  0.123086  0.562649  0.750433  1
  Al  Al12  1  0.325252  0.163900  0.422666  1
  Al  Al13  1  0.838431  0.163689  0.423800  1
  Al  Al14  1  0.836847  0.674157  0.423196  1
  Al  Al15  1  0.674748  0.836100  0.577334  1
  Al  Al16  1  0.161569  0.836311  0.576200  1
  Al  Al17  1  0.163153  0.325843  0.576804  1
  Al  Al18  1  0.674462  0.837484  0.922711  1
  Al  Al19  1  0.162792  0.837832  0.923443  1
  Al  Al20  1  0.163238  0.326035  0.923414  1
  Al  Al21  1  0.325538  0.162516  0.077289  1
  Al  Al22  1  0.837208  0.162168  0.076557  1
  Al  Al23  1  0.836762  0.673965  0.076586  1
  Al  Al24  1  0.667379  0.334392  0.516997  1
  Al  Al25  1  0.332621  0.665608  0.483003  1
  Al  Al26  1  0.332976  0.667161  0.017010  1
  Al  Al27  1  0.667024  0.332839  0.982990  1
  Al  Al28  1  0.000059  0.999433  0.250005  1
  Al  Al29  1  0.999941  0.000567  0.749995  1
  Ir  Ir30  1  0.500000  0.000000  0.500000  1
  Os  Os31  1  0.500000  0.500000  0.500000  1
  Os  Os32  1  0.000000  0.500000  0.500000  1
  Os  Os33  1  0.500000  0.500000  0.000000  1
  Ru  Ru34  1  0.000000  0.000000  0.500000  1
  Ru  Ru35  1  0.000000  0.000000  0.000000  1
  Ru  Ru36  1  0.500000  0.000000  0.000000  1
  Ru  Ru37  1  0.000000  0.500000  0.000000  1
