# generated using pymatgen
data_Zr4GaSi3
_symmetry_space_group_name_H-M   'P 1'
_cell_length_a   3.79443200
_cell_length_b   5.38414975
_cell_length_c   7.13257443
_cell_angle_alpha   89.92266544
_cell_angle_beta   90.00000000
_cell_angle_gamma   90.00000000
_symmetry_Int_Tables_number   1
_chemical_formula_structural   Zr4GaSi3
_chemical_formula_sum   'Zr4 Ga1 Si3'
_cell_volume   145.71686569
_cell_formula_units_Z   1
loop_
 _symmetry_equiv_pos_site_id
 _symmetry_equiv_pos_as_xyz
  1  'x, y, z'
loop_
 _atom_site_type_symbol
 _atom_site_label
 _atom_site_symmetry_multiplicity
 _atom_site_fract_x
 _atom_site_fract_y
 _atom_site_fract_z
 _atom_site_occupancy
  Zr  Zr0  1  0.250000  0.371847  0.680051  1
  Zr  Zr1  1  0.750000  0.621804  0.316903  1
  Zr  Zr2  1  0.750000  0.878624  0.830503  1
  Zr  Zr3  1  0.250000  0.127599  0.173344  1
  Ga  Ga4  1  0.250000  0.857314  0.541386  1
  Si  Si5  1  0.750000  0.138814  0.458375  1
  Si  Si6  1  0.750000  0.364758  0.957844  1
  Si  Si7  1  0.250000  0.639240  0.041593  1
