# generated using pymatgen
data_Tm2Lu2Ga17SiRh6
_symmetry_space_group_name_H-M   'P 1'
_cell_length_a   7.54713932
_cell_length_b   7.51934539
_cell_length_c   9.46690605
_cell_angle_alpha   90.04912638
_cell_angle_beta   89.90092214
_cell_angle_gamma   119.90925924
_symmetry_Int_Tables_number   1
_chemical_formula_structural   Tm2Lu2Ga17SiRh6
_chemical_formula_sum   'Tm2 Lu2 Ga17 Si1 Rh6'
_cell_volume   465.68990934
_cell_formula_units_Z   1
loop_
 _symmetry_equiv_pos_site_id
 _symmetry_equiv_pos_as_xyz
  1  'x, y, z'
loop_
 _atom_site_type_symbol
 _atom_site_label
 _atom_site_symmetry_multiplicity
 _atom_site_fract_x
 _atom_site_fract_y
 _atom_site_fract_z
 _atom_site_occupancy
  Tm  Tm0  1  0.674399  0.003196  0.247743  1
  Tm  Tm1  1  0.329851  0.002652  0.749534  1
  Lu  Lu2  1  0.995665  0.663277  0.247623  1
  Lu  Lu3  1  0.003575  0.330928  0.752507  1
  Ga  Ga4  1  0.127872  0.127139  0.250514  1
  Ga  Ga5  1  0.872594  0.874706  0.750559  1
  Ga  Ga6  1  0.999551  0.670752  0.918345  1
  Ga  Ga7  1  0.000516  0.665328  0.579142  1
  Ga  Ga8  1  0.333747  0.997782  0.419919  1
  Ga  Ga9  1  0.999889  0.334895  0.422163  1
  Ga  Ga10  1  0.665498  0.000542  0.579265  1
  Ga  Ga11  1  0.659120  0.995656  0.918218  1
  Ga  Ga12  1  0.332974  0.997726  0.080473  1
  Ga  Ga13  1  0.333250  0.332462  0.566334  1
  Ga  Ga14  1  0.668771  0.669066  0.433258  1
  Ga  Ga15  1  0.667486  0.669007  0.068754  1
  Ga  Ga16  1  0.338441  0.332578  0.932256  1
  Ga  Ga17  1  0.339089  0.547826  0.250973  1
  Ga  Ga18  1  0.663210  0.451023  0.751103  1
  Ga  Ga19  1  0.547317  0.338265  0.250544  1
  Ga  Ga20  1  0.450250  0.659480  0.750296  1
  Si  Si21  1  0.000383  0.334596  0.074454  1
  Rh  Rh22  1  0.684776  0.329933  0.003920  1
  Rh  Rh23  1  0.313992  0.657606  0.001249  1
  Rh  Rh24  1  0.328143  0.671638  0.500011  1
  Rh  Rh25  1  0.671862  0.328285  0.499829  1
  Rh  Rh26  1  0.997831  0.013336  0.001120  1
  Rh  Rh27  1  0.999945  0.000319  0.499889  1
