# generated using pymatgen
data_NdY(PSe4)2
_symmetry_space_group_name_H-M   'P 1'
_cell_length_a   6.99054100
_cell_length_b   9.42080391
_cell_length_c   13.52530300
_cell_angle_alpha   59.35655222
_cell_angle_beta   90.00000000
_cell_angle_gamma   90.00000000
_symmetry_Int_Tables_number   1
_chemical_formula_structural   NdY(PSe4)2
_chemical_formula_sum   'Nd2 Y2 P4 Se16'
_cell_volume   766.34412117
_cell_formula_units_Z   2
loop_
 _symmetry_equiv_pos_site_id
 _symmetry_equiv_pos_as_xyz
  1  'x, y, z'
loop_
 _atom_site_type_symbol
 _atom_site_label
 _atom_site_symmetry_multiplicity
 _atom_site_fract_x
 _atom_site_fract_y
 _atom_site_fract_z
 _atom_site_occupancy
  Nd  Nd0  1  0.315209  0.560556  0.833422  1
  Nd  Nd1  1  0.815209  0.439444  0.666578  1
  Y  Y2  1  0.680397  0.447932  0.164326  1
  Y  Y3  1  0.180397  0.552068  0.335673  1
  P  P4  1  0.231332  0.685316  0.042725  1
  P  P5  1  0.731332  0.314684  0.457275  1
  P  P6  1  0.768132  0.313473  0.963146  1
  P  P7  1  0.268132  0.686527  0.536854  1
  Se  Se8  1  0.238378  0.419947  0.588476  1
  Se  Se9  1  0.738378  0.580053  0.911524  1
  Se  Se10  1  0.773926  0.579747  0.407341  1
  Se  Se11  1  0.273926  0.420253  0.092659  1
  Se  Se12  1  0.251364  0.842281  0.349977  1
  Se  Se13  1  0.751364  0.157719  0.150023  1
  Se  Se14  1  0.744349  0.148132  0.643083  1
  Se  Se15  1  0.244349  0.851868  0.856917  1
  Se  Se16  1  0.541145  0.725906  0.607561  1
  Se  Se17  1  0.041145  0.274094  0.892439  1
  Se  Se18  1  0.458988  0.282548  0.382010  1
  Se  Se19  1  0.958988  0.717452  0.117990  1
  Se  Se20  1  0.043197  0.741942  0.630787  1
  Se  Se21  1  0.543197  0.258058  0.869213  1
  Se  Se22  1  0.953584  0.264018  0.359926  1
  Se  Se23  1  0.453584  0.735982  0.140074  1
