# generated using pymatgen
data_Tb12Tc2RuRh
_symmetry_space_group_name_H-M   'P 1'
_cell_length_a   6.31643379
_cell_length_b   7.42241792
_cell_length_c   9.22870600
_cell_angle_alpha   90.00000000
_cell_angle_beta   90.00000000
_cell_angle_gamma   89.97786883
_symmetry_Int_Tables_number   1
_chemical_formula_structural   Tb12Tc2RuRh
_chemical_formula_sum   'Tb12 Tc2 Ru1 Rh1'
_cell_volume   432.67134187
_cell_formula_units_Z   1
loop_
 _symmetry_equiv_pos_site_id
 _symmetry_equiv_pos_as_xyz
  1  'x, y, z'
loop_
 _atom_site_type_symbol
 _atom_site_label
 _atom_site_symmetry_multiplicity
 _atom_site_fract_x
 _atom_site_fract_y
 _atom_site_fract_z
 _atom_site_occupancy
  Tb  Tb0  1  0.332146  0.676169  0.066020  1
  Tb  Tb1  1  0.163024  0.177093  0.436232  1
  Tb  Tb2  1  0.664720  0.321437  0.561903  1
  Tb  Tb3  1  0.835977  0.825603  0.937121  1
  Tb  Tb4  1  0.664720  0.321437  0.938097  1
  Tb  Tb5  1  0.835977  0.825603  0.562879  1
  Tb  Tb6  1  0.332146  0.676169  0.433980  1
  Tb  Tb7  1  0.163024  0.177093  0.063768  1
  Tb  Tb8  1  0.872290  0.543006  0.250000  1
  Tb  Tb9  1  0.626891  0.038844  0.250000  1
  Tb  Tb10  1  0.132233  0.458203  0.750000  1
  Tb  Tb11  1  0.370393  0.959509  0.750000  1
  Tc  Tc12  1  0.462279  0.386299  0.250000  1
  Tc  Tc13  1  0.959676  0.114333  0.750000  1
  Ru  Ru14  1  0.039479  0.883515  0.250000  1
  Rh  Rh15  1  0.545024  0.615685  0.750000  1
