# generated using pymatgen
data_TbHoPa2(Al3Rh)6
_symmetry_space_group_name_H-M   'P 1'
_cell_length_a   7.59857801
_cell_length_b   7.59856556
_cell_length_c   9.38155100
_cell_angle_alpha   90.00000000
_cell_angle_beta   90.00000000
_cell_angle_gamma   119.59842305
_symmetry_Int_Tables_number   1
_chemical_formula_structural   TbHoPa2(Al3Rh)6
_chemical_formula_sum   'Tb1 Ho1 Pa2 Al18 Rh6'
_cell_volume   470.99080492
_cell_formula_units_Z   1
loop_
 _symmetry_equiv_pos_site_id
 _symmetry_equiv_pos_as_xyz
  1  'x, y, z'
loop_
 _atom_site_type_symbol
 _atom_site_label
 _atom_site_symmetry_multiplicity
 _atom_site_fract_x
 _atom_site_fract_y
 _atom_site_fract_z
 _atom_site_occupancy
  Tb  Tb0  1  0.329576  0.006370  0.750000  1
  Ho  Ho1  1  0.670483  0.993630  0.250000  1
  Pa  Pa2  1  0.996861  0.671405  0.250000  1
  Pa  Pa3  1  0.003130  0.328644  0.750000  1
  Al  Al4  1  0.129920  0.126811  0.250000  1
  Al  Al5  1  0.869910  0.873115  0.750000  1
  Al  Al6  1  0.000350  0.332526  0.077271  1
  Al  Al7  1  0.999488  0.667314  0.922820  1
  Al  Al8  1  0.999488  0.667314  0.577180  1
  Al  Al9  1  0.337803  0.002643  0.424733  1
  Al  Al10  1  0.000350  0.332526  0.422729  1
  Al  Al11  1  0.662351  0.997365  0.575041  1
  Al  Al12  1  0.662351  0.997365  0.924959  1
  Al  Al13  1  0.337803  0.002643  0.075267  1
  Al  Al14  1  0.334610  0.333242  0.551831  1
  Al  Al15  1  0.665393  0.666879  0.448063  1
  Al  Al16  1  0.665393  0.666879  0.051937  1
  Al  Al17  1  0.334610  0.333242  0.948169  1
  Al  Al18  1  0.340005  0.549200  0.250000  1
  Al  Al19  1  0.660117  0.450982  0.750000  1
  Al  Al20  1  0.550283  0.342230  0.250000  1
  Al  Al21  1  0.449781  0.657704  0.750000  1
  Rh  Rh22  1  0.674931  0.329388  0.999821  1
  Rh  Rh23  1  0.325139  0.670607  0.000289  1
  Rh  Rh24  1  0.325139  0.670607  0.499711  1
  Rh  Rh25  1  0.674931  0.329388  0.500179  1
  Rh  Rh26  1  0.999902  0.999992  0.000068  1
  Rh  Rh27  1  0.999902  0.999992  0.499932  1
