# generated using pymatgen
data_ZrSc(ZnPd)2
_symmetry_space_group_name_H-M   'P 1'
_cell_length_a   5.07969315
_cell_length_b   5.07969319
_cell_length_c   5.28799600
_cell_angle_alpha   90.00000000
_cell_angle_beta   90.00000000
_cell_angle_gamma   129.11826762
_symmetry_Int_Tables_number   1
_chemical_formula_structural   ZrSc(ZnPd)2
_chemical_formula_sum   'Zr1 Sc1 Zn2 Pd2'
_cell_volume   105.86227081
_cell_formula_units_Z   1
loop_
 _symmetry_equiv_pos_site_id
 _symmetry_equiv_pos_as_xyz
  1  'x, y, z'
loop_
 _atom_site_type_symbol
 _atom_site_label
 _atom_site_symmetry_multiplicity
 _atom_site_fract_x
 _atom_site_fract_y
 _atom_site_fract_z
 _atom_site_occupancy
  Zr  Zr0  1  0.704527  0.295473  0.250000  1
  Sc  Sc1  1  0.296305  0.703695  0.750000  1
  Zn  Zn2  1  0.002349  0.997651  0.499276  1
  Zn  Zn3  1  0.002349  0.997651  0.000724  1
  Pd  Pd4  1  0.395902  0.604098  0.250000  1
  Pd  Pd5  1  0.598567  0.401433  0.750000  1
