# generated using pymatgen
data_Tb6TcRh
_symmetry_space_group_name_H-M   'P 1'
_cell_length_a   6.34378900
_cell_length_b   7.36262900
_cell_length_c   9.30358100
_cell_angle_alpha   90.00000000
_cell_angle_beta   90.00000000
_cell_angle_gamma   90.00000000
_symmetry_Int_Tables_number   1
_chemical_formula_structural   Tb6TcRh
_chemical_formula_sum   'Tb12 Tc2 Rh2'
_cell_volume   434.54203085
_cell_formula_units_Z   2
loop_
 _symmetry_equiv_pos_site_id
 _symmetry_equiv_pos_as_xyz
  1  'x, y, z'
loop_
 _atom_site_type_symbol
 _atom_site_label
 _atom_site_symmetry_multiplicity
 _atom_site_fract_x
 _atom_site_fract_y
 _atom_site_fract_z
 _atom_site_occupancy
  Tb  Tb0  1  0.327646  0.677678  0.067867  1
  Tb  Tb1  1  0.172354  0.177678  0.432133  1
  Tb  Tb2  1  0.664862  0.322978  0.560339  1
  Tb  Tb3  1  0.835138  0.822978  0.939661  1
  Tb  Tb4  1  0.664862  0.322978  0.939661  1
  Tb  Tb5  1  0.835138  0.822978  0.560339  1
  Tb  Tb6  1  0.327646  0.677678  0.432133  1
  Tb  Tb7  1  0.172354  0.177678  0.067867  1
  Tb  Tb8  1  0.869328  0.537359  0.250000  1
  Tb  Tb9  1  0.630672  0.037359  0.250000  1
  Tb  Tb10  1  0.138625  0.458958  0.750000  1
  Tb  Tb11  1  0.361375  0.958958  0.750000  1
  Tc  Tc12  1  0.039388  0.886302  0.250000  1
  Tc  Tc13  1  0.460612  0.386302  0.250000  1
  Rh  Rh14  1  0.947925  0.116067  0.750000  1
  Rh  Rh15  1  0.552075  0.616067  0.750000  1
