# generated using pymatgen
data_Ca12Ta7Re12WN48
_symmetry_space_group_name_H-M   'P 1'
_cell_length_a   11.22150886
_cell_length_b   11.23636312
_cell_length_c   11.23636323
_cell_angle_alpha   109.49798382
_cell_angle_beta   109.44444020
_cell_angle_gamma   109.44444570
_symmetry_Int_Tables_number   1
_chemical_formula_structural   Ca12Ta7Re12WN48
_chemical_formula_sum   'Ca12 Ta7 Re12 W1 N48'
_cell_volume   1090.99892735
_cell_formula_units_Z   1
loop_
 _symmetry_equiv_pos_site_id
 _symmetry_equiv_pos_as_xyz
  1  'x, y, z'
loop_
 _atom_site_type_symbol
 _atom_site_label
 _atom_site_symmetry_multiplicity
 _atom_site_fract_x
 _atom_site_fract_y
 _atom_site_fract_z
 _atom_site_occupancy
  Ca  Ca0  1  0.251076  0.375495  0.124690  1
  Ca  Ca1  1  0.375581  0.749195  0.124505  1
  Ca  Ca2  1  0.374839  0.125033  0.250218  1
  Ca  Ca3  1  0.873614  0.624690  0.249195  1
  Ca  Ca4  1  0.749806  0.125185  0.374967  1
  Ca  Ca5  1  0.124621  0.249782  0.374815  1
  Ca  Ca6  1  0.875379  0.750218  0.625185  1
  Ca  Ca7  1  0.250194  0.874815  0.625033  1
  Ca  Ca8  1  0.126386  0.375310  0.750805  1
  Ca  Ca9  1  0.625161  0.874967  0.749782  1
  Ca  Ca10  1  0.624419  0.250805  0.875495  1
  Ca  Ca11  1  0.748924  0.624505  0.875310  1
  Ta  Ta12  1  0.000000  0.000000  0.000000  1
  Ta  Ta13  1  0.500000  0.000000  0.000000  1
  Ta  Ta14  1  0.000000  0.500000  0.000000  1
  Ta  Ta15  1  0.000000  0.000000  0.500000  1
  Ta  Ta16  1  0.500000  0.000000  0.500000  1
  Ta  Ta17  1  0.000000  0.500000  0.500000  1
  Ta  Ta18  1  0.500000  0.500000  0.500000  1
  Re  Re19  1  0.874562  0.250118  0.125437  1
  Re  Re20  1  0.749538  0.875005  0.124858  1
  Re  Re21  1  0.624680  0.375142  0.250147  1
  Re  Re22  1  0.124444  0.875319  0.249882  1
  Re  Re23  1  0.250875  0.625437  0.375319  1
  Re  Re24  1  0.625467  0.750147  0.375005  1
  Re  Re25  1  0.374533  0.249853  0.624995  1
  Re  Re26  1  0.749125  0.374563  0.624681  1
  Re  Re27  1  0.875556  0.124681  0.750118  1
  Re  Re28  1  0.375320  0.624858  0.749853  1
  Re  Re29  1  0.250462  0.124995  0.875142  1
  Re  Re30  1  0.125438  0.749882  0.874563  1
  W  W31  1  0.500000  0.500000  0.000000  1
  N  N32  1  0.196003  0.114089  0.010768  1
  N  N33  1  0.313476  0.896642  0.010341  1
  N  N34  1  0.886246  0.396948  0.083256  1
  N  N35  1  0.690768  0.685194  0.081014  1
  N  N36  1  0.609754  0.418986  0.104181  1
  N  N37  1  0.989298  0.686307  0.103052  1
  N  N38  1  0.009755  0.197322  0.113403  1
  N  N39  1  0.603189  0.916984  0.113685  1
  N  N40  1  0.197010  0.583256  0.186307  1
  N  N41  1  0.494427  0.604181  0.185194  1
  N  N42  1  0.113452  0.010827  0.197026  1
  N  N43  1  0.582787  0.185622  0.195828  1
  N  N44  1  0.489504  0.386315  0.303299  1
  N  N45  1  0.312434  0.916081  0.302678  1
  N  N46  1  0.897164  0.010205  0.314378  1
  N  N47  1  0.916425  0.302974  0.313801  1
  N  N48  1  0.303134  0.489659  0.386301  1
  N  N49  1  0.581914  0.896679  0.385911  1
  N  N50  1  0.814766  0.510768  0.396679  1
  N  N51  1  0.083167  0.886301  0.396642  1
  N  N52  1  0.103648  0.613403  0.416081  1
  N  N53  1  0.813796  0.803299  0.416984  1
  N  N54  1  0.602625  0.186199  0.489173  1
  N  N55  1  0.386959  0.304172  0.489795  1
  N  N56  1  0.613041  0.695828  0.510205  1
  N  N57  1  0.397375  0.813801  0.510827  1
  N  N58  1  0.186204  0.196701  0.583016  1
  N  N59  1  0.896352  0.386597  0.583919  1
  N  N60  1  0.916833  0.113699  0.603358  1
  N  N61  1  0.185234  0.489232  0.603321  1
  N  N62  1  0.418086  0.103321  0.614089  1
  N  N63  1  0.696866  0.510341  0.613699  1
  N  N64  1  0.083575  0.697026  0.686199  1
  N  N65  1  0.102836  0.989795  0.685622  1
  N  N66  1  0.687566  0.083919  0.697322  1
  N  N67  1  0.510496  0.613685  0.696701  1
  N  N68  1  0.417213  0.814378  0.804172  1
  N  N69  1  0.886548  0.989173  0.802974  1
  N  N70  1  0.505573  0.395819  0.814806  1
  N  N71  1  0.802990  0.416744  0.813693  1
  N  N72  1  0.396811  0.083016  0.886315  1
  N  N73  1  0.990245  0.802678  0.886597  1
  N  N74  1  0.010702  0.313693  0.896948  1
  N  N75  1  0.390246  0.581014  0.895819  1
  N  N76  1  0.309232  0.314806  0.918986  1
  N  N77  1  0.113754  0.603052  0.916744  1
  N  N78  1  0.686524  0.103358  0.989659  1
  N  N79  1  0.803997  0.885911  0.989232  1
