# generated using pymatgen
data_La8Pr4Ga8Ir3Rh5
_symmetry_space_group_name_H-M   'P 1'
_cell_length_a   5.75719735
_cell_length_b   8.36029821
_cell_length_c   13.73300289
_cell_angle_alpha   90.24180103
_cell_angle_beta   89.97650129
_cell_angle_gamma   89.87917576
_symmetry_Int_Tables_number   1
_chemical_formula_structural   La8Pr4Ga8Ir3Rh5
_chemical_formula_sum   'La8 Pr4 Ga8 Ir3 Rh5'
_cell_volume   660.98792540
_cell_formula_units_Z   1
loop_
 _symmetry_equiv_pos_site_id
 _symmetry_equiv_pos_as_xyz
  1  'x, y, z'
loop_
 _atom_site_type_symbol
 _atom_site_label
 _atom_site_symmetry_multiplicity
 _atom_site_fract_x
 _atom_site_fract_y
 _atom_site_fract_z
 _atom_site_occupancy
  La  La0  1  0.151716  0.399702  0.095938  1
  La  La1  1  0.848315  0.600092  0.903781  1
  La  La2  1  0.848905  0.600246  0.596253  1
  La  La3  1  0.847710  0.902159  0.403026  1
  La  La4  1  0.151302  0.402236  0.403937  1
  La  La5  1  0.149922  0.096161  0.596191  1
  La  La6  1  0.150261  0.096612  0.902537  1
  La  La7  1  0.850481  0.903502  0.097385  1
  Pr  Pr8  1  0.635613  0.259420  0.249310  1
  Pr  Pr9  1  0.365315  0.741625  0.749829  1
  Pr  Pr10  1  0.362352  0.760030  0.249145  1
  Pr  Pr11  1  0.636846  0.239573  0.749962  1
  Ga  Ga12  1  0.141158  0.112427  0.250752  1
  Ga  Ga13  1  0.859773  0.888387  0.750020  1
  Ga  Ga14  1  0.858576  0.610462  0.249904  1
  Ga  Ga15  1  0.141069  0.389511  0.749778  1
  Ga  Ga16  1  0.625102  0.249606  0.999126  1
  Ga  Ga17  1  0.375537  0.750494  0.000366  1
  Ga  Ga18  1  0.374172  0.749792  0.500101  1
  Ga  Ga19  1  0.625863  0.249278  0.500891  1
  Ir  Ir20  1  0.357622  0.029303  0.092006  1
  Ir  Ir21  1  0.642565  0.970934  0.908671  1
  Ir  Ir22  1  0.643037  0.970886  0.591294  1
  Rh  Rh23  1  0.645467  0.527383  0.409791  1
  Rh  Rh24  1  0.356338  0.028817  0.409859  1
  Rh  Rh25  1  0.355130  0.471534  0.590083  1
  Rh  Rh26  1  0.354389  0.472344  0.909856  1
  Rh  Rh27  1  0.645464  0.527483  0.090206  1
