# generated using pymatgen
data_HoBeRe2C
_symmetry_space_group_name_H-M   'P 1'
_cell_length_a   5.64432315
_cell_length_b   5.64432290
_cell_length_c   7.27849000
_cell_angle_alpha   90.00000000
_cell_angle_beta   90.00000000
_cell_angle_gamma   140.97719914
_symmetry_Int_Tables_number   1
_chemical_formula_structural   HoBeRe2C
_chemical_formula_sum   'Ho2 Be2 Re4 C2'
_cell_volume   145.99909095
_cell_formula_units_Z   2
loop_
 _symmetry_equiv_pos_site_id
 _symmetry_equiv_pos_as_xyz
  1  'x, y, z'
loop_
 _atom_site_type_symbol
 _atom_site_label
 _atom_site_symmetry_multiplicity
 _atom_site_fract_x
 _atom_site_fract_y
 _atom_site_fract_z
 _atom_site_occupancy
  Ho  Ho0  1  0.535241  0.464759  0.250000  1
  Ho  Ho1  1  0.464759  0.535241  0.750000  1
  Be  Be2  1  0.257543  0.742457  0.250000  1
  Be  Be3  1  0.742457  0.257543  0.750000  1
  Re  Re4  1  0.820314  0.179686  0.062662  1
  Re  Re5  1  0.179686  0.820314  0.937338  1
  Re  Re6  1  0.179686  0.820314  0.562662  1
  Re  Re7  1  0.820314  0.179686  0.437338  1
  C  C8  1  0.000000  0.000000  0.000000  1
  C  C9  1  0.000000  0.000000  0.500000  1
