# generated using pymatgen
data_Nd2Y3(In2Rh)2
_symmetry_space_group_name_H-M   'P 1'
_cell_length_a   3.71700900
_cell_length_b   8.11122438
_cell_length_c   18.49532236
_cell_angle_alpha   89.63913212
_cell_angle_beta   90.00000000
_cell_angle_gamma   90.00000000
_symmetry_Int_Tables_number   1
_chemical_formula_structural   Nd2Y3(In2Rh)2
_chemical_formula_sum   'Nd4 Y6 In8 Rh4'
_cell_volume   557.61355040
_cell_formula_units_Z   2
loop_
 _symmetry_equiv_pos_site_id
 _symmetry_equiv_pos_as_xyz
  1  'x, y, z'
loop_
 _atom_site_type_symbol
 _atom_site_label
 _atom_site_symmetry_multiplicity
 _atom_site_fract_x
 _atom_site_fract_y
 _atom_site_fract_z
 _atom_site_occupancy
  Nd  Nd0  1  0.000000  0.254264  0.720779  1
  Nd  Nd1  1  0.000000  0.745736  0.279221  1
  Nd  Nd2  1  0.000000  0.000000  0.000000  1
  Nd  Nd3  1  0.000000  0.500000  0.500000  1
  Y  Y4  1  0.000000  0.119130  0.411311  1
  Y  Y5  1  0.000000  0.880870  0.588689  1
  Y  Y6  1  0.000000  0.382072  0.911009  1
  Y  Y7  1  0.000000  0.617928  0.088991  1
  Y  Y8  1  0.000000  0.244953  0.220869  1
  Y  Y9  1  0.000000  0.755047  0.779131  1
  In  In10  1  0.500000  0.421905  0.347517  1
  In  In11  1  0.500000  0.578095  0.652483  1
  In  In12  1  0.500000  0.066428  0.849126  1
  In  In13  1  0.500000  0.933572  0.150874  1
  In  In14  1  0.500000  0.297423  0.069129  1
  In  In15  1  0.500000  0.702577  0.930871  1
  In  In16  1  0.500000  0.198729  0.567351  1
  In  In17  1  0.500000  0.801271  0.432649  1
  Rh  Rh18  1  0.500000  0.026783  0.305315  1
  Rh  Rh19  1  0.500000  0.973217  0.694685  1
  Rh  Rh20  1  0.500000  0.483514  0.806090  1
  Rh  Rh21  1  0.500000  0.516486  0.193910  1
