# generated using pymatgen
data_Hf18Re7P2W
_symmetry_space_group_name_H-M   'P 1'
_cell_length_a   8.56670400
_cell_length_b   8.56670375
_cell_length_c   8.62230100
_cell_angle_alpha   90.00000000
_cell_angle_beta   90.00000000
_cell_angle_gamma   120.00000097
_symmetry_Int_Tables_number   1
_chemical_formula_structural   Hf18Re7P2W
_chemical_formula_sum   'Hf18 Re7 P2 W1'
_cell_volume   548.00095706
_cell_formula_units_Z   1
loop_
 _symmetry_equiv_pos_site_id
 _symmetry_equiv_pos_as_xyz
  1  'x, y, z'
loop_
 _atom_site_type_symbol
 _atom_site_label
 _atom_site_symmetry_multiplicity
 _atom_site_fract_x
 _atom_site_fract_y
 _atom_site_fract_z
 _atom_site_occupancy
  Hf  Hf0  1  0.197129  0.802871  0.451754  1
  Hf  Hf1  1  0.197129  0.394257  0.451754  1
  Hf  Hf2  1  0.605743  0.802871  0.451754  1
  Hf  Hf3  1  0.802871  0.197129  0.548246  1
  Hf  Hf4  1  0.802871  0.605743  0.548246  1
  Hf  Hf5  1  0.394257  0.197129  0.548246  1
  Hf  Hf6  1  0.803650  0.196350  0.951822  1
  Hf  Hf7  1  0.803650  0.607300  0.951822  1
  Hf  Hf8  1  0.392700  0.196350  0.951822  1
  Hf  Hf9  1  0.196350  0.803650  0.048178  1
  Hf  Hf10  1  0.196350  0.392700  0.048178  1
  Hf  Hf11  1  0.607300  0.803650  0.048178  1
  Hf  Hf12  1  0.539481  0.460519  0.249621  1
  Hf  Hf13  1  0.539481  0.078962  0.249621  1
  Hf  Hf14  1  0.921038  0.460519  0.249621  1
  Hf  Hf15  1  0.460519  0.539481  0.750379  1
  Hf  Hf16  1  0.460519  0.921038  0.750379  1
  Hf  Hf17  1  0.078962  0.539481  0.750379  1
  Re  Re18  1  0.890125  0.109875  0.250111  1
  Re  Re19  1  0.890125  0.780250  0.250111  1
  Re  Re20  1  0.219750  0.109875  0.250111  1
  Re  Re21  1  0.109875  0.890125  0.749889  1
  Re  Re22  1  0.109875  0.219750  0.749889  1
  Re  Re23  1  0.780250  0.890125  0.749889  1
  Re  Re24  1  0.000000  0.000000  0.000000  1
  P  P25  1  0.333333  0.666667  0.249470  1
  P  P26  1  0.666667  0.333333  0.750530  1
  W  W27  1  0.000000  0.000000  0.500000  1
