# generated using pymatgen
data_Pr5Nd2Bi(SeO5)4
_symmetry_space_group_name_H-M   'P 1'
_cell_length_a   8.85350603
_cell_length_b   8.93079321
_cell_length_c   11.29567519
_cell_angle_alpha   91.31063228
_cell_angle_beta   88.81020445
_cell_angle_gamma   142.75580561
_symmetry_Int_Tables_number   1
_chemical_formula_structural   Pr5Nd2Bi(SeO5)4
_chemical_formula_sum   'Pr5 Nd2 Bi1 Se4 O20'
_cell_volume   540.39147729
_cell_formula_units_Z   1
loop_
 _symmetry_equiv_pos_site_id
 _symmetry_equiv_pos_as_xyz
  1  'x, y, z'
loop_
 _atom_site_type_symbol
 _atom_site_label
 _atom_site_symmetry_multiplicity
 _atom_site_fract_x
 _atom_site_fract_y
 _atom_site_fract_z
 _atom_site_occupancy
  Pr  Pr0  1  0.251128  0.750321  0.884449  1
  Pr  Pr1  1  0.753760  0.245060  0.120576  1
  Pr  Pr2  1  0.885240  0.069429  0.379371  1
  Pr  Pr3  1  0.069420  0.923598  0.613369  1
  Pr  Pr4  1  0.379106  0.577303  0.615637  1
  Nd  Nd5  1  0.751944  0.258057  0.609042  1
  Nd  Nd6  1  0.251247  0.758311  0.390408  1
  Bi  Bi7  1  0.570406  0.416381  0.409156  1
  Se  Se8  1  0.397189  0.580027  0.122540  1
  Se  Se9  1  0.570787  0.384979  0.866457  1
  Se  Se10  1  0.887045  0.071376  0.868519  1
  Se  Se11  1  0.070569  0.878391  0.138449  1
  O  O12  1  0.152725  0.454118  0.212602  1
  O  O13  1  0.431807  0.125489  0.784255  1
  O  O14  1  0.646450  0.957726  0.784007  1
  O  O15  1  0.979140  0.641549  0.209863  1
  O  O16  1  0.569943  0.913187  0.511635  1
  O  O17  1  0.900123  0.584477  0.506157  1
  O  O18  1  0.069634  0.412343  0.484145  1
  O  O19  1  0.405879  0.090119  0.503746  1
  O  O20  1  0.129614  0.580195  0.712316  1
  O  O21  1  0.631585  0.072148  0.288278  1
  O  O22  1  0.489237  0.815006  0.045999  1
  O  O23  1  0.822268  0.494836  0.932453  1
  O  O24  1  0.174957  0.068505  0.253900  1
  O  O25  1  0.105766  0.202464  0.760455  1
  O  O26  1  0.707825  0.592846  0.756001  1
  O  O27  1  0.630489  0.737342  0.220741  1
  O  O28  1  0.241616  0.254035  0.502868  1
  O  O29  1  0.734599  0.749282  0.502412  1
  O  O30  1  0.341628  0.026490  0.064961  1
  O  O31  1  0.001916  0.319657  0.945234  1
