# generated using pymatgen
data_AlZn5Mo
_symmetry_space_group_name_H-M   'P 1'
_cell_length_a   5.49221763
_cell_length_b   5.48194035
_cell_length_c   5.49221707
_cell_angle_alpha   60.06186794
_cell_angle_beta   58.11500790
_cell_angle_gamma   60.06187062
_symmetry_Int_Tables_number   1
_chemical_formula_structural   AlZn5Mo
_chemical_formula_sum   'Al1 Zn5 Mo1'
_cell_volume   115.27573968
_cell_formula_units_Z   1
loop_
 _symmetry_equiv_pos_site_id
 _symmetry_equiv_pos_as_xyz
  1  'x, y, z'
loop_
 _atom_site_type_symbol
 _atom_site_label
 _atom_site_symmetry_multiplicity
 _atom_site_fract_x
 _atom_site_fract_y
 _atom_site_fract_z
 _atom_site_occupancy
  Al  Al0  1  0.500000  0.000000  0.500000  1
  Zn  Zn1  1  0.500000  0.500000  0.000000  1
  Zn  Zn2  1  0.000000  0.000000  0.500000  1
  Zn  Zn3  1  0.000000  0.500000  0.000000  1
  Zn  Zn4  1  0.000000  0.500000  0.500000  1
  Zn  Zn5  1  0.500000  0.000000  0.000000  1
  Mo  Mo6  1  0.000000  0.000000  0.000000  1
