# generated using pymatgen
data_Np3SnGe2Rh3
_symmetry_space_group_name_H-M   'P 1'
_cell_length_a   7.19066106
_cell_length_b   7.25883388
_cell_length_c   3.95113000
_cell_angle_alpha   90.00000000
_cell_angle_beta   90.00000000
_cell_angle_gamma   120.31412019
_symmetry_Int_Tables_number   1
_chemical_formula_structural   Np3SnGe2Rh3
_chemical_formula_sum   'Np3 Sn1 Ge2 Rh3'
_cell_volume   178.03452932
_cell_formula_units_Z   1
loop_
 _symmetry_equiv_pos_site_id
 _symmetry_equiv_pos_as_xyz
  1  'x, y, z'
loop_
 _atom_site_type_symbol
 _atom_site_label
 _atom_site_symmetry_multiplicity
 _atom_site_fract_x
 _atom_site_fract_y
 _atom_site_fract_z
 _atom_site_occupancy
  Np  Np0  1  0.430829  0.422337  0.500000  1
  Np  Np1  1  0.569171  0.991508  0.500000  1
  Np  Np2  1  0.000000  0.594734  0.500000  1
  Sn  Sn3  1  0.000000  0.247130  0.000000  1
  Ge  Ge4  1  0.746088  0.749792  0.000000  1
  Ge  Ge5  1  0.253912  0.003704  0.000000  1
  Rh  Rh6  1  0.661143  0.335802  0.000000  1
  Rh  Rh7  1  0.338857  0.674660  0.000000  1
  Rh  Rh8  1  0.000000  0.980333  0.500000  1
