# generated using pymatgen
data_Y20GaSi7Hg4
_symmetry_space_group_name_H-M   'P 1'
_cell_length_a   7.60548678
_cell_length_b   7.60548678
_cell_length_c   14.25028210
_cell_angle_alpha   90.00958118
_cell_angle_beta   90.00958118
_cell_angle_gamma   89.63417321
_symmetry_Int_Tables_number   1
_chemical_formula_structural   Y20GaSi7Hg4
_chemical_formula_sum   'Y20 Ga1 Si7 Hg4'
_cell_volume   824.26835918
_cell_formula_units_Z   1
loop_
 _symmetry_equiv_pos_site_id
 _symmetry_equiv_pos_as_xyz
  1  'x, y, z'
loop_
 _atom_site_type_symbol
 _atom_site_label
 _atom_site_symmetry_multiplicity
 _atom_site_fract_x
 _atom_site_fract_y
 _atom_site_fract_z
 _atom_site_occupancy
  Y  Y0  1  0.831102  0.826167  0.890827  1
  Y  Y1  1  0.173833  0.168898  0.609173  1
  Y  Y2  1  0.831492  0.172293  0.389460  1
  Y  Y3  1  0.168794  0.827507  0.389064  1
  Y  Y4  1  0.327868  0.331259  0.389341  1
  Y  Y5  1  0.827707  0.168508  0.110540  1
  Y  Y6  1  0.327632  0.668211  0.889935  1
  Y  Y7  1  0.172493  0.831206  0.110936  1
  Y  Y8  1  0.498189  0.999066  0.753597  1
  Y  Y9  1  0.999984  0.500027  0.246560  1
  Y  Y10  1  0.331789  0.672368  0.610065  1
  Y  Y11  1  0.668741  0.672132  0.110659  1
  Y  Y12  1  0.666793  0.328678  0.609029  1
  Y  Y13  1  0.000934  0.501811  0.746403  1
  Y  Y14  1  0.827145  0.830344  0.609197  1
  Y  Y15  1  0.671322  0.333207  0.890971  1
  Y  Y16  1  0.169656  0.172855  0.890803  1
  Y  Y17  1  0.499973  0.000016  0.253440  1
  Y  Y18  1  0.672716  0.668321  0.389335  1
  Y  Y19  1  0.331679  0.327284  0.110665  1
  Ga  Ga20  1  0.873989  0.126011  0.750000  1
  Si  Si21  1  0.625794  0.374206  0.250000  1
  Si  Si22  1  0.374295  0.625705  0.250000  1
  Si  Si23  1  0.125989  0.126324  0.250018  1
  Si  Si24  1  0.374547  0.373363  0.750024  1
  Si  Si25  1  0.125288  0.874712  0.750000  1
  Si  Si26  1  0.873676  0.874011  0.249982  1
  Si  Si27  1  0.626637  0.625453  0.749976  1
  Hg  Hg28  1  0.000445  0.500490  0.002052  1
  Hg  Hg29  1  0.499506  0.999517  0.999624  1
  Hg  Hg30  1  0.499510  0.999555  0.497948  1
  Hg  Hg31  1  0.000483  0.500494  0.500376  1
