# generated using pymatgen
data_Y5Er11(AlNi)4
_symmetry_space_group_name_H-M   'P 1'
_cell_length_a   9.38365402
_cell_length_b   9.38365256
_cell_length_c   9.38734400
_cell_angle_alpha   59.98697883
_cell_angle_beta   59.98698400
_cell_angle_gamma   59.89064970
_symmetry_Int_Tables_number   1
_chemical_formula_structural   Y5Er11(AlNi)4
_chemical_formula_sum   'Y5 Er11 Al4 Ni4'
_cell_volume   583.88336524
_cell_formula_units_Z   1
loop_
 _symmetry_equiv_pos_site_id
 _symmetry_equiv_pos_as_xyz
  1  'x, y, z'
loop_
 _atom_site_type_symbol
 _atom_site_label
 _atom_site_symmetry_multiplicity
 _atom_site_fract_x
 _atom_site_fract_y
 _atom_site_fract_z
 _atom_site_occupancy
  Y  Y0  1  0.187405  0.813610  0.812132  1
  Y  Y1  1  0.813610  0.187405  0.186853  1
  Y  Y2  1  0.813610  0.187405  0.812132  1
  Y  Y3  1  0.187405  0.813610  0.186853  1
  Y  Y4  1  0.812328  0.812328  0.187672  1
  Er  Er5  1  0.187988  0.187988  0.812012  1
  Er  Er6  1  0.600719  0.600719  0.599901  1
  Er  Er7  1  0.600719  0.600719  0.198661  1
  Er  Er8  1  0.599368  0.199050  0.600791  1
  Er  Er9  1  0.199050  0.599368  0.600791  1
  Er  Er10  1  0.060333  0.438969  0.440549  1
  Er  Er11  1  0.438969  0.060333  0.060149  1
  Er  Er12  1  0.438969  0.060333  0.440549  1
  Er  Er13  1  0.060333  0.438969  0.060149  1
  Er  Er14  1  0.439715  0.439715  0.060285  1
  Er  Er15  1  0.060280  0.060280  0.439720  1
  Al  Al16  1  0.826992  0.826992  0.827115  1
  Al  Al17  1  0.826992  0.826992  0.518899  1
  Al  Al18  1  0.827193  0.518403  0.827201  1
  Al  Al19  1  0.518403  0.827193  0.827201  1
  Ni  Ni20  1  0.392646  0.392646  0.393039  1
  Ni  Ni21  1  0.392646  0.392646  0.821669  1
  Ni  Ni22  1  0.392896  0.821427  0.392838  1
  Ni  Ni23  1  0.821427  0.392896  0.392838  1
