# generated using pymatgen
data_Tm5P12Ru18Pt
_symmetry_space_group_name_H-M   'P 1'
_cell_length_a   12.50501800
_cell_length_b   12.50501814
_cell_length_c   3.96430700
_cell_angle_alpha   90.00000000
_cell_angle_beta   90.00000000
_cell_angle_gamma   119.99999434
_symmetry_Int_Tables_number   1
_chemical_formula_structural   Tm5P12Ru18Pt
_chemical_formula_sum   'Tm5 P12 Ru18 Pt1'
_cell_volume   536.86684338
_cell_formula_units_Z   1
loop_
 _symmetry_equiv_pos_site_id
 _symmetry_equiv_pos_as_xyz
  1  'x, y, z'
loop_
 _atom_site_type_symbol
 _atom_site_label
 _atom_site_symmetry_multiplicity
 _atom_site_fract_x
 _atom_site_fract_y
 _atom_site_fract_z
 _atom_site_occupancy
  Tm  Tm0  1  0.333333  0.666667  0.500000  1
  Tm  Tm1  1  0.666667  0.333333  0.500000  1
  Tm  Tm2  1  0.190174  0.190174  0.000000  1
  Tm  Tm3  1  0.809826  0.000000  0.000000  1
  Tm  Tm4  1  0.000000  0.809826  0.000000  1
  P  P5  1  0.306718  0.828681  0.000000  1
  P  P6  1  0.171319  0.478037  0.000000  1
  P  P7  1  0.521963  0.693282  0.000000  1
  P  P8  1  0.828681  0.306718  0.000000  1
  P  P9  1  0.478037  0.171319  0.000000  1
  P  P10  1  0.693282  0.521963  0.000000  1
  P  P11  1  0.372750  0.372750  0.500000  1
  P  P12  1  0.627250  0.000000  0.500000  1
  P  P13  1  0.000000  0.627250  0.500000  1
  P  P14  1  0.813233  0.813233  0.500000  1
  P  P15  1  0.186767  0.000000  0.500000  1
  P  P16  1  0.000000  0.186767  0.500000  1
  Ru  Ru17  1  0.191221  0.814611  0.500000  1
  Ru  Ru18  1  0.185389  0.376610  0.500000  1
  Ru  Ru19  1  0.623390  0.808779  0.500000  1
  Ru  Ru20  1  0.814611  0.191221  0.500000  1
  Ru  Ru21  1  0.376610  0.185389  0.500000  1
  Ru  Ru22  1  0.808779  0.623390  0.500000  1
  Ru  Ru23  1  0.126810  0.634435  0.000000  1
  Ru  Ru24  1  0.365565  0.492374  0.000000  1
  Ru  Ru25  1  0.507626  0.873190  0.000000  1
  Ru  Ru26  1  0.634435  0.126810  0.000000  1
  Ru  Ru27  1  0.492374  0.365565  0.000000  1
  Ru  Ru28  1  0.873190  0.507626  0.000000  1
  Ru  Ru29  1  0.555031  0.555031  0.500000  1
  Ru  Ru30  1  0.444969  0.000000  0.500000  1
  Ru  Ru31  1  0.000000  0.444969  0.500000  1
  Ru  Ru32  1  0.718535  0.718535  0.000000  1
  Ru  Ru33  1  0.281465  0.000000  0.000000  1
  Ru  Ru34  1  0.000000  0.281465  0.000000  1
  Pt  Pt35  1  0.000000  0.000000  0.500000  1
