# generated using pymatgen
data_Tb9Ho(PPb3)2
_symmetry_space_group_name_H-M   'P 1'
_cell_length_a   9.19981200
_cell_length_b   9.19981308
_cell_length_c   6.81189000
_cell_angle_alpha   90.00000000
_cell_angle_beta   90.00000000
_cell_angle_gamma   120.00001048
_symmetry_Int_Tables_number   1
_chemical_formula_structural   Tb9Ho(PPb3)2
_chemical_formula_sum   'Tb9 Ho1 P2 Pb6'
_cell_volume   499.29379443
_cell_formula_units_Z   1
loop_
 _symmetry_equiv_pos_site_id
 _symmetry_equiv_pos_as_xyz
  1  'x, y, z'
loop_
 _atom_site_type_symbol
 _atom_site_label
 _atom_site_symmetry_multiplicity
 _atom_site_fract_x
 _atom_site_fract_y
 _atom_site_fract_z
 _atom_site_occupancy
  Tb  Tb0  1  0.761987  0.761927  0.749962  1
  Tb  Tb1  1  0.238073  0.000060  0.749962  1
  Tb  Tb2  1  0.999940  0.238013  0.749962  1
  Tb  Tb3  1  0.238073  0.238013  0.250038  1
  Tb  Tb4  1  0.761987  0.000060  0.250038  1
  Tb  Tb5  1  0.999940  0.761927  0.250038  1
  Tb  Tb6  1  0.666667  0.333333  0.000000  1
  Tb  Tb7  1  0.333333  0.666667  0.000000  1
  Tb  Tb8  1  0.333333  0.666667  0.500000  1
  Ho  Ho9  1  0.666667  0.333333  0.500000  1
  P  P10  1  0.000000  0.000000  0.000000  1
  P  P11  1  0.000000  0.000000  0.500000  1
  Pb  Pb12  1  0.399996  0.399873  0.749911  1
  Pb  Pb13  1  0.600127  0.000124  0.749911  1
  Pb  Pb14  1  0.999876  0.600004  0.749911  1
  Pb  Pb15  1  0.600127  0.600004  0.250089  1
  Pb  Pb16  1  0.399996  0.000124  0.250089  1
  Pb  Pb17  1  0.999876  0.399873  0.250089  1
