# generated using pymatgen
data_Ba7SrNb(SbO6)3
_symmetry_space_group_name_H-M   'P 1'
_cell_length_a   6.20160700
_cell_length_b   6.20159277
_cell_length_c   16.04354600
_cell_angle_alpha   90.00020658
_cell_angle_beta   89.99973696
_cell_angle_gamma   119.99992388
_symmetry_Int_Tables_number   1
_chemical_formula_structural   Ba7SrNb(SbO6)3
_chemical_formula_sum   'Ba7 Sr1 Nb1 Sb3 O18'
_cell_volume   534.36599615
_cell_formula_units_Z   1
loop_
 _symmetry_equiv_pos_site_id
 _symmetry_equiv_pos_as_xyz
  1  'x, y, z'
loop_
 _atom_site_type_symbol
 _atom_site_label
 _atom_site_symmetry_multiplicity
 _atom_site_fract_x
 _atom_site_fract_y
 _atom_site_fract_z
 _atom_site_occupancy
  Ba  Ba0  1  0.999999  0.000003  0.739336  1
  Ba  Ba1  1  0.999999  0.000000  0.266338  1
  Ba  Ba2  1  0.666666  0.333330  0.575332  1
  Ba  Ba3  1  0.333329  0.666662  0.150346  1
  Ba  Ba4  1  0.333335  0.666672  0.412009  1
  Ba  Ba5  1  0.666669  0.333338  0.855186  1
  Ba  Ba6  1  0.999999  0.000000  0.997194  1
  Sr  Sr7  1  0.000001  0.000000  0.500656  1
  Nb  Nb8  1  0.666665  0.333332  0.160888  1
  Sb  Sb9  1  0.666668  0.333336  0.347389  1
  Sb  Sb10  1  0.333334  0.666674  0.833156  1
  Sb  Sb11  1  0.333333  0.666663  0.650203  1
  O  O12  1  0.526338  0.945893  0.739932  1
  O  O13  1  0.054111  0.580450  0.739935  1
  O  O14  1  0.419554  0.473665  0.739937  1
  O  O15  1  0.470859  0.048548  0.262364  1
  O  O16  1  0.951452  0.422313  0.262362  1
  O  O17  1  0.577690  0.529140  0.262363  1
  O  O18  1  0.115249  0.360735  0.588213  1
  O  O19  1  0.639250  0.754499  0.588206  1
  O  O20  1  0.245493  0.884739  0.588203  1
  O  O21  1  0.898838  0.642154  0.112449  1
  O  O22  1  0.357836  0.256673  0.112452  1
  O  O23  1  0.743320  0.101153  0.112454  1
  O  O24  1  0.880550  0.638004  0.412721  1
  O  O25  1  0.362006  0.242551  0.412725  1
  O  O26  1  0.757459  0.119458  0.412723  1
  O  O27  1  0.103167  0.352606  0.888313  1
  O  O28  1  0.647399  0.750575  0.888309  1
  O  O29  1  0.249434  0.896835  0.888308  1
