# generated using pymatgen
data_Y2Pa(Ni3As2)3
_symmetry_space_group_name_H-M   'P 1'
_cell_length_a   3.90713900
_cell_length_b   10.83057300
_cell_length_c   12.71710100
_cell_angle_alpha   90.00000000
_cell_angle_beta   90.00000000
_cell_angle_gamma   90.00000000
_symmetry_Int_Tables_number   1
_chemical_formula_structural   Y2Pa(Ni3As2)3
_chemical_formula_sum   'Y4 Pa2 Ni18 As12'
_cell_volume   538.14389323
_cell_formula_units_Z   2
loop_
 _symmetry_equiv_pos_site_id
 _symmetry_equiv_pos_as_xyz
  1  'x, y, z'
loop_
 _atom_site_type_symbol
 _atom_site_label
 _atom_site_symmetry_multiplicity
 _atom_site_fract_x
 _atom_site_fract_y
 _atom_site_fract_z
 _atom_site_occupancy
  Y  Y0  1  0.500000  0.814743  0.206374  1
  Y  Y1  1  0.500000  0.185257  0.206374  1
  Y  Y2  1  0.000000  0.685257  0.793626  1
  Y  Y3  1  0.000000  0.314743  0.793626  1
  Pa  Pa4  1  0.000000  0.500000  0.524617  1
  Pa  Pa5  1  0.500000  0.000000  0.475383  1
  Ni  Ni6  1  0.500000  0.500000  0.152198  1
  Ni  Ni7  1  0.000000  0.000000  0.847802  1
  Ni  Ni8  1  0.500000  0.500000  0.692850  1
  Ni  Ni9  1  0.000000  0.000000  0.307150  1
  Ni  Ni10  1  0.000000  0.500000  0.980315  1
  Ni  Ni11  1  0.500000  0.000000  0.019685  1
  Ni  Ni12  1  0.500000  0.332987  0.995038  1
  Ni  Ni13  1  0.500000  0.667013  0.995038  1
  Ni  Ni14  1  0.000000  0.167013  0.004962  1
  Ni  Ni15  1  0.000000  0.832987  0.004962  1
  Ni  Ni16  1  0.500000  0.303839  0.429699  1
  Ni  Ni17  1  0.500000  0.696161  0.429699  1
  Ni  Ni18  1  0.000000  0.196161  0.570301  1
  Ni  Ni19  1  0.000000  0.803839  0.570301  1
  Ni  Ni20  1  0.500000  0.881108  0.707895  1
  Ni  Ni21  1  0.500000  0.118892  0.707895  1
  Ni  Ni22  1  0.000000  0.618892  0.292105  1
  Ni  Ni23  1  0.000000  0.381108  0.292105  1
  As  As24  1  0.500000  0.500000  0.873427  1
  As  As25  1  0.000000  0.000000  0.126573  1
  As  As26  1  0.500000  0.500000  0.341688  1
  As  As27  1  0.000000  0.000000  0.658312  1
  As  As28  1  0.500000  0.309037  0.614615  1
  As  As29  1  0.500000  0.690963  0.614615  1
  As  As30  1  0.000000  0.190963  0.385385  1
  As  As31  1  0.000000  0.809037  0.385385  1
  As  As32  1  0.500000  0.848626  0.891685  1
  As  As33  1  0.500000  0.151374  0.891685  1
  As  As34  1  0.000000  0.651374  0.108315  1
  As  As35  1  0.000000  0.348626  0.108315  1
