# generated using pymatgen
data_Gd8Te(OsO8)3
_symmetry_space_group_name_H-M   'P 1'
_cell_length_a   5.34673404
_cell_length_b   9.23381545
_cell_length_c   10.08549690
_cell_angle_alpha   89.74274077
_cell_angle_beta   90.23025662
_cell_angle_gamma   89.85659678
_symmetry_Int_Tables_number   1
_chemical_formula_structural   Gd8Te(OsO8)3
_chemical_formula_sum   'Gd8 Te1 Os3 O24'
_cell_volume   497.91797777
_cell_formula_units_Z   1
loop_
 _symmetry_equiv_pos_site_id
 _symmetry_equiv_pos_as_xyz
  1  'x, y, z'
loop_
 _atom_site_type_symbol
 _atom_site_label
 _atom_site_symmetry_multiplicity
 _atom_site_fract_x
 _atom_site_fract_y
 _atom_site_fract_z
 _atom_site_occupancy
  Gd  Gd0  1  0.482548  0.896915  0.033501  1
  Gd  Gd1  1  0.979469  0.600373  0.963270  1
  Gd  Gd2  1  0.522960  0.400230  0.463902  1
  Gd  Gd3  1  0.021272  0.103361  0.540529  1
  Gd  Gd4  1  0.459089  0.781347  0.631926  1
  Gd  Gd5  1  0.963499  0.716118  0.365242  1
  Gd  Gd6  1  0.536681  0.284554  0.869957  1
  Gd  Gd7  1  0.035135  0.215116  0.131754  1
  Te  Te8  1  0.539401  0.005972  0.352049  1
  Os  Os9  1  0.958860  0.997345  0.852924  1
  Os  Os10  1  0.459226  0.501848  0.148062  1
  Os  Os11  1  0.041230  0.497294  0.648101  1
  O  O12  1  0.250118  0.589432  0.504161  1
  O  O13  1  0.745003  0.914038  0.494404  1
  O  O14  1  0.750620  0.090447  0.996473  1
  O  O15  1  0.249200  0.409705  0.003559  1
  O  O16  1  0.269183  0.888272  0.430698  1
  O  O17  1  0.772348  0.613976  0.570413  1
  O  O18  1  0.728824  0.388743  0.070828  1
  O  O19  1  0.229217  0.111635  0.928128  1
  O  O20  1  0.187133  0.634564  0.178943  1
  O  O21  1  0.688512  0.863861  0.818350  1
  O  O22  1  0.816112  0.139977  0.321564  1
  O  O23  1  0.313107  0.362655  0.680494  1
  O  O24  1  0.313403  0.362237  0.260966  1
  O  O25  1  0.811527  0.139501  0.740871  1
  O  O26  1  0.683655  0.860118  0.238864  1
  O  O27  1  0.188377  0.637349  0.761537  1
  O  O28  1  0.331868  0.053553  0.201699  1
  O  O29  1  0.828803  0.445976  0.794154  1
  O  O30  1  0.675382  0.549776  0.294746  1
  O  O31  1  0.169068  0.944796  0.706267  1
  O  O32  1  0.417105  0.154870  0.472340  1
  O  O33  1  0.918992  0.345975  0.530005  1
  O  O34  1  0.581668  0.653640  0.028157  1
  O  O35  1  0.081405  0.844431  0.971164  1
