# generated using pymatgen
data_Tb2Lu3GaSi3
_symmetry_space_group_name_H-M   'P 1'
_cell_length_a   7.33032400
_cell_length_b   7.65758900
_cell_length_c   14.53487900
_cell_angle_alpha   90.00000000
_cell_angle_beta   90.00000000
_cell_angle_gamma   90.00000000
_symmetry_Int_Tables_number   1
_chemical_formula_structural   Tb2Lu3GaSi3
_chemical_formula_sum   'Tb8 Lu12 Ga4 Si12'
_cell_volume   815.88067147
_cell_formula_units_Z   4
loop_
 _symmetry_equiv_pos_site_id
 _symmetry_equiv_pos_as_xyz
  1  'x, y, z'
loop_
 _atom_site_type_symbol
 _atom_site_label
 _atom_site_symmetry_multiplicity
 _atom_site_fract_x
 _atom_site_fract_y
 _atom_site_fract_z
 _atom_site_occupancy
  Tb  Tb0  1  0.515671  0.680664  0.599472  1
  Tb  Tb1  1  0.015671  0.819336  0.900528  1
  Tb  Tb2  1  0.484329  0.319336  0.099472  1
  Tb  Tb3  1  0.984329  0.180664  0.400528  1
  Tb  Tb4  1  0.481037  0.322774  0.400126  1
  Tb  Tb5  1  0.981037  0.177226  0.099874  1
  Tb  Tb6  1  0.518963  0.677226  0.900126  1
  Tb  Tb7  1  0.018963  0.822774  0.599874  1
  Lu  Lu8  1  0.675016  0.174448  0.625535  1
  Lu  Lu9  1  0.175016  0.325552  0.874465  1
  Lu  Lu10  1  0.324984  0.825552  0.125535  1
  Lu  Lu11  1  0.824984  0.674448  0.374465  1
  Lu  Lu12  1  0.325002  0.824505  0.375961  1
  Lu  Lu13  1  0.825002  0.675495  0.124039  1
  Lu  Lu14  1  0.674998  0.175495  0.875961  1
  Lu  Lu15  1  0.174998  0.324505  0.624039  1
  Lu  Lu16  1  0.841234  0.507188  0.751243  1
  Lu  Lu17  1  0.341234  0.992812  0.748757  1
  Lu  Lu18  1  0.158766  0.492812  0.251243  1
  Lu  Lu19  1  0.658766  0.007188  0.248757  1
  Ga  Ga20  1  0.658748  0.965008  0.460752  1
  Ga  Ga21  1  0.158748  0.534992  0.039248  1
  Ga  Ga22  1  0.341252  0.034992  0.960752  1
  Ga  Ga23  1  0.841252  0.465008  0.539248  1
  Si  Si24  1  0.345925  0.034014  0.539238  1
  Si  Si25  1  0.845925  0.465986  0.960762  1
  Si  Si26  1  0.654075  0.965986  0.039238  1
  Si  Si27  1  0.154075  0.534014  0.460762  1
  Si  Si28  1  0.471564  0.389286  0.748912  1
  Si  Si29  1  0.971564  0.110714  0.751088  1
  Si  Si30  1  0.528436  0.610714  0.248912  1
  Si  Si31  1  0.028436  0.889286  0.251088  1
  Si  Si32  1  0.721072  0.871139  0.749988  1
  Si  Si33  1  0.221072  0.628861  0.750012  1
  Si  Si34  1  0.278928  0.128861  0.249988  1
  Si  Si35  1  0.778928  0.371139  0.250012  1
