# generated using pymatgen
data_TbEr9(GaCo5)2
_symmetry_space_group_name_H-M   'P 1'
_cell_length_a   5.41945678
_cell_length_b   5.41945574
_cell_length_c   20.39380715
_cell_angle_alpha   90.06667716
_cell_angle_beta   89.93332165
_cell_angle_gamma   136.70666411
_symmetry_Int_Tables_number   1
_chemical_formula_structural   TbEr9(GaCo5)2
_chemical_formula_sum   'Tb1 Er9 Ga2 Co10'
_cell_volume   410.73800813
_cell_formula_units_Z   1
loop_
 _symmetry_equiv_pos_site_id
 _symmetry_equiv_pos_as_xyz
  1  'x, y, z'
loop_
 _atom_site_type_symbol
 _atom_site_label
 _atom_site_symmetry_multiplicity
 _atom_site_fract_x
 _atom_site_fract_y
 _atom_site_fract_z
 _atom_site_occupancy
  Tb  Tb0  1  0.292180  0.707820  0.434112  1
  Er  Er1  1  0.289063  0.710937  0.249443  1
  Er  Er2  1  0.291607  0.708393  0.065830  1
  Er  Er3  1  0.997598  0.002402  0.842949  1
  Er  Er4  1  0.710851  0.289149  0.750281  1
  Er  Er5  1  0.708248  0.291752  0.566687  1
  Er  Er6  1  0.002521  0.997479  0.341948  1
  Er  Er7  1  0.997969  0.002031  0.657521  1
  Er  Er8  1  0.708306  0.291694  0.934181  1
  Er  Er9  1  0.002165  0.997835  0.156996  1
  Ga  Ga10  1  0.000884  0.999116  0.500466  1
  Ga  Ga11  1  0.000017  0.999983  0.999993  1
  Co  Co12  1  0.293693  0.706307  0.654753  1
  Co  Co13  1  0.582329  0.417671  0.441475  1
  Co  Co14  1  0.414226  0.585774  0.750154  1
  Co  Co15  1  0.417292  0.582708  0.941437  1
  Co  Co16  1  0.584686  0.415314  0.249388  1
  Co  Co17  1  0.418677  0.581323  0.559553  1
  Co  Co18  1  0.704937  0.295063  0.344523  1
  Co  Co19  1  0.706395  0.293605  0.154255  1
  Co  Co20  1  0.582723  0.417277  0.058445  1
  Co  Co21  1  0.293633  0.706367  0.845609  1
