# generated using pymatgen
data_Ca3Lu(OsC2)2
_symmetry_space_group_name_H-M   'P 1'
_cell_length_a   5.13007400
_cell_length_b   6.48492358
_cell_length_c   10.18837443
_cell_angle_alpha   90.73845773
_cell_angle_beta   90.00000000
_cell_angle_gamma   90.00000000
_symmetry_Int_Tables_number   1
_chemical_formula_structural   Ca3Lu(OsC2)2
_chemical_formula_sum   'Ca6 Lu2 Os4 C8'
_cell_volume   338.92009366
_cell_formula_units_Z   2
loop_
 _symmetry_equiv_pos_site_id
 _symmetry_equiv_pos_as_xyz
  1  'x, y, z'
loop_
 _atom_site_type_symbol
 _atom_site_label
 _atom_site_symmetry_multiplicity
 _atom_site_fract_x
 _atom_site_fract_y
 _atom_site_fract_z
 _atom_site_occupancy
  Ca  Ca0  1  0.750000  0.807891  0.053765  1
  Ca  Ca1  1  0.250000  0.192109  0.946235  1
  Ca  Ca2  1  0.250000  0.535305  0.222235  1
  Ca  Ca3  1  0.750000  0.464695  0.777765  1
  Ca  Ca4  1  0.750000  0.965413  0.721031  1
  Ca  Ca5  1  0.250000  0.034587  0.278969  1
  Lu  Lu6  1  0.250000  0.677949  0.552763  1
  Lu  Lu7  1  0.750000  0.322051  0.447237  1
  Os  Os8  1  0.250000  0.729111  0.847975  1
  Os  Os9  1  0.750000  0.270889  0.152025  1
  Os  Os10  1  0.750000  0.772651  0.361079  1
  Os  Os11  1  0.250000  0.227349  0.638921  1
  C  C12  1  0.250000  0.465965  0.751231  1
  C  C13  1  0.750000  0.534035  0.248769  1
  C  C14  1  0.750000  0.039317  0.270273  1
  C  C15  1  0.250000  0.960683  0.729727  1
  C  C16  1  0.250000  0.792590  0.025245  1
  C  C17  1  0.750000  0.207410  0.974755  1
  C  C18  1  0.750000  0.678718  0.536342  1
  C  C19  1  0.250000  0.321282  0.463658  1
