# generated using pymatgen
data_Tb4Bi3As3Rh7
_symmetry_space_group_name_H-M   'P 1'
_cell_length_a   7.69919966
_cell_length_b   7.52766679
_cell_length_c   7.52766515
_cell_angle_alpha   109.00502530
_cell_angle_beta   109.93348403
_cell_angle_gamma   109.93348822
_symmetry_Int_Tables_number   1
_chemical_formula_structural   Tb4Bi3As3Rh7
_chemical_formula_sum   'Tb4 Bi3 As3 Rh7'
_cell_volume   333.91418503
_cell_formula_units_Z   1
loop_
 _symmetry_equiv_pos_site_id
 _symmetry_equiv_pos_as_xyz
  1  'x, y, z'
loop_
 _atom_site_type_symbol
 _atom_site_label
 _atom_site_symmetry_multiplicity
 _atom_site_fract_x
 _atom_site_fract_y
 _atom_site_fract_z
 _atom_site_occupancy
  Tb  Tb0  1  0.446104  0.000000  0.000000  1
  Tb  Tb1  1  0.014223  0.534160  0.000000  1
  Tb  Tb2  1  0.014223  0.000000  0.534160  1
  Tb  Tb3  1  0.480064  0.465840  0.465840  1
  Bi  Bi4  1  0.981524  0.289107  0.289107  1
  Bi  Bi5  1  0.692416  0.000000  0.710893  1
  Bi  Bi6  1  0.692416  0.710893  0.000000  1
  As  As7  1  0.987170  0.653648  0.653648  1
  As  As8  1  0.333522  0.000000  0.346352  1
  As  As9  1  0.333522  0.346352  0.000000  1
  Rh  Rh10  1  0.089001  0.000000  0.000000  1
  Rh  Rh11  1  0.490448  0.751457  0.251980  1
  Rh  Rh12  1  0.738990  0.500523  0.248543  1
  Rh  Rh13  1  0.238468  0.748020  0.499477  1
  Rh  Rh14  1  0.238468  0.499477  0.748020  1
  Rh  Rh15  1  0.490448  0.251980  0.751457  1
  Rh  Rh16  1  0.738990  0.248543  0.500523  1
