# generated using pymatgen
data_Hf16MnNi4Os3
_symmetry_space_group_name_H-M   'P 1'
_cell_length_a   8.60408851
_cell_length_b   8.60408774
_cell_length_c   8.60408927
_cell_angle_alpha   59.89057221
_cell_angle_beta   59.89057231
_cell_angle_gamma   59.89057232
_symmetry_Int_Tables_number   1
_chemical_formula_structural   Hf16MnNi4Os3
_chemical_formula_sum   'Hf16 Mn1 Ni4 Os3'
_cell_volume   449.28306071
_cell_formula_units_Z   1
loop_
 _symmetry_equiv_pos_site_id
 _symmetry_equiv_pos_as_xyz
  1  'x, y, z'
loop_
 _atom_site_type_symbol
 _atom_site_label
 _atom_site_symmetry_multiplicity
 _atom_site_fract_x
 _atom_site_fract_y
 _atom_site_fract_z
 _atom_site_occupancy
  Hf  Hf0  1  0.679169  0.107437  0.107437  1
  Hf  Hf1  1  0.107437  0.679169  0.107437  1
  Hf  Hf2  1  0.107437  0.107437  0.679169  1
  Hf  Hf3  1  0.105802  0.105802  0.105802  1
  Hf  Hf4  1  0.315555  0.315555  0.680415  1
  Hf  Hf5  1  0.684488  0.684488  0.315269  1
  Hf  Hf6  1  0.315555  0.680415  0.315555  1
  Hf  Hf7  1  0.684488  0.315269  0.684488  1
  Hf  Hf8  1  0.680415  0.315555  0.315555  1
  Hf  Hf9  1  0.315269  0.684488  0.684488  1
  Hf  Hf10  1  0.952725  0.952725  0.547324  1
  Hf  Hf11  1  0.546103  0.546103  0.954647  1
  Hf  Hf12  1  0.952725  0.547324  0.952725  1
  Hf  Hf13  1  0.546103  0.954647  0.546103  1
  Hf  Hf14  1  0.547324  0.952725  0.952725  1
  Hf  Hf15  1  0.954647  0.546103  0.546103  1
  Mn  Mn16  1  0.335088  0.335088  0.335088  1
  Ni  Ni17  1  0.321774  0.892838  0.892838  1
  Ni  Ni18  1  0.892838  0.321774  0.892838  1
  Ni  Ni19  1  0.892838  0.892838  0.321774  1
  Ni  Ni20  1  0.892863  0.892863  0.892863  1
  Os  Os21  1  0.000456  0.334450  0.334450  1
  Os  Os22  1  0.334450  0.000456  0.334450  1
  Os  Os23  1  0.334450  0.334450  0.000456  1
