# generated using pymatgen
data_TbDyIn2(SbO4)4
_symmetry_space_group_name_H-M   'P 1'
_cell_length_a   5.36686552
_cell_length_b   7.55110233
_cell_length_c   7.62149326
_cell_angle_alpha   80.34300543
_cell_angle_beta   92.49319336
_cell_angle_gamma   88.26808471
_symmetry_Int_Tables_number   1
_chemical_formula_structural   TbDyIn2(SbO4)4
_chemical_formula_sum   'Tb1 Dy1 In2 Sb4 O16'
_cell_volume   303.98093667
_cell_formula_units_Z   1
loop_
 _symmetry_equiv_pos_site_id
 _symmetry_equiv_pos_as_xyz
  1  'x, y, z'
loop_
 _atom_site_type_symbol
 _atom_site_label
 _atom_site_symmetry_multiplicity
 _atom_site_fract_x
 _atom_site_fract_y
 _atom_site_fract_z
 _atom_site_occupancy
  Tb  Tb0  1  0.255014  0.619624  0.129705  1
  Dy  Dy1  1  0.744917  0.379949  0.870240  1
  In  In2  1  0.776436  0.870166  0.829582  1
  In  In3  1  0.223480  0.129944  0.170270  1
  Sb  Sb4  1  0.747648  0.811958  0.326043  1
  Sb  Sb5  1  0.252313  0.188272  0.674199  1
  Sb  Sb6  1  0.272529  0.690032  0.658844  1
  Sb  Sb7  1  0.727396  0.309690  0.341275  1
  O  O8  1  0.431341  0.888161  0.188819  1
  O  O9  1  0.568917  0.112402  0.811345  1
  O  O10  1  0.006253  0.614871  0.825679  1
  O  O11  1  0.993006  0.384465  0.174085  1
  O  O12  1  0.921037  0.813081  0.100610  1
  O  O13  1  0.077915  0.187554  0.899302  1
  O  O14  1  0.490723  0.673050  0.884800  1
  O  O15  1  0.510112  0.326782  0.114492  1
  O  O16  1  0.601657  0.564922  0.327662  1
  O  O17  1  0.399322  0.434965  0.672870  1
  O  O18  1  0.122067  0.938966  0.678875  1
  O  O19  1  0.878000  0.060978  0.321254  1
  O  O20  1  0.590665  0.807829  0.562433  1
  O  O21  1  0.409304  0.192270  0.437462  1
  O  O22  1  0.080083  0.691621  0.429103  1
  O  O23  1  0.919865  0.308448  0.571050  1
