# generated using pymatgen
data_GaAs3Se5Cl4
_symmetry_space_group_name_H-M   'P 1'
_cell_length_a   10.45231200
_cell_length_b   6.92025389
_cell_length_c   12.38528444
_cell_angle_alpha   75.15586946
_cell_angle_beta   90.00000000
_cell_angle_gamma   90.00000000
_symmetry_Int_Tables_number   1
_chemical_formula_structural   GaAs3Se5Cl4
_chemical_formula_sum   'Ga2 As6 Se10 Cl8'
_cell_volume   865.96234655
_cell_formula_units_Z   2
loop_
 _symmetry_equiv_pos_site_id
 _symmetry_equiv_pos_as_xyz
  1  'x, y, z'
loop_
 _atom_site_type_symbol
 _atom_site_label
 _atom_site_symmetry_multiplicity
 _atom_site_fract_x
 _atom_site_fract_y
 _atom_site_fract_z
 _atom_site_occupancy
  Ga  Ga0  1  0.750000  0.481862  0.719192  1
  Ga  Ga1  1  0.250000  0.518138  0.280808  1
  As  As2  1  0.078720  0.052743  0.668208  1
  As  As3  1  0.578720  0.947257  0.331792  1
  As  As4  1  0.921280  0.947257  0.331792  1
  As  As5  1  0.750000  0.977123  0.048266  1
  As  As6  1  0.250000  0.022877  0.951734  1
  As  As7  1  0.421280  0.052743  0.668208  1
  Se  Se8  1  0.436693  0.919978  0.866164  1
  Se  Se9  1  0.750000  0.678911  0.335150  1
  Se  Se10  1  0.750000  0.627465  0.157885  1
  Se  Se11  1  0.563307  0.080022  0.133836  1
  Se  Se12  1  0.250000  0.321089  0.664850  1
  Se  Se13  1  0.250000  0.874126  0.602401  1
  Se  Se14  1  0.250000  0.372535  0.842115  1
  Se  Se15  1  0.750000  0.125874  0.397599  1
  Se  Se16  1  0.063307  0.919978  0.866164  1
  Se  Se17  1  0.936693  0.080022  0.133836  1
  Cl  Cl18  1  0.250000  0.484441  0.109228  1
  Cl  Cl19  1  0.750000  0.163491  0.721032  1
  Cl  Cl20  1  0.750000  0.515559  0.890772  1
  Cl  Cl21  1  0.250000  0.836509  0.278968  1
  Cl  Cl22  1  0.922953  0.622773  0.628366  1
  Cl  Cl23  1  0.577047  0.622773  0.628366  1
  Cl  Cl24  1  0.077047  0.377227  0.371634  1
  Cl  Cl25  1  0.422953  0.377227  0.371634  1
