# generated using pymatgen
data_Hf5Zr3(Ir2N)2
_symmetry_space_group_name_H-M   'P 1'
_cell_length_a   8.76322261
_cell_length_b   8.76322287
_cell_length_c   8.76322300
_cell_angle_alpha   59.99999572
_cell_angle_beta   59.99999476
_cell_angle_gamma   59.99999311
_symmetry_Int_Tables_number   1
_chemical_formula_structural   Hf5Zr3(Ir2N)2
_chemical_formula_sum   'Hf10 Zr6 Ir8 N4'
_cell_volume   475.85705537
_cell_formula_units_Z   2
loop_
 _symmetry_equiv_pos_site_id
 _symmetry_equiv_pos_as_xyz
  1  'x, y, z'
loop_
 _atom_site_type_symbol
 _atom_site_label
 _atom_site_symmetry_multiplicity
 _atom_site_fract_x
 _atom_site_fract_y
 _atom_site_fract_z
 _atom_site_occupancy
  Hf  Hf0  1  0.121972  0.626009  0.626009  1
  Hf  Hf1  1  0.626009  0.121972  0.626009  1
  Hf  Hf2  1  0.626009  0.626009  0.121972  1
  Hf  Hf3  1  0.626009  0.626009  0.626009  1
  Hf  Hf4  1  0.816541  0.816541  0.183459  1
  Hf  Hf5  1  0.183459  0.183459  0.816541  1
  Hf  Hf6  1  0.816541  0.183459  0.816541  1
  Hf  Hf7  1  0.183459  0.816541  0.183459  1
  Hf  Hf8  1  0.183459  0.816541  0.816541  1
  Hf  Hf9  1  0.816541  0.183459  0.183459  1
  Zr  Zr10  1  0.435122  0.435122  0.064878  1
  Zr  Zr11  1  0.064878  0.064878  0.435122  1
  Zr  Zr12  1  0.435122  0.064878  0.435122  1
  Zr  Zr13  1  0.064878  0.435122  0.064878  1
  Zr  Zr14  1  0.064878  0.435122  0.435122  1
  Zr  Zr15  1  0.435122  0.064878  0.064878  1
  Ir  Ir16  1  0.763417  0.412194  0.412194  1
  Ir  Ir17  1  0.412194  0.763417  0.412194  1
  Ir  Ir18  1  0.412194  0.412194  0.763417  1
  Ir  Ir19  1  0.412194  0.412194  0.412194  1
  Ir  Ir20  1  0.476753  0.841082  0.841082  1
  Ir  Ir21  1  0.841082  0.476753  0.841082  1
  Ir  Ir22  1  0.841082  0.841082  0.476753  1
  Ir  Ir23  1  0.841082  0.841082  0.841082  1
  N  N24  1  0.631625  0.122791  0.122791  1
  N  N25  1  0.122791  0.631625  0.122791  1
  N  N26  1  0.122791  0.122791  0.631625  1
  N  N27  1  0.122791  0.122791  0.122791  1
