# generated using pymatgen
data_Y3Ho(ZnPb)4
_symmetry_space_group_name_H-M   'P 1'
_cell_length_a   4.61600200
_cell_length_b   4.61600287
_cell_length_c   15.90569400
_cell_angle_alpha   90.00000000
_cell_angle_beta   90.00000000
_cell_angle_gamma   119.99999377
_symmetry_Int_Tables_number   1
_chemical_formula_structural   Y3Ho(ZnPb)4
_chemical_formula_sum   'Y3 Ho1 Zn4 Pb4'
_cell_volume   293.50488945
_cell_formula_units_Z   1
loop_
 _symmetry_equiv_pos_site_id
 _symmetry_equiv_pos_as_xyz
  1  'x, y, z'
loop_
 _atom_site_type_symbol
 _atom_site_label
 _atom_site_symmetry_multiplicity
 _atom_site_fract_x
 _atom_site_fract_y
 _atom_site_fract_z
 _atom_site_occupancy
  Y  Y0  1  0.000000  0.000000  0.999713  1
  Y  Y1  1  0.000000  0.000000  0.250000  1
  Y  Y2  1  0.000000  0.000000  0.500287  1
  Ho  Ho3  1  0.000000  0.000000  0.750000  1
  Zn  Zn4  1  0.333334  0.666667  0.164621  1
  Zn  Zn5  1  0.333334  0.666667  0.335379  1
  Zn  Zn6  1  0.666666  0.333334  0.665402  1
  Zn  Zn7  1  0.666666  0.333334  0.834598  1
  Pb  Pb8  1  0.666666  0.333334  0.110249  1
  Pb  Pb9  1  0.666666  0.333334  0.389751  1
  Pb  Pb10  1  0.333334  0.666667  0.610742  1
  Pb  Pb11  1  0.333334  0.666667  0.889258  1
