# generated using pymatgen
data_Tb7YSb20
_symmetry_space_group_name_H-M   'P 1'
_cell_length_a   4.19731000
_cell_length_b   13.28426097
_cell_length_c   14.83795985
_cell_angle_alpha   78.15591890
_cell_angle_beta   90.00000000
_cell_angle_gamma   90.00000000
_symmetry_Int_Tables_number   1
_chemical_formula_structural   Tb7YSb20
_chemical_formula_sum   'Tb7 Y1 Sb20'
_cell_volume   809.72315636
_cell_formula_units_Z   1
loop_
 _symmetry_equiv_pos_site_id
 _symmetry_equiv_pos_as_xyz
  1  'x, y, z'
loop_
 _atom_site_type_symbol
 _atom_site_label
 _atom_site_symmetry_multiplicity
 _atom_site_fract_x
 _atom_site_fract_y
 _atom_site_fract_z
 _atom_site_occupancy
  Tb  Tb0  1  0.250000  0.953204  0.359800  1
  Tb  Tb1  1  0.250000  0.662163  0.856091  1
  Tb  Tb2  1  0.250000  0.669949  0.576379  1
  Tb  Tb3  1  0.750000  0.046848  0.640179  1
  Tb  Tb4  1  0.750000  0.330041  0.423510  1
  Tb  Tb5  1  0.250000  0.393705  0.771126  1
  Tb  Tb6  1  0.750000  0.606208  0.228876  1
  Y  Y7  1  0.750000  0.338003  0.143973  1
  Sb  Sb8  1  0.750000  0.847534  0.826419  1
  Sb  Sb9  1  0.250000  0.860748  0.677604  1
  Sb  Sb10  1  0.250000  0.141989  0.482197  1
  Sb  Sb11  1  0.750000  0.279412  0.938035  1
  Sb  Sb12  1  0.250000  0.141889  0.780766  1
  Sb  Sb13  1  0.750000  0.574273  0.446323  1
  Sb  Sb14  1  0.750000  0.139310  0.322383  1
  Sb  Sb15  1  0.250000  0.713855  0.350033  1
  Sb  Sb16  1  0.750000  0.286126  0.649950  1
  Sb  Sb17  1  0.750000  0.858087  0.219316  1
  Sb  Sb18  1  0.250000  0.419998  0.975316  1
  Sb  Sb19  1  0.250000  0.425719  0.553658  1
  Sb  Sb20  1  0.750000  0.575542  0.734287  1
  Sb  Sb21  1  0.250000  0.424373  0.265625  1
  Sb  Sb22  1  0.750000  0.857995  0.517813  1
  Sb  Sb23  1  0.750000  0.028621  0.903307  1
  Sb  Sb24  1  0.250000  0.720543  0.062135  1
  Sb  Sb25  1  0.250000  0.971278  0.096686  1
  Sb  Sb26  1  0.250000  0.152578  0.173493  1
  Sb  Sb27  1  0.750000  0.580011  0.024720  1
