# generated using pymatgen
data_FeCo(OsO3)4
_symmetry_space_group_name_H-M   'P 1'
_cell_length_a   4.60760100
_cell_length_b   10.43586478
_cell_length_c   9.20061444
_cell_angle_alpha   63.80821627
_cell_angle_beta   90.00000000
_cell_angle_gamma   90.00000000
_symmetry_Int_Tables_number   1
_chemical_formula_structural   FeCo(OsO3)4
_chemical_formula_sum   'Fe2 Co2 Os8 O24'
_cell_volume   396.97969697
_cell_formula_units_Z   2
loop_
 _symmetry_equiv_pos_site_id
 _symmetry_equiv_pos_as_xyz
  1  'x, y, z'
loop_
 _atom_site_type_symbol
 _atom_site_label
 _atom_site_symmetry_multiplicity
 _atom_site_fract_x
 _atom_site_fract_y
 _atom_site_fract_z
 _atom_site_occupancy
  Fe  Fe0  1  0.500000  0.500000  0.500000  1
  Fe  Fe1  1  0.000000  0.000000  0.000000  1
  Co  Co2  1  0.500000  0.500000  0.000000  1
  Co  Co3  1  0.000000  0.000000  0.500000  1
  Os  Os4  1  0.000865  0.668897  0.164602  1
  Os  Os5  1  0.999391  0.669848  0.666045  1
  Os  Os6  1  0.500609  0.169848  0.166045  1
  Os  Os7  1  0.499135  0.168897  0.664602  1
  Os  Os8  1  0.499391  0.830152  0.833955  1
  Os  Os9  1  0.500865  0.831103  0.335398  1
  Os  Os10  1  0.000609  0.330152  0.333955  1
  Os  Os11  1  0.999135  0.331103  0.835398  1
  O  O12  1  0.686585  0.000387  0.156889  1
  O  O13  1  0.684130  0.999558  0.656813  1
  O  O14  1  0.815870  0.499558  0.156813  1
  O  O15  1  0.813415  0.500387  0.656889  1
  O  O16  1  0.184130  0.500442  0.843187  1
  O  O17  1  0.186585  0.499613  0.343111  1
  O  O18  1  0.315870  0.000442  0.343187  1
  O  O19  1  0.313415  0.999613  0.843111  1
  O  O20  1  0.704209  0.675145  0.812522  1
  O  O21  1  0.700593  0.671482  0.312046  1
  O  O22  1  0.295475  0.677993  0.014384  1
  O  O23  1  0.298521  0.669701  0.514249  1
  O  O24  1  0.295791  0.324855  0.187478  1
  O  O25  1  0.299407  0.328518  0.687954  1
  O  O26  1  0.204209  0.824855  0.687478  1
  O  O27  1  0.200593  0.828518  0.187954  1
  O  O28  1  0.798521  0.830299  0.985751  1
  O  O29  1  0.795475  0.822007  0.485616  1
  O  O30  1  0.795791  0.175145  0.312522  1
  O  O31  1  0.799407  0.171482  0.812046  1
  O  O32  1  0.201479  0.169701  0.014249  1
  O  O33  1  0.204525  0.177993  0.514384  1
  O  O34  1  0.704525  0.322007  0.985616  1
  O  O35  1  0.701479  0.330299  0.485751  1
