# generated using pymatgen
data_Li4La16Os3Ru
_symmetry_space_group_name_H-M   'P 1'
_cell_length_a   10.11450599
_cell_length_b   10.14662739
_cell_length_c   10.14662700
_cell_angle_alpha   59.99999149
_cell_angle_beta   59.89488193
_cell_angle_gamma   59.89488539
_symmetry_Int_Tables_number   1
_chemical_formula_structural   Li4La16Os3Ru
_chemical_formula_sum   'Li4 La16 Os3 Ru1'
_cell_volume   735.15887842
_cell_formula_units_Z   1
loop_
 _symmetry_equiv_pos_site_id
 _symmetry_equiv_pos_as_xyz
  1  'x, y, z'
loop_
 _atom_site_type_symbol
 _atom_site_label
 _atom_site_symmetry_multiplicity
 _atom_site_fract_x
 _atom_site_fract_y
 _atom_site_fract_z
 _atom_site_occupancy
  Li  Li0  1  0.672250  0.672067  0.983614  1
  Li  Li1  1  0.983809  0.672063  0.672063  1
  Li  Li2  1  0.672250  0.983614  0.672067  1
  Li  Li3  1  0.672250  0.672067  0.672067  1
  La  La4  1  0.905972  0.905616  0.905616  1
  La  La5  1  0.436683  0.434082  0.064618  1
  La  La6  1  0.064609  0.064192  0.435600  1
  La  La7  1  0.436683  0.064618  0.064618  1
  La  La8  1  0.307421  0.692706  0.307167  1
  La  La9  1  0.693223  0.690021  0.308378  1
  La  La10  1  0.693223  0.308378  0.308378  1
  La  La11  1  0.283053  0.905650  0.905650  1
  La  La12  1  0.905972  0.282797  0.905616  1
  La  La13  1  0.307421  0.692706  0.692706  1
  La  La14  1  0.905972  0.905616  0.282797  1
  La  La15  1  0.064609  0.435600  0.064192  1
  La  La16  1  0.307421  0.307167  0.692706  1
  La  La17  1  0.064609  0.435600  0.435600  1
  La  La18  1  0.436683  0.064618  0.434082  1
  La  La19  1  0.693223  0.308378  0.690021  1
  Os  Os20  1  0.110572  0.110687  0.668054  1
  Os  Os21  1  0.110572  0.110687  0.110687  1
  Os  Os22  1  0.110572  0.668054  0.110687  1
  Ru  Ru23  1  0.660947  0.113017  0.113017  1
