# generated using pymatgen
data_Dy7ErRe3B24Ir
_symmetry_space_group_name_H-M   'P 1'
_cell_length_a   3.67687900
_cell_length_b   9.17134200
_cell_length_c   11.55421708
_cell_angle_alpha   90.14583156
_cell_angle_beta   90.00000000
_cell_angle_gamma   90.00000000
_symmetry_Int_Tables_number   1
_chemical_formula_structural   Dy7ErRe3B24Ir
_chemical_formula_sum   'Dy7 Er1 Re3 B24 Ir1'
_cell_volume   389.62906203
_cell_formula_units_Z   1
loop_
 _symmetry_equiv_pos_site_id
 _symmetry_equiv_pos_as_xyz
  1  'x, y, z'
loop_
 _atom_site_type_symbol
 _atom_site_label
 _atom_site_symmetry_multiplicity
 _atom_site_fract_x
 _atom_site_fract_y
 _atom_site_fract_z
 _atom_site_occupancy
  Dy  Dy0  1  0.000000  0.318507  0.415631  1
  Dy  Dy1  1  0.000000  0.678346  0.591420  1
  Dy  Dy2  1  0.000000  0.826988  0.081327  1
  Dy  Dy3  1  0.000000  0.177294  0.912551  1
  Dy  Dy4  1  0.000000  0.943942  0.370290  1
  Dy  Dy5  1  0.000000  0.056000  0.629128  1
  Dy  Dy6  1  0.000000  0.441114  0.128148  1
  Er  Er7  1  0.000000  0.556842  0.871319  1
  Re  Re8  1  0.000000  0.363109  0.677839  1
  Re  Re9  1  0.000000  0.138344  0.179736  1
  Re  Re10  1  0.000000  0.861198  0.821140  1
  B  B11  1  0.500000  0.553808  0.433661  1
  B  B12  1  0.500000  0.446808  0.566909  1
  B  B13  1  0.500000  0.053317  0.066642  1
  B  B14  1  0.500000  0.946728  0.932620  1
  B  B15  1  0.500000  0.748831  0.419972  1
  B  B16  1  0.500000  0.251102  0.581197  1
  B  B17  1  0.500000  0.248725  0.081269  1
  B  B18  1  0.500000  0.751278  0.918780  1
  B  B19  1  0.500000  0.790904  0.265299  1
  B  B20  1  0.500000  0.208999  0.734112  1
  B  B21  1  0.500000  0.291395  0.234860  1
  B  B22  1  0.500000  0.707836  0.766191  1
  B  B23  1  0.500000  0.631789  0.184485  1
  B  B24  1  0.500000  0.369827  0.814187  1
  B  B25  1  0.500000  0.131038  0.314620  1
  B  B26  1  0.500000  0.868111  0.685839  1
  B  B27  1  0.500000  0.983353  0.211894  1
  B  B28  1  0.500000  0.016882  0.787246  1
  B  B29  1  0.500000  0.483135  0.287982  1
  B  B30  1  0.500000  0.518193  0.712707  1
  B  B31  1  0.500000  0.603779  0.028782  1
  B  B32  1  0.500000  0.397761  0.971332  1
  B  B33  1  0.500000  0.102664  0.470954  1
  B  B34  1  0.500000  0.894576  0.528545  1
  Ir  Ir35  1  0.000000  0.637483  0.321384  1
