# generated using pymatgen
data_Ce2Er3Lu3(ReB6)4
_symmetry_space_group_name_H-M   'P 1'
_cell_length_a   3.67125900
_cell_length_b   9.12767419
_cell_length_c   11.50860308
_cell_angle_alpha   90.11456444
_cell_angle_beta   90.00000000
_cell_angle_gamma   90.00000000
_symmetry_Int_Tables_number   1
_chemical_formula_structural   Ce2Er3Lu3(ReB6)4
_chemical_formula_sum   'Ce2 Er3 Lu3 Re4 B24'
_cell_volume   385.65316298
_cell_formula_units_Z   1
loop_
 _symmetry_equiv_pos_site_id
 _symmetry_equiv_pos_as_xyz
  1  'x, y, z'
loop_
 _atom_site_type_symbol
 _atom_site_label
 _atom_site_symmetry_multiplicity
 _atom_site_fract_x
 _atom_site_fract_y
 _atom_site_fract_z
 _atom_site_occupancy
  Ce  Ce0  1  0.000000  0.321708  0.413572  1
  Ce  Ce1  1  0.000000  0.678398  0.586608  1
  Er  Er2  1  0.000000  0.823712  0.085140  1
  Er  Er3  1  0.000000  0.176252  0.914584  1
  Er  Er4  1  0.000000  0.943962  0.370304  1
  Lu  Lu5  1  0.000000  0.056257  0.630412  1
  Lu  Lu6  1  0.000000  0.443242  0.127882  1
  Lu  Lu7  1  0.000000  0.556784  0.871949  1
  Re  Re8  1  0.000000  0.637670  0.320202  1
  Re  Re9  1  0.000000  0.361378  0.679873  1
  Re  Re10  1  0.000000  0.140379  0.179240  1
  Re  Re11  1  0.000000  0.860195  0.820247  1
  B  B12  1  0.500000  0.554427  0.430890  1
  B  B13  1  0.500000  0.445203  0.569256  1
  B  B14  1  0.500000  0.053810  0.066118  1
  B  B15  1  0.500000  0.946304  0.933591  1
  B  B16  1  0.500000  0.750129  0.416717  1
  B  B17  1  0.500000  0.248930  0.583417  1
  B  B18  1  0.500000  0.250180  0.080045  1
  B  B19  1  0.500000  0.749989  0.919840  1
  B  B20  1  0.500000  0.792401  0.263669  1
  B  B21  1  0.500000  0.206851  0.736119  1
  B  B22  1  0.500000  0.292275  0.232761  1
  B  B23  1  0.500000  0.708063  0.767136  1
  B  B24  1  0.500000  0.630528  0.183443  1
  B  B25  1  0.500000  0.369208  0.816406  1
  B  B26  1  0.500000  0.130798  0.313060  1
  B  B27  1  0.500000  0.869958  0.686601  1
  B  B28  1  0.500000  0.982341  0.210738  1
  B  B29  1  0.500000  0.018056  0.788713  1
  B  B30  1  0.500000  0.483010  0.285357  1
  B  B31  1  0.500000  0.516818  0.714566  1
  B  B32  1  0.500000  0.599963  0.027688  1
  B  B33  1  0.500000  0.400041  0.972209  1
  B  B34  1  0.500000  0.100902  0.472938  1
  B  B35  1  0.500000  0.899878  0.528709  1
