# generated using pymatgen
data_Tb8ReTc(RuC4)2
_symmetry_space_group_name_H-M   'P 1'
_cell_length_a   5.14190100
_cell_length_b   6.54816468
_cell_length_c   9.87232571
_cell_angle_alpha   90.13561754
_cell_angle_beta   90.00000000
_cell_angle_gamma   90.00000000
_symmetry_Int_Tables_number   1
_chemical_formula_structural   Tb8ReTc(RuC4)2
_chemical_formula_sum   'Tb8 Re1 Tc1 Ru2 C8'
_cell_volume   332.40041869
_cell_formula_units_Z   1
loop_
 _symmetry_equiv_pos_site_id
 _symmetry_equiv_pos_as_xyz
  1  'x, y, z'
loop_
 _atom_site_type_symbol
 _atom_site_label
 _atom_site_symmetry_multiplicity
 _atom_site_fract_x
 _atom_site_fract_y
 _atom_site_fract_z
 _atom_site_occupancy
  Tb  Tb0  1  0.750000  0.530034  0.784253  1
  Tb  Tb1  1  0.250000  0.969487  0.285999  1
  Tb  Tb2  1  0.750000  0.676704  0.445046  1
  Tb  Tb3  1  0.250000  0.820307  0.944343  1
  Tb  Tb4  1  0.750000  0.180901  0.056325  1
  Tb  Tb5  1  0.250000  0.323153  0.555456  1
  Tb  Tb6  1  0.250000  0.468900  0.216619  1
  Tb  Tb7  1  0.750000  0.029527  0.713757  1
  Re  Re8  1  0.750000  0.720318  0.134868  1
  Tc  Tc9  1  0.250000  0.279962  0.864908  1
  Ru  Ru10  1  0.250000  0.779621  0.635943  1
  Ru  Ru11  1  0.750000  0.221419  0.364621  1
  C  C12  1  0.250000  0.676050  0.451219  1
  C  C13  1  0.250000  0.545069  0.759082  1
  C  C14  1  0.750000  0.456200  0.239956  1
  C  C15  1  0.750000  0.820870  0.949822  1
  C  C16  1  0.250000  0.045854  0.743313  1
  C  C17  1  0.250000  0.178221  0.049160  1
  C  C18  1  0.750000  0.323200  0.548938  1
  C  C19  1  0.750000  0.954200  0.256372  1
