# generated using pymatgen
data_Sr(CoO2)8
_symmetry_space_group_name_H-M   'P 1'
_cell_length_a   5.70509013
_cell_length_b   6.82813958
_cell_length_c   6.87591204
_cell_angle_alpha   87.85620370
_cell_angle_beta   101.92442006
_cell_angle_gamma   101.84813107
_symmetry_Int_Tables_number   1
_chemical_formula_structural   Sr(CoO2)8
_chemical_formula_sum   'Sr1 Co8 O16'
_cell_volume   256.48531765
_cell_formula_units_Z   1
loop_
 _symmetry_equiv_pos_site_id
 _symmetry_equiv_pos_as_xyz
  1  'x, y, z'
loop_
 _atom_site_type_symbol
 _atom_site_label
 _atom_site_symmetry_multiplicity
 _atom_site_fract_x
 _atom_site_fract_y
 _atom_site_fract_z
 _atom_site_occupancy
  Sr  Sr0  1  0.000000  0.000000  0.000000  1
  Co  Co1  1  0.573377  0.815353  0.480646  1
  Co  Co2  1  0.079448  0.816111  0.486794  1
  Co  Co3  1  0.920552  0.183889  0.513206  1
  Co  Co4  1  0.426623  0.184647  0.519354  1
  Co  Co5  1  0.167172  0.486509  0.183269  1
  Co  Co6  1  0.664694  0.482165  0.181142  1
  Co  Co7  1  0.335306  0.517835  0.818858  1
  Co  Co8  1  0.832828  0.513491  0.816731  1
  O  O9  1  0.675546  0.044630  0.647678  1
  O  O10  1  0.169739  0.048648  0.647992  1
  O  O11  1  0.830261  0.951352  0.352008  1
  O  O12  1  0.324454  0.955370  0.352322  1
  O  O13  1  0.655242  0.649831  0.954006  1
  O  O14  1  0.147614  0.649702  0.954368  1
  O  O15  1  0.852386  0.350298  0.045632  1
  O  O16  1  0.344758  0.350169  0.045994  1
  O  O17  1  0.979725  0.625305  0.291896  1
  O  O18  1  0.479689  0.620889  0.295300  1
  O  O19  1  0.520311  0.379111  0.704700  1
  O  O20  1  0.020275  0.374695  0.708104  1
  O  O21  1  0.668468  0.291533  0.381730  1
  O  O22  1  0.167371  0.293165  0.373046  1
  O  O23  1  0.832629  0.706835  0.626954  1
  O  O24  1  0.331532  0.708467  0.618270  1
