# generated using pymatgen
data_Ti17Si16Mo2W
_symmetry_space_group_name_H-M   'P 1'
_cell_length_a   6.66430262
_cell_length_b   6.66480181
_cell_length_c   12.18286536
_cell_angle_alpha   89.94861858
_cell_angle_beta   90.02461783
_cell_angle_gamma   89.95709155
_symmetry_Int_Tables_number   1
_chemical_formula_structural   Ti17Si16Mo2W
_chemical_formula_sum   'Ti17 Si16 Mo2 W1'
_cell_volume   541.11684951
_cell_formula_units_Z   1
loop_
 _symmetry_equiv_pos_site_id
 _symmetry_equiv_pos_as_xyz
  1  'x, y, z'
loop_
 _atom_site_type_symbol
 _atom_site_label
 _atom_site_symmetry_multiplicity
 _atom_site_fract_x
 _atom_site_fract_y
 _atom_site_fract_z
 _atom_site_occupancy
  Ti  Ti0  1  0.996379  0.149176  0.622227  1
  Ti  Ti1  1  0.351353  0.495351  0.871566  1
  Ti  Ti2  1  0.648719  0.505097  0.371741  1
  Ti  Ti3  1  0.495261  0.351340  0.128364  1
  Ti  Ti4  1  0.505059  0.648707  0.628306  1
  Ti  Ti5  1  0.005108  0.850187  0.120984  1
  Ti  Ti6  1  0.149371  0.996249  0.377698  1
  Ti  Ti7  1  0.850441  0.004981  0.879082  1
  Ti  Ti8  1  0.001610  0.343320  0.221532  1
  Ti  Ti9  1  0.156377  0.502151  0.470622  1
  Ti  Ti10  1  0.841014  0.499215  0.972131  1
  Ti  Ti11  1  0.502038  0.156268  0.529173  1
  Ti  Ti12  1  0.499036  0.840913  0.028061  1
  Ti  Ti13  1  0.999023  0.658464  0.720850  1
  Ti  Ti14  1  0.343043  0.001351  0.778439  1
  Ti  Ti15  1  0.658211  0.998813  0.279166  1
  Ti  Ti16  1  0.829309  0.829392  0.500048  1
  Si  Si17  1  0.043756  0.302201  0.813904  1
  Si  Si18  1  0.197389  0.542993  0.063547  1
  Si  Si19  1  0.802213  0.455448  0.564071  1
  Si  Si20  1  0.543173  0.197422  0.936239  1
  Si  Si21  1  0.455697  0.802293  0.436122  1
  Si  Si22  1  0.955896  0.698671  0.314689  1
  Si  Si23  1  0.302194  0.044007  0.185976  1
  Si  Si24  1  0.698643  0.956150  0.685419  1
  Si  Si25  1  0.294011  0.358520  0.672305  1
  Si  Si26  1  0.141968  0.794161  0.921971  1
  Si  Si27  1  0.857570  0.205580  0.423800  1
  Si  Si28  1  0.794153  0.141897  0.077957  1
  Si  Si29  1  0.205546  0.857541  0.576276  1
  Si  Si30  1  0.706002  0.642086  0.172913  1
  Si  Si31  1  0.358532  0.294022  0.327695  1
  Si  Si32  1  0.642050  0.706094  0.827070  1
  Mo  Mo33  1  0.171074  0.171136  0.999985  1
  Mo  Mo34  1  0.670799  0.327986  0.750684  1
  W  W35  1  0.327981  0.670817  0.249386  1
