# generated using pymatgen
data_Er2ScNb5(Co4P3)4
_symmetry_space_group_name_H-M   'P 1'
_cell_length_a   12.01049500
_cell_length_b   12.05017162
_cell_length_c   3.65387000
_cell_angle_alpha   90.00000000
_cell_angle_beta   90.00000000
_cell_angle_gamma   119.89114342
_symmetry_Int_Tables_number   1
_chemical_formula_structural   Er2ScNb5(Co4P3)4
_chemical_formula_sum   'Er2 Sc1 Nb5 Co16 P12'
_cell_volume   458.47240453
_cell_formula_units_Z   1
loop_
 _symmetry_equiv_pos_site_id
 _symmetry_equiv_pos_as_xyz
  1  'x, y, z'
loop_
 _atom_site_type_symbol
 _atom_site_label
 _atom_site_symmetry_multiplicity
 _atom_site_fract_x
 _atom_site_fract_y
 _atom_site_fract_z
 _atom_site_occupancy
  Er  Er0  1  0.333339  0.667378  0.000000  1
  Er  Er1  1  0.665962  0.332622  0.000000  1
  Sc  Sc2  1  0.822983  0.000000  0.500000  1
  Nb  Nb3  1  0.999217  0.818599  0.500000  1
  Nb  Nb4  1  0.180619  0.181401  0.500000  1
  Nb  Nb5  1  0.445180  0.000000  0.000000  1
  Nb  Nb6  1  0.000010  0.445969  0.000000  1
  Nb  Nb7  1  0.554041  0.554031  0.000000  1
  Co  Co8  1  0.272804  0.000000  0.500000  1
  Co  Co9  1  0.003574  0.277004  0.500000  1
  Co  Co10  1  0.726570  0.722996  0.500000  1
  Co  Co11  1  0.631891  0.806921  0.000000  1
  Co  Co12  1  0.190198  0.823451  0.000000  1
  Co  Co13  1  0.175523  0.366055  0.000000  1
  Co  Co14  1  0.366746  0.176549  0.000000  1
  Co  Co15  1  0.809467  0.633945  0.000000  1
  Co  Co16  1  0.824970  0.193079  0.000000  1
  Co  Co17  1  0.519051  0.873413  0.500000  1
  Co  Co18  1  0.125130  0.647790  0.500000  1
  Co  Co19  1  0.352074  0.478669  0.500000  1
  Co  Co20  1  0.477340  0.352210  0.500000  1
  Co  Co21  1  0.873405  0.521331  0.500000  1
  Co  Co22  1  0.645639  0.126587  0.500000  1
  Co  Co23  1  0.002528  0.000000  0.000000  1
  P  P24  1  0.174156  0.000000  0.000000  1
  P  P25  1  0.000323  0.172151  0.000000  1
  P  P26  1  0.828172  0.827849  0.000000  1
  P  P27  1  0.522784  0.690241  0.500000  1
  P  P28  1  0.309534  0.832664  0.500000  1
  P  P29  1  0.168113  0.479926  0.500000  1
  P  P30  1  0.476871  0.167336  0.500000  1
  P  P31  1  0.688186  0.520074  0.500000  1
  P  P32  1  0.832543  0.309759  0.500000  1
  P  P33  1  0.649601  0.000000  0.000000  1
  P  P34  1  0.000128  0.648801  0.000000  1
  P  P35  1  0.351328  0.351199  0.000000  1
