# generated using pymatgen
data_LiHo4Al17Pt6
_symmetry_space_group_name_H-M   'P 1'
_cell_length_a   7.59156675
_cell_length_b   7.59156632
_cell_length_c   9.43411900
_cell_angle_alpha   90.00000000
_cell_angle_beta   90.00000000
_cell_angle_gamma   119.46027761
_symmetry_Int_Tables_number   1
_chemical_formula_structural   LiHo4Al17Pt6
_chemical_formula_sum   'Li1 Ho4 Al17 Pt6'
_cell_volume   473.40314889
_cell_formula_units_Z   1
loop_
 _symmetry_equiv_pos_site_id
 _symmetry_equiv_pos_as_xyz
  1  'x, y, z'
loop_
 _atom_site_type_symbol
 _atom_site_label
 _atom_site_symmetry_multiplicity
 _atom_site_fract_x
 _atom_site_fract_y
 _atom_site_fract_z
 _atom_site_occupancy
  Li  Li0  1  0.128679  0.128679  0.250000  1
  Ho  Ho1  1  0.995270  0.666375  0.250000  1
  Ho  Ho2  1  0.007584  0.329283  0.750000  1
  Ho  Ho3  1  0.666375  0.995270  0.250000  1
  Ho  Ho4  1  0.329283  0.007584  0.750000  1
  Al  Al5  1  0.867381  0.867381  0.750000  1
  Al  Al6  1  0.001143  0.327949  0.081497  1
  Al  Al7  1  0.001031  0.665027  0.922768  1
  Al  Al8  1  0.001031  0.665027  0.577232  1
  Al  Al9  1  0.327949  0.001143  0.418503  1
  Al  Al10  1  0.001143  0.327949  0.418503  1
  Al  Al11  1  0.665027  0.001031  0.577232  1
  Al  Al12  1  0.665027  0.001031  0.922768  1
  Al  Al13  1  0.327949  0.001143  0.081497  1
  Al  Al14  1  0.334115  0.334115  0.549198  1
  Al  Al15  1  0.671746  0.671747  0.438248  1
  Al  Al16  1  0.671746  0.671747  0.061752  1
  Al  Al17  1  0.334115  0.334115  0.950802  1
  Al  Al18  1  0.340629  0.542245  0.250000  1
  Al  Al19  1  0.658948  0.451721  0.750000  1
  Al  Al20  1  0.542245  0.340629  0.250000  1
  Al  Al21  1  0.451721  0.658948  0.750000  1
  Pt  Pt22  1  0.675199  0.329627  0.000233  1
  Pt  Pt23  1  0.329627  0.675199  0.000233  1
  Pt  Pt24  1  0.329627  0.675199  0.499767  1
  Pt  Pt25  1  0.675199  0.329627  0.499767  1
  Pt  Pt26  1  0.000109  0.000109  0.993894  1
  Pt  Pt27  1  0.000109  0.000109  0.506106  1
