# generated using pymatgen
data_Rb4BaUSe6
_symmetry_space_group_name_H-M   'P 1'
_cell_length_a   8.09144710
_cell_length_b   8.09144816
_cell_length_c   8.31104158
_cell_angle_alpha   80.42209140
_cell_angle_beta   80.42210162
_cell_angle_gamma   119.66741965
_symmetry_Int_Tables_number   1
_chemical_formula_structural   Rb4BaUSe6
_chemical_formula_sum   'Rb4 Ba1 U1 Se6'
_cell_volume   446.13671039
_cell_formula_units_Z   1
loop_
 _symmetry_equiv_pos_site_id
 _symmetry_equiv_pos_as_xyz
  1  'x, y, z'
loop_
 _atom_site_type_symbol
 _atom_site_label
 _atom_site_symmetry_multiplicity
 _atom_site_fract_x
 _atom_site_fract_y
 _atom_site_fract_z
 _atom_site_occupancy
  Rb  Rb0  1  0.500340  0.499660  0.000000  1
  Rb  Rb1  1  0.657866  0.342134  0.500000  1
  Rb  Rb2  1  0.344422  0.655578  0.500000  1
  Rb  Rb3  1  0.998404  0.001596  0.500000  1
  Ba  Ba4  1  0.832060  0.167940  0.000000  1
  U  U5  1  0.167312  0.832688  0.000000  1
  Se  Se6  1  0.829101  0.780263  0.201458  1
  Se  Se7  1  0.219737  0.170899  0.798542  1
  Se  Se8  1  0.378409  0.029069  0.202995  1
  Se  Se9  1  0.518549  0.917130  0.794754  1
  Se  Se10  1  0.970931  0.621591  0.797005  1
  Se  Se11  1  0.082870  0.481451  0.205246  1
