# generated using pymatgen
data_BeNb10SiAs4
_symmetry_space_group_name_H-M   'P 1'
_cell_length_a   7.60180912
_cell_length_b   7.60179723
_cell_length_c   7.60180881
_cell_angle_alpha   96.44685416
_cell_angle_beta   96.44692296
_cell_angle_gamma   140.84468984
_symmetry_Int_Tables_number   1
_chemical_formula_structural   BeNb10SiAs4
_chemical_formula_sum   'Be1 Nb10 Si1 As4'
_cell_volume   261.34188234
_cell_formula_units_Z   1
loop_
 _symmetry_equiv_pos_site_id
 _symmetry_equiv_pos_as_xyz
  1  'x, y, z'
loop_
 _atom_site_type_symbol
 _atom_site_label
 _atom_site_symmetry_multiplicity
 _atom_site_fract_x
 _atom_site_fract_y
 _atom_site_fract_z
 _atom_site_occupancy
  Be  Be0  1  0.250002  0.250000  0.000002  1
  Nb  Nb1  1  0.419438  0.279980  0.709863  1
  Nb  Nb2  1  0.220022  0.080564  0.290135  1
  Nb  Nb3  1  0.570116  0.709579  0.290137  1
  Nb  Nb4  1  0.250001  0.750000  0.500001  1
  Nb  Nb5  1  0.279980  0.570116  0.860538  1
  Nb  Nb6  1  0.709571  0.419436  0.139459  1
  Nb  Nb7  1  0.750001  0.250000  0.500001  1
  Nb  Nb8  1  0.929885  0.220020  0.139458  1
  Nb  Nb9  1  0.790423  0.929884  0.709864  1
  Nb  Nb10  1  0.080558  0.790421  0.860537  1
  Si  Si11  1  0.750001  0.750000  0.000001  1
  As  As12  1  0.165890  0.334109  0.500001  1
  As  As13  1  0.665891  0.165891  0.831781  1
  As  As14  1  0.834110  0.665891  0.500001  1
  As  As15  1  0.334110  0.834109  0.168219  1
