# generated using pymatgen
data_ZrFePPt8
_symmetry_space_group_name_H-M   'P 1'
_cell_length_a   3.99245800
_cell_length_b   3.99245800
_cell_length_c   10.91588700
_cell_angle_alpha   90.00000000
_cell_angle_beta   90.00000000
_cell_angle_gamma   90.00000000
_symmetry_Int_Tables_number   1
_chemical_formula_structural   ZrFePPt8
_chemical_formula_sum   'Zr1 Fe1 P1 Pt8'
_cell_volume   173.99619196
_cell_formula_units_Z   1
loop_
 _symmetry_equiv_pos_site_id
 _symmetry_equiv_pos_as_xyz
  1  'x, y, z'
loop_
 _atom_site_type_symbol
 _atom_site_label
 _atom_site_symmetry_multiplicity
 _atom_site_fract_x
 _atom_site_fract_y
 _atom_site_fract_z
 _atom_site_occupancy
  Zr  Zr0  1  0.500000  0.500000  0.820265  1
  Fe  Fe1  1  0.500000  0.500000  0.186636  1
  P  P2  1  0.000000  0.000000  0.494346  1
  Pt  Pt3  1  0.500000  0.000000  0.005602  1
  Pt  Pt4  1  0.000000  0.500000  0.005602  1
  Pt  Pt5  1  0.500000  0.000000  0.629839  1
  Pt  Pt6  1  0.000000  0.500000  0.629839  1
  Pt  Pt7  1  0.500000  0.000000  0.363025  1
  Pt  Pt8  1  0.000000  0.500000  0.363025  1
  Pt  Pt9  1  0.000000  0.000000  0.819597  1
  Pt  Pt10  1  0.000000  0.000000  0.182225  1
