# generated using pymatgen
data_Lu10Ag3Rh
_symmetry_space_group_name_H-M   'P 1'
_cell_length_a   9.32888400
_cell_length_b   9.32888390
_cell_length_c   9.38025800
_cell_angle_alpha   90.00000000
_cell_angle_beta   90.00000000
_cell_angle_gamma   119.99999325
_symmetry_Int_Tables_number   1
_chemical_formula_structural   Lu10Ag3Rh
_chemical_formula_sum   'Lu20 Ag6 Rh2'
_cell_volume   706.97625281
_cell_formula_units_Z   2
loop_
 _symmetry_equiv_pos_site_id
 _symmetry_equiv_pos_as_xyz
  1  'x, y, z'
loop_
 _atom_site_type_symbol
 _atom_site_label
 _atom_site_symmetry_multiplicity
 _atom_site_fract_x
 _atom_site_fract_y
 _atom_site_fract_z
 _atom_site_occupancy
  Lu  Lu0  1  0.000000  0.000000  0.500000  1
  Lu  Lu1  1  0.000000  0.000000  0.000000  1
  Lu  Lu2  1  0.208472  0.791528  0.443712  1
  Lu  Lu3  1  0.208472  0.416944  0.443712  1
  Lu  Lu4  1  0.583056  0.791528  0.443712  1
  Lu  Lu5  1  0.791528  0.208472  0.556288  1
  Lu  Lu6  1  0.791528  0.583056  0.556288  1
  Lu  Lu7  1  0.416944  0.208472  0.556288  1
  Lu  Lu8  1  0.791528  0.208472  0.943712  1
  Lu  Lu9  1  0.791528  0.583056  0.943712  1
  Lu  Lu10  1  0.416944  0.208472  0.943712  1
  Lu  Lu11  1  0.208472  0.791528  0.056288  1
  Lu  Lu12  1  0.208472  0.416944  0.056288  1
  Lu  Lu13  1  0.583056  0.791528  0.056288  1
  Lu  Lu14  1  0.541543  0.458457  0.250000  1
  Lu  Lu15  1  0.541543  0.083085  0.250000  1
  Lu  Lu16  1  0.916915  0.458457  0.250000  1
  Lu  Lu17  1  0.458457  0.541543  0.750000  1
  Lu  Lu18  1  0.458457  0.916915  0.750000  1
  Lu  Lu19  1  0.083085  0.541543  0.750000  1
  Ag  Ag20  1  0.883111  0.116889  0.250000  1
  Ag  Ag21  1  0.883111  0.766223  0.250000  1
  Ag  Ag22  1  0.233777  0.116889  0.250000  1
  Ag  Ag23  1  0.116889  0.883111  0.750000  1
  Ag  Ag24  1  0.116889  0.233777  0.750000  1
  Ag  Ag25  1  0.766223  0.883111  0.750000  1
  Rh  Rh26  1  0.333333  0.666667  0.250000  1
  Rh  Rh27  1  0.666667  0.333333  0.750000  1
