# generated using pymatgen
data_Pr5NdDyIrBr12
_symmetry_space_group_name_H-M   'P 1'
_cell_length_a   9.67196206
_cell_length_b   9.66649999
_cell_length_c   9.67038968
_cell_angle_alpha   107.28009173
_cell_angle_beta   107.33107282
_cell_angle_gamma   107.26803576
_symmetry_Int_Tables_number   1
_chemical_formula_structural   Pr5NdDyIrBr12
_chemical_formula_sum   'Pr5 Nd1 Dy1 Ir1 Br12'
_cell_volume   746.86125919
_cell_formula_units_Z   1
loop_
 _symmetry_equiv_pos_site_id
 _symmetry_equiv_pos_as_xyz
  1  'x, y, z'
loop_
 _atom_site_type_symbol
 _atom_site_label
 _atom_site_symmetry_multiplicity
 _atom_site_fract_x
 _atom_site_fract_y
 _atom_site_fract_z
 _atom_site_occupancy
  Pr  Pr0  1  0.314463  0.025072  0.104036  1
  Pr  Pr1  1  0.025048  0.104330  0.314467  1
  Pr  Pr2  1  0.975167  0.896356  0.685702  1
  Pr  Pr3  1  0.685707  0.975322  0.895991  1
  Pr  Pr4  1  0.896055  0.685547  0.975070  1
  Nd  Nd5  1  0.103303  0.312863  0.024743  1
  Dy  Dy6  1  0.499964  0.500075  0.499908  1
  Ir  Ir7  1  0.000176  0.000503  0.000108  1
  Br  Br8  1  0.221068  0.684402  0.074074  1
  Br  Br9  1  0.464997  0.390711  0.181464  1
  Br  Br10  1  0.685363  0.074292  0.221417  1
  Br  Br11  1  0.925749  0.778656  0.314635  1
  Br  Br12  1  0.181852  0.465900  0.389777  1
  Br  Br13  1  0.390765  0.182016  0.466125  1
  Br  Br14  1  0.609266  0.818060  0.533894  1
  Br  Br15  1  0.817988  0.533904  0.609250  1
  Br  Br16  1  0.074510  0.222077  0.686632  1
  Br  Br17  1  0.314657  0.925706  0.778583  1
  Br  Br18  1  0.533916  0.609256  0.817971  1
  Br  Br19  1  0.779989  0.314954  0.926159  1
