# generated using pymatgen
data_Hf6TiZn22P
_symmetry_space_group_name_H-M   'P 1'
_cell_length_a   8.78399044
_cell_length_b   8.78399031
_cell_length_c   8.78399100
_cell_angle_alpha   60.00000116
_cell_angle_beta   60.00000167
_cell_angle_gamma   59.99999843
_symmetry_Int_Tables_number   1
_chemical_formula_structural   Hf6TiZn22P
_chemical_formula_sum   'Hf6 Ti1 Zn22 P1'
_cell_volume   479.24831101
_cell_formula_units_Z   1
loop_
 _symmetry_equiv_pos_site_id
 _symmetry_equiv_pos_as_xyz
  1  'x, y, z'
loop_
 _atom_site_type_symbol
 _atom_site_label
 _atom_site_symmetry_multiplicity
 _atom_site_fract_x
 _atom_site_fract_y
 _atom_site_fract_z
 _atom_site_occupancy
  Hf  Hf0  1  0.705057  0.294943  0.294943  1
  Hf  Hf1  1  0.294943  0.705057  0.705057  1
  Hf  Hf2  1  0.294943  0.705057  0.294943  1
  Hf  Hf3  1  0.705057  0.294943  0.705057  1
  Hf  Hf4  1  0.294943  0.294943  0.705057  1
  Hf  Hf5  1  0.705057  0.705057  0.294943  1
  Ti  Ti6  1  0.000000  0.000000  0.000000  1
  Zn  Zn7  1  0.121633  0.121633  0.121633  1
  Zn  Zn8  1  0.878367  0.878367  0.878367  1
  Zn  Zn9  1  0.121633  0.121633  0.635103  1
  Zn  Zn10  1  0.121633  0.635103  0.121633  1
  Zn  Zn11  1  0.878367  0.878367  0.364897  1
  Zn  Zn12  1  0.878367  0.364897  0.878367  1
  Zn  Zn13  1  0.635103  0.121633  0.121633  1
  Zn  Zn14  1  0.364897  0.878367  0.878367  1
  Zn  Zn15  1  0.500000  0.000000  0.000000  1
  Zn  Zn16  1  0.000000  0.500000  0.500000  1
  Zn  Zn17  1  0.000000  0.500000  0.000000  1
  Zn  Zn18  1  0.500000  0.000000  0.500000  1
  Zn  Zn19  1  0.000000  0.000000  0.500000  1
  Zn  Zn20  1  0.500000  0.500000  0.000000  1
  Zn  Zn21  1  0.333754  0.333754  0.333754  1
  Zn  Zn22  1  0.666246  0.666246  0.666246  1
  Zn  Zn23  1  0.333754  0.333754  0.998742  1
  Zn  Zn24  1  0.333754  0.998742  0.333754  1
  Zn  Zn25  1  0.666246  0.666246  0.001258  1
  Zn  Zn26  1  0.666246  0.001258  0.666246  1
  Zn  Zn27  1  0.998742  0.333754  0.333754  1
  Zn  Zn28  1  0.001258  0.666246  0.666246  1
  P  P29  1  0.500000  0.500000  0.500000  1
