# generated using pymatgen
data_La18Tm2Ir5Pt7
_symmetry_space_group_name_H-M   'P 1'
_cell_length_a   11.56158463
_cell_length_b   11.56158455
_cell_length_c   6.57194247
_cell_angle_alpha   90.05826615
_cell_angle_beta   90.05826393
_cell_angle_gamma   90.08512180
_symmetry_Int_Tables_number   1
_chemical_formula_structural   La18Tm2Ir5Pt7
_chemical_formula_sum   'La18 Tm2 Ir5 Pt7'
_cell_volume   878.47123666
_cell_formula_units_Z   1
loop_
 _symmetry_equiv_pos_site_id
 _symmetry_equiv_pos_as_xyz
  1  'x, y, z'
loop_
 _atom_site_type_symbol
 _atom_site_label
 _atom_site_symmetry_multiplicity
 _atom_site_fract_x
 _atom_site_fract_y
 _atom_site_fract_z
 _atom_site_occupancy
  La  La0  1  0.295206  0.088342  0.376082  1
  La  La1  1  0.296028  0.906516  0.875995  1
  La  La2  1  0.703856  0.088011  0.875706  1
  La  La3  1  0.703637  0.910134  0.375051  1
  La  La4  1  0.585197  0.788395  0.877371  1
  La  La5  1  0.588510  0.209331  0.378700  1
  La  La6  1  0.409488  0.788161  0.384109  1
  La  La7  1  0.411049  0.207517  0.878958  1
  La  La8  1  0.211605  0.414803  0.622629  1
  La  La9  1  0.211839  0.590512  0.115891  1
  La  La10  1  0.790669  0.411490  0.121300  1
  La  La11  1  0.792483  0.588951  0.621042  1
  La  La12  1  0.911658  0.704794  0.123918  1
  La  La13  1  0.911989  0.296144  0.624294  1
  La  La14  1  0.093484  0.703972  0.624005  1
  La  La15  1  0.089866  0.296363  0.124949  1
  La  La16  1  0.999040  0.999547  0.500574  1
  La  La17  1  0.000453  0.000960  0.999426  1
  Tm  Tm18  1  0.497853  0.500994  0.999052  1
  Tm  Tm19  1  0.499006  0.502147  0.500948  1
  Ir  Ir20  1  0.354884  0.645116  0.750000  1
  Ir  Ir21  1  0.500200  0.999788  0.116518  1
  Ir  Ir22  1  0.499852  0.000898  0.614835  1
  Ir  Ir23  1  0.999102  0.500148  0.885165  1
  Ir  Ir24  1  0.000212  0.499800  0.383482  1
  Pt  Pt25  1  0.844455  0.155545  0.250000  1
  Pt  Pt26  1  0.843689  0.845065  0.750714  1
  Pt  Pt27  1  0.154935  0.156311  0.749286  1
  Pt  Pt28  1  0.154645  0.845355  0.250000  1
  Pt  Pt29  1  0.643979  0.356021  0.750000  1
  Pt  Pt30  1  0.645347  0.644215  0.250211  1
  Pt  Pt31  1  0.355785  0.354653  0.249789  1
