# generated using pymatgen
data_Pr7Eu(WO6)4
_symmetry_space_group_name_H-M   'P 1'
_cell_length_a   5.48067840
_cell_length_b   9.47585500
_cell_length_c   10.34969700
_cell_angle_alpha   90.02409531
_cell_angle_beta   89.97811948
_cell_angle_gamma   90.01074779
_symmetry_Int_Tables_number   1
_chemical_formula_structural   Pr7Eu(WO6)4
_chemical_formula_sum   'Pr7 Eu1 W4 O24'
_cell_volume   537.50224605
_cell_formula_units_Z   1
loop_
 _symmetry_equiv_pos_site_id
 _symmetry_equiv_pos_as_xyz
  1  'x, y, z'
loop_
 _atom_site_type_symbol
 _atom_site_label
 _atom_site_symmetry_multiplicity
 _atom_site_fract_x
 _atom_site_fract_y
 _atom_site_fract_z
 _atom_site_occupancy
  Pr  Pr0  1  0.476689  0.603223  0.537591  1
  Pr  Pr1  1  0.976219  0.896993  0.462378  1
  Pr  Pr2  1  0.523026  0.103689  0.962436  1
  Pr  Pr3  1  0.022615  0.396212  0.037865  1
  Pr  Pr4  1  0.967321  0.782173  0.867436  1
  Pr  Pr5  1  0.466277  0.718607  0.132347  1
  Pr  Pr6  1  0.035501  0.280845  0.630829  1
  Eu  Eu7  1  0.533269  0.219939  0.366003  1
  W  W8  1  0.460806  0.997510  0.646566  1
  W  W9  1  0.958595  0.502118  0.353013  1
  W  W10  1  0.541354  0.496368  0.852259  1
  W  W11  1  0.039933  0.004318  0.148949  1
  O  O12  1  0.256420  0.089893  0.507320  1
  O  O13  1  0.751079  0.410491  0.490684  1
  O  O14  1  0.748539  0.588397  0.990648  1
  O  O15  1  0.248565  0.912187  0.010114  1
  O  O16  1  0.723870  0.111403  0.565435  1
  O  O17  1  0.223697  0.387442  0.433910  1
  O  O18  1  0.278467  0.611860  0.934807  1
  O  O19  1  0.777942  0.888707  0.065768  1
  O  O20  1  0.573800  0.848678  0.527878  1
  O  O21  1  0.072169  0.649577  0.472912  1
  O  O22  1  0.425871  0.349138  0.972548  1
  O  O23  1  0.928932  0.150956  0.027665  1
  O  O24  1  0.180680  0.862552  0.259378  1
  O  O25  1  0.682744  0.637401  0.741121  1
  O  O26  1  0.813830  0.360179  0.242824  1
  O  O27  1  0.317075  0.137199  0.758560  1
  O  O28  1  0.828839  0.051505  0.287748  1
  O  O29  1  0.330871  0.450430  0.712607  1
  O  O30  1  0.166088  0.548669  0.212208  1
  O  O31  1  0.669123  0.950839  0.787239  1
  O  O32  1  0.308897  0.133749  0.181203  1
  O  O33  1  0.808130  0.365870  0.821400  1
  O  O34  1  0.692086  0.633241  0.321115  1
  O  O35  1  0.190682  0.867645  0.677236  1
