# generated using pymatgen
data_Hf8ZnIn4Ni6Pd
_symmetry_space_group_name_H-M   'P 1'
_cell_length_a   7.23923817
_cell_length_b   7.23923719
_cell_length_c   6.69372229
_cell_angle_alpha   90.07692780
_cell_angle_beta   90.07693198
_cell_angle_gamma   89.26984223
_symmetry_Int_Tables_number   1
_chemical_formula_structural   Hf8ZnIn4Ni6Pd
_chemical_formula_sum   'Hf8 Zn1 In4 Ni6 Pd1'
_cell_volume   350.76586446
_cell_formula_units_Z   1
loop_
 _symmetry_equiv_pos_site_id
 _symmetry_equiv_pos_as_xyz
  1  'x, y, z'
loop_
 _atom_site_type_symbol
 _atom_site_label
 _atom_site_symmetry_multiplicity
 _atom_site_fract_x
 _atom_site_fract_y
 _atom_site_fract_z
 _atom_site_occupancy
  Hf  Hf0  1  0.138023  0.138023  0.997403  1
  Hf  Hf1  1  0.841736  0.841736  0.001895  1
  Hf  Hf2  1  0.667210  0.352152  0.504747  1
  Hf  Hf3  1  0.352152  0.667210  0.504747  1
  Hf  Hf4  1  0.701356  0.314910  0.995298  1
  Hf  Hf5  1  0.314910  0.701356  0.995298  1
  Hf  Hf6  1  0.818764  0.818764  0.498585  1
  Hf  Hf7  1  0.168599  0.168599  0.501553  1
  Zn  Zn8  1  0.374787  0.374787  0.212215  1
  In  In9  1  0.501818  0.000795  0.249883  1
  In  In10  1  0.503441  0.001490  0.748199  1
  In  In11  1  0.000795  0.501818  0.249883  1
  In  In12  1  0.001490  0.503441  0.748199  1
  Ni  Ni13  1  0.629976  0.629976  0.784305  1
  Ni  Ni14  1  0.620900  0.620900  0.219171  1
  Ni  Ni15  1  0.872632  0.122720  0.714935  1
  Ni  Ni16  1  0.871840  0.123979  0.285189  1
  Ni  Ni17  1  0.123979  0.871840  0.285189  1
  Ni  Ni18  1  0.122720  0.872632  0.714935  1
  Pd  Pd19  1  0.372873  0.372873  0.788370  1
