# generated using pymatgen
data_CoCu4Ni3(Mo3N)4
_symmetry_space_group_name_H-M   'P 1'
_cell_length_a   6.68731038
_cell_length_b   6.67965434
_cell_length_c   6.68033920
_cell_angle_alpha   89.98216242
_cell_angle_beta   89.97832313
_cell_angle_gamma   90.03193181
_symmetry_Int_Tables_number   1
_chemical_formula_structural   CoCu4Ni3(Mo3N)4
_chemical_formula_sum   'Co1 Cu4 Ni3 Mo12 N4'
_cell_volume   298.40346717
_cell_formula_units_Z   1
loop_
 _symmetry_equiv_pos_site_id
 _symmetry_equiv_pos_as_xyz
  1  'x, y, z'
loop_
 _atom_site_type_symbol
 _atom_site_label
 _atom_site_symmetry_multiplicity
 _atom_site_fract_x
 _atom_site_fract_y
 _atom_site_fract_z
 _atom_site_occupancy
  Co  Co0  1  0.816229  0.318349  0.180028  1
  Cu  Cu1  1  0.931082  0.568692  0.432576  1
  Cu  Cu2  1  0.181058  0.817793  0.318888  1
  Cu  Cu3  1  0.431101  0.931259  0.567729  1
  Cu  Cu4  1  0.681031  0.682169  0.681365  1
  Ni  Ni5  1  0.316041  0.181452  0.818441  1
  Ni  Ni6  1  0.566093  0.431831  0.931940  1
  Ni  Ni7  1  0.065872  0.067837  0.068200  1
  Mo  Mo8  1  0.203051  0.447774  0.123837  1
  Mo  Mo9  1  0.050049  0.879076  0.709652  1
  Mo  Mo10  1  0.456749  0.128293  0.197837  1
  Mo  Mo11  1  0.299690  0.540710  0.628935  1
  Mo  Mo12  1  0.954559  0.371378  0.803889  1
  Mo  Mo13  1  0.551609  0.619554  0.289682  1
  Mo  Mo14  1  0.706226  0.053873  0.879159  1
  Mo  Mo15  1  0.622753  0.294738  0.548530  1
  Mo  Mo16  1  0.871028  0.698565  0.045174  1
  Mo  Mo17  1  0.372360  0.799679  0.954850  1
  Mo  Mo18  1  0.120974  0.206371  0.448628  1
  Mo  Mo19  1  0.800137  0.961265  0.370053  1
  N  N20  1  0.875621  0.125883  0.625471  1
  N  N21  1  0.625637  0.875204  0.124202  1
  N  N22  1  0.125320  0.624455  0.876395  1
  N  N23  1  0.375725  0.373799  0.374540  1
