# generated using pymatgen
data_Tb8Sc12Si15P
_symmetry_space_group_name_H-M   'P 1'
_cell_length_a   7.09866695
_cell_length_b   7.37955803
_cell_length_c   13.98111300
_cell_angle_alpha   90.00000000
_cell_angle_beta   90.00000000
_cell_angle_gamma   90.08501972
_symmetry_Int_Tables_number   1
_chemical_formula_structural   Tb8Sc12Si15P
_chemical_formula_sum   'Tb8 Sc12 Si15 P1'
_cell_volume   732.40014392
_cell_formula_units_Z   1
loop_
 _symmetry_equiv_pos_site_id
 _symmetry_equiv_pos_as_xyz
  1  'x, y, z'
loop_
 _atom_site_type_symbol
 _atom_site_label
 _atom_site_symmetry_multiplicity
 _atom_site_fract_x
 _atom_site_fract_y
 _atom_site_fract_z
 _atom_site_occupancy
  Tb  Tb0  1  0.010896  0.174560  0.096918  1
  Tb  Tb1  1  0.990124  0.827366  0.900617  1
  Tb  Tb2  1  0.488948  0.675042  0.903292  1
  Tb  Tb3  1  0.990124  0.827366  0.599383  1
  Tb  Tb4  1  0.511687  0.325104  0.096644  1
  Tb  Tb5  1  0.010896  0.174560  0.403082  1
  Tb  Tb6  1  0.511687  0.325104  0.403356  1
  Tb  Tb7  1  0.488948  0.675042  0.596708  1
  Sc  Sc8  1  0.159708  0.501999  0.750000  1
  Sc  Sc9  1  0.839153  0.497752  0.250000  1
  Sc  Sc10  1  0.339817  0.002035  0.250000  1
  Sc  Sc11  1  0.661689  0.999289  0.750000  1
  Sc  Sc12  1  0.327081  0.173521  0.627207  1
  Sc  Sc13  1  0.668714  0.823713  0.375299  1
  Sc  Sc14  1  0.168680  0.676862  0.375193  1
  Sc  Sc15  1  0.668714  0.823713  0.124701  1
  Sc  Sc16  1  0.832893  0.322181  0.626468  1
  Sc  Sc17  1  0.327081  0.173521  0.872793  1
  Sc  Sc18  1  0.832893  0.322181  0.873532  1
  Sc  Sc19  1  0.168680  0.676862  0.124807  1
  Si  Si20  1  0.965451  0.882205  0.250000  1
  Si  Si21  1  0.465981  0.617051  0.250000  1
  Si  Si22  1  0.531713  0.381101  0.750000  1
  Si  Si23  1  0.295016  0.865899  0.750000  1
  Si  Si24  1  0.714484  0.124813  0.250000  1
  Si  Si25  1  0.214799  0.374985  0.250000  1
  Si  Si26  1  0.786997  0.626632  0.750000  1
  Si  Si27  1  0.156483  0.463627  0.540186  1
  Si  Si28  1  0.843052  0.535733  0.461394  1
  Si  Si29  1  0.341558  0.965094  0.460800  1
  Si  Si30  1  0.843052  0.535733  0.038606  1
  Si  Si31  1  0.658084  0.036652  0.540460  1
  Si  Si32  1  0.156483  0.463627  0.959814  1
  Si  Si33  1  0.658084  0.036652  0.959540  1
  Si  Si34  1  0.341558  0.965094  0.039200  1
  P  P35  1  0.028793  0.127328  0.750000  1
