# generated using pymatgen
data_VSO4F
_symmetry_space_group_name_H-M   'P 1'
_cell_length_a   5.26204370
_cell_length_b   5.24552185
_cell_length_c   7.54197209
_cell_angle_alpha   68.80254153
_cell_angle_beta   68.51657368
_cell_angle_gamma   86.32803469
_symmetry_Int_Tables_number   1
_chemical_formula_structural   VSO4F
_chemical_formula_sum   'V2 S2 O8 F2'
_cell_volume   180.04311057
_cell_formula_units_Z   2
loop_
 _symmetry_equiv_pos_site_id
 _symmetry_equiv_pos_as_xyz
  1  'x, y, z'
loop_
 _atom_site_type_symbol
 _atom_site_label
 _atom_site_symmetry_multiplicity
 _atom_site_fract_x
 _atom_site_fract_y
 _atom_site_fract_z
 _atom_site_occupancy
  V  V0  1  0.000000  0.500000  0.500000  1
  V  V1  1  0.000000  0.000000  0.000000  1
  S  S2  1  0.631443  0.914733  0.742930  1
  S  S3  1  0.368557  0.085267  0.257070  1
  O  O4  1  0.736978  0.762217  0.603708  1
  O  O5  1  0.263022  0.237783  0.396292  1
  O  O6  1  0.683636  0.215959  0.621453  1
  O  O7  1  0.316364  0.784041  0.378547  1
  O  O8  1  0.329269  0.848695  0.840028  1
  O  O9  1  0.670731  0.151305  0.159972  1
  O  O10  1  0.753976  0.832423  0.901614  1
  O  O11  1  0.246024  0.167577  0.098386  1
  F  F12  1  0.935679  0.657027  0.238190  1
  F  F13  1  0.064321  0.342973  0.761810  1
