# generated using pymatgen
data_Yb2PrGa9Pd2
_symmetry_space_group_name_H-M   'P 1'
_cell_length_a   8.20802937
_cell_length_b   8.20803009
_cell_length_c   8.20802983
_cell_angle_alpha   148.95125280
_cell_angle_beta   108.94391078
_cell_angle_gamma   79.55035930
_symmetry_Int_Tables_number   1
_chemical_formula_structural   Yb2PrGa9Pd2
_chemical_formula_sum   'Yb2 Pr1 Ga9 Pd2'
_cell_volume   264.40600546
_cell_formula_units_Z   1
loop_
 _symmetry_equiv_pos_site_id
 _symmetry_equiv_pos_as_xyz
  1  'x, y, z'
loop_
 _atom_site_type_symbol
 _atom_site_label
 _atom_site_symmetry_multiplicity
 _atom_site_fract_x
 _atom_site_fract_y
 _atom_site_fract_z
 _atom_site_occupancy
  Yb  Yb0  1  0.199442  0.199442  0.000000  1
  Yb  Yb1  1  0.800558  0.800558  0.000000  1
  Pr  Pr2  1  0.500000  0.500000  0.000000  1
  Ga  Ga3  1  0.079301  0.361095  0.718206  1
  Ga  Ga4  1  0.920699  0.638905  0.281794  1
  Ga  Ga5  1  0.642891  0.361095  0.281794  1
  Ga  Ga6  1  0.357109  0.638905  0.718206  1
  Ga  Ga7  1  0.794841  0.158835  0.636007  1
  Ga  Ga8  1  0.205159  0.841165  0.363993  1
  Ga  Ga9  1  0.522827  0.158835  0.363993  1
  Ga  Ga10  1  0.477173  0.841165  0.636007  1
  Ga  Ga11  1  0.000000  0.500000  0.500000  1
  Pd  Pd12  1  0.819685  0.000000  0.819685  1
  Pd  Pd13  1  0.180315  0.000000  0.180315  1
