# generated using pymatgen
data_Rb2Dy5ErF20
_symmetry_space_group_name_H-M   'P 1'
_cell_length_a   8.25982936
_cell_length_b   8.25976465
_cell_length_c   8.27591400
_cell_angle_alpha   59.93582529
_cell_angle_beta   59.93527161
_cell_angle_gamma   60.12913552
_symmetry_Int_Tables_number   1
_chemical_formula_structural   Rb2Dy5ErF20
_chemical_formula_sum   'Rb2 Dy5 Er1 F20'
_cell_volume   399.24287336
_cell_formula_units_Z   1
loop_
 _symmetry_equiv_pos_site_id
 _symmetry_equiv_pos_as_xyz
  1  'x, y, z'
loop_
 _atom_site_type_symbol
 _atom_site_label
 _atom_site_symmetry_multiplicity
 _atom_site_fract_x
 _atom_site_fract_y
 _atom_site_fract_z
 _atom_site_occupancy
  Rb  Rb0  1  0.750216  0.750260  0.749787  1
  Rb  Rb1  1  0.250213  0.250263  0.249784  1
  Dy  Dy2  1  0.240792  0.759648  0.240356  1
  Dy  Dy3  1  0.759651  0.240785  0.240349  1
  Dy  Dy4  1  0.240803  0.759646  0.759197  1
  Dy  Dy5  1  0.240471  0.240477  0.759529  1
  Dy  Dy6  1  0.759644  0.240795  0.759208  1
  Er  Er7  1  0.759810  0.759834  0.240190  1
  F  F8  1  0.829386  0.170610  0.500002  1
  F  F9  1  0.499880  0.170876  0.829113  1
  F  F10  1  0.827989  0.501772  0.172011  1
  F  F11  1  0.499873  0.170880  0.500127  1
  F  F12  1  0.827982  0.501784  0.498214  1
  F  F13  1  0.170893  0.499869  0.829107  1
  F  F14  1  0.501791  0.827981  0.498209  1
  F  F15  1  0.499998  0.499998  0.170614  1
  F  F16  1  0.889659  0.330927  0.889705  1
  F  F17  1  0.110296  0.110296  0.669074  1
  F  F18  1  0.669679  0.108381  0.110966  1
  F  F19  1  0.110295  0.110291  0.110341  1
  F  F20  1  0.330926  0.889665  0.889704  1
  F  F21  1  0.889039  0.889030  0.891610  1
  F  F22  1  0.889034  0.889024  0.330321  1
  F  F23  1  0.108390  0.669681  0.110961  1
  F  F24  1  0.170614  0.829385  0.499996  1
  F  F25  1  0.501786  0.827980  0.172018  1
  F  F26  1  0.170887  0.499868  0.500120  1
  F  F27  1  0.500004  0.499997  0.829386  1
