# generated using pymatgen
data_La3Y(SeO6)2
_symmetry_space_group_name_H-M   'P 1'
_cell_length_a   10.44058046
_cell_length_b   10.46738722
_cell_length_c   5.59512200
_cell_angle_alpha   72.56941626
_cell_angle_beta   72.72136515
_cell_angle_gamma   68.67335007
_symmetry_Int_Tables_number   1
_chemical_formula_structural   La3Y(SeO6)2
_chemical_formula_sum   'La6 Y2 Se4 O24'
_cell_volume   531.13107738
_cell_formula_units_Z   2
loop_
 _symmetry_equiv_pos_site_id
 _symmetry_equiv_pos_as_xyz
  1  'x, y, z'
loop_
 _atom_site_type_symbol
 _atom_site_label
 _atom_site_symmetry_multiplicity
 _atom_site_fract_x
 _atom_site_fract_y
 _atom_site_fract_z
 _atom_site_occupancy
  La  La0  1  0.642395  0.361118  0.746597  1
  La  La1  1  0.357605  0.638882  0.253403  1
  La  La2  1  0.110435  0.886792  0.752730  1
  La  La3  1  0.889565  0.113208  0.247270  1
  La  La4  1  0.716799  0.945910  0.883205  1
  La  La5  1  0.283201  0.054090  0.116795  1
  Y  Y6  1  0.052029  0.277618  0.621045  1
  Y  Y7  1  0.947971  0.722382  0.378955  1
  Se  Se8  1  0.536737  0.788023  0.563722  1
  Se  Se9  1  0.463263  0.211977  0.436278  1
  Se  Se10  1  0.204823  0.465716  0.944542  1
  Se  Se11  1  0.795177  0.534284  0.055458  1
  O  O12  1  0.720895  0.159285  0.621538  1
  O  O13  1  0.279105  0.840715  0.378462  1
  O  O14  1  0.846671  0.281872  0.866682  1
  O  O15  1  0.153329  0.718128  0.133318  1
  O  O16  1  0.404564  0.827341  0.816341  1
  O  O17  1  0.595436  0.172659  0.183659  1
  O  O18  1  0.167375  0.600226  0.693875  1
  O  O19  1  0.832625  0.399774  0.306125  1
  O  O20  1  0.686599  0.784834  0.623357  1
  O  O21  1  0.313401  0.215166  0.376643  1
  O  O22  1  0.206371  0.321109  0.868077  1
  O  O23  1  0.793629  0.678891  0.131923  1
  O  O24  1  0.480307  0.089164  0.708227  1
  O  O25  1  0.519693  0.910836  0.291773  1
  O  O26  1  0.914183  0.523378  0.775418  1
  O  O27  1  0.085817  0.476622  0.224582  1
  O  O28  1  0.543509  0.632344  0.525365  1
  O  O29  1  0.456491  0.367656  0.474635  1
  O  O30  1  0.364095  0.455007  0.977442  1
  O  O31  1  0.635905  0.544993  0.022558  1
  O  O32  1  0.884637  0.918966  0.092713  1
  O  O33  1  0.115363  0.081034  0.907287  1
  O  O34  1  0.073684  0.121967  0.415298  1
  O  O35  1  0.926316  0.878033  0.584702  1
