# generated using pymatgen
data_Tm5VReO12
_symmetry_space_group_name_H-M   'P 1'
_cell_length_a   6.70240022
_cell_length_b   6.70239986
_cell_length_c   7.37454339
_cell_angle_alpha   73.86548201
_cell_angle_beta   73.86548118
_cell_angle_gamma   50.29511920
_symmetry_Int_Tables_number   1
_chemical_formula_structural   Tm5VReO12
_chemical_formula_sum   'Tm5 V1 Re1 O12'
_cell_volume   242.56199209
_cell_formula_units_Z   1
loop_
 _symmetry_equiv_pos_site_id
 _symmetry_equiv_pos_as_xyz
  1  'x, y, z'
loop_
 _atom_site_type_symbol
 _atom_site_label
 _atom_site_symmetry_multiplicity
 _atom_site_fract_x
 _atom_site_fract_y
 _atom_site_fract_z
 _atom_site_occupancy
  Tm  Tm0  1  0.818513  0.790178  0.360239  1
  Tm  Tm1  1  0.209822  0.181487  0.639761  1
  Tm  Tm2  1  0.186564  0.184366  0.178170  1
  Tm  Tm3  1  0.815634  0.813436  0.821830  1
  Tm  Tm4  1  0.507090  0.492910  0.500000  1
  V  V5  1  0.268274  0.731726  0.000000  1
  Re  Re6  1  0.716785  0.283215  0.000000  1
  O  O7  1  0.409450  0.930913  0.914808  1
  O  O8  1  0.069087  0.590550  0.085192  1
  O  O9  1  0.593111  0.087007  0.084210  1
  O  O10  1  0.912993  0.406889  0.915790  1
  O  O11  1  0.605623  0.091296  0.569342  1
  O  O12  1  0.908704  0.394377  0.430658  1
  O  O13  1  0.410351  0.902286  0.422306  1
  O  O14  1  0.989651  0.010947  0.815685  1
  O  O15  1  0.989053  0.010349  0.184315  1
  O  O16  1  0.493894  0.502312  0.799583  1
  O  O17  1  0.497688  0.506106  0.200417  1
  O  O18  1  0.097714  0.589649  0.577694  1
