# generated using pymatgen
data_Y13Er3(ZnCo)4
_symmetry_space_group_name_H-M   'P 1'
_cell_length_a   9.35615505
_cell_length_b   9.35834351
_cell_length_c   9.35892600
_cell_angle_alpha   59.99548778
_cell_angle_beta   59.98852645
_cell_angle_gamma   59.98570337
_symmetry_Int_Tables_number   1
_chemical_formula_structural   Y13Er3(ZnCo)4
_chemical_formula_sum   'Y13 Er3 Zn4 Co4'
_cell_volume   579.30595335
_cell_formula_units_Z   1
loop_
 _symmetry_equiv_pos_site_id
 _symmetry_equiv_pos_as_xyz
  1  'x, y, z'
loop_
 _atom_site_type_symbol
 _atom_site_label
 _atom_site_symmetry_multiplicity
 _atom_site_fract_x
 _atom_site_fract_y
 _atom_site_fract_z
 _atom_site_occupancy
  Y  Y0  1  0.200219  0.600134  0.599818  1
  Y  Y1  1  0.058175  0.441495  0.441161  1
  Y  Y2  1  0.441413  0.058343  0.058556  1
  Y  Y3  1  0.441354  0.058394  0.441680  1
  Y  Y4  1  0.058186  0.441469  0.059194  1
  Y  Y5  1  0.441231  0.441942  0.058417  1
  Y  Y6  1  0.058289  0.059274  0.441226  1
  Y  Y7  1  0.188655  0.811719  0.811712  1
  Y  Y8  1  0.811523  0.188466  0.188730  1
  Y  Y9  1  0.811462  0.188476  0.811263  1
  Y  Y10  1  0.188665  0.811748  0.187893  1
  Y  Y11  1  0.811323  0.811208  0.188710  1
  Y  Y12  1  0.188660  0.187719  0.811832  1
  Er  Er13  1  0.599328  0.599270  0.599504  1
  Er  Er14  1  0.599292  0.599239  0.202021  1
  Er  Er15  1  0.599226  0.202089  0.599346  1
  Zn  Zn16  1  0.826118  0.827226  0.827215  1
  Zn  Zn17  1  0.826120  0.827219  0.519434  1
  Zn  Zn18  1  0.826152  0.519374  0.827228  1
  Zn  Zn19  1  0.519413  0.826872  0.826849  1
  Co  Co20  1  0.394864  0.391400  0.391356  1
  Co  Co21  1  0.394883  0.391412  0.822332  1
  Co  Co22  1  0.394893  0.822349  0.391378  1
  Co  Co23  1  0.820555  0.393167  0.393145  1
