# generated using pymatgen
data_Ba4Mn3AlF20
_symmetry_space_group_name_H-M   'P 1'
_cell_length_a   5.24605469
_cell_length_b   5.74248218
_cell_length_c   14.23476403
_cell_angle_alpha   88.90302591
_cell_angle_beta   89.83734775
_cell_angle_gamma   90.21318140
_symmetry_Int_Tables_number   1
_chemical_formula_structural   Ba4Mn3AlF20
_chemical_formula_sum   'Ba4 Mn3 Al1 F20'
_cell_volume   428.74423494
_cell_formula_units_Z   1
loop_
 _symmetry_equiv_pos_site_id
 _symmetry_equiv_pos_as_xyz
  1  'x, y, z'
loop_
 _atom_site_type_symbol
 _atom_site_label
 _atom_site_symmetry_multiplicity
 _atom_site_fract_x
 _atom_site_fract_y
 _atom_site_fract_z
 _atom_site_occupancy
  Ba  Ba0  1  0.744587  0.653355  0.655816  1
  Ba  Ba1  1  0.246245  0.849209  0.346558  1
  Ba  Ba2  1  0.261566  0.157769  0.837327  1
  Ba  Ba3  1  0.762990  0.352346  0.159506  1
  Mn  Mn4  1  0.809171  0.350955  0.416860  1
  Mn  Mn5  1  0.689035  0.638538  0.911639  1
  Mn  Mn6  1  0.192188  0.866023  0.087287  1
  Al  Al7  1  0.314438  0.140138  0.587922  1
  F  F8  1  0.932444  0.615006  0.475357  1
  F  F9  1  0.446600  0.893319  0.527678  1
  F  F10  1  0.045293  0.121245  0.025019  1
  F  F11  1  0.540358  0.384074  0.974539  1
  F  F12  1  0.617784  0.555775  0.323018  1
  F  F13  1  0.130964  0.951879  0.667635  1
  F  F14  1  0.374549  0.073765  0.183653  1
  F  F15  1  0.863115  0.421910  0.816966  1
  F  F16  1  0.197553  0.397626  0.645050  1
  F  F17  1  0.703826  0.084418  0.355711  1
  F  F18  1  0.824284  0.898282  0.846776  1
  F  F19  1  0.318830  0.599027  0.148386  1
  F  F20  1  0.572779  0.130860  0.673973  1
  F  F21  1  0.083908  0.367696  0.324858  1
  F  F22  1  0.415002  0.647538  0.822114  1
  F  F23  1  0.919962  0.857597  0.177426  1
  F  F24  1  0.525194  0.340777  0.511135  1
  F  F25  1  0.059728  0.144535  0.499735  1
  F  F26  1  0.455115  0.872012  0.993527  1
  F  F27  1  0.952493  0.634326  0.004529  1
