# generated using pymatgen
data_Tb11ThCo3Pd
_symmetry_space_group_name_H-M   'P 1'
_cell_length_a   6.26671545
_cell_length_b   6.96772244
_cell_length_c   9.65257400
_cell_angle_alpha   90.00000000
_cell_angle_beta   90.00000000
_cell_angle_gamma   91.27262826
_symmetry_Int_Tables_number   1
_chemical_formula_structural   Tb11ThCo3Pd
_chemical_formula_sum   'Tb11 Th1 Co3 Pd1'
_cell_volume   421.37311064
_cell_formula_units_Z   1
loop_
 _symmetry_equiv_pos_site_id
 _symmetry_equiv_pos_as_xyz
  1  'x, y, z'
loop_
 _atom_site_type_symbol
 _atom_site_label
 _atom_site_symmetry_multiplicity
 _atom_site_fract_x
 _atom_site_fract_y
 _atom_site_fract_z
 _atom_site_occupancy
  Tb  Tb0  1  0.330759  0.667842  0.064261  1
  Tb  Tb1  1  0.175137  0.184392  0.437581  1
  Tb  Tb2  1  0.675814  0.324858  0.569565  1
  Tb  Tb3  1  0.828895  0.825864  0.927963  1
  Tb  Tb4  1  0.675814  0.324858  0.930435  1
  Tb  Tb5  1  0.828895  0.825864  0.572037  1
  Tb  Tb6  1  0.330759  0.667842  0.435739  1
  Tb  Tb7  1  0.175137  0.184392  0.062419  1
  Tb  Tb8  1  0.845913  0.527137  0.250000  1
  Tb  Tb9  1  0.624055  0.043665  0.250000  1
  Tb  Tb10  1  0.359202  0.955653  0.750000  1
  Th  Th11  1  0.157166  0.449573  0.750000  1
  Co  Co12  1  0.437167  0.385133  0.250000  1
  Co  Co13  1  0.960652  0.133499  0.750000  1
  Co  Co14  1  0.539319  0.611109  0.750000  1
  Pd  Pd15  1  0.055317  0.888320  0.250000  1
