# generated using pymatgen
data_Sr6Se3N2
_symmetry_space_group_name_H-M   'P 1'
_cell_length_a   8.37515155
_cell_length_b   8.37515089
_cell_length_c   8.37514959
_cell_angle_alpha   92.93163295
_cell_angle_beta   92.93163320
_cell_angle_gamma   92.93162240
_symmetry_Int_Tables_number   1
_chemical_formula_structural   Sr6Se3N2
_chemical_formula_sum   'Sr12 Se6 N4'
_cell_volume   585.07103679
_cell_formula_units_Z   2
loop_
 _symmetry_equiv_pos_site_id
 _symmetry_equiv_pos_as_xyz
  1  'x, y, z'
loop_
 _atom_site_type_symbol
 _atom_site_label
 _atom_site_symmetry_multiplicity
 _atom_site_fract_x
 _atom_site_fract_y
 _atom_site_fract_z
 _atom_site_occupancy
  Sr  Sr0  1  0.408822  0.211146  0.527063  1
  Sr  Sr1  1  0.527063  0.408822  0.211146  1
  Sr  Sr2  1  0.211146  0.527063  0.408822  1
  Sr  Sr3  1  0.711146  0.908822  0.027063  1
  Sr  Sr4  1  0.027063  0.711146  0.908822  1
  Sr  Sr5  1  0.908822  0.027063  0.711146  1
  Sr  Sr6  1  0.591178  0.788854  0.472937  1
  Sr  Sr7  1  0.472937  0.591178  0.788854  1
  Sr  Sr8  1  0.788854  0.472937  0.591178  1
  Sr  Sr9  1  0.288854  0.091178  0.972937  1
  Sr  Sr10  1  0.972937  0.288854  0.091178  1
  Sr  Sr11  1  0.091178  0.972937  0.288854  1
  Se  Se12  1  0.750000  0.128699  0.371301  1
  Se  Se13  1  0.371301  0.750000  0.128699  1
  Se  Se14  1  0.128699  0.371301  0.750000  1
  Se  Se15  1  0.628699  0.250000  0.871301  1
  Se  Se16  1  0.871301  0.628699  0.250000  1
  Se  Se17  1  0.250000  0.871301  0.628699  1
  N  N18  1  0.500000  0.500000  0.500000  1
  N  N19  1  0.000000  0.000000  0.000000  1
  N  N20  1  0.250000  0.250000  0.250000  1
  N  N21  1  0.750000  0.750000  0.750000  1
