# generated using pymatgen
data_CaYAl9Ni2Rh
_symmetry_space_group_name_H-M   'P 1'
_cell_length_a   7.47493772
_cell_length_b   7.46076204
_cell_length_c   9.43376700
_cell_angle_alpha   90.00000000
_cell_angle_beta   90.00000000
_cell_angle_gamma   118.98772969
_symmetry_Int_Tables_number   1
_chemical_formula_structural   CaYAl9Ni2Rh
_chemical_formula_sum   'Ca2 Y2 Al18 Ni4 Rh2'
_cell_volume   460.20010415
_cell_formula_units_Z   2
loop_
 _symmetry_equiv_pos_site_id
 _symmetry_equiv_pos_as_xyz
  1  'x, y, z'
loop_
 _atom_site_type_symbol
 _atom_site_label
 _atom_site_symmetry_multiplicity
 _atom_site_fract_x
 _atom_site_fract_y
 _atom_site_fract_z
 _atom_site_occupancy
  Ca  Ca0  1  0.993907  0.673790  0.250000  1
  Ca  Ca1  1  0.006093  0.326210  0.750000  1
  Y  Y2  1  0.675047  0.996140  0.250000  1
  Y  Y3  1  0.324953  0.003860  0.750000  1
  Al  Al4  1  0.131543  0.134076  0.250000  1
  Al  Al5  1  0.868457  0.865924  0.750000  1
  Al  Al6  1  0.999773  0.338883  0.071558  1
  Al  Al7  1  0.000227  0.661117  0.928442  1
  Al  Al8  1  0.000227  0.661117  0.571558  1
  Al  Al9  1  0.337801  0.998726  0.427528  1
  Al  Al10  1  0.999773  0.338883  0.428442  1
  Al  Al11  1  0.662199  0.001274  0.572472  1
  Al  Al12  1  0.662199  0.001274  0.927528  1
  Al  Al13  1  0.337801  0.998726  0.072472  1
  Al  Al14  1  0.335297  0.335223  0.547611  1
  Al  Al15  1  0.664703  0.664777  0.452389  1
  Al  Al16  1  0.664703  0.664777  0.047611  1
  Al  Al17  1  0.335297  0.335223  0.952389  1
  Al  Al18  1  0.343524  0.555500  0.250000  1
  Al  Al19  1  0.656476  0.444500  0.750000  1
  Al  Al20  1  0.551127  0.338943  0.250000  1
  Al  Al21  1  0.448873  0.661057  0.750000  1
  Ni  Ni22  1  0.668415  0.327643  0.000922  1
  Ni  Ni23  1  0.331585  0.672357  0.999078  1
  Ni  Ni24  1  0.331585  0.672357  0.500922  1
  Ni  Ni25  1  0.668415  0.327643  0.499078  1
  Rh  Rh26  1  0.000000  0.000000  0.000000  1
  Rh  Rh27  1  0.000000  0.000000  0.500000  1
