# generated using pymatgen
data_WSe23
_symmetry_space_group_name_H-M   'P 1'
_cell_length_a   5.96811026
_cell_length_b   9.84349145
_cell_length_c   15.83245300
_cell_angle_alpha   89.63402248
_cell_angle_beta   90.46347019
_cell_angle_gamma   87.71809577
_symmetry_Int_Tables_number   1
_chemical_formula_structural   WSe23
_chemical_formula_sum   'W1 Se23'
_cell_volume   929.32086823
_cell_formula_units_Z   1
loop_
 _symmetry_equiv_pos_site_id
 _symmetry_equiv_pos_as_xyz
  1  'x, y, z'
loop_
 _atom_site_type_symbol
 _atom_site_label
 _atom_site_symmetry_multiplicity
 _atom_site_fract_x
 _atom_site_fract_y
 _atom_site_fract_z
 _atom_site_occupancy
  W  W0  1  0.510727  0.301074  0.431603  1
  Se  Se1  1  0.655446  0.861878  0.392408  1
  Se  Se2  1  0.994859  0.290509  0.123922  1
  Se  Se3  1  0.846254  0.184433  0.439124  1
  Se  Se4  1  0.352049  0.863086  0.490137  1
  Se  Se5  1  0.203806  0.250531  0.999665  1
  Se  Se6  1  0.755571  0.717196  0.987751  1
  Se  Se7  1  0.287458  0.214737  0.329381  1
  Se  Se8  1  0.834765  0.650461  0.418924  1
  Se  Se9  1  0.796120  0.092796  0.154220  1
  Se  Se10  1  0.215800  0.793700  0.140938  1
  Se  Se11  1  0.641336  0.630322  0.646743  1
  Se  Se12  1  0.130072  0.431758  0.612298  1
  Se  Se13  1  0.215440  0.860153  0.860020  1
  Se  Se14  1  0.777130  0.139625  0.836422  1
  Se  Se15  1  0.953756  0.629108  0.107058  1
  Se  Se16  1  0.529657  0.860972  0.622841  1
  Se  Se17  1  0.375906  0.244204  0.573190  1
  Se  Se18  1  0.990576  0.668494  0.871487  1
  Se  Se19  1  0.983973  0.325701  0.882726  1
  Se  Se20  1  0.532097  0.521148  0.365060  1
  Se  Se21  1  0.029992  0.942518  0.235835  1
  Se  Se22  1  0.352938  0.522212  0.719892  1
  Se  Se23  1  0.034272  0.003385  0.758355  1
