# generated using pymatgen
data_H7BrF6
_symmetry_space_group_name_H-M   'P 1'
_cell_length_a   4.35439144
_cell_length_b   4.15680654
_cell_length_c   11.74196057
_cell_angle_alpha   87.29164649
_cell_angle_beta   83.10496388
_cell_angle_gamma   61.06198156
_symmetry_Int_Tables_number   1
_chemical_formula_structural   H7BrF6
_chemical_formula_sum   'H7 Br1 F6'
_cell_volume   184.63801547
_cell_formula_units_Z   1
loop_
 _symmetry_equiv_pos_site_id
 _symmetry_equiv_pos_as_xyz
  1  'x, y, z'
loop_
 _atom_site_type_symbol
 _atom_site_label
 _atom_site_symmetry_multiplicity
 _atom_site_fract_x
 _atom_site_fract_y
 _atom_site_fract_z
 _atom_site_occupancy
  H  H0  1  0.966872  0.060052  0.668328  1
  H  H1  1  0.461323  0.540994  0.651394  1
  H  H2  1  0.945308  0.005232  0.924026  1
  H  H3  1  0.907614  0.523235  0.916553  1
  H  H4  1  0.461033  0.063451  0.432362  1
  H  H5  1  0.953064  0.095608  0.414473  1
  H  H6  1  0.421140  0.799060  0.100530  1
  Br  Br7  1  0.344224  0.543945  0.168085  1
  F  F8  1  0.063816  0.155018  0.937829  1
  F  F9  1  0.128414  0.176519  0.386696  1
  F  F10  1  0.787120  0.305374  0.700332  1
  F  F11  1  0.686497  0.994306  0.463635  1
  F  F12  1  0.233897  0.704977  0.620343  1
  F  F13  1  0.790665  0.797520  0.903020  1
