# generated using pymatgen
data_Nd20(OsPt3)3
_symmetry_space_group_name_H-M   'P 1'
_cell_length_a   11.43186500
_cell_length_b   11.43186500
_cell_length_c   6.58425000
_cell_angle_alpha   90.00000000
_cell_angle_beta   90.00000000
_cell_angle_gamma   90.00000000
_symmetry_Int_Tables_number   1
_chemical_formula_structural   Nd20(OsPt3)3
_chemical_formula_sum   'Nd20 Os3 Pt9'
_cell_volume   860.47941798
_cell_formula_units_Z   1
loop_
 _symmetry_equiv_pos_site_id
 _symmetry_equiv_pos_as_xyz
  1  'x, y, z'
loop_
 _atom_site_type_symbol
 _atom_site_label
 _atom_site_symmetry_multiplicity
 _atom_site_fract_x
 _atom_site_fract_y
 _atom_site_fract_z
 _atom_site_occupancy
  Nd  Nd0  1  0.090017  0.294522  0.119957  1
  Nd  Nd1  1  0.794522  0.409983  0.119957  1
  Nd  Nd2  1  0.205478  0.590017  0.119957  1
  Nd  Nd3  1  0.909983  0.705478  0.119957  1
  Nd  Nd4  1  0.412078  0.797852  0.374652  1
  Nd  Nd5  1  0.587922  0.202148  0.374652  1
  Nd  Nd6  1  0.297852  0.087922  0.374652  1
  Nd  Nd7  1  0.702148  0.912078  0.374652  1
  Nd  Nd8  1  0.413054  0.201829  0.875191  1
  Nd  Nd9  1  0.701829  0.086946  0.875191  1
  Nd  Nd10  1  0.298171  0.913054  0.875191  1
  Nd  Nd11  1  0.586946  0.798171  0.875191  1
  Nd  Nd12  1  0.090912  0.706339  0.629742  1
  Nd  Nd13  1  0.909088  0.293661  0.629742  1
  Nd  Nd14  1  0.206339  0.409088  0.629742  1
  Nd  Nd15  1  0.793661  0.590912  0.629742  1
  Nd  Nd16  1  0.000000  0.000000  0.998267  1
  Nd  Nd17  1  0.500000  0.500000  0.998267  1
  Nd  Nd18  1  0.500000  0.500000  0.498488  1
  Nd  Nd19  1  0.000000  0.000000  0.498488  1
  Os  Os20  1  0.500000  0.000000  0.122548  1
  Os  Os21  1  0.500000  0.000000  0.621687  1
  Os  Os22  1  0.000000  0.500000  0.879802  1
  Pt  Pt23  1  0.151301  0.844564  0.250074  1
  Pt  Pt24  1  0.344564  0.348699  0.250074  1
  Pt  Pt25  1  0.655436  0.651301  0.250074  1
  Pt  Pt26  1  0.848699  0.155436  0.250074  1
  Pt  Pt27  1  0.346376  0.652974  0.750119  1
  Pt  Pt28  1  0.152974  0.153624  0.750119  1
  Pt  Pt29  1  0.847026  0.846376  0.750119  1
  Pt  Pt30  1  0.653624  0.347026  0.750119  1
  Pt  Pt31  1  0.000000  0.500000  0.383509  1
