# generated using pymatgen
data_Sm2Er18AlBi11
_symmetry_space_group_name_H-M   'P 1'
_cell_length_a   8.18136743
_cell_length_b   9.44065300
_cell_length_c   11.95379600
_cell_angle_alpha   90.00000000
_cell_angle_beta   90.28530468
_cell_angle_gamma   90.00000000
_symmetry_Int_Tables_number   1
_chemical_formula_structural   Sm2Er18AlBi11
_chemical_formula_sum   'Sm2 Er18 Al1 Bi11'
_cell_volume   923.26928594
_cell_formula_units_Z   1
loop_
 _symmetry_equiv_pos_site_id
 _symmetry_equiv_pos_as_xyz
  1  'x, y, z'
loop_
 _atom_site_type_symbol
 _atom_site_label
 _atom_site_symmetry_multiplicity
 _atom_site_fract_x
 _atom_site_fract_y
 _atom_site_fract_z
 _atom_site_occupancy
  Sm  Sm0  1  0.313477  0.250000  0.219940  1
  Sm  Sm1  1  0.811334  0.250000  0.280668  1
  Er  Er2  1  0.354383  0.750000  0.206827  1
  Er  Er3  1  0.851733  0.750000  0.284809  1
  Er  Er4  1  0.648523  0.250000  0.783109  1
  Er  Er5  1  0.150288  0.250000  0.717266  1
  Er  Er6  1  0.685232  0.570311  0.055380  1
  Er  Er7  1  0.193440  0.935327  0.439817  1
  Er  Er8  1  0.307483  0.052612  0.940637  1
  Er  Er9  1  0.806320  0.435843  0.559871  1
  Er  Er10  1  0.307483  0.447388  0.940637  1
  Er  Er11  1  0.806320  0.064157  0.559871  1
  Er  Er12  1  0.685232  0.929689  0.055380  1
  Er  Er13  1  0.193440  0.564673  0.439817  1
  Er  Er14  1  0.475502  0.250000  0.489219  1
  Er  Er15  1  0.978492  0.250000  0.010058  1
  Er  Er16  1  0.525602  0.750000  0.512460  1
  Er  Er17  1  0.034786  0.750000  0.989038  1
  Er  Er18  1  0.678378  0.750000  0.786967  1
  Er  Er19  1  0.191350  0.750000  0.722589  1
  Al  Al20  1  0.407914  0.750000  0.958034  1
  Bi  Bi21  1  0.908717  0.750000  0.544549  1
  Bi  Bi22  1  0.594303  0.250000  0.039140  1
  Bi  Bi23  1  0.093942  0.250000  0.460946  1
  Bi  Bi24  1  0.563848  0.992147  0.327204  1
  Bi  Bi25  1  0.062533  0.506698  0.174447  1
  Bi  Bi26  1  0.435984  0.496419  0.675350  1
  Bi  Bi27  1  0.935798  0.003161  0.824483  1
  Bi  Bi28  1  0.435984  0.003581  0.675350  1
  Bi  Bi29  1  0.935798  0.496839  0.824483  1
  Bi  Bi30  1  0.563848  0.507853  0.327204  1
  Bi  Bi31  1  0.062533  0.993302  0.174447  1
