# generated using pymatgen
data_ZrTiNbGa4
_symmetry_space_group_name_H-M   'P 1'
_cell_length_a   5.42435518
_cell_length_b   5.42435547
_cell_length_c   5.42435509
_cell_angle_alpha   104.86598373
_cell_angle_beta   104.86598310
_cell_angle_gamma   119.13585308
_symmetry_Int_Tables_number   1
_chemical_formula_structural   ZrTiNbGa4
_chemical_formula_sum   'Zr1 Ti1 Nb1 Ga4'
_cell_volume   120.20277009
_cell_formula_units_Z   1
loop_
 _symmetry_equiv_pos_site_id
 _symmetry_equiv_pos_as_xyz
  1  'x, y, z'
loop_
 _atom_site_type_symbol
 _atom_site_label
 _atom_site_symmetry_multiplicity
 _atom_site_fract_x
 _atom_site_fract_y
 _atom_site_fract_z
 _atom_site_occupancy
  Zr  Zr0  1  0.000000  0.000000  0.000000  1
  Ti  Ti1  1  0.750000  0.250000  0.500000  1
  Nb  Nb2  1  0.250000  0.750000  0.500000  1
  Ga  Ga3  1  0.303590  0.303590  0.607178  1
  Ga  Ga4  1  0.696410  0.696410  0.392822  1
  Ga  Ga5  1  0.696410  0.303590  0.000000  1
  Ga  Ga6  1  0.303590  0.696410  0.000000  1
