# generated using pymatgen
data_YTh(AlPd2)2
_symmetry_space_group_name_H-M   'P 1'
_cell_length_a   4.42872200
_cell_length_b   4.42872271
_cell_length_c   9.24175100
_cell_angle_alpha   90.00000000
_cell_angle_beta   90.00000000
_cell_angle_gamma   120.00000964
_symmetry_Int_Tables_number   1
_chemical_formula_structural   YTh(AlPd2)2
_chemical_formula_sum   'Y1 Th1 Al2 Pd4'
_cell_volume   156.97907345
_cell_formula_units_Z   1
loop_
 _symmetry_equiv_pos_site_id
 _symmetry_equiv_pos_as_xyz
  1  'x, y, z'
loop_
 _atom_site_type_symbol
 _atom_site_label
 _atom_site_symmetry_multiplicity
 _atom_site_fract_x
 _atom_site_fract_y
 _atom_site_fract_z
 _atom_site_occupancy
  Y  Y0  1  0.666667  0.333333  0.750000  1
  Th  Th1  1  0.333333  0.666667  0.250000  1
  Al  Al2  1  0.000000  0.000000  0.509887  1
  Al  Al3  1  0.000000  0.000000  0.990113  1
  Pd  Pd4  1  0.333333  0.666667  0.922363  1
  Pd  Pd5  1  0.666667  0.333333  0.076104  1
  Pd  Pd6  1  0.666667  0.333333  0.423896  1
  Pd  Pd7  1  0.333333  0.666667  0.577637  1
