# generated using pymatgen
data_Ba5Cr2N7
_symmetry_space_group_name_H-M   'P 1'
_cell_length_a   6.72786686
_cell_length_b   9.44067075
_cell_length_c   9.55732421
_cell_angle_alpha   114.70496620
_cell_angle_beta   97.69199540
_cell_angle_gamma   90.23979916
_symmetry_Int_Tables_number   1
_chemical_formula_structural   Ba5Cr2N7
_chemical_formula_sum   'Ba10 Cr4 N14'
_cell_volume   545.29545774
_cell_formula_units_Z   2
loop_
 _symmetry_equiv_pos_site_id
 _symmetry_equiv_pos_as_xyz
  1  'x, y, z'
loop_
 _atom_site_type_symbol
 _atom_site_label
 _atom_site_symmetry_multiplicity
 _atom_site_fract_x
 _atom_site_fract_y
 _atom_site_fract_z
 _atom_site_occupancy
  Ba  Ba0  1  0.854993  0.587845  0.337187  1
  Ba  Ba1  1  0.274081  0.985141  0.576085  1
  Ba  Ba2  1  0.712857  0.411303  0.844570  1
  Ba  Ba3  1  0.287143  0.588697  0.155430  1
  Ba  Ba4  1  0.407298  0.785093  0.914209  1
  Ba  Ba5  1  0.592702  0.214907  0.085791  1
  Ba  Ba6  1  0.145007  0.412155  0.662813  1
  Ba  Ba7  1  0.886940  0.842680  0.769779  1
  Ba  Ba8  1  0.113060  0.157320  0.230221  1
  Ba  Ba9  1  0.725919  0.014859  0.423915  1
  Cr  Cr10  1  0.569933  0.369996  0.476721  1
  Cr  Cr11  1  0.430067  0.630004  0.523279  1
  Cr  Cr12  1  0.121365  0.215695  0.904862  1
  Cr  Cr13  1  0.878635  0.784305  0.095138  1
  N  N14  1  0.552993  0.553624  0.660883  1
  N  N15  1  0.447007  0.446376  0.339117  1
  N  N16  1  0.191774  0.684950  0.567075  1
  N  N17  1  0.808226  0.315050  0.432925  1
  N  N18  1  0.426155  0.216977  0.476389  1
  N  N19  1  0.573845  0.783023  0.523611  1
  N  N20  1  0.958470  0.146436  0.725052  1
  N  N21  1  0.041530  0.853564  0.274948  1
  N  N22  1  0.224967  0.059700  0.942152  1
  N  N23  1  0.775033  0.940300  0.057848  1
  N  N24  1  0.328736  0.324497  0.895328  1
  N  N25  1  0.992157  0.331459  0.057751  1
  N  N26  1  0.007843  0.668541  0.942249  1
  N  N27  1  0.671264  0.675503  0.104672  1
