# generated using pymatgen
data_Er2Tm8In8IrPt3
_symmetry_space_group_name_H-M   'P 1'
_cell_length_a   3.61157100
_cell_length_b   8.05076529
_cell_length_c   18.07082525
_cell_angle_alpha   89.99407770
_cell_angle_beta   90.00000000
_cell_angle_gamma   90.00000000
_symmetry_Int_Tables_number   1
_chemical_formula_structural   Er2Tm8In8IrPt3
_chemical_formula_sum   'Er2 Tm8 In8 Ir1 Pt3'
_cell_volume   525.42569371
_cell_formula_units_Z   1
loop_
 _symmetry_equiv_pos_site_id
 _symmetry_equiv_pos_as_xyz
  1  'x, y, z'
loop_
 _atom_site_type_symbol
 _atom_site_label
 _atom_site_symmetry_multiplicity
 _atom_site_fract_x
 _atom_site_fract_y
 _atom_site_fract_z
 _atom_site_occupancy
  Er  Er0  1  0.000000  0.999985  0.000237  1
  Er  Er1  1  0.000000  0.500877  0.499516  1
  Tm  Tm2  1  0.000000  0.115209  0.412477  1
  Tm  Tm3  1  0.000000  0.883591  0.585766  1
  Tm  Tm4  1  0.000000  0.383755  0.914172  1
  Tm  Tm5  1  0.000000  0.616583  0.086765  1
  Tm  Tm6  1  0.000000  0.237731  0.221971  1
  Tm  Tm7  1  0.000000  0.757222  0.779076  1
  Tm  Tm8  1  0.000000  0.256585  0.721094  1
  Tm  Tm9  1  0.000000  0.749837  0.279187  1
  In  In10  1  0.500000  0.422574  0.351285  1
  In  In11  1  0.500000  0.576366  0.648478  1
  In  In12  1  0.500000  0.076514  0.851629  1
  In  In13  1  0.500000  0.925889  0.149082  1
  In  In14  1  0.500000  0.292466  0.066416  1
  In  In15  1  0.500000  0.707590  0.933648  1
  In  In16  1  0.500000  0.207902  0.566448  1
  In  In17  1  0.500000  0.793518  0.432238  1
  Ir  Ir18  1  0.500000  0.022085  0.304022  1
  Pt  Pt19  1  0.500000  0.975259  0.696456  1
  Pt  Pt20  1  0.500000  0.475418  0.803671  1
  Pt  Pt21  1  0.500000  0.523042  0.196368  1
