# generated using pymatgen
data_Ca12Ta2Ga12Sn5MoO48
_symmetry_space_group_name_H-M   'P 1'
_cell_length_a   10.76330911
_cell_length_b   10.74200018
_cell_length_c   10.76067800
_cell_angle_alpha   109.52581358
_cell_angle_beta   109.52423712
_cell_angle_gamma   109.44044806
_symmetry_Int_Tables_number   1
_chemical_formula_structural   Ca12Ta2Ga12Sn5MoO48
_chemical_formula_sum   'Ca12 Ta2 Ga12 Sn5 Mo1 O48'
_cell_volume   956.83260130
_cell_formula_units_Z   1
loop_
 _symmetry_equiv_pos_site_id
 _symmetry_equiv_pos_as_xyz
  1  'x, y, z'
loop_
 _atom_site_type_symbol
 _atom_site_label
 _atom_site_symmetry_multiplicity
 _atom_site_fract_x
 _atom_site_fract_y
 _atom_site_fract_z
 _atom_site_occupancy
  Ca  Ca0  1  0.251284  0.376734  0.124892  1
  Ca  Ca1  1  0.748716  0.623266  0.875108  1
  Ca  Ca2  1  0.751834  0.125554  0.373130  1
  Ca  Ca3  1  0.125456  0.250028  0.375741  1
  Ca  Ca4  1  0.373611  0.746202  0.120219  1
  Ca  Ca5  1  0.248166  0.874446  0.626870  1
  Ca  Ca6  1  0.874544  0.749972  0.624259  1
  Ca  Ca7  1  0.626389  0.253798  0.879781  1
  Ca  Ca8  1  0.374273  0.126409  0.247523  1
  Ca  Ca9  1  0.625727  0.873591  0.752477  1
  Ca  Ca10  1  0.126354  0.375267  0.751990  1
  Ca  Ca11  1  0.873646  0.624733  0.248010  1
  Ta  Ta12  1  0.000000  0.000000  0.000000  1
  Ta  Ta13  1  0.000000  0.500000  0.500000  1
  Ga  Ga14  1  0.247516  0.621127  0.371465  1
  Ga  Ga15  1  0.752484  0.378873  0.628535  1
  Ga  Ga16  1  0.748809  0.873706  0.126252  1
  Ga  Ga17  1  0.374854  0.254478  0.625558  1
  Ga  Ga18  1  0.625146  0.745522  0.374442  1
  Ga  Ga19  1  0.251191  0.126294  0.873748  1
  Ga  Ga20  1  0.126458  0.750698  0.877174  1
  Ga  Ga21  1  0.873542  0.249302  0.122826  1
  Ga  Ga22  1  0.623035  0.373916  0.248070  1
  Ga  Ga23  1  0.376965  0.626084  0.751930  1
  Ga  Ga24  1  0.877755  0.126239  0.749189  1
  Ga  Ga25  1  0.122245  0.873761  0.250811  1
  Sn  Sn26  1  0.500000  0.000000  0.000000  1
  Sn  Sn27  1  0.500000  0.500000  0.000000  1
  Sn  Sn28  1  0.500000  0.500000  0.500000  1
  Sn  Sn29  1  0.000000  0.000000  0.500000  1
  Sn  Sn30  1  0.000000  0.500000  0.000000  1
  Mo  Mo31  1  0.500000  0.000000  0.500000  1
  O  O32  1  0.471852  0.377796  0.289646  1
  O  O33  1  0.528148  0.622204  0.710354  1
  O  O34  1  0.588734  0.182267  0.212352  1
  O  O35  1  0.908490  0.120533  0.591413  1
  O  O36  1  0.289398  0.472179  0.378905  1
  O  O37  1  0.324165  0.918941  0.305762  1
  O  O38  1  0.411266  0.817733  0.787648  1
  O  O39  1  0.091510  0.879467  0.408587  1
  O  O40  1  0.710602  0.527821  0.621095  1
  O  O41  1  0.675835  0.081059  0.694238  1
  O  O42  1  0.025983  0.316523  0.906538  1
  O  O43  1  0.210417  0.591611  0.183338  1
  O  O44  1  0.118666  0.020269  0.199798  1
  O  O45  1  0.974017  0.683477  0.093462  1
  O  O46  1  0.789583  0.408389  0.816662  1
  O  O47  1  0.881334  0.979731  0.800202  1
  O  O48  1  0.594550  0.912571  0.123859  1
  O  O49  1  0.178459  0.478986  0.595129  1
  O  O50  1  0.405450  0.087429  0.876141  1
  O  O51  1  0.821541  0.521014  0.404871  1
  O  O52  1  0.906890  0.028750  0.317647  1
  O  O53  1  0.376500  0.585755  0.903616  1
  O  O54  1  0.093110  0.971250  0.682353  1
  O  O55  1  0.623500  0.414245  0.096384  1
  O  O56  1  0.378247  0.287601  0.470156  1
  O  O57  1  0.582297  0.906393  0.388965  1
  O  O58  1  0.621753  0.712399  0.529844  1
  O  O59  1  0.417703  0.093607  0.611035  1
  O  O60  1  0.119412  0.592899  0.910029  1
  O  O61  1  0.021593  0.200051  0.118161  1
  O  O62  1  0.880588  0.407101  0.089971  1
  O  O63  1  0.978407  0.799949  0.881839  1
  O  O64  1  0.317853  0.906850  0.029621  1
  O  O65  1  0.917071  0.300035  0.320295  1
  O  O66  1  0.682147  0.093150  0.970379  1
  O  O67  1  0.082929  0.699965  0.679705  1
  O  O68  1  0.182418  0.210195  0.587739  1
  O  O69  1  0.472797  0.597995  0.182324  1
  O  O70  1  0.817582  0.789805  0.412261  1
  O  O71  1  0.527203  0.402005  0.817676  1
  O  O72  1  0.290660  0.318707  0.914688  1
  O  O73  1  0.709340  0.681293  0.085312  1
  O  O74  1  0.199238  0.115465  0.020115  1
  O  O75  1  0.800762  0.884535  0.979885  1
  O  O76  1  0.901733  0.380976  0.580673  1
  O  O77  1  0.098267  0.619024  0.419327  1
  O  O78  1  0.594993  0.176472  0.482344  1
  O  O79  1  0.405007  0.823528  0.517656  1
