# generated using pymatgen
data_YLuSc2(Al3Ir)6
_symmetry_space_group_name_H-M   'P 1'
_cell_length_a   7.50894219
_cell_length_b   7.50860986
_cell_length_c   9.38499000
_cell_angle_alpha   90.00000000
_cell_angle_beta   90.00000000
_cell_angle_gamma   119.54388585
_symmetry_Int_Tables_number   1
_chemical_formula_structural   YLuSc2(Al3Ir)6
_chemical_formula_sum   'Y1 Lu1 Sc2 Al18 Ir6'
_cell_volume   460.34191320
_cell_formula_units_Z   1
loop_
 _symmetry_equiv_pos_site_id
 _symmetry_equiv_pos_as_xyz
  1  'x, y, z'
loop_
 _atom_site_type_symbol
 _atom_site_label
 _atom_site_symmetry_multiplicity
 _atom_site_fract_x
 _atom_site_fract_y
 _atom_site_fract_z
 _atom_site_occupancy
  Y  Y0  1  0.672112  0.993230  0.250000  1
  Lu  Lu1  1  0.993668  0.672084  0.250000  1
  Sc  Sc2  1  0.002534  0.327513  0.750000  1
  Sc  Sc3  1  0.326591  0.003207  0.750000  1
  Al  Al4  1  0.131523  0.130360  0.250000  1
  Al  Al5  1  0.877458  0.877669  0.750000  1
  Al  Al6  1  0.002643  0.335992  0.070822  1
  Al  Al7  1  0.003012  0.664602  0.918823  1
  Al  Al8  1  0.003012  0.664602  0.581177  1
  Al  Al9  1  0.335204  0.001967  0.429363  1
  Al  Al10  1  0.002643  0.335992  0.429178  1
  Al  Al11  1  0.664545  0.003151  0.581632  1
  Al  Al12  1  0.664545  0.003151  0.918368  1
  Al  Al13  1  0.335204  0.001967  0.070637  1
  Al  Al14  1  0.329487  0.329461  0.562963  1
  Al  Al15  1  0.665956  0.665427  0.455417  1
  Al  Al16  1  0.665956  0.665427  0.044583  1
  Al  Al17  1  0.329487  0.329461  0.937037  1
  Al  Al18  1  0.338709  0.547094  0.250000  1
  Al  Al19  1  0.659746  0.444723  0.750000  1
  Al  Al20  1  0.548588  0.340802  0.250000  1
  Al  Al21  1  0.444288  0.660093  0.750000  1
  Ir  Ir22  1  0.673139  0.329001  0.999048  1
  Ir  Ir23  1  0.327978  0.672419  0.998996  1
  Ir  Ir24  1  0.327978  0.672419  0.501004  1
  Ir  Ir25  1  0.673139  0.329001  0.500952  1
  Ir  Ir26  1  0.000426  0.999592  0.998908  1
  Ir  Ir27  1  0.000426  0.999592  0.501092  1
