# generated using pymatgen
data_Nd2Cu17Si8Au
_symmetry_space_group_name_H-M   'P 1'
_cell_length_a   8.20716179
_cell_length_b   8.20716094
_cell_length_c   8.20853374
_cell_angle_alpha   120.58314925
_cell_angle_beta   120.10714275
_cell_angle_gamma   89.39404927
_symmetry_Int_Tables_number   1
_chemical_formula_structural   Nd2Cu17Si8Au
_chemical_formula_sum   'Nd2 Cu17 Si8 Au1'
_cell_volume   388.92532461
_cell_formula_units_Z   1
loop_
 _symmetry_equiv_pos_site_id
 _symmetry_equiv_pos_as_xyz
  1  'x, y, z'
loop_
 _atom_site_type_symbol
 _atom_site_label
 _atom_site_symmetry_multiplicity
 _atom_site_fract_x
 _atom_site_fract_y
 _atom_site_fract_z
 _atom_site_occupancy
  Nd  Nd0  1  0.751095  0.751571  0.000041  1
  Nd  Nd1  1  0.248469  0.248945  0.000041  1
  Cu  Cu2  1  0.716536  0.559323  0.275859  1
  Cu  Cu3  1  0.291090  0.416897  0.707986  1
  Cu  Cu4  1  0.935158  0.799289  0.734446  1
  Cu  Cu5  1  0.565898  0.300296  0.866194  1
  Cu  Cu6  1  0.305486  0.558432  0.498201  1
  Cu  Cu7  1  0.057872  0.809119  0.501757  1
  Cu  Cu8  1  0.692638  0.443885  0.501757  1
  Cu  Cu9  1  0.939769  0.192715  0.498201  1
  Cu  Cu10  1  0.442512  0.944279  0.750042  1
  Cu  Cu11  1  0.186496  0.694722  0.251114  1
  Cu  Cu12  1  0.556392  0.064618  0.251114  1
  Cu  Cu13  1  0.200518  0.936640  0.137158  1
  Cu  Cu14  1  0.062531  0.200927  0.263457  1
  Cu  Cu15  1  0.004687  0.501225  0.505913  1
  Cu  Cu16  1  0.500860  0.003683  0.504544  1
  Cu  Cu17  1  0.805763  0.307530  0.750042  1
  Cu  Cu18  1  0.797572  0.066014  0.863586  1
  Si  Si19  1  0.288415  0.798923  0.845552  1
  Si  Si20  1  0.046629  0.557137  0.845552  1
  Si  Si21  1  0.561923  0.710654  0.512916  1
  Si  Si22  1  0.802262  0.950994  0.512916  1
  Si  Si23  1  0.442719  0.292028  0.496567  1
  Si  Si24  1  0.944320  0.441584  0.150591  1
  Si  Si25  1  0.709007  0.206271  0.150591  1
  Si  Si26  1  0.204539  0.053848  0.496567  1
  Au  Au27  1  0.438843  0.688450  0.127293  1
