# generated using pymatgen
data_Nd12Th4Cd4Os3Pt
_symmetry_space_group_name_H-M   'P 1'
_cell_length_a   9.97117209
_cell_length_b   10.00960109
_cell_length_c   10.00793115
_cell_angle_alpha   60.10203925
_cell_angle_beta   59.94381475
_cell_angle_gamma   59.97756486
_symmetry_Int_Tables_number   1
_chemical_formula_structural   Nd12Th4Cd4Os3Pt
_chemical_formula_sum   'Nd12 Th4 Cd4 Os3 Pt1'
_cell_volume   706.42703054
_cell_formula_units_Z   1
loop_
 _symmetry_equiv_pos_site_id
 _symmetry_equiv_pos_as_xyz
  1  'x, y, z'
loop_
 _atom_site_type_symbol
 _atom_site_label
 _atom_site_symmetry_multiplicity
 _atom_site_fract_x
 _atom_site_fract_y
 _atom_site_fract_z
 _atom_site_occupancy
  Nd  Nd0  1  0.813792  0.191440  0.191222  1
  Nd  Nd1  1  0.186506  0.810433  0.810074  1
  Nd  Nd2  1  0.188594  0.810491  0.190378  1
  Nd  Nd3  1  0.812481  0.192183  0.802449  1
  Nd  Nd4  1  0.188460  0.190547  0.810400  1
  Nd  Nd5  1  0.812458  0.802541  0.192070  1
  Nd  Nd6  1  0.939268  0.562255  0.562373  1
  Nd  Nd7  1  0.555194  0.940690  0.940523  1
  Nd  Nd8  1  0.556101  0.942346  0.564142  1
  Nd  Nd9  1  0.937273  0.560148  0.940582  1
  Nd  Nd10  1  0.556022  0.564135  0.942123  1
  Nd  Nd11  1  0.937509  0.940539  0.559922  1
  Th  Th12  1  0.342468  0.348599  0.348749  1
  Th  Th13  1  0.343341  0.349848  0.957618  1
  Th  Th14  1  0.343623  0.957201  0.349939  1
  Th  Th15  1  0.968060  0.344223  0.344150  1
  Cd  Cd16  1  0.579418  0.579549  0.579706  1
  Cd  Cd17  1  0.579819  0.579580  0.259706  1
  Cd  Cd18  1  0.579773  0.259743  0.579673  1
  Cd  Cd19  1  0.257472  0.580284  0.580448  1
  Os  Os20  1  0.150523  0.142973  0.143267  1
  Os  Os21  1  0.150675  0.142857  0.564164  1
  Os  Os22  1  0.150571  0.564175  0.143065  1
  Pt  Pt23  1  0.570603  0.143221  0.143259  1
