# generated using pymatgen
data_YTm2LuSb10
_symmetry_space_group_name_H-M   'P 1'
_cell_length_a   4.20358400
_cell_length_b   13.14769472
_cell_length_c   14.53015200
_cell_angle_alpha   78.50415687
_cell_angle_beta   90.00000000
_cell_angle_gamma   90.00000000
_symmetry_Int_Tables_number   1
_chemical_formula_structural   YTm2LuSb10
_chemical_formula_sum   'Y2 Tm4 Lu2 Sb20'
_cell_volume   786.93455352
_cell_formula_units_Z   2
loop_
 _symmetry_equiv_pos_site_id
 _symmetry_equiv_pos_as_xyz
  1  'x, y, z'
loop_
 _atom_site_type_symbol
 _atom_site_label
 _atom_site_symmetry_multiplicity
 _atom_site_fract_x
 _atom_site_fract_y
 _atom_site_fract_z
 _atom_site_occupancy
  Y  Y0  1  0.250000  0.953929  0.358859  1
  Y  Y1  1  0.750000  0.046071  0.641141  1
  Tm  Tm2  1  0.250000  0.661311  0.856297  1
  Tm  Tm3  1  0.750000  0.338689  0.143703  1
  Tm  Tm4  1  0.250000  0.668291  0.576017  1
  Tm  Tm5  1  0.750000  0.331709  0.423983  1
  Lu  Lu6  1  0.250000  0.396186  0.770332  1
  Lu  Lu7  1  0.750000  0.603814  0.229668  1
  Sb  Sb8  1  0.250000  0.145652  0.779262  1
  Sb  Sb9  1  0.750000  0.854348  0.220738  1
  Sb  Sb10  1  0.250000  0.145971  0.482187  1
  Sb  Sb11  1  0.750000  0.854029  0.517813  1
  Sb  Sb12  1  0.250000  0.153981  0.169542  1
  Sb  Sb13  1  0.750000  0.846019  0.830458  1
  Sb  Sb14  1  0.250000  0.420787  0.974994  1
  Sb  Sb15  1  0.750000  0.579213  0.025006  1
  Sb  Sb16  1  0.750000  0.029047  0.911204  1
  Sb  Sb17  1  0.250000  0.970953  0.088796  1
  Sb  Sb18  1  0.750000  0.141397  0.321641  1
  Sb  Sb19  1  0.250000  0.858603  0.678359  1
  Sb  Sb20  1  0.750000  0.279586  0.935852  1
  Sb  Sb21  1  0.250000  0.720414  0.064148  1
  Sb  Sb22  1  0.750000  0.286081  0.653755  1
  Sb  Sb23  1  0.250000  0.713919  0.346245  1
  Sb  Sb24  1  0.750000  0.575711  0.734570  1
  Sb  Sb25  1  0.250000  0.424289  0.265430  1
  Sb  Sb26  1  0.750000  0.571423  0.446675  1
  Sb  Sb27  1  0.250000  0.428577  0.553325  1
