# generated using pymatgen
data_NdErFe2(Co3B)2
_symmetry_space_group_name_H-M   'P 1'
_cell_length_a   5.08135139
_cell_length_b   5.08651361
_cell_length_c   6.80017900
_cell_angle_alpha   90.00000000
_cell_angle_beta   90.00000000
_cell_angle_gamma   120.01025972
_symmetry_Int_Tables_number   1
_chemical_formula_structural   NdErFe2(Co3B)2
_chemical_formula_sum   'Nd1 Er1 Fe2 Co6 B2'
_cell_volume   152.19679508
_cell_formula_units_Z   1
loop_
 _symmetry_equiv_pos_site_id
 _symmetry_equiv_pos_as_xyz
  1  'x, y, z'
loop_
 _atom_site_type_symbol
 _atom_site_label
 _atom_site_symmetry_multiplicity
 _atom_site_fract_x
 _atom_site_fract_y
 _atom_site_fract_z
 _atom_site_occupancy
  Nd  Nd0  1  0.000030  0.000012  0.000000  1
  Er  Er1  1  0.999961  0.999935  0.500000  1
  Fe  Fe2  1  0.666344  0.333983  0.000000  1
  Fe  Fe3  1  0.333614  0.666057  0.000000  1
  Co  Co4  1  0.500017  0.000010  0.291527  1
  Co  Co5  1  0.500004  0.500012  0.291485  1
  Co  Co6  1  0.000037  0.500016  0.291504  1
  Co  Co7  1  0.500017  0.000010  0.708472  1
  Co  Co8  1  0.500004  0.500012  0.708514  1
  Co  Co9  1  0.000037  0.500016  0.708495  1
  B  B10  1  0.666825  0.333257  0.500000  1
  B  B11  1  0.333239  0.666806  0.500000  1
