# generated using pymatgen
data_Eu4MnNb2SnO14
_symmetry_space_group_name_H-M   'P 1'
_cell_length_a   7.59159765
_cell_length_b   7.47441348
_cell_length_c   7.48595833
_cell_angle_alpha   58.69660956
_cell_angle_beta   59.53207296
_cell_angle_gamma   59.48000863
_symmetry_Int_Tables_number   1
_chemical_formula_structural   Eu4MnNb2SnO14
_chemical_formula_sum   'Eu4 Mn1 Nb2 Sn1 O14'
_cell_volume   295.09474108
_cell_formula_units_Z   1
loop_
 _symmetry_equiv_pos_site_id
 _symmetry_equiv_pos_as_xyz
  1  'x, y, z'
loop_
 _atom_site_type_symbol
 _atom_site_label
 _atom_site_symmetry_multiplicity
 _atom_site_fract_x
 _atom_site_fract_y
 _atom_site_fract_z
 _atom_site_occupancy
  Eu  Eu0  1  0.125000  0.625000  0.125000  1
  Eu  Eu1  1  0.125000  0.125000  0.625000  1
  Eu  Eu2  1  0.625000  0.125000  0.125000  1
  Eu  Eu3  1  0.125000  0.125000  0.125000  1
  Mn  Mn4  1  0.625000  0.625000  0.125000  1
  Nb  Nb5  1  0.625000  0.625000  0.625000  1
  Nb  Nb6  1  0.125000  0.625000  0.625000  1
  Sn  Sn7  1  0.625000  0.125000  0.625000  1
  O  O8  1  0.304483  0.696063  0.694973  1
  O  O9  1  0.545322  0.945607  0.963749  1
  O  O10  1  0.703930  0.695509  0.303820  1
  O  O11  1  0.292500  0.297024  0.706622  1
  O  O12  1  0.999265  0.000559  0.000913  1
  O  O13  1  0.296739  0.695509  0.303820  1
  O  O14  1  0.703855  0.297024  0.706622  1
  O  O15  1  0.953261  0.554491  0.946180  1
  O  O16  1  0.546070  0.554491  0.946180  1
  O  O17  1  0.957500  0.952976  0.543378  1
  O  O18  1  0.250735  0.249441  0.249087  1
  O  O19  1  0.546145  0.952976  0.543378  1
  O  O20  1  0.704678  0.304393  0.286251  1
  O  O21  1  0.945517  0.553937  0.555027  1
