# generated using pymatgen
data_Li2Eu4PdPt3
_symmetry_space_group_name_H-M   'P 1'
_cell_length_a   5.83514814
_cell_length_b   5.81877657
_cell_length_c   8.10423733
_cell_angle_alpha   78.35121961
_cell_angle_beta   78.19244062
_cell_angle_gamma   59.57219379
_symmetry_Int_Tables_number   1
_chemical_formula_structural   Li2Eu4PdPt3
_chemical_formula_sum   'Li2 Eu4 Pd1 Pt3'
_cell_volume   230.66703115
_cell_formula_units_Z   1
loop_
 _symmetry_equiv_pos_site_id
 _symmetry_equiv_pos_as_xyz
  1  'x, y, z'
loop_
 _atom_site_type_symbol
 _atom_site_label
 _atom_site_symmetry_multiplicity
 _atom_site_fract_x
 _atom_site_fract_y
 _atom_site_fract_z
 _atom_site_occupancy
  Li  Li0  1  0.121790  0.880277  0.248690  1
  Li  Li1  1  0.884618  0.119153  0.750779  1
  Eu  Eu2  1  0.789968  0.512401  0.347160  1
  Eu  Eu3  1  0.484830  0.211462  0.149551  1
  Eu  Eu4  1  0.210905  0.487318  0.652995  1
  Eu  Eu5  1  0.508194  0.788250  0.849997  1
  Pd  Pd6  1  0.739795  0.002724  0.503712  1
  Pt  Pt7  1  0.999563  0.738006  0.003578  1
  Pt  Pt8  1  0.265470  0.996907  0.495916  1
  Pt  Pt9  1  0.994867  0.263502  0.997621  1
