# generated using pymatgen
data_Tb2Ho8Tl8IrPd3
_symmetry_space_group_name_H-M   'P 1'
_cell_length_a   3.62461600
_cell_length_b   8.12628898
_cell_length_c   18.26550300
_cell_angle_alpha   90.06951257
_cell_angle_beta   90.00000000
_cell_angle_gamma   90.00000000
_symmetry_Int_Tables_number   1
_chemical_formula_structural   Tb2Ho8Tl8IrPd3
_chemical_formula_sum   'Tb2 Ho8 Tl8 Ir1 Pd3'
_cell_volume   538.00409625
_cell_formula_units_Z   1
loop_
 _symmetry_equiv_pos_site_id
 _symmetry_equiv_pos_as_xyz
  1  'x, y, z'
loop_
 _atom_site_type_symbol
 _atom_site_label
 _atom_site_symmetry_multiplicity
 _atom_site_fract_x
 _atom_site_fract_y
 _atom_site_fract_z
 _atom_site_occupancy
  Tb  Tb0  1  0.000000  0.500504  0.499987  1
  Tb  Tb1  1  0.000000  0.999398  0.000568  1
  Ho  Ho2  1  0.000000  0.728186  0.278113  1
  Ho  Ho3  1  0.000000  0.260541  0.718853  1
  Ho  Ho4  1  0.000000  0.760152  0.780652  1
  Ho  Ho5  1  0.000000  0.255195  0.219401  1
  Ho  Ho6  1  0.000000  0.613764  0.088212  1
  Ho  Ho7  1  0.000000  0.383764  0.915342  1
  Ho  Ho8  1  0.000000  0.883366  0.584262  1
  Ho  Ho9  1  0.000000  0.116385  0.414158  1
  Tl  Tl10  1  0.500000  0.707502  0.933585  1
  Tl  Tl11  1  0.500000  0.291826  0.066369  1
  Tl  Tl12  1  0.500000  0.793431  0.433005  1
  Tl  Tl13  1  0.500000  0.206571  0.566244  1
  Tl  Tl14  1  0.500000  0.583172  0.649139  1
  Tl  Tl15  1  0.500000  0.417618  0.352313  1
  Tl  Tl16  1  0.500000  0.920156  0.150154  1
  Tl  Tl17  1  0.500000  0.083197  0.850256  1
  Ir  Ir18  1  0.500000  0.522181  0.195951  1
  Pd  Pd19  1  0.500000  0.475007  0.803841  1
  Pd  Pd20  1  0.500000  0.975083  0.695818  1
  Pd  Pd21  1  0.500000  0.023003  0.303781  1
