# generated using pymatgen
data_Rb2Ba2NbVSe8
_symmetry_space_group_name_H-M   'P 1'
_cell_length_a   7.24776800
_cell_length_b   10.35747930
_cell_length_c   12.83101086
_cell_angle_alpha   90.41674240
_cell_angle_beta   90.00000000
_cell_angle_gamma   90.00000000
_symmetry_Int_Tables_number   1
_chemical_formula_structural   Rb2Ba2NbVSe8
_chemical_formula_sum   'Rb4 Ba4 Nb2 V2 Se16'
_cell_volume   963.18063330
_cell_formula_units_Z   2
loop_
 _symmetry_equiv_pos_site_id
 _symmetry_equiv_pos_as_xyz
  1  'x, y, z'
loop_
 _atom_site_type_symbol
 _atom_site_label
 _atom_site_symmetry_multiplicity
 _atom_site_fract_x
 _atom_site_fract_y
 _atom_site_fract_z
 _atom_site_occupancy
  Rb  Rb0  1  0.250000  0.353806  0.087267  1
  Rb  Rb1  1  0.750000  0.646194  0.912733  1
  Rb  Rb2  1  0.750000  0.859865  0.408804  1
  Rb  Rb3  1  0.250000  0.140135  0.591196  1
  Ba  Ba4  1  0.250000  0.608346  0.649863  1
  Ba  Ba5  1  0.750000  0.391654  0.350137  1
  Ba  Ba6  1  0.750000  0.103265  0.856531  1
  Ba  Ba7  1  0.250000  0.896735  0.143469  1
  Nb  Nb8  1  0.250000  0.612828  0.332024  1
  Nb  Nb9  1  0.750000  0.387172  0.667976  1
  V  V10  1  0.750000  0.111456  0.168502  1
  V  V11  1  0.250000  0.888544  0.831498  1
  Se  Se12  1  0.250000  0.074449  0.928770  1
  Se  Se13  1  0.750000  0.925551  0.071230  1
  Se  Se14  1  0.750000  0.582413  0.565864  1
  Se  Se15  1  0.250000  0.417587  0.434136  1
  Se  Se16  1  0.250000  0.805434  0.440496  1
  Se  Se17  1  0.750000  0.194566  0.559504  1
  Se  Se18  1  0.750000  0.293031  0.066717  1
  Se  Se19  1  0.250000  0.706969  0.933283  1
  Se  Se20  1  0.003339  0.120186  0.274910  1
  Se  Se21  1  0.503339  0.879814  0.725090  1
  Se  Se22  1  0.987780  0.620306  0.216723  1
  Se  Se23  1  0.487780  0.379694  0.783277  1
  Se  Se24  1  0.996661  0.879814  0.725090  1
  Se  Se25  1  0.496661  0.120186  0.274910  1
  Se  Se26  1  0.012220  0.379694  0.783277  1
  Se  Se27  1  0.512220  0.620306  0.216723  1
