# generated using pymatgen
data_SrCrFe2(PO4)3
_symmetry_space_group_name_H-M   'P 1'
_cell_length_a   9.20200961
_cell_length_b   9.20200980
_cell_length_c   9.20200927
_cell_angle_alpha   137.79305321
_cell_angle_beta   109.70822447
_cell_angle_gamma   85.52905275
_symmetry_Int_Tables_number   1
_chemical_formula_structural   SrCrFe2(PO4)3
_chemical_formula_sum   'Sr2 Cr2 Fe4 P6 O24'
_cell_volume   474.27063036
_cell_formula_units_Z   2
loop_
 _symmetry_equiv_pos_site_id
 _symmetry_equiv_pos_as_xyz
  1  'x, y, z'
loop_
 _atom_site_type_symbol
 _atom_site_label
 _atom_site_symmetry_multiplicity
 _atom_site_fract_x
 _atom_site_fract_y
 _atom_site_fract_z
 _atom_site_occupancy
  Sr  Sr0  1  0.250000  0.346570  0.096570  1
  Sr  Sr1  1  0.750000  0.653430  0.903430  1
  Cr  Cr2  1  0.000000  0.500000  0.500000  1
  Cr  Cr3  1  0.500000  0.000000  0.500000  1
  Fe  Fe4  1  0.117659  0.117659  0.500000  1
  Fe  Fe5  1  0.382341  0.882341  0.000000  1
  Fe  Fe6  1  0.617659  0.117659  0.000000  1
  Fe  Fe7  1  0.882341  0.882341  0.500000  1
  P  P8  1  0.250000  0.841992  0.591992  1
  P  P9  1  0.750000  0.158008  0.408008  1
  P  P10  1  0.323872  0.323872  0.500000  1
  P  P11  1  0.176128  0.676128  0.000000  1
  P  P12  1  0.823872  0.323872  0.000000  1
  P  P13  1  0.676128  0.676128  0.500000  1
  O  O14  1  0.343276  0.798819  0.455543  1
  O  O15  1  0.656724  0.201181  0.544457  1
  O  O16  1  0.843276  0.387733  0.544457  1
  O  O17  1  0.156724  0.612267  0.455543  1
  O  O18  1  0.133980  0.986305  0.620284  1
  O  O19  1  0.633980  0.013695  0.147675  1
  O  O20  1  0.866020  0.013695  0.379716  1
  O  O21  1  0.366020  0.986305  0.852325  1
  O  O22  1  0.345858  0.204856  0.277322  1
  O  O23  1  0.072466  0.795144  0.141002  1
  O  O24  1  0.845858  0.568536  0.141002  1
  O  O25  1  0.572466  0.431464  0.277322  1
  O  O26  1  0.654142  0.795144  0.722678  1
  O  O27  1  0.927534  0.204856  0.858998  1
  O  O28  1  0.154142  0.431464  0.858998  1
  O  O29  1  0.427534  0.568536  0.722678  1
  O  O30  1  0.137674  0.296093  0.436667  1
  O  O31  1  0.140575  0.703907  0.841583  1
  O  O32  1  0.637674  0.201007  0.841583  1
  O  O33  1  0.640575  0.798993  0.436667  1
  O  O34  1  0.862326  0.703907  0.563333  1
  O  O35  1  0.859425  0.296093  0.158417  1
  O  O36  1  0.362326  0.798993  0.158417  1
  O  O37  1  0.359425  0.201007  0.563333  1
