# generated using pymatgen
data_Rb4AlIn11Te20
_symmetry_space_group_name_H-M   'P 1'
_cell_length_a   11.43448200
_cell_length_b   11.44384373
_cell_length_c   11.43010600
_cell_angle_alpha   90.38438150
_cell_angle_beta   90.52389534
_cell_angle_gamma   90.39526475
_symmetry_Int_Tables_number   1
_chemical_formula_structural   Rb4AlIn11Te20
_chemical_formula_sum   'Rb4 Al1 In11 Te20'
_cell_volume   1495.54754059
_cell_formula_units_Z   1
loop_
 _symmetry_equiv_pos_site_id
 _symmetry_equiv_pos_as_xyz
  1  'x, y, z'
loop_
 _atom_site_type_symbol
 _atom_site_label
 _atom_site_symmetry_multiplicity
 _atom_site_fract_x
 _atom_site_fract_y
 _atom_site_fract_z
 _atom_site_occupancy
  Rb  Rb0  1  0.257130  0.999291  0.741579  1
  Rb  Rb1  1  0.744338  0.254638  0.001173  1
  Rb  Rb2  1  0.998289  0.743289  0.255789  1
  Rb  Rb3  1  0.501493  0.500513  0.499470  1
  Al  Al4  1  0.646739  0.839860  0.260862  1
  In  In5  1  0.831717  0.887709  0.574990  1
  In  In6  1  0.580499  0.836448  0.890487  1
  In  In7  1  0.887613  0.578479  0.834484  1
  In  In8  1  0.165906  0.420596  0.112494  1
  In  In9  1  0.112499  0.164401  0.420743  1
  In  In10  1  0.423106  0.112190  0.164880  1
  In  In11  1  0.735003  0.158787  0.349634  1
  In  In12  1  0.353462  0.739212  0.164495  1
  In  In13  1  0.162469  0.348796  0.739315  1
  In  In14  1  0.261329  0.650914  0.839481  1
  In  In15  1  0.838199  0.260687  0.651217  1
  Te  Te16  1  0.187435  0.817680  0.002303  1
  Te  Te17  1  0.799660  0.990692  0.183632  1
  Te  Te18  1  0.173165  0.170292  0.171750  1
  Te  Te19  1  0.828456  0.827651  0.824337  1
  Te  Te20  1  0.000922  0.182792  0.817178  1
  Te  Te21  1  0.934840  0.499232  0.065380  1
  Te  Te22  1  0.063596  0.933851  0.498986  1
  Te  Te23  1  0.499046  0.066780  0.932756  1
  Te  Te24  1  0.731054  0.711059  0.430707  1
  Te  Te25  1  0.444667  0.740799  0.705244  1
  Te  Te26  1  0.701775  0.441876  0.742572  1
  Te  Te27  1  0.258967  0.557807  0.298307  1
  Te  Te28  1  0.298238  0.257991  0.557103  1
  Te  Te29  1  0.557661  0.299629  0.256804  1
  Te  Te30  1  0.672692  0.079991  0.580677  1
  Te  Te31  1  0.588522  0.683826  0.089463  1
  Te  Te32  1  0.079444  0.578320  0.674912  1
  Te  Te33  1  0.326189  0.421463  0.921488  1
  Te  Te34  1  0.919132  0.321839  0.419807  1
  Te  Te35  1  0.434744  0.920623  0.325503  1
