# generated using pymatgen
data_Tm8Sc12Si15Sb
_symmetry_space_group_name_H-M   'P 1'
_cell_length_a   7.10894798
_cell_length_b   7.35457220
_cell_length_c   13.94231023
_cell_angle_alpha   90.08908491
_cell_angle_beta   88.87976666
_cell_angle_gamma   90.10286475
_symmetry_Int_Tables_number   1
_chemical_formula_structural   Tm8Sc12Si15Sb
_chemical_formula_sum   'Tm8 Sc12 Si15 Sb1'
_cell_volume   728.80824554
_cell_formula_units_Z   1
loop_
 _symmetry_equiv_pos_site_id
 _symmetry_equiv_pos_as_xyz
  1  'x, y, z'
loop_
 _atom_site_type_symbol
 _atom_site_label
 _atom_site_symmetry_multiplicity
 _atom_site_fract_x
 _atom_site_fract_y
 _atom_site_fract_z
 _atom_site_occupancy
  Tm  Tm0  1  0.011994  0.177361  0.096306  1
  Tm  Tm1  1  0.988017  0.823638  0.904261  1
  Tm  Tm2  1  0.488503  0.676469  0.904166  1
  Tm  Tm3  1  0.992120  0.828306  0.597399  1
  Tm  Tm4  1  0.511652  0.323783  0.096910  1
  Tm  Tm5  1  0.001808  0.172222  0.400616  1
  Tm  Tm6  1  0.509802  0.318842  0.399673  1
  Tm  Tm7  1  0.508076  0.684339  0.599914  1
  Sc  Sc8  1  0.164330  0.501518  0.753890  1
  Sc  Sc9  1  0.834845  0.497538  0.251581  1
  Sc  Sc10  1  0.335252  0.002942  0.250522  1
  Sc  Sc11  1  0.666047  0.997715  0.750892  1
  Sc  Sc12  1  0.346198  0.160587  0.630513  1
  Sc  Sc13  1  0.660330  0.826570  0.372795  1
  Sc  Sc14  1  0.156318  0.681738  0.370444  1
  Sc  Sc15  1  0.667691  0.823011  0.124191  1
  Sc  Sc16  1  0.829508  0.325564  0.625522  1
  Sc  Sc17  1  0.330821  0.176007  0.875343  1
  Sc  Sc18  1  0.832082  0.323126  0.875534  1
  Sc  Sc19  1  0.168367  0.676757  0.124808  1
  Si  Si20  1  0.035815  0.115801  0.750913  1
  Si  Si21  1  0.961815  0.887753  0.246710  1
  Si  Si22  1  0.461516  0.614175  0.247899  1
  Si  Si23  1  0.536147  0.386147  0.752494  1
  Si  Si24  1  0.288620  0.866307  0.752267  1
  Si  Si25  1  0.711662  0.129011  0.247213  1
  Si  Si26  1  0.210582  0.371527  0.249048  1
  Si  Si27  1  0.792083  0.630172  0.751563  1
  Si  Si28  1  0.814416  0.539496  0.457610  1
  Si  Si29  1  0.330915  0.964206  0.460278  1
  Si  Si30  1  0.841839  0.534147  0.039748  1
  Si  Si31  1  0.670433  0.037331  0.538740  1
  Si  Si32  1  0.157299  0.465776  0.960931  1
  Si  Si33  1  0.657042  0.034310  0.960100  1
  Si  Si34  1  0.341851  0.966572  0.040132  1
  Sb  Sb35  1  0.184201  0.459232  0.539076  1
