# generated using pymatgen
data_DyLu(ScSb5)2
_symmetry_space_group_name_H-M   'P 1'
_cell_length_a   4.19527500
_cell_length_b   13.00236669
_cell_length_c   14.15989686
_cell_angle_alpha   78.92133941
_cell_angle_beta   90.00000000
_cell_angle_gamma   90.00000000
_symmetry_Int_Tables_number   1
_chemical_formula_structural   DyLu(ScSb5)2
_chemical_formula_sum   'Dy2 Lu2 Sc4 Sb20'
_cell_volume   758.00695189
_cell_formula_units_Z   2
loop_
 _symmetry_equiv_pos_site_id
 _symmetry_equiv_pos_as_xyz
  1  'x, y, z'
loop_
 _atom_site_type_symbol
 _atom_site_label
 _atom_site_symmetry_multiplicity
 _atom_site_fract_x
 _atom_site_fract_y
 _atom_site_fract_z
 _atom_site_occupancy
  Dy  Dy0  1  0.250000  0.954029  0.354484  1
  Dy  Dy1  1  0.750000  0.045971  0.645516  1
  Lu  Lu2  1  0.250000  0.669075  0.576252  1
  Lu  Lu3  1  0.750000  0.330925  0.423748  1
  Sc  Sc4  1  0.250000  0.397108  0.772116  1
  Sc  Sc5  1  0.750000  0.602892  0.227884  1
  Sc  Sc6  1  0.250000  0.657298  0.858391  1
  Sc  Sc7  1  0.750000  0.342702  0.141609  1
  Sb  Sb8  1  0.250000  0.148236  0.780216  1
  Sb  Sb9  1  0.750000  0.851764  0.219784  1
  Sb  Sb10  1  0.250000  0.145434  0.482578  1
  Sb  Sb11  1  0.750000  0.854566  0.517422  1
  Sb  Sb12  1  0.250000  0.163409  0.160052  1
  Sb  Sb13  1  0.750000  0.836591  0.839948  1
  Sb  Sb14  1  0.250000  0.422248  0.975060  1
  Sb  Sb15  1  0.750000  0.577752  0.024940  1
  Sb  Sb16  1  0.750000  0.029106  0.914091  1
  Sb  Sb17  1  0.250000  0.970894  0.085909  1
  Sb  Sb18  1  0.750000  0.144463  0.315686  1
  Sb  Sb19  1  0.250000  0.855537  0.684314  1
  Sb  Sb20  1  0.750000  0.279780  0.936496  1
  Sb  Sb21  1  0.250000  0.720220  0.063504  1
  Sb  Sb22  1  0.750000  0.289675  0.658351  1
  Sb  Sb23  1  0.250000  0.710325  0.341649  1
  Sb  Sb24  1  0.750000  0.574854  0.738873  1
  Sb  Sb25  1  0.250000  0.425146  0.261127  1
  Sb  Sb26  1  0.750000  0.570202  0.444768  1
  Sb  Sb27  1  0.250000  0.429798  0.555232  1
