# generated using pymatgen
data_Ca2Sm2HgPb11
_symmetry_space_group_name_H-M   'P 1'
_cell_length_a   10.06485900
_cell_length_b   6.92922726
_cell_length_c   6.93185000
_cell_angle_alpha   89.65411771
_cell_angle_beta   90.00000000
_cell_angle_gamma   90.00000000
_symmetry_Int_Tables_number   1
_chemical_formula_structural   Ca2Sm2HgPb11
_chemical_formula_sum   'Ca2 Sm2 Hg1 Pb11'
_cell_volume   483.43016200
_cell_formula_units_Z   1
loop_
 _symmetry_equiv_pos_site_id
 _symmetry_equiv_pos_as_xyz
  1  'x, y, z'
loop_
 _atom_site_type_symbol
 _atom_site_label
 _atom_site_symmetry_multiplicity
 _atom_site_fract_x
 _atom_site_fract_y
 _atom_site_fract_z
 _atom_site_occupancy
  Ca  Ca0  1  0.750000  0.997144  0.999027  1
  Ca  Ca1  1  0.750000  0.506022  0.498967  1
  Sm  Sm2  1  0.250000  0.003071  0.001787  1
  Sm  Sm3  1  0.250000  0.500207  0.502553  1
  Hg  Hg4  1  0.750000  0.495820  0.997973  1
  Pb  Pb5  1  0.999921  0.246288  0.746500  1
  Pb  Pb6  1  0.500515  0.251837  0.248869  1
  Pb  Pb7  1  0.499216  0.750389  0.249821  1
  Pb  Pb8  1  0.000091  0.747054  0.753186  1
  Pb  Pb9  1  0.000784  0.750389  0.249821  1
  Pb  Pb10  1  0.499909  0.747054  0.753186  1
  Pb  Pb11  1  0.500079  0.246288  0.746500  1
  Pb  Pb12  1  0.999485  0.251837  0.248869  1
  Pb  Pb13  1  0.250000  0.998909  0.501292  1
  Pb  Pb14  1  0.250000  0.503154  0.002725  1
  Pb  Pb15  1  0.750000  0.004537  0.498921  1
