# generated using pymatgen
data_Ta4FeCu3Pt8
_symmetry_space_group_name_H-M   'P 1'
_cell_length_a   4.55341000
_cell_length_b   4.82094200
_cell_length_c   11.02031500
_cell_angle_alpha   90.00000000
_cell_angle_beta   90.00000000
_cell_angle_gamma   90.00000000
_symmetry_Int_Tables_number   1
_chemical_formula_structural   Ta4FeCu3Pt8
_chemical_formula_sum   'Ta4 Fe1 Cu3 Pt8'
_cell_volume   241.91492994
_cell_formula_units_Z   1
loop_
 _symmetry_equiv_pos_site_id
 _symmetry_equiv_pos_as_xyz
  1  'x, y, z'
loop_
 _atom_site_type_symbol
 _atom_site_label
 _atom_site_symmetry_multiplicity
 _atom_site_fract_x
 _atom_site_fract_y
 _atom_site_fract_z
 _atom_site_occupancy
  Ta  Ta0  1  0.500000  0.660395  0.255393  1
  Ta  Ta1  1  0.500000  0.660395  0.744607  1
  Ta  Ta2  1  0.000000  0.338786  0.000000  1
  Ta  Ta3  1  0.000000  0.343679  0.500000  1
  Fe  Fe4  1  0.500000  0.673830  0.500000  1
  Cu  Cu5  1  0.000000  0.325018  0.249467  1
  Cu  Cu6  1  0.000000  0.325018  0.750533  1
  Cu  Cu7  1  0.500000  0.672774  0.000000  1
  Pt  Pt8  1  0.500000  0.178096  0.375201  1
  Pt  Pt9  1  0.500000  0.179883  0.875339  1
  Pt  Pt10  1  0.500000  0.179883  0.124661  1
  Pt  Pt11  1  0.500000  0.178096  0.624799  1
  Pt  Pt12  1  0.000000  0.825539  0.375157  1
  Pt  Pt13  1  0.000000  0.816534  0.874182  1
  Pt  Pt14  1  0.000000  0.816534  0.125818  1
  Pt  Pt15  1  0.000000  0.825539  0.624843  1
