# generated using pymatgen
data_Ho8Si12Ir3Rh
_symmetry_space_group_name_H-M   'P 1'
_cell_length_a   8.15221600
_cell_length_b   8.15221637
_cell_length_c   7.87645700
_cell_angle_alpha   90.00000000
_cell_angle_beta   90.00000000
_cell_angle_gamma   120.00000662
_symmetry_Int_Tables_number   1
_chemical_formula_structural   Ho8Si12Ir3Rh
_chemical_formula_sum   'Ho8 Si12 Ir3 Rh1'
_cell_volume   453.32835565
_cell_formula_units_Z   1
loop_
 _symmetry_equiv_pos_site_id
 _symmetry_equiv_pos_as_xyz
  1  'x, y, z'
loop_
 _atom_site_type_symbol
 _atom_site_label
 _atom_site_symmetry_multiplicity
 _atom_site_fract_x
 _atom_site_fract_y
 _atom_site_fract_z
 _atom_site_occupancy
  Ho  Ho0  1  0.000000  0.000000  0.249106  1
  Ho  Ho1  1  0.000000  0.000000  0.750323  1
  Ho  Ho2  1  0.509750  0.490250  0.250094  1
  Ho  Ho3  1  0.509750  0.019501  0.250094  1
  Ho  Ho4  1  0.980499  0.490250  0.250094  1
  Ho  Ho5  1  0.490766  0.509234  0.749870  1
  Ho  Ho6  1  0.490766  0.981533  0.749870  1
  Ho  Ho7  1  0.018467  0.509234  0.749870  1
  Si  Si8  1  0.166794  0.833206  0.498954  1
  Si  Si9  1  0.166794  0.333587  0.498954  1
  Si  Si10  1  0.666413  0.833206  0.498954  1
  Si  Si11  1  0.833252  0.166748  0.500606  1
  Si  Si12  1  0.833252  0.666505  0.500606  1
  Si  Si13  1  0.333495  0.166748  0.500606  1
  Si  Si14  1  0.833323  0.166677  0.999359  1
  Si  Si15  1  0.833323  0.666646  0.999359  1
  Si  Si16  1  0.333354  0.166677  0.999359  1
  Si  Si17  1  0.167189  0.832811  0.000109  1
  Si  Si18  1  0.167189  0.334378  0.000109  1
  Si  Si19  1  0.665622  0.832811  0.000109  1
  Ir  Ir20  1  0.333333  0.666667  0.468176  1
  Ir  Ir21  1  0.666667  0.333333  0.533585  1
  Ir  Ir22  1  0.666667  0.333333  0.965524  1
  Rh  Rh23  1  0.333333  0.666667  0.036312  1
