# generated using pymatgen
data_Sc12Co4BiIr
_symmetry_space_group_name_H-M   'P 1'
_cell_length_a   7.75541562
_cell_length_b   7.75541574
_cell_length_c   7.75541541
_cell_angle_alpha   111.31407523
_cell_angle_beta   110.64651773
_cell_angle_gamma   106.49420941
_symmetry_Int_Tables_number   1
_chemical_formula_structural   Sc12Co4BiIr
_chemical_formula_sum   'Sc12 Co4 Bi1 Ir1'
_cell_volume   358.34661313
_cell_formula_units_Z   1
loop_
 _symmetry_equiv_pos_site_id
 _symmetry_equiv_pos_as_xyz
  1  'x, y, z'
loop_
 _atom_site_type_symbol
 _atom_site_label
 _atom_site_symmetry_multiplicity
 _atom_site_fract_x
 _atom_site_fract_y
 _atom_site_fract_z
 _atom_site_occupancy
  Sc  Sc0  1  0.423106  0.222025  0.201081  1
  Sc  Sc1  1  0.576894  0.777975  0.798919  1
  Sc  Sc2  1  0.020944  0.222025  0.798919  1
  Sc  Sc3  1  0.979056  0.777975  0.201081  1
  Sc  Sc4  1  0.317411  0.625540  0.308127  1
  Sc  Sc5  1  0.682589  0.374460  0.691873  1
  Sc  Sc6  1  0.317411  0.009283  0.691873  1
  Sc  Sc7  1  0.682589  0.990717  0.308127  1
  Sc  Sc8  1  0.182101  0.275470  0.457572  1
  Sc  Sc9  1  0.817899  0.724529  0.542428  1
  Sc  Sc10  1  0.182101  0.724529  0.906631  1
  Sc  Sc11  1  0.817899  0.275470  0.093369  1
  Co  Co12  1  0.352707  0.000000  0.352707  1
  Co  Co13  1  0.647293  0.000000  0.647293  1
  Co  Co14  1  0.118186  0.618186  0.500000  1
  Co  Co15  1  0.881814  0.381814  0.500000  1
  Bi  Bi16  1  0.500000  0.500000  0.000000  1
  Ir  Ir17  1  0.000000  0.000000  0.000000  1
