# generated using pymatgen
data_Ba8Li3Si12Hg
_symmetry_space_group_name_H-M   'P 1'
_cell_length_a   12.46561270
_cell_length_b   10.80090254
_cell_length_c   8.77473951
_cell_angle_alpha   78.35381195
_cell_angle_beta   57.98979860
_cell_angle_gamma   43.58453063
_symmetry_Int_Tables_number   1
_chemical_formula_structural   Ba8Li3Si12Hg
_chemical_formula_sum   'Ba8 Li3 Si12 Hg1'
_cell_volume   656.30401589
_cell_formula_units_Z   1
loop_
 _symmetry_equiv_pos_site_id
 _symmetry_equiv_pos_as_xyz
  1  'x, y, z'
loop_
 _atom_site_type_symbol
 _atom_site_label
 _atom_site_symmetry_multiplicity
 _atom_site_fract_x
 _atom_site_fract_y
 _atom_site_fract_z
 _atom_site_occupancy
  Ba  Ba0  1  0.873836  0.873835  0.126013  1
  Ba  Ba1  1  0.126013  0.126316  0.873836  1
  Ba  Ba2  1  0.372874  0.371132  0.127233  1
  Ba  Ba3  1  0.127233  0.128761  0.372874  1
  Ba  Ba4  1  0.625851  0.625865  0.374410  1
  Ba  Ba5  1  0.374410  0.373875  0.625851  1
  Ba  Ba6  1  0.627228  0.625840  0.872929  1
  Ba  Ba7  1  0.872929  0.874003  0.627228  1
  Li  Li8  1  0.832288  0.167712  0.832288  1
  Li  Li9  1  0.082561  0.417439  0.082561  1
  Li  Li10  1  0.417483  0.082517  0.417483  1
  Si  Si11  1  0.656664  0.334871  0.183047  1
  Si  Si12  1  0.813149  0.195361  0.341344  1
  Si  Si13  1  0.183047  0.825418  0.656664  1
  Si  Si14  1  0.341344  0.650147  0.813149  1
  Si  Si15  1  0.591642  0.908358  0.591642  1
  Si  Si16  1  0.908301  0.591699  0.908301  1
  Si  Si17  1  0.660927  0.339073  0.660927  1
  Si  Si18  1  0.344906  0.655094  0.344906  1
  Si  Si19  1  0.912154  0.594380  0.430107  1
  Si  Si20  1  0.063520  0.430854  0.593964  1
  Si  Si21  1  0.430107  0.063359  0.912154  1
  Si  Si22  1  0.593964  0.911663  0.063520  1
  Hg  Hg23  1  0.167571  0.832429  0.167571  1
