# generated using pymatgen
data_Dy8Tm4Co4SnRh
_symmetry_space_group_name_H-M   'P 1'
_cell_length_a   8.25615095
_cell_length_b   8.25614993
_cell_length_c   8.25615052
_cell_angle_alpha   110.98729129
_cell_angle_beta   110.65752540
_cell_angle_gamma   106.80155733
_symmetry_Int_Tables_number   1
_chemical_formula_structural   Dy8Tm4Co4SnRh
_chemical_formula_sum   'Dy8 Tm4 Co4 Sn1 Rh1'
_cell_volume   432.51738561
_cell_formula_units_Z   1
loop_
 _symmetry_equiv_pos_site_id
 _symmetry_equiv_pos_as_xyz
  1  'x, y, z'
loop_
 _atom_site_type_symbol
 _atom_site_label
 _atom_site_symmetry_multiplicity
 _atom_site_fract_x
 _atom_site_fract_y
 _atom_site_fract_z
 _atom_site_occupancy
  Dy  Dy0  1  0.410192  0.214771  0.195421  1
  Dy  Dy1  1  0.589808  0.785229  0.804579  1
  Dy  Dy2  1  0.019351  0.214771  0.804579  1
  Dy  Dy3  1  0.980649  0.785229  0.195421  1
  Dy  Dy4  1  0.185919  0.289599  0.475518  1
  Dy  Dy5  1  0.814081  0.710401  0.524482  1
  Dy  Dy6  1  0.185919  0.710401  0.896319  1
  Dy  Dy7  1  0.814081  0.289599  0.103681  1
  Tm  Tm8  1  0.315206  0.623260  0.308053  1
  Tm  Tm9  1  0.684794  0.376740  0.691947  1
  Tm  Tm10  1  0.315206  0.007153  0.691947  1
  Tm  Tm11  1  0.684794  0.992847  0.308053  1
  Co  Co12  1  0.376949  0.000000  0.376949  1
  Co  Co13  1  0.623051  0.000000  0.623051  1
  Co  Co14  1  0.112377  0.612377  0.500000  1
  Co  Co15  1  0.887623  0.387623  0.500000  1
  Sn  Sn16  1  0.500000  0.500000  0.000000  1
  Rh  Rh17  1  0.000000  0.000000  0.000000  1
