# generated using pymatgen
data_DyMn4CoP3
_symmetry_space_group_name_H-M   'P 1'
_cell_length_a   3.59297500
_cell_length_b   10.56688000
_cell_length_c   12.17990600
_cell_angle_alpha   90.00000000
_cell_angle_beta   90.00000000
_cell_angle_gamma   90.00000000
_symmetry_Int_Tables_number   1
_chemical_formula_structural   DyMn4CoP3
_chemical_formula_sum   'Dy4 Mn16 Co4 P12'
_cell_volume   462.42883558
_cell_formula_units_Z   4
loop_
 _symmetry_equiv_pos_site_id
 _symmetry_equiv_pos_as_xyz
  1  'x, y, z'
loop_
 _atom_site_type_symbol
 _atom_site_label
 _atom_site_symmetry_multiplicity
 _atom_site_fract_x
 _atom_site_fract_y
 _atom_site_fract_z
 _atom_site_occupancy
  Dy  Dy0  1  0.250000  0.584227  0.707972  1
  Dy  Dy1  1  0.250000  0.915773  0.207972  1
  Dy  Dy2  1  0.750000  0.415773  0.292028  1
  Dy  Dy3  1  0.750000  0.084227  0.792028  1
  Mn  Mn4  1  0.250000  0.712124  0.987155  1
  Mn  Mn5  1  0.250000  0.787876  0.487155  1
  Mn  Mn6  1  0.750000  0.287876  0.012845  1
  Mn  Mn7  1  0.750000  0.212124  0.512845  1
  Mn  Mn8  1  0.250000  0.407266  0.492681  1
  Mn  Mn9  1  0.250000  0.092734  0.992681  1
  Mn  Mn10  1  0.750000  0.592734  0.507319  1
  Mn  Mn11  1  0.750000  0.907266  0.007319  1
  Mn  Mn12  1  0.250000  0.216727  0.175975  1
  Mn  Mn13  1  0.250000  0.283273  0.675975  1
  Mn  Mn14  1  0.750000  0.783273  0.824025  1
  Mn  Mn15  1  0.750000  0.716727  0.324025  1
  Mn  Mn16  1  0.250000  0.878442  0.697411  1
  Mn  Mn17  1  0.250000  0.621558  0.197411  1
  Mn  Mn18  1  0.750000  0.121558  0.302589  1
  Mn  Mn19  1  0.750000  0.378442  0.802589  1
  Co  Co20  1  0.250000  0.464159  0.934028  1
  Co  Co21  1  0.250000  0.035841  0.434028  1
  Co  Co22  1  0.750000  0.535841  0.065972  1
  Co  Co23  1  0.750000  0.964159  0.565972  1
  P  P24  1  0.250000  0.420600  0.111851  1
  P  P25  1  0.250000  0.079400  0.611851  1
  P  P26  1  0.750000  0.579400  0.888149  1
  P  P27  1  0.750000  0.920600  0.388149  1
  P  P28  1  0.250000  0.266210  0.871966  1
  P  P29  1  0.250000  0.233790  0.371966  1
  P  P30  1  0.750000  0.733790  0.128034  1
  P  P31  1  0.750000  0.766210  0.628034  1
  P  P32  1  0.250000  0.592762  0.386264  1
  P  P33  1  0.250000  0.907238  0.886264  1
  P  P34  1  0.750000  0.407238  0.613736  1
  P  P35  1  0.750000  0.092762  0.113736  1
