# generated using pymatgen
data_Hf7ZrTa2(Si3N)2
_symmetry_space_group_name_H-M   'P 1'
_cell_length_a   7.79934002
_cell_length_b   7.78929022
_cell_length_c   5.48007202
_cell_angle_alpha   90.00435480
_cell_angle_beta   89.99130163
_cell_angle_gamma   120.04269743
_symmetry_Int_Tables_number   1
_chemical_formula_structural   Hf7ZrTa2(Si3N)2
_chemical_formula_sum   'Hf7 Zr1 Ta2 Si6 N2'
_cell_volume   288.19445269
_cell_formula_units_Z   1
loop_
 _symmetry_equiv_pos_site_id
 _symmetry_equiv_pos_as_xyz
  1  'x, y, z'
loop_
 _atom_site_type_symbol
 _atom_site_label
 _atom_site_symmetry_multiplicity
 _atom_site_fract_x
 _atom_site_fract_y
 _atom_site_fract_z
 _atom_site_occupancy
  Hf  Hf0  1  0.763698  0.000000  0.249936  1
  Hf  Hf1  1  0.000138  0.234981  0.750350  1
  Hf  Hf2  1  0.999387  0.764674  0.249429  1
  Hf  Hf3  1  0.765157  0.765019  0.750350  1
  Hf  Hf4  1  0.234714  0.235326  0.249429  1
  Hf  Hf5  1  0.333418  0.666266  0.499957  1
  Hf  Hf6  1  0.667153  0.333734  0.499957  1
  Zr  Zr7  1  0.238296  0.000000  0.749884  1
  Ta  Ta8  1  0.667336  0.333781  0.999982  1
  Ta  Ta9  1  0.333554  0.666219  0.999982  1
  Si  Si10  1  0.594289  0.000000  0.760903  1
  Si  Si11  1  0.407484  0.000000  0.239355  1
  Si  Si12  1  0.999651  0.591725  0.761182  1
  Si  Si13  1  0.000088  0.407498  0.239046  1
  Si  Si14  1  0.407926  0.408275  0.761182  1
  Si  Si15  1  0.592590  0.592502  0.239046  1
  N  N16  1  0.997662  0.000000  0.498228  1
  N  N17  1  0.997461  0.000000  0.001798  1
