# generated using pymatgen
data_Ti8V12Si15As
_symmetry_space_group_name_H-M   'P 1'
_cell_length_a   6.48489001
_cell_length_b   6.48673900
_cell_length_c   11.96643135
_cell_angle_alpha   89.90703033
_cell_angle_beta   89.99992249
_cell_angle_gamma   90.04596928
_symmetry_Int_Tables_number   1
_chemical_formula_structural   Ti8V12Si15As
_chemical_formula_sum   'Ti8 V12 Si15 As1'
_cell_volume   503.37655138
_cell_formula_units_Z   1
loop_
 _symmetry_equiv_pos_site_id
 _symmetry_equiv_pos_as_xyz
  1  'x, y, z'
loop_
 _atom_site_type_symbol
 _atom_site_label
 _atom_site_symmetry_multiplicity
 _atom_site_fract_x
 _atom_site_fract_y
 _atom_site_fract_z
 _atom_site_occupancy
  Ti  Ti0  1  0.002525  0.660506  0.028226  1
  Ti  Ti1  1  0.835902  0.503484  0.279690  1
  Ti  Ti2  1  0.161415  0.494259  0.778127  1
  Ti  Ti3  1  0.503673  0.837296  0.720340  1
  Ti  Ti4  1  0.499010  0.167208  0.223310  1
  Ti  Ti5  1  0.996665  0.337098  0.529776  1
  Ti  Ti6  1  0.664609  0.002805  0.969787  1
  Ti  Ti7  1  0.337412  0.996480  0.470735  1
  V  V8  1  0.333844  0.337692  0.999833  1
  V  V9  1  0.165151  0.835016  0.251164  1
  V  V10  1  0.834882  0.164873  0.749740  1
  V  V11  1  0.665103  0.665745  0.500065  1
  V  V12  1  0.001764  0.158474  0.129705  1
  V  V13  1  0.344808  0.506412  0.377829  1
  V  V14  1  0.657819  0.492922  0.877204  1
  V  V15  1  0.506044  0.344389  0.622279  1
  V  V16  1  0.494237  0.654430  0.121882  1
  V  V17  1  0.993965  0.844309  0.627568  1
  V  V18  1  0.156356  0.004326  0.871570  1
  V  V19  1  0.843917  0.994205  0.372649  1
  Si  Si20  1  0.538849  0.798785  0.314863  1
  Si  Si21  1  0.461271  0.201621  0.814215  1
  Si  Si22  1  0.798093  0.538882  0.684876  1
  Si  Si23  1  0.200369  0.462089  0.186115  1
  Si  Si24  1  0.701706  0.038994  0.564902  1
  Si  Si25  1  0.961235  0.297141  0.935121  1
  Si  Si26  1  0.038739  0.701350  0.435526  1
  Si  Si27  1  0.707425  0.368664  0.075446  1
  Si  Si28  1  0.131593  0.208554  0.326986  1
  Si  Si29  1  0.868236  0.791694  0.825282  1
  Si  Si30  1  0.207879  0.131365  0.673882  1
  Si  Si31  1  0.792948  0.866524  0.174802  1
  Si  Si32  1  0.292296  0.632194  0.575895  1
  Si  Si33  1  0.368996  0.702071  0.919603  1
  Si  Si34  1  0.632385  0.292844  0.424924  1
  As  As35  1  0.298876  0.965296  0.066082  1
