# generated using pymatgen
data_PuTcF7
_symmetry_space_group_name_H-M   'P 1'
_cell_length_a   5.66623400
_cell_length_b   9.09057133
_cell_length_c   12.23445800
_cell_angle_alpha   62.11492107
_cell_angle_beta   90.00000000
_cell_angle_gamma   90.00000000
_symmetry_Int_Tables_number   1
_chemical_formula_structural   PuTcF7
_chemical_formula_sum   'Pu4 Tc4 F28'
_cell_volume   557.01564227
_cell_formula_units_Z   4
loop_
 _symmetry_equiv_pos_site_id
 _symmetry_equiv_pos_as_xyz
  1  'x, y, z'
loop_
 _atom_site_type_symbol
 _atom_site_label
 _atom_site_symmetry_multiplicity
 _atom_site_fract_x
 _atom_site_fract_y
 _atom_site_fract_z
 _atom_site_occupancy
  Pu  Pu0  1  0.758057  0.809876  0.763437  1
  Pu  Pu1  1  0.258057  0.190124  0.736563  1
  Pu  Pu2  1  0.241943  0.190124  0.236563  1
  Pu  Pu3  1  0.741943  0.809876  0.263437  1
  Tc  Tc4  1  0.757487  0.272768  0.957829  1
  Tc  Tc5  1  0.257487  0.727232  0.542171  1
  Tc  Tc6  1  0.242513  0.727232  0.042171  1
  Tc  Tc7  1  0.742513  0.272768  0.457829  1
  F  F8  1  0.442013  0.709301  0.917298  1
  F  F9  1  0.942013  0.290699  0.582702  1
  F  F10  1  0.557987  0.290699  0.082702  1
  F  F11  1  0.057987  0.709301  0.417298  1
  F  F12  1  0.450534  0.281829  0.543142  1
  F  F13  1  0.950534  0.718171  0.956858  1
  F  F14  1  0.549466  0.718171  0.456858  1
  F  F15  1  0.049466  0.281829  0.043142  1
  F  F16  1  0.772874  0.516435  0.858928  1
  F  F17  1  0.272874  0.483565  0.641072  1
  F  F18  1  0.227126  0.483565  0.141072  1
  F  F19  1  0.727126  0.516435  0.358928  1
  F  F20  1  0.757357  0.027599  0.053291  1
  F  F21  1  0.257357  0.972401  0.446709  1
  F  F22  1  0.242643  0.972401  0.946709  1
  F  F23  1  0.742643  0.027599  0.553291  1
  F  F24  1  0.972523  0.731236  0.633353  1
  F  F25  1  0.472523  0.268764  0.866647  1
  F  F26  1  0.027477  0.268764  0.366647  1
  F  F27  1  0.527477  0.731236  0.133353  1
  F  F28  1  0.055383  0.740822  0.173754  1
  F  F29  1  0.555383  0.259178  0.326246  1
  F  F30  1  0.944617  0.259178  0.826246  1
  F  F31  1  0.444617  0.740822  0.673754  1
  F  F32  1  0.407334  0.962901  0.236267  1
  F  F33  1  0.907334  0.037099  0.263733  1
  F  F34  1  0.592666  0.037099  0.763733  1
  F  F35  1  0.092666  0.962901  0.736267  1
