# generated using pymatgen
data_Pr16Hg4PdRh3
_symmetry_space_group_name_H-M   'P 1'
_cell_length_a   10.01059859
_cell_length_b   10.02740630
_cell_length_c   10.02740700
_cell_angle_alpha   60.00000100
_cell_angle_beta   59.94444484
_cell_angle_gamma   59.94444077
_symmetry_Int_Tables_number   1
_chemical_formula_structural   Pr16Hg4PdRh3
_chemical_formula_sum   'Pr16 Hg4 Pd1 Rh3'
_cell_volume   711.14326228
_cell_formula_units_Z   1
loop_
 _symmetry_equiv_pos_site_id
 _symmetry_equiv_pos_as_xyz
  1  'x, y, z'
loop_
 _atom_site_type_symbol
 _atom_site_label
 _atom_site_symmetry_multiplicity
 _atom_site_fract_x
 _atom_site_fract_y
 _atom_site_fract_z
 _atom_site_occupancy
  Pr  Pr0  1  0.347232  0.352606  0.352606  1
  Pr  Pr1  1  0.347232  0.352606  0.947557  1
  Pr  Pr2  1  0.347232  0.947557  0.352606  1
  Pr  Pr3  1  0.953893  0.348703  0.348703  1
  Pr  Pr4  1  0.813934  0.190868  0.190868  1
  Pr  Pr5  1  0.190314  0.809997  0.809997  1
  Pr  Pr6  1  0.190314  0.809997  0.189691  1
  Pr  Pr7  1  0.813934  0.190868  0.804330  1
  Pr  Pr8  1  0.190314  0.189691  0.809997  1
  Pr  Pr9  1  0.813934  0.804330  0.190868  1
  Pr  Pr10  1  0.935101  0.563339  0.563339  1
  Pr  Pr11  1  0.560823  0.937418  0.937418  1
  Pr  Pr12  1  0.560823  0.937418  0.564341  1
  Pr  Pr13  1  0.935101  0.563339  0.938221  1
  Pr  Pr14  1  0.560823  0.564341  0.937418  1
  Pr  Pr15  1  0.935101  0.938221  0.563339  1
  Hg  Hg16  1  0.583214  0.582358  0.582358  1
  Hg  Hg17  1  0.583214  0.582358  0.252070  1
  Hg  Hg18  1  0.583214  0.252070  0.582358  1
  Hg  Hg19  1  0.250964  0.583011  0.583011  1
  Pd  Pd20  1  0.571463  0.142845  0.142845  1
  Rh  Rh21  1  0.143943  0.141969  0.141969  1
  Rh  Rh22  1  0.143943  0.141969  0.572120  1
  Rh  Rh23  1  0.143943  0.572120  0.141969  1
