# generated using pymatgen
data_Ta6Co15Si7Pt
_symmetry_space_group_name_H-M   'P 1'
_cell_length_a   7.94285962
_cell_length_b   7.94285954
_cell_length_c   7.94285907
_cell_angle_alpha   59.95133807
_cell_angle_beta   59.95133793
_cell_angle_gamma   59.95133943
_symmetry_Int_Tables_number   1
_chemical_formula_structural   Ta6Co15Si7Pt
_chemical_formula_sum   'Ta6 Co15 Si7 Pt1'
_cell_volume   353.94523526
_cell_formula_units_Z   1
loop_
 _symmetry_equiv_pos_site_id
 _symmetry_equiv_pos_as_xyz
  1  'x, y, z'
loop_
 _atom_site_type_symbol
 _atom_site_label
 _atom_site_symmetry_multiplicity
 _atom_site_fract_x
 _atom_site_fract_y
 _atom_site_fract_z
 _atom_site_occupancy
  Ta  Ta0  1  0.200273  0.797484  0.797484  1
  Ta  Ta1  1  0.198239  0.805753  0.198239  1
  Ta  Ta2  1  0.805753  0.198239  0.198239  1
  Ta  Ta3  1  0.797484  0.200273  0.797484  1
  Ta  Ta4  1  0.797484  0.797484  0.200273  1
  Ta  Ta5  1  0.198239  0.198239  0.805753  1
  Co  Co6  1  0.496125  0.835138  0.835138  1
  Co  Co7  1  0.620633  0.620633  0.143634  1
  Co  Co8  1  0.162197  0.162197  0.507170  1
  Co  Co9  1  0.835138  0.835138  0.496125  1
  Co  Co10  1  0.166506  0.166506  0.166506  1
  Co  Co11  1  0.833890  0.833890  0.833890  1
  Co  Co12  1  0.380917  0.380917  0.856975  1
  Co  Co13  1  0.835138  0.496125  0.835138  1
  Co  Co14  1  0.620071  0.620071  0.620071  1
  Co  Co15  1  0.380917  0.856975  0.380917  1
  Co  Co16  1  0.143634  0.620633  0.620633  1
  Co  Co17  1  0.620633  0.143634  0.620633  1
  Co  Co18  1  0.162197  0.507170  0.162197  1
  Co  Co19  1  0.856975  0.380917  0.380917  1
  Co  Co20  1  0.507170  0.162197  0.162197  1
  Si  Si21  1  0.999848  0.999848  0.499525  1
  Si  Si22  1  0.501531  0.988986  0.501531  1
  Si  Si23  1  0.506003  0.506003  0.506003  1
  Si  Si24  1  0.999848  0.499525  0.999848  1
  Si  Si25  1  0.501531  0.501531  0.988986  1
  Si  Si26  1  0.499525  0.999848  0.999848  1
  Si  Si27  1  0.988986  0.501531  0.501531  1
  Pt  Pt28  1  0.383114  0.383114  0.383114  1
