# generated using pymatgen
data_CaHo3Lu2(Si3Ru)8
_symmetry_space_group_name_H-M   'P 1'
_cell_length_a   10.11100118
_cell_length_b   10.11103853
_cell_length_c   8.12007700
_cell_angle_alpha   89.90987125
_cell_angle_beta   90.08981705
_cell_angle_gamma   132.63667765
_symmetry_Int_Tables_number   1
_chemical_formula_structural   CaHo3Lu2(Si3Ru)8
_chemical_formula_sum   'Ca1 Ho3 Lu2 Si24 Ru8'
_cell_volume   610.70113265
_cell_formula_units_Z   1
loop_
 _symmetry_equiv_pos_site_id
 _symmetry_equiv_pos_as_xyz
  1  'x, y, z'
loop_
 _atom_site_type_symbol
 _atom_site_label
 _atom_site_symmetry_multiplicity
 _atom_site_fract_x
 _atom_site_fract_y
 _atom_site_fract_z
 _atom_site_occupancy
  Ca  Ca0  1  0.501766  0.001770  0.749995  1
  Ho  Ho1  1  0.998805  0.498806  0.250000  1
  Ho  Ho2  1  0.497042  0.997042  0.249998  1
  Ho  Ho3  1  0.002729  0.502730  0.749999  1
  Lu  Lu4  1  0.500217  0.500390  0.500567  1
  Lu  Lu5  1  0.000397  0.000219  0.999442  1
  Si  Si6  1  0.794161  0.204589  0.499977  1
  Si  Si7  1  0.295004  0.705878  0.999047  1
  Si  Si8  1  0.205877  0.795003  0.500956  1
  Si  Si9  1  0.704584  0.294155  0.000018  1
  Si  Si10  1  0.332302  0.333744  0.832697  1
  Si  Si11  1  0.666724  0.669151  0.167280  1
  Si  Si12  1  0.169154  0.166727  0.332716  1
  Si  Si13  1  0.833742  0.832303  0.667303  1
  Si  Si14  1  0.119551  0.885386  0.728428  1
  Si  Si15  1  0.111488  0.878009  0.272180  1
  Si  Si16  1  0.611441  0.378382  0.228654  1
  Si  Si17  1  0.624539  0.390921  0.771416  1
  Si  Si18  1  0.878385  0.111445  0.271344  1
  Si  Si19  1  0.890925  0.124541  0.728586  1
  Si  Si20  1  0.385387  0.619548  0.771571  1
  Si  Si21  1  0.378009  0.611487  0.227819  1
  Si  Si22  1  0.345102  0.111760  0.501808  1
  Si  Si23  1  0.888225  0.655293  0.495371  1
  Si  Si24  1  0.387628  0.154107  0.007072  1
  Si  Si25  1  0.844267  0.612022  0.995332  1
  Si  Si26  1  0.654107  0.887628  0.492933  1
  Si  Si27  1  0.112016  0.344262  0.504667  1
  Si  Si28  1  0.611758  0.845100  0.998190  1
  Si  Si29  1  0.155292  0.388222  0.004624  1
  Ru  Ru30  1  0.670402  0.331919  0.498955  1
  Ru  Ru31  1  0.166738  0.829115  0.002108  1
  Ru  Ru32  1  0.329109  0.666741  0.497894  1
  Ru  Ru33  1  0.831924  0.170410  0.001049  1
  Ru  Ru34  1  0.127387  0.126781  0.627312  1
  Ru  Ru35  1  0.873273  0.873756  0.372991  1
  Ru  Ru36  1  0.373753  0.373271  0.127016  1
  Ru  Ru37  1  0.626785  0.627386  0.872686  1
