# generated using pymatgen
data_Sc22GaHgOs6
_symmetry_space_group_name_H-M   'P 1'
_cell_length_a   9.62406601
_cell_length_b   9.62406538
_cell_length_c   9.48627400
_cell_angle_alpha   60.47250243
_cell_angle_beta   60.47250454
_cell_angle_gamma   59.01251225
_symmetry_Int_Tables_number   1
_chemical_formula_structural   Sc22GaHgOs6
_chemical_formula_sum   'Sc22 Ga1 Hg1 Os6'
_cell_volume   620.82909582
_cell_formula_units_Z   1
loop_
 _symmetry_equiv_pos_site_id
 _symmetry_equiv_pos_as_xyz
  1  'x, y, z'
loop_
 _atom_site_type_symbol
 _atom_site_label
 _atom_site_symmetry_multiplicity
 _atom_site_fract_x
 _atom_site_fract_y
 _atom_site_fract_z
 _atom_site_occupancy
  Sc  Sc0  1  0.835552  0.835552  0.858269  1
  Sc  Sc1  1  0.529977  0.144299  0.162862  1
  Sc  Sc2  1  0.164448  0.164448  0.529371  1
  Sc  Sc3  1  0.144299  0.529977  0.162862  1
  Sc  Sc4  1  0.835552  0.835552  0.470629  1
  Sc  Sc5  1  0.855701  0.470023  0.837138  1
  Sc  Sc6  1  0.470023  0.855701  0.837138  1
  Sc  Sc7  1  0.164448  0.164448  0.141731  1
  Sc  Sc8  1  0.197002  0.802998  0.196421  1
  Sc  Sc9  1  0.197002  0.802998  0.803579  1
  Sc  Sc10  1  0.802998  0.197002  0.196421  1
  Sc  Sc11  1  0.802581  0.802581  0.197419  1
  Sc  Sc12  1  0.197419  0.197419  0.802581  1
  Sc  Sc13  1  0.802998  0.197002  0.803579  1
  Sc  Sc14  1  0.380106  0.380106  0.390140  1
  Sc  Sc15  1  0.152576  0.605958  0.620733  1
  Sc  Sc16  1  0.605958  0.152576  0.620733  1
  Sc  Sc17  1  0.619894  0.619894  0.150354  1
  Sc  Sc18  1  0.394042  0.847424  0.379267  1
  Sc  Sc19  1  0.380106  0.380106  0.849646  1
  Sc  Sc20  1  0.847424  0.394042  0.379267  1
  Sc  Sc21  1  0.619894  0.619894  0.609860  1
  Ga  Ga22  1  0.500000  0.500000  0.000000  1
  Hg  Hg23  1  0.000000  0.000000  0.500000  1
  Os  Os24  1  0.500000  0.000000  0.500000  1
  Os  Os25  1  0.000000  0.500000  0.500000  1
  Os  Os26  1  0.500000  0.000000  0.000000  1
  Os  Os27  1  0.000000  0.500000  0.000000  1
  Os  Os28  1  0.500000  0.500000  0.500000  1
  Os  Os29  1  0.000000  0.000000  0.000000  1
