# generated using pymatgen
data_Th2Ta3Co9As7
_symmetry_space_group_name_H-M   'P 1'
_cell_length_a   3.88764000
_cell_length_b   9.54498123
_cell_length_c   9.54498100
_cell_angle_alpha   119.99999667
_cell_angle_beta   90.00000000
_cell_angle_gamma   90.00000000
_symmetry_Int_Tables_number   1
_chemical_formula_structural   Th2Ta3Co9As7
_chemical_formula_sum   'Th2 Ta3 Co9 As7'
_cell_volume   306.73747278
_cell_formula_units_Z   1
loop_
 _symmetry_equiv_pos_site_id
 _symmetry_equiv_pos_as_xyz
  1  'x, y, z'
loop_
 _atom_site_type_symbol
 _atom_site_label
 _atom_site_symmetry_multiplicity
 _atom_site_fract_x
 _atom_site_fract_y
 _atom_site_fract_z
 _atom_site_occupancy
  Th  Th0  1  0.000000  0.666667  0.333333  1
  Th  Th1  1  0.500000  0.333333  0.666667  1
  Ta  Ta2  1  0.500000  0.778943  0.894048  1
  Ta  Ta3  1  0.500000  0.115105  0.221057  1
  Ta  Ta4  1  0.500000  0.105952  0.884895  1
  Co  Co5  1  0.000000  0.569688  0.930611  1
  Co  Co6  1  0.000000  0.360923  0.430312  1
  Co  Co7  1  0.000000  0.069389  0.639077  1
  Co  Co8  1  0.000000  0.872134  0.152660  1
  Co  Co9  1  0.000000  0.280528  0.127866  1
  Co  Co10  1  0.000000  0.847340  0.719472  1
  Co  Co11  1  0.500000  0.944145  0.378685  1
  Co  Co12  1  0.500000  0.434539  0.055855  1
  Co  Co13  1  0.500000  0.621315  0.565461  1
  As  As14  1  0.000000  0.000000  0.000000  1
  As  As15  1  0.500000  0.703894  0.112424  1
  As  As16  1  0.500000  0.408531  0.296106  1
  As  As17  1  0.500000  0.887576  0.591469  1
  As  As18  1  0.000000  0.588019  0.689145  1
  As  As19  1  0.000000  0.101126  0.411981  1
  As  As20  1  0.000000  0.310855  0.898874  1
