# generated using pymatgen
data_Tb3ZrAl15(GaRh2)3
_symmetry_space_group_name_H-M   'P 1'
_cell_length_a   7.52133167
_cell_length_b   7.51370422
_cell_length_c   9.51508300
_cell_angle_alpha   90.00000000
_cell_angle_beta   90.00000000
_cell_angle_gamma   119.61323106
_symmetry_Int_Tables_number   1
_chemical_formula_structural   Tb3ZrAl15(GaRh2)3
_chemical_formula_sum   'Tb3 Zr1 Al15 Ga3 Rh6'
_cell_volume   467.48909278
_cell_formula_units_Z   1
loop_
 _symmetry_equiv_pos_site_id
 _symmetry_equiv_pos_as_xyz
  1  'x, y, z'
loop_
 _atom_site_type_symbol
 _atom_site_label
 _atom_site_symmetry_multiplicity
 _atom_site_fract_x
 _atom_site_fract_y
 _atom_site_fract_z
 _atom_site_occupancy
  Tb  Tb0  1  0.006105  0.327494  0.750000  1
  Tb  Tb1  1  0.671123  0.997611  0.250000  1
  Tb  Tb2  1  0.329628  0.007641  0.750000  1
  Zr  Zr3  1  0.998557  0.671687  0.250000  1
  Al  Al4  1  0.124589  0.121673  0.250000  1
  Al  Al5  1  0.999763  0.338719  0.079099  1
  Al  Al6  1  0.997981  0.665454  0.931941  1
  Al  Al7  1  0.997981  0.665454  0.568059  1
  Al  Al8  1  0.332190  0.997370  0.420753  1
  Al  Al9  1  0.999763  0.338719  0.420901  1
  Al  Al10  1  0.664467  0.995874  0.573011  1
  Al  Al11  1  0.664467  0.995874  0.926989  1
  Al  Al12  1  0.332190  0.997370  0.079247  1
  Al  Al13  1  0.335024  0.335314  0.541115  1
  Al  Al14  1  0.670795  0.668185  0.435597  1
  Al  Al15  1  0.670795  0.668185  0.064403  1
  Al  Al16  1  0.335024  0.335314  0.958885  1
  Al  Al17  1  0.333894  0.550341  0.250000  1
  Al  Al18  1  0.556527  0.343134  0.250000  1
  Ga  Ga19  1  0.871449  0.869441  0.750000  1
  Ga  Ga20  1  0.659131  0.450732  0.750000  1
  Ga  Ga21  1  0.448308  0.656759  0.750000  1
  Rh  Rh22  1  0.672471  0.328436  0.003062  1
  Rh  Rh23  1  0.327992  0.672641  0.003692  1
  Rh  Rh24  1  0.327992  0.672641  0.496308  1
  Rh  Rh25  1  0.672471  0.328436  0.496938  1
  Rh  Rh26  1  0.999661  0.999751  0.003173  1
  Rh  Rh27  1  0.999661  0.999751  0.496827  1
