# generated using pymatgen
data_La3Tb2EuTa2O14
_symmetry_space_group_name_H-M   'P 1'
_cell_length_a   6.63805427
_cell_length_b   6.64044024
_cell_length_c   7.70624736
_cell_angle_alpha   90.13500418
_cell_angle_beta   90.07257421
_cell_angle_gamma   109.19221695
_symmetry_Int_Tables_number   1
_chemical_formula_structural   La3Tb2EuTa2O14
_chemical_formula_sum   'La3 Tb2 Eu1 Ta2 O14'
_cell_volume   320.80715682
_cell_formula_units_Z   1
loop_
 _symmetry_equiv_pos_site_id
 _symmetry_equiv_pos_as_xyz
  1  'x, y, z'
loop_
 _atom_site_type_symbol
 _atom_site_label
 _atom_site_symmetry_multiplicity
 _atom_site_fract_x
 _atom_site_fract_y
 _atom_site_fract_z
 _atom_site_occupancy
  La  La0  1  0.469674  0.000955  0.256118  1
  La  La1  1  0.999182  0.530626  0.247949  1
  La  La2  1  0.487560  0.489492  0.993871  1
  Tb  Tb3  1  0.535977  0.999523  0.752513  1
  Tb  Tb4  1  0.000289  0.464341  0.743583  1
  Eu  Eu5  1  0.513441  0.515747  0.504288  1
  Ta  Ta6  1  0.000745  0.999093  0.505008  1
  Ta  Ta7  1  0.001005  0.998922  0.994907  1
  O  O8  1  0.934640  0.065399  0.750145  1
  O  O9  1  0.643336  0.356562  0.745940  1
  O  O10  1  0.305140  0.052565  0.544702  1
  O  O11  1  0.945820  0.693609  0.955217  1
  O  O12  1  0.626475  0.373928  0.255741  1
  O  O13  1  0.930047  0.683537  0.534796  1
  O  O14  1  0.316680  0.068802  0.964879  1
  O  O15  1  0.076852  0.321941  0.016942  1
  O  O16  1  0.678441  0.922259  0.483235  1
  O  O17  1  0.366183  0.634393  0.745537  1
  O  O18  1  0.687030  0.935231  0.025043  1
  O  O19  1  0.062996  0.311523  0.474868  1
  O  O20  1  0.368196  0.631795  0.254820  1
  O  O21  1  0.050291  0.949758  0.249901  1
