# generated using pymatgen
data_PrNd3(B8Ru7)2
_symmetry_space_group_name_H-M   'P 1'
_cell_length_a   6.47133700
_cell_length_b   6.47367100
_cell_length_c   10.10333200
_cell_angle_alpha   90.00000000
_cell_angle_beta   90.00000000
_cell_angle_gamma   89.99651224
_symmetry_Int_Tables_number   1
_chemical_formula_structural   PrNd3(B8Ru7)2
_chemical_formula_sum   'Pr1 Nd3 B16 Ru14'
_cell_volume   423.26198545
_cell_formula_units_Z   1
loop_
 _symmetry_equiv_pos_site_id
 _symmetry_equiv_pos_as_xyz
  1  'x, y, z'
loop_
 _atom_site_type_symbol
 _atom_site_label
 _atom_site_symmetry_multiplicity
 _atom_site_fract_x
 _atom_site_fract_y
 _atom_site_fract_z
 _atom_site_occupancy
  Pr  Pr0  1  0.735516  0.878066  0.000000  1
  Nd  Nd1  1  0.122610  0.735761  0.500000  1
  Nd  Nd2  1  0.877387  0.264212  0.500000  1
  Nd  Nd3  1  0.264231  0.122817  0.000000  1
  B  B4  1  0.499994  0.000004  0.588947  1
  B  B5  1  0.499994  0.000004  0.411053  1
  B  B6  1  0.897457  0.275152  0.169304  1
  B  B7  1  0.102667  0.724824  0.830658  1
  B  B8  1  0.499995  0.500000  0.341079  1
  B  B9  1  0.499984  0.499984  0.841047  1
  B  B10  1  0.275157  0.102577  0.669228  1
  B  B11  1  0.102667  0.724824  0.169342  1
  B  B12  1  0.275157  0.102577  0.330772  1
  B  B13  1  0.897457  0.275152  0.830696  1
  B  B14  1  0.499995  0.500000  0.658921  1
  B  B15  1  0.499984  0.499984  0.158953  1
  B  B16  1  0.000010  0.499927  0.910984  1
  B  B17  1  0.724876  0.897423  0.669244  1
  B  B18  1  0.724876  0.897423  0.330756  1
  B  B19  1  0.000010  0.499927  0.089016  1
  Ru  Ru20  1  0.204129  0.399567  0.751893  1
  Ru  Ru21  1  0.399217  0.286757  0.500000  1
  Ru  Ru22  1  0.399420  0.795858  0.252032  1
  Ru  Ru23  1  0.204129  0.399567  0.248107  1
  Ru  Ru24  1  0.600753  0.713279  0.500000  1
  Ru  Ru25  1  0.600385  0.204237  0.747964  1
  Ru  Ru26  1  0.286628  0.600650  0.000000  1
  Ru  Ru27  1  0.713215  0.399004  0.000000  1
  Ru  Ru28  1  0.795968  0.600128  0.248373  1
  Ru  Ru29  1  0.795968  0.600128  0.751627  1
  Ru  Ru30  1  0.399420  0.795858  0.747968  1
  Ru  Ru31  1  0.000181  0.000047  0.250202  1
  Ru  Ru32  1  0.600385  0.204237  0.252036  1
  Ru  Ru33  1  0.000181  0.000047  0.749798  1
