# generated using pymatgen
data_Dy5Bi2Rh
_symmetry_space_group_name_H-M   'P 1'
_cell_length_a   8.03413600
_cell_length_b   9.01351500
_cell_length_c   12.46506400
_cell_angle_alpha   90.00000000
_cell_angle_beta   90.00000000
_cell_angle_gamma   90.00000000
_symmetry_Int_Tables_number   1
_chemical_formula_structural   Dy5Bi2Rh
_chemical_formula_sum   'Dy20 Bi8 Rh4'
_cell_volume   902.66764827
_cell_formula_units_Z   4
loop_
 _symmetry_equiv_pos_site_id
 _symmetry_equiv_pos_as_xyz
  1  'x, y, z'
loop_
 _atom_site_type_symbol
 _atom_site_label
 _atom_site_symmetry_multiplicity
 _atom_site_fract_x
 _atom_site_fract_y
 _atom_site_fract_z
 _atom_site_occupancy
  Dy  Dy0  1  0.841365  0.750000  0.793895  1
  Dy  Dy1  1  0.158635  0.250000  0.206105  1
  Dy  Dy2  1  0.341365  0.250000  0.706105  1
  Dy  Dy3  1  0.658635  0.750000  0.293895  1
  Dy  Dy4  1  0.374914  0.750000  0.693953  1
  Dy  Dy5  1  0.625086  0.250000  0.306047  1
  Dy  Dy6  1  0.874914  0.250000  0.806047  1
  Dy  Dy7  1  0.125086  0.750000  0.193953  1
  Dy  Dy8  1  0.953994  0.750000  0.501211  1
  Dy  Dy9  1  0.046006  0.250000  0.498789  1
  Dy  Dy10  1  0.453994  0.250000  0.998789  1
  Dy  Dy11  1  0.546006  0.750000  0.001211  1
  Dy  Dy12  1  0.677852  0.040723  0.565997  1
  Dy  Dy13  1  0.322148  0.959277  0.434003  1
  Dy  Dy14  1  0.177852  0.959277  0.934003  1
  Dy  Dy15  1  0.322148  0.540723  0.434003  1
  Dy  Dy16  1  0.822148  0.040723  0.065997  1
  Dy  Dy17  1  0.677852  0.459277  0.565997  1
  Dy  Dy18  1  0.822148  0.459277  0.065997  1
  Dy  Dy19  1  0.177852  0.540723  0.934003  1
  Bi  Bi20  1  0.569329  0.491670  0.826318  1
  Bi  Bi21  1  0.430671  0.508330  0.173682  1
  Bi  Bi22  1  0.069329  0.508330  0.673682  1
  Bi  Bi23  1  0.430671  0.991670  0.173682  1
  Bi  Bi24  1  0.930671  0.491670  0.326318  1
  Bi  Bi25  1  0.569329  0.008330  0.826318  1
  Bi  Bi26  1  0.930671  0.008330  0.326318  1
  Bi  Bi27  1  0.069329  0.991670  0.673682  1
  Rh  Rh28  1  0.570148  0.750000  0.510234  1
  Rh  Rh29  1  0.429852  0.250000  0.489766  1
  Rh  Rh30  1  0.070148  0.250000  0.989766  1
  Rh  Rh31  1  0.929852  0.750000  0.010234  1
