# generated using pymatgen
data_ErTm2Co8MoP6
_symmetry_space_group_name_H-M   'P 1'
_cell_length_a   3.70675600
_cell_length_b   10.53209000
_cell_length_c   12.20053800
_cell_angle_alpha   90.00000000
_cell_angle_beta   90.00000000
_cell_angle_gamma   90.00000000
_symmetry_Int_Tables_number   1
_chemical_formula_structural   ErTm2Co8MoP6
_chemical_formula_sum   'Er2 Tm4 Co16 Mo2 P12'
_cell_volume   476.30763462
_cell_formula_units_Z   2
loop_
 _symmetry_equiv_pos_site_id
 _symmetry_equiv_pos_as_xyz
  1  'x, y, z'
loop_
 _atom_site_type_symbol
 _atom_site_label
 _atom_site_symmetry_multiplicity
 _atom_site_fract_x
 _atom_site_fract_y
 _atom_site_fract_z
 _atom_site_occupancy
  Er  Er0  1  0.750000  0.250000  0.475115  1
  Er  Er1  1  0.250000  0.750000  0.524885  1
  Tm  Tm2  1  0.250000  0.930642  0.794994  1
  Tm  Tm3  1  0.250000  0.569358  0.794994  1
  Tm  Tm4  1  0.750000  0.069358  0.205006  1
  Tm  Tm5  1  0.750000  0.430642  0.205006  1
  Co  Co6  1  0.250000  0.250000  0.298580  1
  Co  Co7  1  0.750000  0.750000  0.701420  1
  Co  Co8  1  0.750000  0.250000  0.013798  1
  Co  Co9  1  0.250000  0.750000  0.986202  1
  Co  Co10  1  0.250000  0.417589  0.010182  1
  Co  Co11  1  0.250000  0.082411  0.010182  1
  Co  Co12  1  0.750000  0.582411  0.989818  1
  Co  Co13  1  0.750000  0.917589  0.989818  1
  Co  Co14  1  0.250000  0.453997  0.568475  1
  Co  Co15  1  0.250000  0.046003  0.568475  1
  Co  Co16  1  0.750000  0.546003  0.431525  1
  Co  Co17  1  0.750000  0.953997  0.431525  1
  Co  Co18  1  0.250000  0.872587  0.293488  1
  Co  Co19  1  0.250000  0.627413  0.293488  1
  Co  Co20  1  0.750000  0.127413  0.706512  1
  Co  Co21  1  0.750000  0.372587  0.706512  1
  Mo  Mo22  1  0.250000  0.250000  0.843070  1
  Mo  Mo23  1  0.750000  0.750000  0.156930  1
  P  P24  1  0.250000  0.250000  0.120129  1
  P  P25  1  0.750000  0.750000  0.879871  1
  P  P26  1  0.250000  0.250000  0.649586  1
  P  P27  1  0.750000  0.750000  0.350414  1
  P  P28  1  0.250000  0.437786  0.383479  1
  P  P29  1  0.250000  0.062214  0.383479  1
  P  P30  1  0.750000  0.562214  0.616521  1
  P  P31  1  0.750000  0.937786  0.616521  1
  P  P32  1  0.250000  0.905960  0.107746  1
  P  P33  1  0.250000  0.594040  0.107746  1
  P  P34  1  0.750000  0.094040  0.892254  1
  P  P35  1  0.750000  0.405960  0.892254  1
