# generated using pymatgen
data_Tm10Tl2In6Ir2PdPt
_symmetry_space_group_name_H-M   'P 1'
_cell_length_a   3.58478300
_cell_length_b   8.07778673
_cell_length_c   18.03322900
_cell_angle_alpha   90.02436447
_cell_angle_beta   90.00000000
_cell_angle_gamma   90.00000000
_symmetry_Int_Tables_number   1
_chemical_formula_structural   Tm10Tl2In6Ir2PdPt
_chemical_formula_sum   'Tm10 Tl2 In6 Ir2 Pd1 Pt1'
_cell_volume   522.19019455
_cell_formula_units_Z   1
loop_
 _symmetry_equiv_pos_site_id
 _symmetry_equiv_pos_as_xyz
  1  'x, y, z'
loop_
 _atom_site_type_symbol
 _atom_site_label
 _atom_site_symmetry_multiplicity
 _atom_site_fract_x
 _atom_site_fract_y
 _atom_site_fract_z
 _atom_site_occupancy
  Tm  Tm0  1  0.000000  0.500442  0.500186  1
  Tm  Tm1  1  0.000000  0.999898  0.000031  1
  Tm  Tm2  1  0.000000  0.728882  0.278639  1
  Tm  Tm3  1  0.000000  0.266353  0.721563  1
  Tm  Tm4  1  0.000000  0.752390  0.778230  1
  Tm  Tm5  1  0.000000  0.251576  0.220499  1
  Tm  Tm6  1  0.000000  0.614391  0.087514  1
  Tm  Tm7  1  0.000000  0.386339  0.911915  1
  Tm  Tm8  1  0.000000  0.884766  0.586363  1
  Tm  Tm9  1  0.000000  0.115418  0.414876  1
  Tl  Tl10  1  0.500000  0.710360  0.933622  1
  Tl  Tl11  1  0.500000  0.289767  0.066211  1
  In  In12  1  0.500000  0.790949  0.432712  1
  In  In13  1  0.500000  0.209367  0.566427  1
  In  In14  1  0.500000  0.575610  0.647871  1
  In  In15  1  0.500000  0.421945  0.352193  1
  In  In16  1  0.500000  0.922132  0.149952  1
  In  In17  1  0.500000  0.078463  0.851315  1
  Ir  Ir18  1  0.500000  0.522100  0.197088  1
  Ir  Ir19  1  0.500000  0.478415  0.802593  1
  Pd  Pd20  1  0.500000  0.018889  0.303831  1
  Pt  Pt21  1  0.500000  0.981547  0.696371  1
