# generated using pymatgen
data_Tb4ReB12Ru
_symmetry_space_group_name_H-M   'P 1'
_cell_length_a   3.69212500
_cell_length_b   9.19371814
_cell_length_c   11.58261088
_cell_angle_alpha   90.22770919
_cell_angle_beta   90.00000000
_cell_angle_gamma   90.00000000
_symmetry_Int_Tables_number   1
_chemical_formula_structural   Tb4ReB12Ru
_chemical_formula_sum   'Tb8 Re2 B24 Ru2'
_cell_volume   393.16116904
_cell_formula_units_Z   2
loop_
 _symmetry_equiv_pos_site_id
 _symmetry_equiv_pos_as_xyz
  1  'x, y, z'
loop_
 _atom_site_type_symbol
 _atom_site_label
 _atom_site_symmetry_multiplicity
 _atom_site_fract_x
 _atom_site_fract_y
 _atom_site_fract_z
 _atom_site_occupancy
  Tb  Tb0  1  0.000000  0.322029  0.412434  1
  Tb  Tb1  1  0.000000  0.677971  0.587566  1
  Tb  Tb2  1  0.000000  0.825391  0.084734  1
  Tb  Tb3  1  0.000000  0.174609  0.915266  1
  Tb  Tb4  1  0.000000  0.943150  0.370355  1
  Tb  Tb5  1  0.000000  0.056850  0.629645  1
  Tb  Tb6  1  0.000000  0.443317  0.129505  1
  Tb  Tb7  1  0.000000  0.556683  0.870495  1
  Re  Re8  1  0.000000  0.138902  0.179440  1
  Re  Re9  1  0.000000  0.861098  0.820560  1
  B  B10  1  0.500000  0.554273  0.432688  1
  B  B11  1  0.500000  0.445727  0.567312  1
  B  B12  1  0.500000  0.053552  0.067016  1
  B  B13  1  0.500000  0.946448  0.932984  1
  B  B14  1  0.500000  0.748304  0.418830  1
  B  B15  1  0.500000  0.251696  0.581170  1
  B  B16  1  0.500000  0.248584  0.081066  1
  B  B17  1  0.500000  0.751416  0.918934  1
  B  B18  1  0.500000  0.790672  0.266391  1
  B  B19  1  0.500000  0.209328  0.733609  1
  B  B20  1  0.500000  0.291729  0.234229  1
  B  B21  1  0.500000  0.708271  0.765771  1
  B  B22  1  0.500000  0.631882  0.186646  1
  B  B23  1  0.500000  0.368118  0.813354  1
  B  B24  1  0.500000  0.132205  0.314243  1
  B  B25  1  0.500000  0.867795  0.685757  1
  B  B26  1  0.500000  0.984160  0.212205  1
  B  B27  1  0.500000  0.015840  0.787795  1
  B  B28  1  0.500000  0.484643  0.288236  1
  B  B29  1  0.500000  0.515357  0.711764  1
  B  B30  1  0.500000  0.604420  0.029065  1
  B  B31  1  0.500000  0.395580  0.970935  1
  B  B32  1  0.500000  0.105096  0.470965  1
  B  B33  1  0.500000  0.894904  0.529035  1
  Ru  Ru34  1  0.000000  0.638190  0.321804  1
  Ru  Ru35  1  0.000000  0.361810  0.678196  1
