# generated using pymatgen
data_SrCe3(NiH6)2
_symmetry_space_group_name_H-M   'P 1'
_cell_length_a   7.33562711
_cell_length_b   7.33562877
_cell_length_c   5.26442400
_cell_angle_alpha   89.99011957
_cell_angle_beta   89.99011176
_cell_angle_gamma   137.97808482
_symmetry_Int_Tables_number   1
_chemical_formula_structural   SrCe3(NiH6)2
_chemical_formula_sum   'Sr1 Ce3 Ni2 H12'
_cell_volume   189.63596871
_cell_formula_units_Z   1
loop_
 _symmetry_equiv_pos_site_id
 _symmetry_equiv_pos_as_xyz
  1  'x, y, z'
loop_
 _atom_site_type_symbol
 _atom_site_label
 _atom_site_symmetry_multiplicity
 _atom_site_fract_x
 _atom_site_fract_y
 _atom_site_fract_z
 _atom_site_occupancy
  Sr  Sr0  1  0.142467  0.857533  0.500000  1
  Ce  Ce1  1  0.636801  0.363199  0.000000  1
  Ce  Ce2  1  0.361919  0.638081  0.000000  1
  Ce  Ce3  1  0.861874  0.138126  0.500000  1
  Ni  Ni4  1  0.998954  0.001046  0.000000  1
  Ni  Ni5  1  0.497302  0.502698  0.500000  1
  H  H6  1  0.881328  0.118672  0.000000  1
  H  H7  1  0.118392  0.881608  0.000000  1
  H  H8  1  0.617647  0.382353  0.500000  1
  H  H9  1  0.377949  0.622051  0.500000  1
  H  H10  1  0.993310  0.483788  0.237773  1
  H  H11  1  0.993193  0.484142  0.762441  1
  H  H12  1  0.516212  0.006690  0.762227  1
  H  H13  1  0.515858  0.006807  0.237559  1
  H  H14  1  0.252539  0.259089  0.242321  1
  H  H15  1  0.740911  0.747461  0.757679  1
  H  H16  1  0.255587  0.262247  0.755214  1
  H  H17  1  0.737753  0.744413  0.244786  1
