# generated using pymatgen
data_TbTm3NiAg
_symmetry_space_group_name_H-M   'P 1'
_cell_length_a   9.36595442
_cell_length_b   9.36595497
_cell_length_c   9.36595400
_cell_angle_alpha   59.99999635
_cell_angle_beta   59.99999441
_cell_angle_gamma   59.99999821
_symmetry_Int_Tables_number   1
_chemical_formula_structural   TbTm3NiAg
_chemical_formula_sum   'Tb4 Tm12 Ni4 Ag4'
_cell_volume   580.95312413
_cell_formula_units_Z   4
loop_
 _symmetry_equiv_pos_site_id
 _symmetry_equiv_pos_as_xyz
  1  'x, y, z'
loop_
 _atom_site_type_symbol
 _atom_site_label
 _atom_site_symmetry_multiplicity
 _atom_site_fract_x
 _atom_site_fract_y
 _atom_site_fract_z
 _atom_site_occupancy
  Tb  Tb0  1  0.351837  0.351837  0.351837  1
  Tb  Tb1  1  0.351837  0.351837  0.944490  1
  Tb  Tb2  1  0.351837  0.944490  0.351837  1
  Tb  Tb3  1  0.944490  0.351837  0.351837  1
  Tm  Tm4  1  0.812501  0.187499  0.187499  1
  Tm  Tm5  1  0.187499  0.812501  0.812501  1
  Tm  Tm6  1  0.187499  0.812501  0.187499  1
  Tm  Tm7  1  0.812501  0.187499  0.812501  1
  Tm  Tm8  1  0.187499  0.187499  0.812501  1
  Tm  Tm9  1  0.812501  0.812501  0.187499  1
  Tm  Tm10  1  0.934904  0.565096  0.565096  1
  Tm  Tm11  1  0.565096  0.934904  0.934904  1
  Tm  Tm12  1  0.565096  0.934904  0.565096  1
  Tm  Tm13  1  0.934904  0.565096  0.934904  1
  Tm  Tm14  1  0.565096  0.565096  0.934904  1
  Tm  Tm15  1  0.934904  0.934904  0.565096  1
  Ni  Ni16  1  0.141903  0.141903  0.141903  1
  Ni  Ni17  1  0.141903  0.141903  0.574293  1
  Ni  Ni18  1  0.141903  0.574293  0.141903  1
  Ni  Ni19  1  0.574293  0.141903  0.141903  1
  Ag  Ag20  1  0.582782  0.582782  0.582782  1
  Ag  Ag21  1  0.582782  0.582782  0.251655  1
  Ag  Ag22  1  0.582782  0.251655  0.582782  1
  Ag  Ag23  1  0.251655  0.582782  0.582782  1
