# generated using pymatgen
data_Cs12Na3LiSi15Ge
_symmetry_space_group_name_H-M   'P 1'
_cell_length_a   8.19786100
_cell_length_b   10.77627182
_cell_length_c   13.39652600
_cell_angle_alpha   90.59066984
_cell_angle_beta   90.54403693
_cell_angle_gamma   89.79462862
_symmetry_Int_Tables_number   1
_chemical_formula_structural   Cs12Na3LiSi15Ge
_chemical_formula_sum   'Cs12 Na3 Li1 Si15 Ge1'
_cell_volume   1183.35753982
_cell_formula_units_Z   1
loop_
 _symmetry_equiv_pos_site_id
 _symmetry_equiv_pos_as_xyz
  1  'x, y, z'
loop_
 _atom_site_type_symbol
 _atom_site_label
 _atom_site_symmetry_multiplicity
 _atom_site_fract_x
 _atom_site_fract_y
 _atom_site_fract_z
 _atom_site_occupancy
  Cs  Cs0  1  0.647141  0.264538  0.393422  1
  Cs  Cs1  1  0.149432  0.247379  0.104623  1
  Cs  Cs2  1  0.350653  0.734851  0.605089  1
  Cs  Cs3  1  0.851265  0.752862  0.896522  1
  Cs  Cs4  1  0.662272  0.431520  0.690038  1
  Cs  Cs5  1  0.163107  0.064744  0.807387  1
  Cs  Cs6  1  0.339214  0.944701  0.313814  1
  Cs  Cs7  1  0.841478  0.559180  0.192596  1
  Cs  Cs8  1  0.336553  0.567688  0.309616  1
  Cs  Cs9  1  0.837356  0.937417  0.193738  1
  Cs  Cs10  1  0.656435  0.052806  0.688048  1
  Cs  Cs11  1  0.160158  0.441652  0.806782  1
  Na  Na12  1  0.501391  0.499723  0.000951  1
  Na  Na13  1  0.998559  0.999771  0.501003  1
  Na  Na14  1  0.500867  0.000775  0.001684  1
  Li  Li15  1  0.999084  0.500265  0.500164  1
  Si  Si16  1  0.855699  0.737714  0.593222  1
  Si  Si17  1  0.659793  0.248115  0.087089  1
  Si  Si18  1  0.142449  0.261091  0.406065  1
  Si  Si19  1  0.729977  0.620864  0.455418  1
  Si  Si20  1  0.211767  0.863620  0.052528  1
  Si  Si21  1  0.279955  0.157745  0.546309  1
  Si  Si22  1  0.791818  0.357845  0.950829  1
  Si  Si23  1  0.017720  0.262599  0.573002  1
  Si  Si24  1  0.535177  0.248941  0.918011  1
  Si  Si25  1  0.979475  0.737368  0.426051  1
  Si  Si26  1  0.467643  0.751478  0.084286  1
  Si  Si27  1  0.211061  0.642524  0.049128  1
  Si  Si28  1  0.717451  0.841926  0.453649  1
  Si  Si29  1  0.790012  0.136249  0.948697  1
  Si  Si30  1  0.267524  0.378703  0.543657  1
  Ge  Ge31  1  0.347511  0.753348  0.906585  1
