# generated using pymatgen
data_Rb2U2S5
_symmetry_space_group_name_H-M   'P 1'
_cell_length_a   4.01357801
_cell_length_b   8.52969212
_cell_length_c   10.63756591
_cell_angle_alpha   128.43980648
_cell_angle_beta   84.45847357
_cell_angle_gamma   101.16749231
_symmetry_Int_Tables_number   1
_chemical_formula_structural   Rb2U2S5
_chemical_formula_sum   'Rb2 U2 S5'
_cell_volume   279.70677340
_cell_formula_units_Z   1
loop_
 _symmetry_equiv_pos_site_id
 _symmetry_equiv_pos_as_xyz
  1  'x, y, z'
loop_
 _atom_site_type_symbol
 _atom_site_label
 _atom_site_symmetry_multiplicity
 _atom_site_fract_x
 _atom_site_fract_y
 _atom_site_fract_z
 _atom_site_occupancy
  Rb  Rb0  1  0.631811  0.658296  0.847388  1
  Rb  Rb1  1  0.069165  0.293066  0.094614  1
  U  U2  1  0.684313  0.105594  0.381604  1
  U  U3  1  0.026509  0.849577  0.557724  1
  S  S4  1  0.853464  0.478912  0.472978  1
  S  S5  1  0.165679  0.203891  0.595078  1
  S  S6  1  0.545173  0.749445  0.343007  1
  S  S7  1  0.186978  0.977098  0.168681  1
  S  S8  1  0.525115  0.982689  0.770551  1
