# generated using pymatgen
data_InSnRh6C
_symmetry_space_group_name_H-M   'P 1'
_cell_length_a   5.71363880
_cell_length_b   5.71363934
_cell_length_c   5.71363800
_cell_angle_alpha   59.99999619
_cell_angle_beta   59.99999304
_cell_angle_gamma   60.00000185
_symmetry_Int_Tables_number   1
_chemical_formula_structural   InSnRh6C
_chemical_formula_sum   'In1 Sn1 Rh6 C1'
_cell_volume   131.89347151
_cell_formula_units_Z   1
loop_
 _symmetry_equiv_pos_site_id
 _symmetry_equiv_pos_as_xyz
  1  'x, y, z'
loop_
 _atom_site_type_symbol
 _atom_site_label
 _atom_site_symmetry_multiplicity
 _atom_site_fract_x
 _atom_site_fract_y
 _atom_site_fract_z
 _atom_site_occupancy
  In  In0  1  0.750000  0.750000  0.750000  1
  Sn  Sn1  1  0.250000  0.250000  0.250000  1
  Rh  Rh2  1  0.753478  0.753478  0.246522  1
  Rh  Rh3  1  0.753478  0.246522  0.246522  1
  Rh  Rh4  1  0.246522  0.753478  0.246522  1
  Rh  Rh5  1  0.246522  0.246522  0.753478  1
  Rh  Rh6  1  0.753478  0.246522  0.753478  1
  Rh  Rh7  1  0.246522  0.753478  0.753478  1
  C  C8  1  0.500000  0.500000  0.500000  1
