# generated using pymatgen
data_Er4Al2CdHgPt4
_symmetry_space_group_name_H-M   'P 1'
_cell_length_a   4.26523900
_cell_length_b   6.97955571
_cell_length_c   8.29608292
_cell_angle_alpha   92.65679739
_cell_angle_beta   90.00000000
_cell_angle_gamma   90.00000000
_symmetry_Int_Tables_number   1
_chemical_formula_structural   Er4Al2CdHgPt4
_chemical_formula_sum   'Er4 Al2 Cd1 Hg1 Pt4'
_cell_volume   246.70455300
_cell_formula_units_Z   1
loop_
 _symmetry_equiv_pos_site_id
 _symmetry_equiv_pos_as_xyz
  1  'x, y, z'
loop_
 _atom_site_type_symbol
 _atom_site_label
 _atom_site_symmetry_multiplicity
 _atom_site_fract_x
 _atom_site_fract_y
 _atom_site_fract_z
 _atom_site_occupancy
  Er  Er0  1  0.250000  0.457153  0.184176  1
  Er  Er1  1  0.750000  0.538807  0.814264  1
  Er  Er2  1  0.750000  0.040419  0.678103  1
  Er  Er3  1  0.250000  0.959665  0.322673  1
  Al  Al4  1  0.750000  0.637614  0.443925  1
  Al  Al5  1  0.250000  0.364037  0.555416  1
  Cd  Cd6  1  0.250000  0.859417  0.937982  1
  Hg  Hg7  1  0.750000  0.143244  0.063688  1
  Pt  Pt8  1  0.250000  0.735511  0.604893  1
  Pt  Pt9  1  0.750000  0.266173  0.398967  1
  Pt  Pt10  1  0.750000  0.731867  0.148067  1
  Pt  Pt11  1  0.250000  0.266093  0.847845  1
