# generated using pymatgen
data_Li(AcPd)2
_symmetry_space_group_name_H-M   'P 1'
_cell_length_a   4.46165900
_cell_length_b   4.46165922
_cell_length_c   15.73742600
_cell_angle_alpha   90.00000000
_cell_angle_beta   90.00000000
_cell_angle_gamma   120.00000580
_symmetry_Int_Tables_number   1
_chemical_formula_structural   Li(AcPd)2
_chemical_formula_sum   'Li2 Ac4 Pd4'
_cell_volume   271.30455019
_cell_formula_units_Z   2
loop_
 _symmetry_equiv_pos_site_id
 _symmetry_equiv_pos_as_xyz
  1  'x, y, z'
loop_
 _atom_site_type_symbol
 _atom_site_label
 _atom_site_symmetry_multiplicity
 _atom_site_fract_x
 _atom_site_fract_y
 _atom_site_fract_z
 _atom_site_occupancy
  Li  Li0  1  0.000000  0.000000  0.250000  1
  Li  Li1  1  0.000000  0.000000  0.750000  1
  Ac  Ac2  1  0.333333  0.666667  0.388503  1
  Ac  Ac3  1  0.666667  0.333333  0.611497  1
  Ac  Ac4  1  0.666667  0.333333  0.888503  1
  Ac  Ac5  1  0.333333  0.666667  0.111497  1
  Pd  Pd6  1  0.000000  0.000000  0.500000  1
  Pd  Pd7  1  0.000000  0.000000  0.000000  1
  Pd  Pd8  1  0.333333  0.666667  0.750000  1
  Pd  Pd9  1  0.666667  0.333333  0.250000  1
