# generated using pymatgen
data_La20Si15Ag
_symmetry_space_group_name_H-M   'P 1'
_cell_length_a   8.04527928
_cell_length_b   8.04473714
_cell_length_c   15.65024937
_cell_angle_alpha   90.10439634
_cell_angle_beta   89.62508297
_cell_angle_gamma   89.90525912
_symmetry_Int_Tables_number   1
_chemical_formula_structural   La20Si15Ag
_chemical_formula_sum   'La20 Si15 Ag1'
_cell_volume   1012.89312521
_cell_formula_units_Z   1
loop_
 _symmetry_equiv_pos_site_id
 _symmetry_equiv_pos_as_xyz
  1  'x, y, z'
loop_
 _atom_site_type_symbol
 _atom_site_label
 _atom_site_symmetry_multiplicity
 _atom_site_fract_x
 _atom_site_fract_y
 _atom_site_fract_z
 _atom_site_occupancy
  La  La0  1  0.378500  0.476960  0.373085  1
  La  La1  1  0.866640  0.029770  0.371706  1
  La  La2  1  0.978145  0.126518  0.123679  1
  La  La3  1  0.023270  0.875586  0.624445  1
  La  La4  1  0.626967  0.520462  0.873313  1
  La  La5  1  0.480802  0.374260  0.627935  1
  La  La6  1  0.520169  0.624640  0.126135  1
  La  La7  1  0.124637  0.979702  0.877918  1
  La  La8  1  0.990549  0.618928  0.054427  1
  La  La9  1  0.008430  0.369979  0.556161  1
  La  La10  1  0.620110  0.987804  0.946551  1
  La  La11  1  0.119704  0.509612  0.803917  1
  La  La12  1  0.870557  0.479216  0.296987  1
  La  La13  1  0.510775  0.120382  0.195925  1
  La  La14  1  0.492917  0.880576  0.697237  1
  La  La15  1  0.386186  0.018290  0.448302  1
  La  La16  1  0.687008  0.695954  0.499190  1
  La  La17  1  0.807978  0.190624  0.750104  1
  La  La18  1  0.190121  0.806558  0.249111  1
  La  La19  1  0.305584  0.308051  0.000051  1
  Si  Si20  1  0.919266  0.288840  0.940073  1
  Si  Si21  1  0.713611  0.080595  0.559944  1
  Si  Si22  1  0.212182  0.420362  0.191286  1
  Si  Si23  1  0.790498  0.580397  0.689867  1
  Si  Si24  1  0.418663  0.211573  0.810359  1
  Si  Si25  1  0.578762  0.788777  0.308724  1
  Si  Si26  1  0.289163  0.919940  0.059265  1
  Si  Si27  1  0.829833  0.805594  0.794953  1
  Si  Si28  1  0.171199  0.195469  0.295417  1
  Si  Si29  1  0.804403  0.828402  0.203748  1
  Si  Si30  1  0.315620  0.673031  0.550195  1
  Si  Si31  1  0.694952  0.329907  0.044538  1
  Si  Si32  1  0.670650  0.307717  0.457088  1
  Si  Si33  1  0.329614  0.693958  0.955014  1
  Si  Si34  1  0.195160  0.170583  0.704686  1
  Ag  Ag35  1  0.077374  0.710980  0.438663  1
