# generated using pymatgen
data_Dy3Al12(OsRh)2
_symmetry_space_group_name_H-M   'P 1'
_cell_length_a   8.76992800
_cell_length_b   8.83825601
_cell_length_c   9.55786800
_cell_angle_alpha   90.00000000
_cell_angle_beta   90.00000000
_cell_angle_gamma   119.74458298
_symmetry_Int_Tables_number   1
_chemical_formula_structural   Dy3Al12(OsRh)2
_chemical_formula_sum   'Dy6 Al24 Os4 Rh4'
_cell_volume   643.22999368
_cell_formula_units_Z   2
loop_
 _symmetry_equiv_pos_site_id
 _symmetry_equiv_pos_as_xyz
  1  'x, y, z'
loop_
 _atom_site_type_symbol
 _atom_site_label
 _atom_site_symmetry_multiplicity
 _atom_site_fract_x
 _atom_site_fract_y
 _atom_site_fract_z
 _atom_site_occupancy
  Dy  Dy0  1  0.191271  0.382542  0.250000  1
  Dy  Dy1  1  0.808729  0.617458  0.750000  1
  Dy  Dy2  1  0.613762  0.812252  0.250000  1
  Dy  Dy3  1  0.386238  0.187748  0.750000  1
  Dy  Dy4  1  0.198489  0.812252  0.250000  1
  Dy  Dy5  1  0.801511  0.187748  0.750000  1
  Al  Al6  1  0.333706  0.667412  0.023624  1
  Al  Al7  1  0.666294  0.332588  0.976376  1
  Al  Al8  1  0.666294  0.332588  0.523624  1
  Al  Al9  1  0.333706  0.667412  0.476376  1
  Al  Al10  1  0.162856  0.325714  0.577631  1
  Al  Al11  1  0.837144  0.674286  0.422369  1
  Al  Al12  1  0.672299  0.836742  0.576992  1
  Al  Al13  1  0.837144  0.674286  0.077631  1
  Al  Al14  1  0.327701  0.163258  0.423008  1
  Al  Al15  1  0.162856  0.325714  0.922369  1
  Al  Al16  1  0.164442  0.836742  0.576992  1
  Al  Al17  1  0.327701  0.163258  0.076992  1
  Al  Al18  1  0.835558  0.163258  0.423008  1
  Al  Al19  1  0.672299  0.836742  0.923008  1
  Al  Al20  1  0.835558  0.163258  0.076992  1
  Al  Al21  1  0.164442  0.836742  0.923008  1
  Al  Al22  1  0.563203  0.126406  0.250000  1
  Al  Al23  1  0.436797  0.873594  0.750000  1
  Al  Al24  1  0.877996  0.439714  0.250000  1
  Al  Al25  1  0.122004  0.560286  0.750000  1
  Al  Al26  1  0.561718  0.439714  0.250000  1
  Al  Al27  1  0.438282  0.560286  0.750000  1
  Al  Al28  1  0.001309  0.002617  0.250000  1
  Al  Al29  1  0.998691  0.997383  0.750000  1
  Os  Os30  1  0.500000  0.000000  0.000000  1
  Os  Os31  1  0.500000  0.000000  0.500000  1
  Os  Os32  1  0.000000  0.000000  0.000000  1
  Os  Os33  1  0.000000  0.000000  0.500000  1
  Rh  Rh34  1  0.000000  0.500000  0.000000  1
  Rh  Rh35  1  0.500000  0.500000  0.000000  1
  Rh  Rh36  1  0.000000  0.500000  0.500000  1
  Rh  Rh37  1  0.500000  0.500000  0.500000  1
