# generated using pymatgen
data_Dy20Ge2IrRu9
_symmetry_space_group_name_H-M   'P 1'
_cell_length_a   10.89366256
_cell_length_b   10.89364734
_cell_length_c   6.39788137
_cell_angle_alpha   89.76509390
_cell_angle_beta   89.76527771
_cell_angle_gamma   89.39130691
_symmetry_Int_Tables_number   1
_chemical_formula_structural   Dy20Ge2IrRu9
_chemical_formula_sum   'Dy20 Ge2 Ir1 Ru9'
_cell_volume   759.19211170
_cell_formula_units_Z   1
loop_
 _symmetry_equiv_pos_site_id
 _symmetry_equiv_pos_as_xyz
  1  'x, y, z'
loop_
 _atom_site_type_symbol
 _atom_site_label
 _atom_site_symmetry_multiplicity
 _atom_site_fract_x
 _atom_site_fract_y
 _atom_site_fract_z
 _atom_site_occupancy
  Dy  Dy0  1  0.290188  0.086838  0.377728  1
  Dy  Dy1  1  0.293046  0.913138  0.879484  1
  Dy  Dy2  1  0.703585  0.076491  0.867450  1
  Dy  Dy3  1  0.705718  0.907978  0.378351  1
  Dy  Dy4  1  0.587130  0.790812  0.878152  1
  Dy  Dy5  1  0.576649  0.202793  0.367275  1
  Dy  Dy6  1  0.412729  0.793553  0.379900  1
  Dy  Dy7  1  0.407862  0.206064  0.878776  1
  Dy  Dy8  1  0.209186  0.412869  0.621853  1
  Dy  Dy9  1  0.206447  0.587273  0.120099  1
  Dy  Dy10  1  0.797206  0.423352  0.132724  1
  Dy  Dy11  1  0.793935  0.592138  0.621221  1
  Dy  Dy12  1  0.913161  0.709813  0.122273  1
  Dy  Dy13  1  0.923510  0.296415  0.632550  1
  Dy  Dy14  1  0.086862  0.706954  0.620514  1
  Dy  Dy15  1  0.092020  0.294282  0.121644  1
  Dy  Dy16  1  0.002655  0.997061  0.501317  1
  Dy  Dy17  1  0.002940  0.997346  0.998682  1
  Dy  Dy18  1  0.498095  0.502074  0.001057  1
  Dy  Dy19  1  0.497926  0.501906  0.498944  1
  Ge  Ge20  1  0.842357  0.157644  0.249999  1
  Ge  Ge21  1  0.658569  0.341431  0.749999  1
  Ir  Ir22  1  0.345773  0.654227  0.749999  1
  Ru  Ru23  1  0.849133  0.849217  0.750061  1
  Ru  Ru24  1  0.150786  0.150869  0.749937  1
  Ru  Ru25  1  0.153679  0.846320  0.250002  1
  Ru  Ru26  1  0.649291  0.650302  0.250212  1
  Ru  Ru27  1  0.349695  0.350706  0.249796  1
  Ru  Ru28  1  0.498843  0.999044  0.122921  1
  Ru  Ru29  1  0.499481  0.999410  0.622985  1
  Ru  Ru30  1  0.000588  0.500524  0.877017  1
  Ru  Ru31  1  0.000957  0.501156  0.377077  1
