# generated using pymatgen
data_Zr3SiMo2P2Ru
_symmetry_space_group_name_H-M   'P 1'
_cell_length_a   6.91046427
_cell_length_b   6.84691414
_cell_length_c   3.54379800
_cell_angle_alpha   90.00000000
_cell_angle_beta   90.00000000
_cell_angle_gamma   119.69625087
_symmetry_Int_Tables_number   1
_chemical_formula_structural   Zr3SiMo2P2Ru
_chemical_formula_sum   'Zr3 Si1 Mo2 P2 Ru1'
_cell_volume   145.65414778
_cell_formula_units_Z   1
loop_
 _symmetry_equiv_pos_site_id
 _symmetry_equiv_pos_as_xyz
  1  'x, y, z'
loop_
 _atom_site_type_symbol
 _atom_site_label
 _atom_site_symmetry_multiplicity
 _atom_site_fract_x
 _atom_site_fract_y
 _atom_site_fract_z
 _atom_site_occupancy
  Zr  Zr0  1  0.411393  0.407209  0.500000  1
  Zr  Zr1  1  0.588607  0.995816  0.500000  1
  Zr  Zr2  1  0.000000  0.592489  0.500000  1
  Si  Si3  1  0.000000  0.008300  0.500000  1
  Mo  Mo4  1  0.252135  0.999884  0.000000  1
  Mo  Mo5  1  0.747865  0.747748  0.000000  1
  P  P6  1  0.668311  0.332017  0.000000  1
  P  P7  1  0.331689  0.663708  0.000000  1
  Ru  Ru8  1  0.000000  0.252829  0.000000  1
