# generated using pymatgen
data_Ce6Dy3Tm(SiB4)4
_symmetry_space_group_name_H-M   'P 1'
_cell_length_a   7.29649807
_cell_length_b   7.29714815
_cell_length_c   8.23061200
_cell_angle_alpha   90.00000000
_cell_angle_beta   90.00000000
_cell_angle_gamma   90.08304003
_symmetry_Int_Tables_number   1
_chemical_formula_structural   Ce6Dy3Tm(SiB4)4
_chemical_formula_sum   'Ce6 Dy3 Tm1 Si4 B16'
_cell_volume   438.22717826
_cell_formula_units_Z   1
loop_
 _symmetry_equiv_pos_site_id
 _symmetry_equiv_pos_as_xyz
  1  'x, y, z'
loop_
 _atom_site_type_symbol
 _atom_site_label
 _atom_site_symmetry_multiplicity
 _atom_site_fract_x
 _atom_site_fract_y
 _atom_site_fract_z
 _atom_site_occupancy
  Ce  Ce0  1  0.682499  0.182626  0.227695  1
  Ce  Ce1  1  0.317197  0.817762  0.772251  1
  Ce  Ce2  1  0.317197  0.817762  0.227749  1
  Ce  Ce3  1  0.818411  0.681677  0.227683  1
  Ce  Ce4  1  0.818411  0.681677  0.772317  1
  Ce  Ce5  1  0.682499  0.182626  0.772305  1
  Dy  Dy6  1  0.181139  0.318672  0.780425  1
  Dy  Dy7  1  0.181139  0.318672  0.219575  1
  Dy  Dy8  1  0.499217  0.498216  0.500000  1
  Tm  Tm9  1  0.001919  0.001159  0.500000  1
  Si  Si10  1  0.115987  0.614687  0.500000  1
  Si  Si11  1  0.887093  0.382342  0.500000  1
  Si  Si12  1  0.381378  0.116669  0.500000  1
  Si  Si13  1  0.614879  0.886699  0.500000  1
  B  B14  1  0.173472  0.039345  0.000000  1
  B  B15  1  0.827868  0.962113  0.000000  1
  B  B16  1  0.960803  0.173004  0.000000  1
  B  B17  1  0.326959  0.539251  0.000000  1
  B  B18  1  0.039916  0.827899  0.000000  1
  B  B19  1  0.672094  0.460065  0.000000  1
  B  B20  1  0.537937  0.672117  0.000000  1
  B  B21  1  0.460599  0.326499  0.000000  1
  B  B22  1  0.091593  0.590909  0.000000  1
  B  B23  1  0.909036  0.408460  0.000000  1
  B  B24  1  0.409426  0.090649  0.000000  1
  B  B25  1  0.590796  0.909131  0.000000  1
  B  B26  1  0.000657  0.000326  0.160112  1
  B  B27  1  0.000657  0.000326  0.839888  1
  B  B28  1  0.499611  0.499330  0.840443  1
  B  B29  1  0.499611  0.499330  0.159557  1
