# generated using pymatgen
data_La8Si12IrPd3
_symmetry_space_group_name_H-M   'P 1'
_cell_length_a   8.33892000
_cell_length_b   8.33891445
_cell_length_c   8.74366300
_cell_angle_alpha   90.00021655
_cell_angle_beta   89.99942297
_cell_angle_gamma   120.00741644
_symmetry_Int_Tables_number   1
_chemical_formula_structural   La8Si12IrPd3
_chemical_formula_sum   'La8 Si12 Ir1 Pd3'
_cell_volume   526.51519273
_cell_formula_units_Z   1
loop_
 _symmetry_equiv_pos_site_id
 _symmetry_equiv_pos_as_xyz
  1  'x, y, z'
loop_
 _atom_site_type_symbol
 _atom_site_label
 _atom_site_symmetry_multiplicity
 _atom_site_fract_x
 _atom_site_fract_y
 _atom_site_fract_z
 _atom_site_occupancy
  La  La0  1  0.996767  0.498351  0.752448  1
  La  La1  1  0.995037  0.497548  0.247812  1
  La  La2  1  0.501623  0.003200  0.752452  1
  La  La3  1  0.502479  0.004985  0.247814  1
  La  La4  1  0.999978  0.000018  0.749331  1
  La  La5  1  0.999963  0.000035  0.250496  1
  La  La6  1  0.501827  0.498181  0.752610  1
  La  La7  1  0.502678  0.497343  0.247588  1
  Si  Si8  1  0.833192  0.166809  0.000669  1
  Si  Si9  1  0.164384  0.835614  0.999393  1
  Si  Si10  1  0.333476  0.166645  0.000722  1
  Si  Si11  1  0.164870  0.835129  0.500627  1
  Si  Si12  1  0.671108  0.835688  0.999356  1
  Si  Si13  1  0.835844  0.164156  0.499210  1
  Si  Si14  1  0.833354  0.666523  0.000723  1
  Si  Si15  1  0.670127  0.835091  0.500688  1
  Si  Si16  1  0.164312  0.328892  0.999354  1
  Si  Si17  1  0.328391  0.164153  0.499167  1
  Si  Si18  1  0.164910  0.329873  0.500688  1
  Si  Si19  1  0.835847  0.671608  0.499166  1
  Ir  Ir20  1  0.666690  0.333310  0.997973  1
  Pd  Pd21  1  0.333121  0.666873  0.001744  1
  Pd  Pd22  1  0.333177  0.666821  0.498868  1
  Pd  Pd23  1  0.666845  0.333153  0.501101  1
