# generated using pymatgen
data_Th2Fe9P7W3
_symmetry_space_group_name_H-M   'P 1'
_cell_length_a   9.20857400
_cell_length_b   9.20857485
_cell_length_c   3.75791900
_cell_angle_alpha   90.00000000
_cell_angle_beta   90.00000000
_cell_angle_gamma   119.99999694
_symmetry_Int_Tables_number   1
_chemical_formula_structural   Th2Fe9P7W3
_chemical_formula_sum   'Th2 Fe9 P7 W3'
_cell_volume   275.97062999
_cell_formula_units_Z   1
loop_
 _symmetry_equiv_pos_site_id
 _symmetry_equiv_pos_as_xyz
  1  'x, y, z'
loop_
 _atom_site_type_symbol
 _atom_site_label
 _atom_site_symmetry_multiplicity
 _atom_site_fract_x
 _atom_site_fract_y
 _atom_site_fract_z
 _atom_site_occupancy
  Th  Th0  1  0.333333  0.666667  0.000000  1
  Th  Th1  1  0.000000  0.000000  0.500000  1
  Fe  Fe2  1  0.035909  0.272901  0.000000  1
  Fe  Fe3  1  0.727099  0.763007  0.000000  1
  Fe  Fe4  1  0.236993  0.964091  0.000000  1
  Fe  Fe5  1  0.545580  0.060664  0.000000  1
  Fe  Fe6  1  0.939336  0.484917  0.000000  1
  Fe  Fe7  1  0.515083  0.454420  0.000000  1
  Fe  Fe8  1  0.613056  0.895602  0.500000  1
  Fe  Fe9  1  0.104398  0.717453  0.500000  1
  Fe  Fe10  1  0.282547  0.386944  0.500000  1
  P  P11  1  0.766804  0.025392  0.000000  1
  P  P12  1  0.974608  0.741411  0.000000  1
  P  P13  1  0.258589  0.233196  0.000000  1
  P  P14  1  0.375277  0.930329  0.500000  1
  P  P15  1  0.069671  0.444949  0.500000  1
  P  P16  1  0.555051  0.624723  0.500000  1
  P  P17  1  0.666667  0.333333  0.000000  1
  W  W18  1  0.779126  0.226662  0.500000  1
  W  W19  1  0.773338  0.552464  0.500000  1
  W  W20  1  0.447536  0.220874  0.500000  1
