# generated using pymatgen
data_CeNd7BePd24
_symmetry_space_group_name_H-M   'P 1'
_cell_length_a   8.44688778
_cell_length_b   8.44688678
_cell_length_c   8.44688665
_cell_angle_alpha   89.90751104
_cell_angle_beta   90.09248471
_cell_angle_gamma   90.09249323
_symmetry_Int_Tables_number   1
_chemical_formula_structural   CeNd7BePd24
_chemical_formula_sum   'Ce1 Nd7 Be1 Pd24'
_cell_volume   602.68220490
_cell_formula_units_Z   1
loop_
 _symmetry_equiv_pos_site_id
 _symmetry_equiv_pos_as_xyz
  1  'x, y, z'
loop_
 _atom_site_type_symbol
 _atom_site_label
 _atom_site_symmetry_multiplicity
 _atom_site_fract_x
 _atom_site_fract_y
 _atom_site_fract_z
 _atom_site_occupancy
  Ce  Ce0  1  0.746318  0.253682  0.253682  1
  Nd  Nd1  1  0.249871  0.251303  0.251303  1
  Nd  Nd2  1  0.749171  0.749140  0.749140  1
  Nd  Nd3  1  0.748697  0.750129  0.251303  1
  Nd  Nd4  1  0.748697  0.251303  0.750129  1
  Nd  Nd5  1  0.250860  0.250829  0.749140  1
  Nd  Nd6  1  0.250860  0.749140  0.250829  1
  Nd  Nd7  1  0.251952  0.748048  0.748048  1
  Be  Be8  1  0.002335  0.997665  0.997665  1
  Pd  Pd9  1  0.254739  0.499174  0.000020  1
  Pd  Pd10  1  0.744981  0.496601  0.005070  1
  Pd  Pd11  1  0.994930  0.255019  0.496601  1
  Pd  Pd12  1  0.503399  0.255019  0.005070  1
  Pd  Pd13  1  0.999980  0.745261  0.499174  1
  Pd  Pd14  1  0.500826  0.745261  0.000020  1
  Pd  Pd15  1  0.503399  0.005070  0.255019  1
  Pd  Pd16  1  0.254739  0.000020  0.499174  1
  Pd  Pd17  1  0.500826  0.000020  0.745261  1
  Pd  Pd18  1  0.744981  0.005070  0.496601  1
  Pd  Pd19  1  0.994930  0.496601  0.255019  1
  Pd  Pd20  1  0.999980  0.499174  0.745261  1
  Pd  Pd21  1  0.251340  0.499343  0.499343  1
  Pd  Pd22  1  0.748130  0.496849  0.496849  1
  Pd  Pd23  1  0.503151  0.251870  0.496849  1
  Pd  Pd24  1  0.500657  0.748660  0.499343  1
  Pd  Pd25  1  0.503151  0.496849  0.251870  1
  Pd  Pd26  1  0.500657  0.499343  0.748660  1
  Pd  Pd27  1  0.270694  0.999524  0.999524  1
  Pd  Pd28  1  0.732794  0.004000  0.004000  1
  Pd  Pd29  1  0.996000  0.267206  0.004000  1
  Pd  Pd30  1  0.000476  0.729306  0.999524  1
  Pd  Pd31  1  0.996000  0.004000  0.267206  1
  Pd  Pd32  1  0.000476  0.999524  0.729306  1
