# generated using pymatgen
data_TmPaTeN2
_symmetry_space_group_name_H-M   'P 1'
_cell_length_a   6.80385275
_cell_length_b   6.80385365
_cell_length_c   6.80385400
_cell_angle_alpha   146.74212772
_cell_angle_beta   146.74213928
_cell_angle_gamma   47.74574072
_symmetry_Int_Tables_number   1
_chemical_formula_structural   TmPaTeN2
_chemical_formula_sum   'Tm1 Pa1 Te1 N2'
_cell_volume   94.34911810
_cell_formula_units_Z   1
loop_
 _symmetry_equiv_pos_site_id
 _symmetry_equiv_pos_as_xyz
  1  'x, y, z'
loop_
 _atom_site_type_symbol
 _atom_site_label
 _atom_site_symmetry_multiplicity
 _atom_site_fract_x
 _atom_site_fract_y
 _atom_site_fract_z
 _atom_site_occupancy
  Tm  Tm0  1  0.338355  0.338355  0.000000  1
  Pa  Pa1  1  0.667205  0.667205  0.000000  1
  Te  Te2  1  0.001336  0.001336  0.000000  1
  N  N3  1  0.746552  0.246552  0.500000  1
  N  N4  1  0.246552  0.746552  0.500000  1
