# generated using pymatgen
data_Tb2Co6Si3Ge
_symmetry_space_group_name_H-M   'P 1'
_cell_length_a   6.30988646
_cell_length_b   6.30017965
_cell_length_c   6.30988705
_cell_angle_alpha   130.63165328
_cell_angle_beta   113.03373022
_cell_angle_gamma   87.61989400
_symmetry_Int_Tables_number   1
_chemical_formula_structural   Tb2Co6Si3Ge
_chemical_formula_sum   'Tb2 Co6 Si3 Ge1'
_cell_volume   166.82064218
_cell_formula_units_Z   1
loop_
 _symmetry_equiv_pos_site_id
 _symmetry_equiv_pos_as_xyz
  1  'x, y, z'
loop_
 _atom_site_type_symbol
 _atom_site_label
 _atom_site_symmetry_multiplicity
 _atom_site_fract_x
 _atom_site_fract_y
 _atom_site_fract_z
 _atom_site_occupancy
  Tb  Tb0  1  0.251387  0.533590  0.282202  1
  Tb  Tb1  1  0.748560  0.470759  0.722198  1
  Co  Co2  1  0.992025  0.999704  0.488125  1
  Co  Co3  1  0.511578  0.999704  0.007679  1
  Co  Co4  1  0.719466  0.001579  0.722763  1
  Co  Co5  1  0.229805  0.496051  0.727639  1
  Co  Co6  1  0.278816  0.001579  0.282113  1
  Co  Co7  1  0.768412  0.496051  0.266245  1
  Si  Si8  1  0.922475  0.134504  0.212028  1
  Si  Si9  1  0.578563  0.786447  0.207883  1
  Si  Si10  1  0.414727  0.205782  0.791056  1
  Ge  Ge11  1  0.084185  0.874251  0.790066  1
