# generated using pymatgen
data_Ho6Zn21Pd2Se
_symmetry_space_group_name_H-M   'P 1'
_cell_length_a   9.03029572
_cell_length_b   8.98733561
_cell_length_c   9.03029700
_cell_angle_alpha   60.15724640
_cell_angle_beta   59.75246780
_cell_angle_gamma   60.15724585
_symmetry_Int_Tables_number   1
_chemical_formula_structural   Ho6Zn21Pd2Se
_chemical_formula_sum   'Ho6 Zn21 Pd2 Se1'
_cell_volume   518.47193749
_cell_formula_units_Z   1
loop_
 _symmetry_equiv_pos_site_id
 _symmetry_equiv_pos_as_xyz
  1  'x, y, z'
loop_
 _atom_site_type_symbol
 _atom_site_label
 _atom_site_symmetry_multiplicity
 _atom_site_fract_x
 _atom_site_fract_y
 _atom_site_fract_z
 _atom_site_occupancy
  Ho  Ho0  1  0.717412  0.281501  0.282588  1
  Ho  Ho1  1  0.717003  0.282997  0.717003  1
  Ho  Ho2  1  0.717412  0.718499  0.282588  1
  Ho  Ho3  1  0.282588  0.718499  0.717412  1
  Ho  Ho4  1  0.282997  0.717003  0.282997  1
  Ho  Ho5  1  0.282588  0.281501  0.717412  1
  Zn  Zn6  1  0.629868  0.122199  0.125736  1
  Zn  Zn7  1  0.123594  0.631079  0.123594  1
  Zn  Zn8  1  0.125736  0.122199  0.629868  1
  Zn  Zn9  1  0.123594  0.121732  0.123594  1
  Zn  Zn10  1  0.370132  0.877801  0.874264  1
  Zn  Zn11  1  0.876406  0.368921  0.876406  1
  Zn  Zn12  1  0.874264  0.877801  0.370132  1
  Zn  Zn13  1  0.876406  0.878268  0.876406  1
  Zn  Zn14  1  0.500000  0.000000  0.000000  1
  Zn  Zn15  1  0.500000  0.500000  0.000000  1
  Zn  Zn16  1  0.000000  0.500000  0.500000  1
  Zn  Zn17  1  0.000000  0.500000  0.000000  1
  Zn  Zn18  1  0.000000  0.000000  0.500000  1
  Zn  Zn19  1  0.008163  0.331137  0.329560  1
  Zn  Zn20  1  0.329016  0.011202  0.329016  1
  Zn  Zn21  1  0.329560  0.331137  0.008163  1
  Zn  Zn22  1  0.329016  0.330764  0.329016  1
  Zn  Zn23  1  0.991837  0.668863  0.670440  1
  Zn  Zn24  1  0.670984  0.988798  0.670984  1
  Zn  Zn25  1  0.670440  0.668863  0.991837  1
  Zn  Zn26  1  0.670984  0.669236  0.670984  1
  Pd  Pd27  1  0.500000  0.000000  0.500000  1
  Pd  Pd28  1  0.000000  0.000000  0.000000  1
  Se  Se29  1  0.500000  0.500000  0.500000  1
