# generated using pymatgen
data_CaPr6TcBr12
_symmetry_space_group_name_H-M   'P 1'
_cell_length_a   9.67014844
_cell_length_b   9.68240128
_cell_length_c   9.67375811
_cell_angle_alpha   107.20218644
_cell_angle_beta   107.01183047
_cell_angle_gamma   107.11068693
_symmetry_Int_Tables_number   1
_chemical_formula_structural   CaPr6TcBr12
_chemical_formula_sum   'Ca1 Pr6 Tc1 Br12'
_cell_volume   752.08278258
_cell_formula_units_Z   1
loop_
 _symmetry_equiv_pos_site_id
 _symmetry_equiv_pos_as_xyz
  1  'x, y, z'
loop_
 _atom_site_type_symbol
 _atom_site_label
 _atom_site_symmetry_multiplicity
 _atom_site_fract_x
 _atom_site_fract_y
 _atom_site_fract_z
 _atom_site_occupancy
  Ca  Ca0  1  0.500000  0.500000  0.500000  1
  Pr  Pr1  1  0.314272  0.108229  0.025643  1
  Pr  Pr2  1  0.025457  0.314434  0.108982  1
  Pr  Pr3  1  0.107622  0.025312  0.313878  1
  Pr  Pr4  1  0.892378  0.974688  0.686123  1
  Pr  Pr5  1  0.974543  0.685567  0.891019  1
  Pr  Pr6  1  0.685729  0.891771  0.974358  1
  Tc  Tc7  1  0.000000  0.000000  0.000000  1
  Br  Br8  1  0.682108  0.215756  0.067276  1
  Br  Br9  1  0.378480  0.458944  0.168957  1
  Br  Br10  1  0.067148  0.682551  0.215330  1
  Br  Br11  1  0.783173  0.932667  0.317374  1
  Br  Br12  1  0.459191  0.169660  0.378858  1
  Br  Br13  1  0.168882  0.378235  0.459887  1
  Br  Br14  1  0.831118  0.621766  0.540113  1
  Br  Br15  1  0.540809  0.830341  0.621142  1
  Br  Br16  1  0.216828  0.067334  0.682626  1
  Br  Br17  1  0.932852  0.317449  0.784671  1
  Br  Br18  1  0.621521  0.541056  0.831043  1
  Br  Br19  1  0.317893  0.784244  0.932724  1
