# generated using pymatgen
data_MgCdP3N5O2
_symmetry_space_group_name_H-M   'P 1'
_cell_length_a   6.39841500
_cell_length_b   7.11507959
_cell_length_c   14.43594652
_cell_angle_alpha   58.81986962
_cell_angle_beta   90.00000000
_cell_angle_gamma   90.00000000
_symmetry_Int_Tables_number   1
_chemical_formula_structural   MgCdP3N5O2
_chemical_formula_sum   'Mg4 Cd4 P12 N20 O8'
_cell_volume   562.26326262
_cell_formula_units_Z   4
loop_
 _symmetry_equiv_pos_site_id
 _symmetry_equiv_pos_as_xyz
  1  'x, y, z'
loop_
 _atom_site_type_symbol
 _atom_site_label
 _atom_site_symmetry_multiplicity
 _atom_site_fract_x
 _atom_site_fract_y
 _atom_site_fract_z
 _atom_site_occupancy
  Mg  Mg0  1  0.502885  0.944179  0.895512  1
  Mg  Mg1  1  0.002885  0.055821  0.604488  1
  Mg  Mg2  1  0.497115  0.055821  0.104488  1
  Mg  Mg3  1  0.997115  0.944179  0.395512  1
  Cd  Cd4  1  0.718756  0.489041  0.636258  1
  Cd  Cd5  1  0.218756  0.510959  0.863742  1
  Cd  Cd6  1  0.281244  0.510959  0.363742  1
  Cd  Cd7  1  0.781244  0.489041  0.136258  1
  P  P8  1  0.004312  0.920437  0.889095  1
  P  P9  1  0.504312  0.079563  0.610905  1
  P  P10  1  0.995688  0.079563  0.110905  1
  P  P11  1  0.495688  0.920437  0.389095  1
  P  P12  1  0.274417  0.737372  0.600068  1
  P  P13  1  0.774417  0.262628  0.899932  1
  P  P14  1  0.725583  0.262628  0.399932  1
  P  P15  1  0.225583  0.737372  0.100068  1
  P  P16  1  0.742990  0.728865  0.788279  1
  P  P17  1  0.242990  0.271135  0.711721  1
  P  P18  1  0.257010  0.271135  0.211721  1
  P  P19  1  0.757010  0.728865  0.288279  1
  N  N20  1  0.298015  0.927820  0.631245  1
  N  N21  1  0.798015  0.072180  0.868755  1
  N  N22  1  0.701985  0.072180  0.368755  1
  N  N23  1  0.201985  0.927820  0.131245  1
  N  N24  1  0.713509  0.929280  0.662177  1
  N  N25  1  0.213509  0.070720  0.837823  1
  N  N26  1  0.286491  0.070720  0.337823  1
  N  N27  1  0.786491  0.929280  0.162177  1
  N  N28  1  0.963478  0.774653  0.832084  1
  N  N29  1  0.463478  0.225347  0.667916  1
  N  N30  1  0.036522  0.225347  0.167916  1
  N  N31  1  0.536522  0.774653  0.332084  1
  N  N32  1  0.783776  0.502434  0.786485  1
  N  N33  1  0.283776  0.497566  0.713515  1
  N  N34  1  0.216224  0.497566  0.213515  1
  N  N35  1  0.716224  0.502434  0.286485  1
  N  N36  1  0.543612  0.256775  0.480931  1
  N  N37  1  0.043612  0.743225  0.019069  1
  N  N38  1  0.456388  0.743225  0.519069  1
  N  N39  1  0.956388  0.256775  0.980931  1
  O  O40  1  0.048510  0.772521  0.553077  1
  O  O41  1  0.548510  0.227479  0.946923  1
  O  O42  1  0.951490  0.227479  0.446923  1
  O  O43  1  0.451490  0.772521  0.053077  1
  O  O44  1  0.550815  0.709307  0.859467  1
  O  O45  1  0.050815  0.290693  0.640533  1
  O  O46  1  0.449185  0.290693  0.140533  1
  O  O47  1  0.949185  0.709307  0.359467  1
