# generated using pymatgen
data_DyHo5(Be2Ir5)2
_symmetry_space_group_name_H-M   'P 1'
_cell_length_a   9.79002300
_cell_length_b   9.79002279
_cell_length_c   3.40313900
_cell_angle_alpha   90.00000000
_cell_angle_beta   90.00000000
_cell_angle_gamma   89.76436733
_symmetry_Int_Tables_number   1
_chemical_formula_structural   DyHo5(Be2Ir5)2
_chemical_formula_sum   'Dy1 Ho5 Be4 Ir10'
_cell_volume   326.16956191
_cell_formula_units_Z   1
loop_
 _symmetry_equiv_pos_site_id
 _symmetry_equiv_pos_as_xyz
  1  'x, y, z'
loop_
 _atom_site_type_symbol
 _atom_site_label
 _atom_site_symmetry_multiplicity
 _atom_site_fract_x
 _atom_site_fract_y
 _atom_site_fract_z
 _atom_site_occupancy
  Dy  Dy0  1  0.175920  0.675920  0.000000  1
  Ho  Ho1  1  0.324625  0.176238  0.000000  1
  Ho  Ho2  1  0.824060  0.324060  0.000000  1
  Ho  Ho3  1  0.498808  0.500296  0.000000  1
  Ho  Ho4  1  0.676238  0.824625  0.000000  1
  Ho  Ho5  1  0.000296  0.998808  0.000000  1
  Be  Be6  1  0.380818  0.880818  0.000000  1
  Be  Be7  1  0.118832  0.378223  0.000000  1
  Be  Be8  1  0.878223  0.618832  0.000000  1
  Be  Be9  1  0.621317  0.121317  0.000000  1
  Ir  Ir10  1  0.224380  0.932054  0.500000  1
  Ir  Ir11  1  0.928326  0.776328  0.500000  1
  Ir  Ir12  1  0.432054  0.724380  0.500000  1
  Ir  Ir13  1  0.570125  0.277823  0.500000  1
  Ir  Ir14  1  0.721522  0.569783  0.500000  1
  Ir  Ir15  1  0.276328  0.428326  0.500000  1
  Ir  Ir16  1  0.069783  0.221522  0.500000  1
  Ir  Ir17  1  0.999312  0.499312  0.500000  1
  Ir  Ir18  1  0.501210  0.001210  0.500000  1
  Ir  Ir19  1  0.777823  0.070125  0.500000  1
