# generated using pymatgen
data_Sm4HoEr3(ReB6)4
_symmetry_space_group_name_H-M   'P 1'
_cell_length_a   3.70157100
_cell_length_b   9.20140000
_cell_length_c   11.63196200
_cell_angle_alpha   90.00221667
_cell_angle_beta   90.00000000
_cell_angle_gamma   90.00000000
_symmetry_Int_Tables_number   1
_chemical_formula_structural   Sm4HoEr3(ReB6)4
_chemical_formula_sum   'Sm4 Ho1 Er3 Re4 B24'
_cell_volume   396.18038455
_cell_formula_units_Z   1
loop_
 _symmetry_equiv_pos_site_id
 _symmetry_equiv_pos_as_xyz
  1  'x, y, z'
loop_
 _atom_site_type_symbol
 _atom_site_label
 _atom_site_symmetry_multiplicity
 _atom_site_fract_x
 _atom_site_fract_y
 _atom_site_fract_z
 _atom_site_occupancy
  Sm  Sm0  1  0.000000  0.323094  0.414279  1
  Sm  Sm1  1  0.000000  0.676912  0.585733  1
  Sm  Sm2  1  0.000000  0.822999  0.085694  1
  Sm  Sm3  1  0.000000  0.176981  0.914263  1
  Ho  Ho4  1  0.000000  0.942892  0.369830  1
  Er  Er5  1  0.000000  0.057159  0.630348  1
  Er  Er6  1  0.000000  0.442903  0.130243  1
  Er  Er7  1  0.000000  0.557113  0.869754  1
  Re  Re8  1  0.000000  0.638835  0.319532  1
  Re  Re9  1  0.000000  0.360948  0.680462  1
  Re  Re10  1  0.000000  0.139215  0.180281  1
  Re  Re11  1  0.000000  0.860927  0.819574  1
  B  B12  1  0.500000  0.554256  0.431303  1
  B  B13  1  0.500000  0.445693  0.568710  1
  B  B14  1  0.500000  0.054302  0.068667  1
  B  B15  1  0.500000  0.945702  0.931297  1
  B  B16  1  0.500000  0.749630  0.416653  1
  B  B17  1  0.500000  0.250105  0.583336  1
  B  B18  1  0.500000  0.249927  0.083321  1
  B  B19  1  0.500000  0.750093  0.916666  1
  B  B20  1  0.500000  0.791519  0.265636  1
  B  B21  1  0.500000  0.208275  0.734304  1
  B  B22  1  0.500000  0.291803  0.234296  1
  B  B23  1  0.500000  0.708248  0.765695  1
  B  B24  1  0.500000  0.629630  0.185720  1
  B  B25  1  0.500000  0.370335  0.814259  1
  B  B26  1  0.500000  0.129867  0.314141  1
  B  B27  1  0.500000  0.870323  0.685737  1
  B  B28  1  0.500000  0.983006  0.212790  1
  B  B29  1  0.500000  0.017116  0.787067  1
  B  B30  1  0.500000  0.482877  0.287057  1
  B  B31  1  0.500000  0.517105  0.712936  1
  B  B32  1  0.500000  0.597121  0.026905  1
  B  B33  1  0.500000  0.402880  0.973094  1
  B  B34  1  0.500000  0.097361  0.473275  1
  B  B35  1  0.500000  0.902847  0.527146  1
