# generated using pymatgen
data_TbDy7Hf11Si16Tc
_symmetry_space_group_name_H-M   'P 1'
_cell_length_a   7.24964234
_cell_length_b   7.24930209
_cell_length_c   13.28100302
_cell_angle_alpha   89.94887447
_cell_angle_beta   90.04168736
_cell_angle_gamma   90.05125972
_symmetry_Int_Tables_number   1
_chemical_formula_structural   TbDy7Hf11Si16Tc
_chemical_formula_sum   'Tb1 Dy7 Hf11 Si16 Tc1'
_cell_volume   697.98034563
_cell_formula_units_Z   1
loop_
 _symmetry_equiv_pos_site_id
 _symmetry_equiv_pos_as_xyz
  1  'x, y, z'
loop_
 _atom_site_type_symbol
 _atom_site_label
 _atom_site_symmetry_multiplicity
 _atom_site_fract_x
 _atom_site_fract_y
 _atom_site_fract_z
 _atom_site_occupancy
  Tb  Tb0  1  0.656051  0.004502  0.283003  1
  Dy  Dy1  1  0.999079  0.342798  0.212134  1
  Dy  Dy2  1  0.004361  0.655956  0.716960  1
  Dy  Dy3  1  0.156418  0.495371  0.465439  1
  Dy  Dy4  1  0.501071  0.845671  0.033633  1
  Dy  Dy5  1  0.845710  0.501111  0.966333  1
  Dy  Dy6  1  0.495347  0.156419  0.534587  1
  Dy  Dy7  1  0.342754  0.999023  0.787862  1
  Hf  Hf8  1  0.825243  0.825202  0.500054  1
  Hf  Hf9  1  0.324256  0.674548  0.248588  1
  Hf  Hf10  1  0.674628  0.324322  0.751409  1
  Hf  Hf11  1  0.148484  0.997308  0.373134  1
  Hf  Hf12  1  0.853295  0.004761  0.877574  1
  Hf  Hf13  1  0.503383  0.648011  0.625103  1
  Hf  Hf14  1  0.350019  0.494177  0.877147  1
  Hf  Hf15  1  0.494093  0.350079  0.122792  1
  Hf  Hf16  1  0.648033  0.503437  0.374952  1
  Hf  Hf17  1  0.997347  0.148385  0.626913  1
  Hf  Hf18  1  0.004795  0.853251  0.122366  1
  Si  Si19  1  0.361693  0.295153  0.316122  1
  Si  Si20  1  0.637300  0.705107  0.818197  1
  Si  Si21  1  0.205307  0.862241  0.567421  1
  Si  Si22  1  0.136915  0.795386  0.932357  1
  Si  Si23  1  0.795450  0.136924  0.067582  1
  Si  Si24  1  0.862406  0.205455  0.432720  1
  Si  Si25  1  0.295024  0.361839  0.683872  1
  Si  Si26  1  0.705155  0.637069  0.181745  1
  Si  Si27  1  0.293695  0.052552  0.181800  1
  Si  Si28  1  0.703937  0.951600  0.685849  1
  Si  Si29  1  0.450104  0.796094  0.435090  1
  Si  Si30  1  0.204946  0.547926  0.064458  1
  Si  Si31  1  0.547940  0.204953  0.935528  1
  Si  Si32  1  0.796232  0.450261  0.565008  1
  Si  Si33  1  0.052505  0.293922  0.818133  1
  Si  Si34  1  0.951706  0.703846  0.314153  1
  Tc  Tc35  1  0.175317  0.175345  0.999981  1
