# generated using pymatgen
data_Eu4Ho5Tm3Se16
_symmetry_space_group_name_H-M   'P 1'
_cell_length_a   4.11895500
_cell_length_b   12.48864105
_cell_length_c   14.87178606
_cell_angle_alpha   90.01062148
_cell_angle_beta   90.00000000
_cell_angle_gamma   90.00000000
_symmetry_Int_Tables_number   1
_chemical_formula_structural   Eu4Ho5Tm3Se16
_chemical_formula_sum   'Eu4 Ho5 Tm3 Se16'
_cell_volume   765.00690035
_cell_formula_units_Z   1
loop_
 _symmetry_equiv_pos_site_id
 _symmetry_equiv_pos_as_xyz
  1  'x, y, z'
loop_
 _atom_site_type_symbol
 _atom_site_label
 _atom_site_symmetry_multiplicity
 _atom_site_fract_x
 _atom_site_fract_y
 _atom_site_fract_z
 _atom_site_occupancy
  Eu  Eu0  1  0.750000  0.741298  0.164830  1
  Eu  Eu1  1  0.750000  0.241197  0.335250  1
  Eu  Eu2  1  0.250000  0.258768  0.835120  1
  Eu  Eu3  1  0.250000  0.758785  0.664791  1
  Ho  Ho4  1  0.250000  0.417774  0.097763  1
  Ho  Ho5  1  0.750000  0.064659  0.110744  1
  Ho  Ho6  1  0.750000  0.564926  0.389440  1
  Ho  Ho7  1  0.250000  0.935183  0.889249  1
  Ho  Ho8  1  0.250000  0.435211  0.610726  1
  Tm  Tm9  1  0.750000  0.081961  0.597882  1
  Tm  Tm10  1  0.750000  0.582087  0.901994  1
  Tm  Tm11  1  0.250000  0.918009  0.402112  1
  Se  Se12  1  0.750000  0.292276  0.675156  1
  Se  Se13  1  0.750000  0.792269  0.824821  1
  Se  Se14  1  0.250000  0.707780  0.324855  1
  Se  Se15  1  0.250000  0.206678  0.175608  1
  Se  Se16  1  0.750000  0.368469  0.968486  1
  Se  Se17  1  0.750000  0.868911  0.530337  1
  Se  Se18  1  0.250000  0.632130  0.029910  1
  Se  Se19  1  0.250000  0.131095  0.469672  1
  Se  Se20  1  0.750000  0.974135  0.285394  1
  Se  Se21  1  0.750000  0.474735  0.215762  1
  Se  Se22  1  0.250000  0.025822  0.714633  1
  Se  Se23  1  0.250000  0.525863  0.785362  1
  Se  Se24  1  0.750000  0.091055  0.920944  1
  Se  Se25  1  0.750000  0.591031  0.579111  1
  Se  Se26  1  0.250000  0.908998  0.079055  1
  Se  Se27  1  0.250000  0.408898  0.420992  1
