# generated using pymatgen
data_RbAsP2S7
_symmetry_space_group_name_H-M   'P 1'
_cell_length_a   6.78849797
_cell_length_b   6.78849736
_cell_length_c   6.81381934
_cell_angle_alpha   85.02843702
_cell_angle_beta   85.02843849
_cell_angle_gamma   99.23437805
_symmetry_Int_Tables_number   1
_chemical_formula_structural   RbAsP2S7
_chemical_formula_sum   'Rb1 As1 P2 S7'
_cell_volume   307.15141870
_cell_formula_units_Z   1
loop_
 _symmetry_equiv_pos_site_id
 _symmetry_equiv_pos_as_xyz
  1  'x, y, z'
loop_
 _atom_site_type_symbol
 _atom_site_label
 _atom_site_symmetry_multiplicity
 _atom_site_fract_x
 _atom_site_fract_y
 _atom_site_fract_z
 _atom_site_occupancy
  Rb  Rb0  1  0.109235  0.890765  0.500000  1
  As  As1  1  0.493986  0.506014  0.000000  1
  P  P2  1  0.050428  0.347397  0.911191  1
  P  P3  1  0.652603  0.949572  0.088809  1
  S  S4  1  0.971027  0.028973  0.000000  1
  S  S5  1  0.542406  0.160876  0.228609  1
  S  S6  1  0.303298  0.356376  0.723542  1
  S  S7  1  0.643624  0.696702  0.276458  1
  S  S8  1  0.146394  0.478523  0.155825  1
  S  S9  1  0.521477  0.853606  0.844175  1
  S  S10  1  0.839124  0.457594  0.771391  1
