# generated using pymatgen
data_NaLu2(GaIr2)3
_symmetry_space_group_name_H-M   'P 1'
_cell_length_a   5.54424200
_cell_length_b   5.54424114
_cell_length_c   15.74246600
_cell_angle_alpha   90.00000000
_cell_angle_beta   90.00000000
_cell_angle_gamma   119.99999320
_symmetry_Int_Tables_number   1
_chemical_formula_structural   NaLu2(GaIr2)3
_chemical_formula_sum   'Na2 Lu4 Ga6 Ir12'
_cell_volume   419.07110285
_cell_formula_units_Z   2
loop_
 _symmetry_equiv_pos_site_id
 _symmetry_equiv_pos_as_xyz
  1  'x, y, z'
loop_
 _atom_site_type_symbol
 _atom_site_label
 _atom_site_symmetry_multiplicity
 _atom_site_fract_x
 _atom_site_fract_y
 _atom_site_fract_z
 _atom_site_occupancy
  Na  Na0  1  0.333333  0.666667  0.750000  1
  Na  Na1  1  0.666667  0.333333  0.250000  1
  Lu  Lu2  1  0.333333  0.666667  0.545202  1
  Lu  Lu3  1  0.666667  0.333333  0.454798  1
  Lu  Lu4  1  0.666667  0.333333  0.045202  1
  Lu  Lu5  1  0.333333  0.666667  0.954798  1
  Ga  Ga6  1  0.000000  0.000000  0.250000  1
  Ga  Ga7  1  0.000000  0.000000  0.750000  1
  Ga  Ga8  1  0.333333  0.666667  0.250000  1
  Ga  Ga9  1  0.666667  0.333333  0.750000  1
  Ga  Ga10  1  0.000000  0.000000  0.000000  1
  Ga  Ga11  1  0.000000  0.000000  0.500000  1
  Ir  Ir12  1  0.170414  0.340829  0.122667  1
  Ir  Ir13  1  0.829586  0.659171  0.877333  1
  Ir  Ir14  1  0.659171  0.829586  0.122667  1
  Ir  Ir15  1  0.829586  0.659171  0.622667  1
  Ir  Ir16  1  0.340829  0.170414  0.877333  1
  Ir  Ir17  1  0.170414  0.340829  0.377333  1
  Ir  Ir18  1  0.170414  0.829586  0.122667  1
  Ir  Ir19  1  0.340829  0.170414  0.622667  1
  Ir  Ir20  1  0.829586  0.170414  0.877333  1
  Ir  Ir21  1  0.659171  0.829586  0.377333  1
  Ir  Ir22  1  0.829586  0.170414  0.622667  1
  Ir  Ir23  1  0.170414  0.829586  0.377333  1
