# generated using pymatgen
data_Tb7Dy(Sc3Sn4)4
_symmetry_space_group_name_H-M   'P 1'
_cell_length_a   7.74363910
_cell_length_b   7.91342912
_cell_length_c   14.87688770
_cell_angle_alpha   89.99952558
_cell_angle_beta   89.97413140
_cell_angle_gamma   90.00724340
_symmetry_Int_Tables_number   1
_chemical_formula_structural   Tb7Dy(Sc3Sn4)4
_chemical_formula_sum   'Tb7 Dy1 Sc12 Sn16'
_cell_volume   911.63682144
_cell_formula_units_Z   1
loop_
 _symmetry_equiv_pos_site_id
 _symmetry_equiv_pos_as_xyz
  1  'x, y, z'
loop_
 _atom_site_type_symbol
 _atom_site_label
 _atom_site_symmetry_multiplicity
 _atom_site_fract_x
 _atom_site_fract_y
 _atom_site_fract_z
 _atom_site_occupancy
  Tb  Tb0  1  0.992659  0.176481  0.094211  1
  Tb  Tb1  1  0.007326  0.823385  0.905577  1
  Tb  Tb2  1  0.507154  0.676506  0.905887  1
  Tb  Tb3  1  0.007279  0.823416  0.594171  1
  Tb  Tb4  1  0.492701  0.323435  0.094234  1
  Tb  Tb5  1  0.992900  0.176523  0.406007  1
  Tb  Tb6  1  0.492598  0.323638  0.405926  1
  Dy  Dy7  1  0.507679  0.676608  0.594187  1
  Sc  Sc8  1  0.169801  0.495570  0.749820  1
  Sc  Sc9  1  0.830097  0.504538  0.250153  1
  Sc  Sc10  1  0.330097  0.995388  0.250091  1
  Sc  Sc11  1  0.669815  0.004613  0.749879  1
  Sc  Sc12  1  0.339699  0.161127  0.627029  1
  Sc  Sc13  1  0.660132  0.838846  0.373027  1
  Sc  Sc14  1  0.160299  0.660947  0.373074  1
  Sc  Sc15  1  0.660348  0.839171  0.127144  1
  Sc  Sc16  1  0.839617  0.339112  0.626896  1
  Sc  Sc17  1  0.339792  0.160832  0.872751  1
  Sc  Sc18  1  0.839554  0.339091  0.872910  1
  Sc  Sc19  1  0.160258  0.660879  0.127054  1
  Sn  Sn20  1  0.031696  0.124968  0.749858  1
  Sn  Sn21  1  0.968251  0.875015  0.250162  1
  Sn  Sn22  1  0.468152  0.624968  0.250031  1
  Sn  Sn23  1  0.531762  0.375367  0.749893  1
  Sn  Sn24  1  0.311937  0.849809  0.749747  1
  Sn  Sn25  1  0.688401  0.149944  0.250085  1
  Sn  Sn26  1  0.188361  0.349939  0.250030  1
  Sn  Sn27  1  0.811200  0.649989  0.749826  1
  Sn  Sn28  1  0.183305  0.457455  0.542601  1
  Sn  Sn29  1  0.817030  0.543066  0.457575  1
  Sn  Sn30  1  0.317741  0.956874  0.457578  1
  Sn  Sn31  1  0.817344  0.543070  0.042538  1
  Sn  Sn32  1  0.682402  0.042607  0.542592  1
  Sn  Sn33  1  0.182604  0.456830  0.957479  1
  Sn  Sn34  1  0.682625  0.042848  0.957452  1
  Sn  Sn35  1  0.317380  0.957140  0.042525  1
