# generated using pymatgen
data_TmLuAl20(FeRh)2
_symmetry_space_group_name_H-M   'P 1'
_cell_length_a   6.78750665
_cell_length_b   6.78750735
_cell_length_c   9.06125145
_cell_angle_alpha   90.30385320
_cell_angle_beta   90.30385925
_cell_angle_gamma   97.09928887
_symmetry_Int_Tables_number   1
_chemical_formula_structural   TmLuAl20(FeRh)2
_chemical_formula_sum   'Tm1 Lu1 Al20 Fe2 Rh2'
_cell_volume   414.24041338
_cell_formula_units_Z   1
loop_
 _symmetry_equiv_pos_site_id
 _symmetry_equiv_pos_as_xyz
  1  'x, y, z'
loop_
 _atom_site_type_symbol
 _atom_site_label
 _atom_site_symmetry_multiplicity
 _atom_site_fract_x
 _atom_site_fract_y
 _atom_site_fract_z
 _atom_site_occupancy
  Tm  Tm0  1  0.128219  0.871781  0.250000  1
  Lu  Lu1  1  0.871330  0.128670  0.750000  1
  Al  Al2  1  0.620487  0.372187  0.549475  1
  Al  Al3  1  0.379399  0.627530  0.450821  1
  Al  Al4  1  0.372470  0.620601  0.049179  1
  Al  Al5  1  0.627813  0.379513  0.950525  1
  Al  Al6  1  0.227895  0.220246  0.495785  1
  Al  Al7  1  0.771780  0.779689  0.504810  1
  Al  Al8  1  0.779754  0.772105  0.004215  1
  Al  Al9  1  0.220311  0.228220  0.995190  1
  Al  Al10  1  0.849393  0.159111  0.099517  1
  Al  Al11  1  0.150519  0.841238  0.900209  1
  Al  Al12  1  0.158762  0.849481  0.599791  1
  Al  Al13  1  0.840889  0.150607  0.400483  1
  Al  Al14  1  0.859335  0.585345  0.754151  1
  Al  Al15  1  0.140603  0.413931  0.245886  1
  Al  Al16  1  0.414655  0.140665  0.745849  1
  Al  Al17  1  0.586069  0.859397  0.254114  1
  Al  Al18  1  0.222260  0.479573  0.754501  1
  Al  Al19  1  0.777570  0.520146  0.245425  1
  Al  Al20  1  0.520427  0.777740  0.745499  1
  Al  Al21  1  0.479854  0.222430  0.254575  1
  Fe  Fe22  1  0.999471  0.498840  0.999798  1
  Fe  Fe23  1  0.501160  0.000529  0.500202  1
  Rh  Rh24  1  0.999386  0.499811  0.500061  1
  Rh  Rh25  1  0.500189  0.000614  0.999939  1
