# generated using pymatgen
data_CeHoZnCo16
_symmetry_space_group_name_H-M   'P 1'
_cell_length_a   6.30085821
_cell_length_b   6.30085945
_cell_length_c   6.28953616
_cell_angle_alpha   83.19652890
_cell_angle_beta   83.19652561
_cell_angle_gamma   82.92951182
_symmetry_Int_Tables_number   1
_chemical_formula_structural   CeHoZnCo16
_chemical_formula_sum   'Ce1 Ho1 Zn1 Co16'
_cell_volume   244.68487913
_cell_formula_units_Z   1
loop_
 _symmetry_equiv_pos_site_id
 _symmetry_equiv_pos_as_xyz
  1  'x, y, z'
loop_
 _atom_site_type_symbol
 _atom_site_label
 _atom_site_symmetry_multiplicity
 _atom_site_fract_x
 _atom_site_fract_y
 _atom_site_fract_z
 _atom_site_occupancy
  Ce  Ce0  1  0.660459  0.660459  0.647091  1
  Ho  Ho1  1  0.341506  0.341506  0.341663  1
  Zn  Zn2  1  0.348048  0.348048  0.848022  1
  Co  Co3  1  0.719003  0.285260  0.002412  1
  Co  Co4  1  0.000101  0.713159  0.290392  1
  Co  Co5  1  0.289756  0.994736  0.711534  1
  Co  Co6  1  0.994736  0.289756  0.711534  1
  Co  Co7  1  0.713159  0.000101  0.290392  1
  Co  Co8  1  0.285260  0.719003  0.002412  1
  Co  Co9  1  0.847668  0.347439  0.347945  1
  Co  Co10  1  0.347439  0.847668  0.347945  1
  Co  Co11  1  0.653155  0.653155  0.140634  1
  Co  Co12  1  0.139385  0.656802  0.652342  1
  Co  Co13  1  0.656802  0.139385  0.652342  1
  Co  Co14  1  0.004046  0.004046  0.499607  1
  Co  Co15  1  0.503169  0.999807  0.004245  1
  Co  Co16  1  0.999807  0.503169  0.004245  1
  Co  Co17  1  0.903968  0.903968  0.902438  1
  Co  Co18  1  0.092530  0.092530  0.102804  1
