# generated using pymatgen
data_NaFe2NiSb12Rh
_symmetry_space_group_name_H-M   'P 1'
_cell_length_a   7.99027386
_cell_length_b   8.02612435
_cell_length_c   8.03290876
_cell_angle_alpha   109.56694659
_cell_angle_beta   109.54050714
_cell_angle_gamma   109.30365673
_symmetry_Int_Tables_number   1
_chemical_formula_structural   NaFe2NiSb12Rh
_chemical_formula_sum   'Na1 Fe2 Ni1 Sb12 Rh1'
_cell_volume   396.57933698
_cell_formula_units_Z   1
loop_
 _symmetry_equiv_pos_site_id
 _symmetry_equiv_pos_as_xyz
  1  'x, y, z'
loop_
 _atom_site_type_symbol
 _atom_site_label
 _atom_site_symmetry_multiplicity
 _atom_site_fract_x
 _atom_site_fract_y
 _atom_site_fract_z
 _atom_site_occupancy
  Na  Na0  1  0.000000  0.000000  0.000000  1
  Fe  Fe1  1  0.000000  0.500000  0.000000  1
  Fe  Fe2  1  0.500000  0.500000  0.500000  1
  Ni  Ni3  1  0.000000  0.000000  0.500000  1
  Sb  Sb4  1  0.660063  0.812800  0.160154  1
  Sb  Sb5  1  0.847932  0.344668  0.177807  1
  Sb  Sb6  1  0.504287  0.834506  0.656494  1
  Sb  Sb7  1  0.836141  0.658560  0.502731  1
  Sb  Sb8  1  0.495713  0.165494  0.343506  1
  Sb  Sb9  1  0.152068  0.655332  0.822193  1
  Sb  Sb10  1  0.822362  0.163222  0.666845  1
  Sb  Sb11  1  0.177638  0.836778  0.333155  1
  Sb  Sb12  1  0.163859  0.341440  0.497269  1
  Sb  Sb13  1  0.669608  0.507639  0.837648  1
  Sb  Sb14  1  0.330392  0.492361  0.162352  1
  Sb  Sb15  1  0.339937  0.187200  0.839846  1
  Rh  Rh16  1  0.500000  0.000000  0.000000  1
