# generated using pymatgen
data_Ca10Ac7Pr3Si16
_symmetry_space_group_name_H-M   'P 1'
_cell_length_a   8.13123981
_cell_length_b   8.13181514
_cell_length_c   15.05581429
_cell_angle_alpha   90.32964860
_cell_angle_beta   89.80820149
_cell_angle_gamma   90.20543719
_symmetry_Int_Tables_number   1
_chemical_formula_structural   Ca10Ac7Pr3Si16
_chemical_formula_sum   'Ca10 Ac7 Pr3 Si16'
_cell_volume   995.48823672
_cell_formula_units_Z   1
loop_
 _symmetry_equiv_pos_site_id
 _symmetry_equiv_pos_as_xyz
  1  'x, y, z'
loop_
 _atom_site_type_symbol
 _atom_site_label
 _atom_site_symmetry_multiplicity
 _atom_site_fract_x
 _atom_site_fract_y
 _atom_site_fract_z
 _atom_site_occupancy
  Ca  Ca0  1  0.311770  0.319940  0.999556  1
  Ca  Ca1  1  0.191108  0.801454  0.246441  1
  Ca  Ca2  1  0.808769  0.190882  0.752490  1
  Ca  Ca3  1  0.682753  0.680512  0.499330  1
  Ca  Ca4  1  0.994171  0.620588  0.048212  1
  Ca  Ca5  1  0.129734  0.988815  0.877334  1
  Ca  Ca6  1  0.512809  0.632578  0.122933  1
  Ca  Ca7  1  0.489752  0.368644  0.626388  1
  Ca  Ca8  1  0.634274  0.512380  0.877478  1
  Ca  Ca9  1  0.368557  0.490414  0.374256  1
  Ac  Ac10  1  0.370830  0.011123  0.453574  1
  Ac  Ac11  1  0.486766  0.870234  0.705231  1
  Ac  Ac12  1  0.511358  0.130810  0.204385  1
  Ac  Ac13  1  0.867300  0.487987  0.291542  1
  Ac  Ac14  1  0.127775  0.513768  0.798543  1
  Ac  Ac15  1  0.626160  0.989769  0.955316  1
  Ac  Ac16  1  0.010747  0.372251  0.546065  1
  Pr  Pr17  1  0.873711  0.005624  0.374674  1
  Pr  Pr18  1  0.995144  0.126960  0.123538  1
  Pr  Pr19  1  0.006956  0.874264  0.624263  1
  Si  Si20  1  0.206425  0.159612  0.695767  1
  Si  Si21  1  0.336678  0.704343  0.946185  1
  Si  Si22  1  0.663876  0.293148  0.444447  1
  Si  Si23  1  0.708219  0.337529  0.057375  1
  Si  Si24  1  0.293909  0.664557  0.553544  1
  Si  Si25  1  0.795370  0.841521  0.193456  1
  Si  Si26  1  0.157439  0.208209  0.305108  1
  Si  Si27  1  0.836700  0.797784  0.802308  1
  Si  Si28  1  0.285403  0.919570  0.059032  1
  Si  Si29  1  0.583688  0.788066  0.307815  1
  Si  Si30  1  0.418572  0.213188  0.809803  1
  Si  Si31  1  0.787272  0.582611  0.690737  1
  Si  Si32  1  0.212067  0.417108  0.191376  1
  Si  Si33  1  0.714396  0.080770  0.558094  1
  Si  Si34  1  0.919775  0.289411  0.942775  1
  Si  Si35  1  0.079765  0.713578  0.440634  1
