# generated using pymatgen
data_Tm5HgBiAu
_symmetry_space_group_name_H-M   'P 1'
_cell_length_a   8.63254515
_cell_length_b   8.63254555
_cell_length_c   8.68052140
_cell_angle_alpha   123.69281278
_cell_angle_beta   123.69281482
_cell_angle_gamma   83.35909110
_symmetry_Int_Tables_number   1
_chemical_formula_structural   Tm5HgBiAu
_chemical_formula_sum   'Tm10 Hg2 Bi2 Au2'
_cell_volume   430.22611606
_cell_formula_units_Z   2
loop_
 _symmetry_equiv_pos_site_id
 _symmetry_equiv_pos_as_xyz
  1  'x, y, z'
loop_
 _atom_site_type_symbol
 _atom_site_label
 _atom_site_symmetry_multiplicity
 _atom_site_fract_x
 _atom_site_fract_y
 _atom_site_fract_z
 _atom_site_occupancy
  Tm  Tm0  1  0.500000  0.500000  0.000000  1
  Tm  Tm1  1  0.000000  0.000000  0.000000  1
  Tm  Tm2  1  0.506208  0.006208  0.796271  1
  Tm  Tm3  1  0.209936  0.709936  0.203729  1
  Tm  Tm4  1  0.017151  0.199201  0.500000  1
  Tm  Tm5  1  0.699201  0.517151  0.500000  1
  Tm  Tm6  1  0.493792  0.993792  0.203729  1
  Tm  Tm7  1  0.790064  0.290064  0.796271  1
  Tm  Tm8  1  0.982849  0.800799  0.500000  1
  Tm  Tm9  1  0.300799  0.482849  0.500000  1
  Hg  Hg10  1  0.140761  0.640761  0.781520  1
  Hg  Hg11  1  0.859239  0.359239  0.218480  1
  Bi  Bi12  1  0.250000  0.250000  0.000000  1
  Bi  Bi13  1  0.750000  0.750000  0.000000  1
  Au  Au14  1  0.637930  0.862070  0.500000  1
  Au  Au15  1  0.362070  0.137930  0.500000  1
