# generated using pymatgen
data_Tb5Dy7(TcRu)2
_symmetry_space_group_name_H-M   'P 1'
_cell_length_a   6.29926101
_cell_length_b   7.39852700
_cell_length_c   9.17091101
_cell_angle_alpha   89.99775869
_cell_angle_beta   90.00616350
_cell_angle_gamma   90.00331273
_symmetry_Int_Tables_number   1
_chemical_formula_structural   Tb5Dy7(TcRu)2
_chemical_formula_sum   'Tb5 Dy7 Tc2 Ru2'
_cell_volume   427.41262186
_cell_formula_units_Z   1
loop_
 _symmetry_equiv_pos_site_id
 _symmetry_equiv_pos_as_xyz
  1  'x, y, z'
loop_
 _atom_site_type_symbol
 _atom_site_label
 _atom_site_symmetry_multiplicity
 _atom_site_fract_x
 _atom_site_fract_y
 _atom_site_fract_z
 _atom_site_occupancy
  Tb  Tb0  1  0.334531  0.676500  0.064091  1
  Tb  Tb1  1  0.875639  0.540699  0.250031  1
  Tb  Tb2  1  0.624350  0.040775  0.250020  1
  Tb  Tb3  1  0.132483  0.455933  0.749972  1
  Tb  Tb4  1  0.367482  0.955993  0.749978  1
  Dy  Dy5  1  0.165466  0.176488  0.435896  1
  Dy  Dy6  1  0.664249  0.324195  0.562705  1
  Dy  Dy7  1  0.835749  0.824211  0.937269  1
  Dy  Dy8  1  0.664290  0.324151  0.937273  1
  Dy  Dy9  1  0.835751  0.824198  0.562711  1
  Dy  Dy10  1  0.334531  0.676479  0.435939  1
  Dy  Dy11  1  0.165432  0.176482  0.064111  1
  Tc  Tc12  1  0.037694  0.886652  0.250035  1
  Tc  Tc13  1  0.462304  0.386569  0.250019  1
  Ru  Ru14  1  0.960718  0.115344  0.750003  1
  Ru  Ru15  1  0.539330  0.615326  0.749947  1
