# generated using pymatgen
data_Ho9Tm(Bi2Pt)2
_symmetry_space_group_name_H-M   'P 1'
_cell_length_a   8.03504417
_cell_length_b   9.02577919
_cell_length_c   12.33964200
_cell_angle_alpha   90.00000000
_cell_angle_beta   90.00000000
_cell_angle_gamma   90.02369590
_symmetry_Int_Tables_number   1
_chemical_formula_structural   Ho9Tm(Bi2Pt)2
_chemical_formula_sum   'Ho18 Tm2 Bi8 Pt4'
_cell_volume   894.90203613
_cell_formula_units_Z   2
loop_
 _symmetry_equiv_pos_site_id
 _symmetry_equiv_pos_as_xyz
  1  'x, y, z'
loop_
 _atom_site_type_symbol
 _atom_site_label
 _atom_site_symmetry_multiplicity
 _atom_site_fract_x
 _atom_site_fract_y
 _atom_site_fract_z
 _atom_site_occupancy
  Ho  Ho0  1  0.165591  0.749895  0.210650  1
  Ho  Ho1  1  0.334409  0.750105  0.710650  1
  Ho  Ho2  1  0.834149  0.249952  0.789283  1
  Ho  Ho3  1  0.665851  0.250048  0.289283  1
  Ho  Ho4  1  0.452917  0.749834  0.999948  1
  Ho  Ho5  1  0.047083  0.750166  0.499948  1
  Ho  Ho6  1  0.547700  0.250202  0.000152  1
  Ho  Ho7  1  0.952300  0.249798  0.500152  1
  Ho  Ho8  1  0.628004  0.750122  0.303385  1
  Ho  Ho9  1  0.871996  0.749878  0.803385  1
  Ho  Ho10  1  0.372321  0.249973  0.696509  1
  Ho  Ho11  1  0.127679  0.250027  0.196509  1
  Ho  Ho12  1  0.177864  0.048035  0.933532  1
  Ho  Ho13  1  0.322136  0.451965  0.433532  1
  Ho  Ho14  1  0.177584  0.451968  0.933649  1
  Ho  Ho15  1  0.322416  0.048032  0.433649  1
  Ho  Ho16  1  0.822161  0.951829  0.066517  1
  Ho  Ho17  1  0.677839  0.548171  0.566517  1
  Tm  Tm18  1  0.823298  0.548307  0.066292  1
  Tm  Tm19  1  0.676702  0.951693  0.566292  1
  Bi  Bi20  1  0.932326  0.509564  0.326737  1
  Bi  Bi21  1  0.567674  0.990436  0.826737  1
  Bi  Bi22  1  0.067251  0.009434  0.673047  1
  Bi  Bi23  1  0.432749  0.490566  0.173047  1
  Bi  Bi24  1  0.067587  0.490547  0.673102  1
  Bi  Bi25  1  0.432413  0.009453  0.173102  1
  Bi  Bi26  1  0.932533  0.990466  0.326873  1
  Bi  Bi27  1  0.567467  0.509534  0.826873  1
  Pt  Pt28  1  0.419355  0.750421  0.487758  1
  Pt  Pt29  1  0.080645  0.749579  0.987758  1
  Pt  Pt30  1  0.581723  0.249218  0.512566  1
  Pt  Pt31  1  0.918277  0.250782  0.012566  1
