# generated using pymatgen
data_Ta12Al8Cu2MoRhC4
_symmetry_space_group_name_H-M   'P 1'
_cell_length_a   8.33756802
_cell_length_b   8.33756905
_cell_length_c   8.33756800
_cell_angle_alpha   59.79100316
_cell_angle_beta   59.79099901
_cell_angle_gamma   59.79100426
_symmetry_Int_Tables_number   1
_chemical_formula_structural   Ta12Al8Cu2MoRhC4
_chemical_formula_sum   'Ta12 Al8 Cu2 Mo1 Rh1 C4'
_cell_volume   407.88499215
_cell_formula_units_Z   1
loop_
 _symmetry_equiv_pos_site_id
 _symmetry_equiv_pos_as_xyz
  1  'x, y, z'
loop_
 _atom_site_type_symbol
 _atom_site_label
 _atom_site_symmetry_multiplicity
 _atom_site_fract_x
 _atom_site_fract_y
 _atom_site_fract_z
 _atom_site_occupancy
  Ta  Ta0  1  0.566775  0.933760  0.566775  1
  Ta  Ta1  1  0.315389  0.681975  0.685254  1
  Ta  Ta2  1  0.697501  0.312049  0.311774  1
  Ta  Ta3  1  0.310731  0.697397  0.310731  1
  Ta  Ta4  1  0.685254  0.681975  0.315389  1
  Ta  Ta5  1  0.311774  0.312049  0.697501  1
  Ta  Ta6  1  0.564746  0.568025  0.934611  1
  Ta  Ta7  1  0.934611  0.568025  0.564746  1
  Ta  Ta8  1  0.552499  0.937951  0.938226  1
  Ta  Ta9  1  0.938226  0.937951  0.552499  1
  Ta  Ta10  1  0.683225  0.316240  0.683225  1
  Ta  Ta11  1  0.939269  0.552603  0.939269  1
  Al  Al12  1  0.913873  0.913924  0.913873  1
  Al  Al13  1  0.001698  0.335828  0.337240  1
  Al  Al14  1  0.337424  0.000471  0.337424  1
  Al  Al15  1  0.337240  0.335828  0.001698  1
  Al  Al16  1  0.912576  0.249529  0.912576  1
  Al  Al17  1  0.912760  0.914172  0.248302  1
  Al  Al18  1  0.248302  0.914172  0.912760  1
  Al  Al19  1  0.336127  0.336076  0.336127  1
  Cu  Cu20  1  0.625000  0.125000  0.125000  1
  Cu  Cu21  1  0.125000  0.125000  0.625000  1
  Mo  Mo22  1  0.125000  0.125000  0.125000  1
  Rh  Rh23  1  0.125000  0.625000  0.125000  1
  C  C24  1  0.625000  0.625000  0.625000  1
  C  C25  1  0.125000  0.625000  0.625000  1
  C  C26  1  0.625000  0.125000  0.625000  1
  C  C27  1  0.625000  0.625000  0.125000  1
