# generated using pymatgen
data_Ho7Sn23(OsPd)3
_symmetry_space_group_name_H-M   'P 1'
_cell_length_a   9.85116300
_cell_length_b   9.85116102
_cell_length_c   10.08961500
_cell_angle_alpha   90.00000000
_cell_angle_beta   90.00000000
_cell_angle_gamma   119.99999656
_symmetry_Int_Tables_number   1
_chemical_formula_structural   Ho7Sn23(OsPd)3
_chemical_formula_sum   'Ho7 Sn23 Os3 Pd3'
_cell_volume   847.96936889
_cell_formula_units_Z   1
loop_
 _symmetry_equiv_pos_site_id
 _symmetry_equiv_pos_as_xyz
  1  'x, y, z'
loop_
 _atom_site_type_symbol
 _atom_site_label
 _atom_site_symmetry_multiplicity
 _atom_site_fract_x
 _atom_site_fract_y
 _atom_site_fract_z
 _atom_site_occupancy
  Ho  Ho0  1  0.000000  0.000000  0.027711  1
  Ho  Ho1  1  0.522279  0.477721  0.689619  1
  Ho  Ho2  1  0.522279  0.044557  0.689619  1
  Ho  Ho3  1  0.955443  0.477721  0.689619  1
  Ho  Ho4  1  0.034030  0.517016  0.302610  1
  Ho  Ho5  1  0.482984  0.965970  0.302610  1
  Ho  Ho6  1  0.482984  0.517016  0.302610  1
  Sn  Sn7  1  0.666667  0.333333  0.173230  1
  Sn  Sn8  1  0.666667  0.333333  0.874998  1
  Sn  Sn9  1  0.333333  0.666667  0.120310  1
  Sn  Sn10  1  0.351913  0.349988  0.001054  1
  Sn  Sn11  1  0.998075  0.648087  0.001054  1
  Sn  Sn12  1  0.650012  0.001925  0.001054  1
  Sn  Sn13  1  0.650012  0.648087  0.001054  1
  Sn  Sn14  1  0.333333  0.666667  0.822379  1
  Sn  Sn15  1  0.443917  0.221959  0.455816  1
  Sn  Sn16  1  0.223439  0.776561  0.538483  1
  Sn  Sn17  1  0.223439  0.446876  0.538483  1
  Sn  Sn18  1  0.553124  0.776561  0.538483  1
  Sn  Sn19  1  0.119109  0.880891  0.284527  1
  Sn  Sn20  1  0.778041  0.556083  0.455816  1
  Sn  Sn21  1  0.778041  0.221959  0.455816  1
  Sn  Sn22  1  0.351913  0.001925  0.001054  1
  Sn  Sn23  1  0.119109  0.238219  0.284527  1
  Sn  Sn24  1  0.761781  0.880891  0.284527  1
  Sn  Sn25  1  0.242585  0.121292  0.717350  1
  Sn  Sn26  1  0.878708  0.757415  0.717350  1
  Sn  Sn27  1  0.878708  0.121292  0.717350  1
  Sn  Sn28  1  0.000000  0.000000  0.508396  1
  Sn  Sn29  1  0.998075  0.349988  0.001054  1
  Os  Os30  1  0.334610  0.167305  0.200658  1
  Os  Os31  1  0.832695  0.665390  0.200658  1
  Os  Os32  1  0.832695  0.167305  0.200658  1
  Pd  Pd33  1  0.170900  0.829100  0.799819  1
  Pd  Pd34  1  0.170900  0.341802  0.799819  1
  Pd  Pd35  1  0.658198  0.829100  0.799819  1
