# generated using pymatgen
data_CaEu3(Ir2I)2
_symmetry_space_group_name_H-M   'P 1'
_cell_length_a   4.37136800
_cell_length_b   4.37136859
_cell_length_c   17.39457400
_cell_angle_alpha   90.00000000
_cell_angle_beta   90.00000000
_cell_angle_gamma   119.99998037
_symmetry_Int_Tables_number   1
_chemical_formula_structural   CaEu3(Ir2I)2
_chemical_formula_sum   'Ca1 Eu3 Ir4 I2'
_cell_volume   287.85866784
_cell_formula_units_Z   1
loop_
 _symmetry_equiv_pos_site_id
 _symmetry_equiv_pos_as_xyz
  1  'x, y, z'
loop_
 _atom_site_type_symbol
 _atom_site_label
 _atom_site_symmetry_multiplicity
 _atom_site_fract_x
 _atom_site_fract_y
 _atom_site_fract_z
 _atom_site_occupancy
  Ca  Ca0  1  0.000000  0.000000  0.393089  1
  Eu  Eu1  1  0.000000  0.000000  0.108828  1
  Eu  Eu2  1  0.000000  0.000000  0.890823  1
  Eu  Eu3  1  0.000000  0.000000  0.607110  1
  Ir  Ir4  1  0.333333  0.666667  0.500001  1
  Ir  Ir5  1  0.666667  0.333333  0.498509  1
  Ir  Ir6  1  0.666667  0.333333  0.000697  1
  Ir  Ir7  1  0.333333  0.666667  0.999099  1
  I  I8  1  0.333333  0.666667  0.252179  1
  I  I9  1  0.666667  0.333333  0.749665  1
