# generated using pymatgen
data_Tm3Sc3Co2(Ni3B)4
_symmetry_space_group_name_H-M   'P 1'
_cell_length_a   4.95738000
_cell_length_b   4.98959313
_cell_length_c   14.10366015
_cell_angle_alpha   90.01307417
_cell_angle_beta   90.00000000
_cell_angle_gamma   119.78667716
_symmetry_Int_Tables_number   1
_chemical_formula_structural   Tm3Sc3Co2(Ni3B)4
_chemical_formula_sum   'Tm3 Sc3 Co2 Ni12 B4'
_cell_volume   302.76755867
_cell_formula_units_Z   1
loop_
 _symmetry_equiv_pos_site_id
 _symmetry_equiv_pos_as_xyz
  1  'x, y, z'
loop_
 _atom_site_type_symbol
 _atom_site_label
 _atom_site_symmetry_multiplicity
 _atom_site_fract_x
 _atom_site_fract_y
 _atom_site_fract_z
 _atom_site_occupancy
  Tm  Tm0  1  0.333824  0.667649  0.970042  1
  Tm  Tm1  1  0.333733  0.667468  0.746644  1
  Tm  Tm2  1  0.666428  0.332854  0.252238  1
  Sc  Sc3  1  0.333143  0.666288  0.529736  1
  Sc  Sc4  1  0.666709  0.333416  0.035287  1
  Sc  Sc5  1  0.666183  0.332365  0.473299  1
  Co  Co6  1  0.163571  0.327143  0.149102  1
  Co  Co7  1  0.835768  0.671536  0.645895  1
  Ni  Ni8  1  0.002098  0.004197  0.000012  1
  Ni  Ni9  1  0.997742  0.995482  0.499585  1
  Ni  Ni10  1  0.667817  0.832034  0.147185  1
  Ni  Ni11  1  0.164217  0.832034  0.147185  1
  Ni  Ni12  1  0.835078  0.168028  0.644039  1
  Ni  Ni13  1  0.332950  0.168028  0.644039  1
  Ni  Ni14  1  0.833485  0.666970  0.852669  1
  Ni  Ni15  1  0.833734  0.166699  0.851847  1
  Ni  Ni16  1  0.332965  0.166699  0.851847  1
  Ni  Ni17  1  0.667253  0.833728  0.354654  1
  Ni  Ni18  1  0.166474  0.833728  0.354654  1
  Ni  Ni19  1  0.166704  0.333407  0.355651  1
  B  B20  1  0.330633  0.661265  0.249447  1
  B  B21  1  0.669261  0.338522  0.747106  1
  B  B22  1  0.003283  0.006565  0.250206  1
  B  B23  1  0.996947  0.993895  0.747628  1
