# generated using pymatgen
data_Hf2Zr4Be14AlCu8
_symmetry_space_group_name_H-M   'P 1'
_cell_length_a   7.92184331
_cell_length_b   7.92184405
_cell_length_c   7.91050500
_cell_angle_alpha   60.04733373
_cell_angle_beta   60.04733065
_cell_angle_gamma   59.90533122
_symmetry_Int_Tables_number   1
_chemical_formula_structural   Hf2Zr4Be14AlCu8
_chemical_formula_sum   'Hf2 Zr4 Be14 Al1 Cu8'
_cell_volume   351.02654334
_cell_formula_units_Z   1
loop_
 _symmetry_equiv_pos_site_id
 _symmetry_equiv_pos_as_xyz
  1  'x, y, z'
loop_
 _atom_site_type_symbol
 _atom_site_label
 _atom_site_symmetry_multiplicity
 _atom_site_fract_x
 _atom_site_fract_y
 _atom_site_fract_z
 _atom_site_occupancy
  Hf  Hf0  1  0.295733  0.295733  0.704267  1
  Hf  Hf1  1  0.704267  0.704267  0.295733  1
  Zr  Zr2  1  0.702468  0.297532  0.297532  1
  Zr  Zr3  1  0.297532  0.702468  0.702468  1
  Zr  Zr4  1  0.297532  0.702468  0.297532  1
  Zr  Zr5  1  0.702468  0.297532  0.702468  1
  Be  Be6  1  0.324449  0.324449  0.325072  1
  Be  Be7  1  0.675551  0.675551  0.674928  1
  Be  Be8  1  0.324449  0.324449  0.026030  1
  Be  Be9  1  0.325072  0.026030  0.324449  1
  Be  Be10  1  0.675551  0.675551  0.973970  1
  Be  Be11  1  0.674928  0.973970  0.675551  1
  Be  Be12  1  0.026030  0.325072  0.324449  1
  Be  Be13  1  0.973970  0.674928  0.675551  1
  Be  Be14  1  0.500000  0.000000  0.000000  1
  Be  Be15  1  0.000000  0.500000  0.500000  1
  Be  Be16  1  0.000000  0.500000  0.000000  1
  Be  Be17  1  0.500000  0.000000  0.500000  1
  Be  Be18  1  0.000000  0.000000  0.500000  1
  Be  Be19  1  0.500000  0.500000  0.000000  1
  Al  Al20  1  0.000000  0.000000  0.000000  1
  Cu  Cu21  1  0.127931  0.127931  0.126374  1
  Cu  Cu22  1  0.872069  0.872069  0.873626  1
  Cu  Cu23  1  0.127931  0.127931  0.617764  1
  Cu  Cu24  1  0.126374  0.617764  0.127931  1
  Cu  Cu25  1  0.872069  0.872069  0.382236  1
  Cu  Cu26  1  0.873626  0.382236  0.872069  1
  Cu  Cu27  1  0.617764  0.126374  0.127931  1
  Cu  Cu28  1  0.382236  0.873626  0.872069  1
