# generated using pymatgen
data_NaTbH9W
_symmetry_space_group_name_H-M   'P 1'
_cell_length_a   8.54468900
_cell_length_b   8.54468774
_cell_length_c   5.02293300
_cell_angle_alpha   90.00000000
_cell_angle_beta   90.00000000
_cell_angle_gamma   120.00000874
_symmetry_Int_Tables_number   1
_chemical_formula_structural   NaTbH9W
_chemical_formula_sum   'Na3 Tb3 H27 W3'
_cell_volume   317.59995738
_cell_formula_units_Z   3
loop_
 _symmetry_equiv_pos_site_id
 _symmetry_equiv_pos_as_xyz
  1  'x, y, z'
loop_
 _atom_site_type_symbol
 _atom_site_label
 _atom_site_symmetry_multiplicity
 _atom_site_fract_x
 _atom_site_fract_y
 _atom_site_fract_z
 _atom_site_occupancy
  Na  Na0  1  0.000000  0.600067  0.000000  1
  Na  Na1  1  0.399933  0.399933  0.000000  1
  Na  Na2  1  0.600067  0.000000  0.000000  1
  Tb  Tb3  1  0.000000  0.262900  0.500000  1
  Tb  Tb4  1  0.737100  0.737100  0.500000  1
  Tb  Tb5  1  0.262900  0.000000  0.500000  1
  H  H6  1  0.817647  0.338838  0.750716  1
  H  H7  1  0.661162  0.478808  0.750716  1
  H  H8  1  0.521192  0.182353  0.750716  1
  H  H9  1  0.182353  0.521192  0.249284  1
  H  H10  1  0.521192  0.182353  0.249284  1
  H  H11  1  0.817647  0.338838  0.249284  1
  H  H12  1  0.661162  0.478808  0.249284  1
  H  H13  1  0.338838  0.817647  0.750716  1
  H  H14  1  0.478808  0.661162  0.750716  1
  H  H15  1  0.209436  0.000000  0.000000  1
  H  H16  1  0.790564  0.790564  0.000000  1
  H  H17  1  0.000000  0.209436  0.000000  1
  H  H18  1  0.846004  0.000000  0.260157  1
  H  H19  1  0.153996  0.153996  0.739843  1
  H  H20  1  0.000000  0.846004  0.739843  1
  H  H21  1  0.000000  0.846004  0.260157  1
  H  H22  1  0.153996  0.153996  0.260157  1
  H  H23  1  0.846004  0.000000  0.739843  1
  H  H24  1  0.134688  0.683622  0.500000  1
  H  H25  1  0.548934  0.865312  0.500000  1
  H  H26  1  0.316378  0.451066  0.500000  1
  H  H27  1  0.451066  0.316378  0.500000  1
  H  H28  1  0.865312  0.548934  0.500000  1
  H  H29  1  0.683622  0.134688  0.500000  1
  H  H30  1  0.182353  0.521192  0.750716  1
  H  H31  1  0.338838  0.817647  0.249284  1
  H  H32  1  0.478808  0.661162  0.249284  1
  W  W33  1  0.666667  0.333333  0.500000  1
  W  W34  1  0.333333  0.666667  0.500000  1
  W  W35  1  0.000000  0.000000  0.000000  1
