# generated using pymatgen
data_Er2AlSi13Ir6
_symmetry_space_group_name_H-M   'P 1'
_cell_length_a   8.01602811
_cell_length_b   8.01602771
_cell_length_c   8.01602642
_cell_angle_alpha   57.05380435
_cell_angle_beta   57.05380800
_cell_angle_gamma   57.05379746
_symmetry_Int_Tables_number   1
_chemical_formula_structural   Er2AlSi13Ir6
_chemical_formula_sum   'Er2 Al1 Si13 Ir6'
_cell_volume   339.48327148
_cell_formula_units_Z   1
loop_
 _symmetry_equiv_pos_site_id
 _symmetry_equiv_pos_as_xyz
  1  'x, y, z'
loop_
 _atom_site_type_symbol
 _atom_site_label
 _atom_site_symmetry_multiplicity
 _atom_site_fract_x
 _atom_site_fract_y
 _atom_site_fract_z
 _atom_site_occupancy
  Er  Er0  1  0.999435  0.999435  0.999435  1
  Er  Er1  1  0.500565  0.500565  0.500565  1
  Al  Al2  1  0.750000  0.750000  0.750000  1
  Si  Si3  1  0.250000  0.250000  0.250000  1
  Si  Si4  1  0.850303  0.064725  0.671135  1
  Si  Si5  1  0.671135  0.850303  0.064725  1
  Si  Si6  1  0.064725  0.671135  0.850303  1
  Si  Si7  1  0.649697  0.828865  0.435275  1
  Si  Si8  1  0.435275  0.649697  0.828865  1
  Si  Si9  1  0.828865  0.435275  0.649697  1
  Si  Si10  1  0.169848  0.562116  0.355999  1
  Si  Si11  1  0.562116  0.355999  0.169848  1
  Si  Si12  1  0.355999  0.169848  0.562116  1
  Si  Si13  1  0.937884  0.330152  0.144001  1
  Si  Si14  1  0.330152  0.144001  0.937884  1
  Si  Si15  1  0.144001  0.937884  0.330152  1
  Ir  Ir16  1  0.081496  0.418504  0.750000  1
  Ir  Ir17  1  0.250000  0.927640  0.572360  1
  Ir  Ir18  1  0.572360  0.250000  0.927640  1
  Ir  Ir19  1  0.927640  0.572360  0.250000  1
  Ir  Ir20  1  0.418504  0.750000  0.081496  1
  Ir  Ir21  1  0.750000  0.081496  0.418504  1
