# generated using pymatgen
data_Dy4Sc6SiSn7
_symmetry_space_group_name_H-M   'P 1'
_cell_length_a   7.61604539
_cell_length_b   7.87029767
_cell_length_c   14.77512100
_cell_angle_alpha   90.00000000
_cell_angle_beta   90.00000000
_cell_angle_gamma   89.33212647
_symmetry_Int_Tables_number   1
_chemical_formula_structural   Dy4Sc6SiSn7
_chemical_formula_sum   'Dy8 Sc12 Si2 Sn14'
_cell_volume   885.56862779
_cell_formula_units_Z   2
loop_
 _symmetry_equiv_pos_site_id
 _symmetry_equiv_pos_as_xyz
  1  'x, y, z'
loop_
 _atom_site_type_symbol
 _atom_site_label
 _atom_site_symmetry_multiplicity
 _atom_site_fract_x
 _atom_site_fract_y
 _atom_site_fract_z
 _atom_site_occupancy
  Dy  Dy0  1  0.992174  0.168079  0.098171  1
  Dy  Dy1  1  0.007826  0.831921  0.901829  1
  Dy  Dy2  1  0.505249  0.678074  0.905659  1
  Dy  Dy3  1  0.007826  0.831921  0.598171  1
  Dy  Dy4  1  0.494751  0.321926  0.094341  1
  Dy  Dy5  1  0.992174  0.168079  0.401829  1
  Dy  Dy6  1  0.494751  0.321926  0.405659  1
  Dy  Dy7  1  0.505249  0.678074  0.594341  1
  Sc  Sc8  1  0.166537  0.489500  0.750000  1
  Sc  Sc9  1  0.833463  0.510500  0.250000  1
  Sc  Sc10  1  0.320118  0.992768  0.250000  1
  Sc  Sc11  1  0.679882  0.007232  0.750000  1
  Sc  Sc12  1  0.324010  0.159987  0.629080  1
  Sc  Sc13  1  0.675990  0.840013  0.370920  1
  Sc  Sc14  1  0.146622  0.674201  0.367199  1
  Sc  Sc15  1  0.675990  0.840013  0.129080  1
  Sc  Sc16  1  0.853378  0.325799  0.632801  1
  Sc  Sc17  1  0.324010  0.159987  0.870920  1
  Sc  Sc18  1  0.853378  0.325799  0.867199  1
  Sc  Sc19  1  0.146622  0.674201  0.132801  1
  Si  Si20  1  0.036469  0.127737  0.750000  1
  Si  Si21  1  0.963531  0.872263  0.250000  1
  Sn  Sn22  1  0.469574  0.625950  0.250000  1
  Sn  Sn23  1  0.530426  0.374050  0.750000  1
  Sn  Sn24  1  0.308339  0.852716  0.750000  1
  Sn  Sn25  1  0.691661  0.147284  0.250000  1
  Sn  Sn26  1  0.191394  0.352358  0.250000  1
  Sn  Sn27  1  0.808606  0.647642  0.750000  1
  Sn  Sn28  1  0.179532  0.460486  0.539400  1
  Sn  Sn29  1  0.820468  0.539514  0.460600  1
  Sn  Sn30  1  0.320621  0.955235  0.457617  1
  Sn  Sn31  1  0.820468  0.539514  0.039400  1
  Sn  Sn32  1  0.679379  0.044765  0.542383  1
  Sn  Sn33  1  0.179532  0.460486  0.960600  1
  Sn  Sn34  1  0.679379  0.044765  0.957617  1
  Sn  Sn35  1  0.320621  0.955235  0.042383  1
