# generated using pymatgen
data_Nd3GaSn3IrRh
_symmetry_space_group_name_H-M   'P 1'
_cell_length_a   7.52912000
_cell_length_b   7.52911934
_cell_length_c   4.26674800
_cell_angle_alpha   90.00000000
_cell_angle_beta   90.00000000
_cell_angle_gamma   119.99999413
_symmetry_Int_Tables_number   1
_chemical_formula_structural   Nd3GaSn3IrRh
_chemical_formula_sum   'Nd3 Ga1 Sn3 Ir1 Rh1'
_cell_volume   209.46721128
_cell_formula_units_Z   1
loop_
 _symmetry_equiv_pos_site_id
 _symmetry_equiv_pos_as_xyz
  1  'x, y, z'
loop_
 _atom_site_type_symbol
 _atom_site_label
 _atom_site_symmetry_multiplicity
 _atom_site_fract_x
 _atom_site_fract_y
 _atom_site_fract_z
 _atom_site_occupancy
  Nd  Nd0  1  0.596235  0.009149  0.000000  1
  Nd  Nd1  1  0.990851  0.587085  0.000000  1
  Nd  Nd2  1  0.412915  0.403765  0.000000  1
  Ga  Ga3  1  0.333333  0.666667  0.500000  1
  Sn  Sn4  1  0.253491  0.008526  0.500000  1
  Sn  Sn5  1  0.991474  0.244965  0.500000  1
  Sn  Sn6  1  0.755035  0.746509  0.500000  1
  Ir  Ir7  1  0.666667  0.333333  0.500000  1
  Rh  Rh8  1  0.000000  0.000000  0.000000  1
