# generated using pymatgen
data_Pr2SmEr2(Sn5Rh2)2
_symmetry_space_group_name_H-M   'P 1'
_cell_length_a   14.17073600
_cell_length_b   14.17073600
_cell_length_c   4.56905000
_cell_angle_alpha   90.00000000
_cell_angle_beta   90.00000000
_cell_angle_gamma   90.00000000
_symmetry_Int_Tables_number   1
_chemical_formula_structural   Pr2SmEr2(Sn5Rh2)2
_chemical_formula_sum   'Pr4 Sm2 Er4 Sn20 Rh8'
_cell_volume   917.50982836
_cell_formula_units_Z   2
loop_
 _symmetry_equiv_pos_site_id
 _symmetry_equiv_pos_as_xyz
  1  'x, y, z'
loop_
 _atom_site_type_symbol
 _atom_site_label
 _atom_site_symmetry_multiplicity
 _atom_site_fract_x
 _atom_site_fract_y
 _atom_site_fract_z
 _atom_site_occupancy
  Pr  Pr0  1  0.888048  0.388048  0.500000  1
  Pr  Pr1  1  0.111952  0.611952  0.500000  1
  Pr  Pr2  1  0.388048  0.111952  0.500000  1
  Pr  Pr3  1  0.611952  0.888048  0.500000  1
  Sm  Sm4  1  0.500000  0.500000  0.000000  1
  Sm  Sm5  1  0.000000  0.000000  0.000000  1
  Er  Er6  1  0.676751  0.176751  0.500000  1
  Er  Er7  1  0.323249  0.823249  0.500000  1
  Er  Er8  1  0.176751  0.323249  0.500000  1
  Er  Er9  1  0.823249  0.676751  0.500000  1
  Sn  Sn10  1  0.570301  0.070301  0.000000  1
  Sn  Sn11  1  0.429699  0.929699  0.000000  1
  Sn  Sn12  1  0.070301  0.429699  0.000000  1
  Sn  Sn13  1  0.929699  0.570301  0.000000  1
  Sn  Sn14  1  0.654341  0.698395  0.000000  1
  Sn  Sn15  1  0.345659  0.301605  0.000000  1
  Sn  Sn16  1  0.154341  0.801605  0.000000  1
  Sn  Sn17  1  0.845659  0.198395  0.000000  1
  Sn  Sn18  1  0.301605  0.654341  0.000000  1
  Sn  Sn19  1  0.698395  0.345659  0.000000  1
  Sn  Sn20  1  0.198395  0.154341  0.000000  1
  Sn  Sn21  1  0.801605  0.845659  0.000000  1
  Sn  Sn22  1  0.663040  0.506016  0.500000  1
  Sn  Sn23  1  0.336960  0.493984  0.500000  1
  Sn  Sn24  1  0.163040  0.993984  0.500000  1
  Sn  Sn25  1  0.836960  0.006016  0.500000  1
  Sn  Sn26  1  0.493984  0.663040  0.500000  1
  Sn  Sn27  1  0.506016  0.336960  0.500000  1
  Sn  Sn28  1  0.006016  0.163040  0.500000  1
  Sn  Sn29  1  0.993984  0.836960  0.500000  1
  Rh  Rh30  1  0.747149  0.529842  0.000000  1
  Rh  Rh31  1  0.252851  0.470158  0.000000  1
  Rh  Rh32  1  0.247149  0.970158  0.000000  1
  Rh  Rh33  1  0.752851  0.029842  0.000000  1
  Rh  Rh34  1  0.470158  0.747149  0.000000  1
  Rh  Rh35  1  0.529842  0.252851  0.000000  1
  Rh  Rh36  1  0.029842  0.247149  0.000000  1
  Rh  Rh37  1  0.970158  0.752851  0.000000  1
