# generated using pymatgen
data_Mg3NiSn3Pd2
_symmetry_space_group_name_H-M   'P 1'
_cell_length_a   7.64523700
_cell_length_b   7.64523635
_cell_length_c   3.30005400
_cell_angle_alpha   90.00000000
_cell_angle_beta   90.00000000
_cell_angle_gamma   119.99999848
_symmetry_Int_Tables_number   1
_chemical_formula_structural   Mg3NiSn3Pd2
_chemical_formula_sum   'Mg3 Ni1 Sn3 Pd2'
_cell_volume   167.04502810
_cell_formula_units_Z   1
loop_
 _symmetry_equiv_pos_site_id
 _symmetry_equiv_pos_as_xyz
  1  'x, y, z'
loop_
 _atom_site_type_symbol
 _atom_site_label
 _atom_site_symmetry_multiplicity
 _atom_site_fract_x
 _atom_site_fract_y
 _atom_site_fract_z
 _atom_site_occupancy
  Mg  Mg0  1  0.000000  0.611329  0.000000  1
  Mg  Mg1  1  0.388671  0.388671  0.000000  1
  Mg  Mg2  1  0.611329  0.000000  0.000000  1
  Ni  Ni3  1  0.000000  0.000000  0.000000  1
  Sn  Sn4  1  0.730054  0.730054  0.500000  1
  Sn  Sn5  1  0.000000  0.269946  0.500000  1
  Sn  Sn6  1  0.269946  0.000000  0.500000  1
  Pd  Pd7  1  0.333333  0.666667  0.500000  1
  Pd  Pd8  1  0.666667  0.333333  0.500000  1
