# generated using pymatgen
data_Tb5NpCdO12
_symmetry_space_group_name_H-M   'P 1'
_cell_length_a   6.64646980
_cell_length_b   6.64423791
_cell_length_c   6.53845749
_cell_angle_alpha   98.94472708
_cell_angle_beta   97.86623469
_cell_angle_gamma   99.22275178
_symmetry_Int_Tables_number   1
_chemical_formula_structural   Tb5NpCdO12
_chemical_formula_sum   'Tb5 Np1 Cd1 O12'
_cell_volume   277.64202041
_cell_formula_units_Z   1
loop_
 _symmetry_equiv_pos_site_id
 _symmetry_equiv_pos_as_xyz
  1  'x, y, z'
loop_
 _atom_site_type_symbol
 _atom_site_label
 _atom_site_symmetry_multiplicity
 _atom_site_fract_x
 _atom_site_fract_y
 _atom_site_fract_z
 _atom_site_occupancy
  Tb  Tb0  1  0.852176  0.672924  0.391642  1
  Tb  Tb1  1  0.389529  0.860239  0.678090  1
  Tb  Tb2  1  0.326578  0.611610  0.148507  1
  Tb  Tb3  1  0.145380  0.326700  0.615386  1
  Tb  Tb4  1  0.611088  0.147751  0.319180  1
  Np  Np5  1  0.004713  0.997554  0.003861  1
  Cd  Cd6  1  0.661950  0.403920  0.844827  1
  O  O7  1  0.413158  0.171561  0.570704  1
  O  O8  1  0.593600  0.431033  0.173402  1
  O  O9  1  0.174454  0.593703  0.431185  1
  O  O10  1  0.571791  0.822304  0.407611  1
  O  O11  1  0.387483  0.579798  0.819876  1
  O  O12  1  0.819557  0.407021  0.570046  1
  O  O13  1  0.096499  0.292840  0.967724  1
  O  O14  1  0.705107  0.016146  0.928698  1
  O  O15  1  0.041291  0.921304  0.696176  1
  O  O16  1  0.942884  0.703302  0.052817  1
  O  O17  1  0.306547  0.960743  0.073797  1
  O  O18  1  0.956216  0.079547  0.306471  1
