# generated using pymatgen
data_CsZr2(H6Ir)2
_symmetry_space_group_name_H-M   'P 1'
_cell_length_a   4.71730100
_cell_length_b   4.71730205
_cell_length_c   9.78910000
_cell_angle_alpha   90.00000000
_cell_angle_beta   90.00000000
_cell_angle_gamma   119.99998565
_symmetry_Int_Tables_number   1
_chemical_formula_structural   CsZr2(H6Ir)2
_chemical_formula_sum   'Cs1 Zr2 H12 Ir2'
_cell_volume   188.65170418
_cell_formula_units_Z   1
loop_
 _symmetry_equiv_pos_site_id
 _symmetry_equiv_pos_as_xyz
  1  'x, y, z'
loop_
 _atom_site_type_symbol
 _atom_site_label
 _atom_site_symmetry_multiplicity
 _atom_site_fract_x
 _atom_site_fract_y
 _atom_site_fract_z
 _atom_site_occupancy
  Cs  Cs0  1  0.000000  0.000000  0.000000  1
  Zr  Zr1  1  0.666667  0.333333  0.388975  1
  Zr  Zr2  1  0.333333  0.666667  0.611025  1
  H  H3  1  0.163011  0.836989  0.402937  1
  H  H4  1  0.673977  0.836989  0.402937  1
  H  H5  1  0.163011  0.326023  0.402937  1
  H  H6  1  0.836989  0.163011  0.597063  1
  H  H7  1  0.326023  0.163011  0.597063  1
  H  H8  1  0.836989  0.673977  0.597063  1
  H  H9  1  0.496840  0.993681  0.798227  1
  H  H10  1  0.496840  0.503160  0.798227  1
  H  H11  1  0.006319  0.503160  0.798227  1
  H  H12  1  0.503160  0.006319  0.201773  1
  H  H13  1  0.503160  0.496840  0.201773  1
  H  H14  1  0.993681  0.496840  0.201773  1
  Ir  Ir15  1  0.666667  0.333333  0.700759  1
  Ir  Ir16  1  0.333333  0.666667  0.299241  1
