# generated using pymatgen
data_Rb4YHoF10
_symmetry_space_group_name_H-M   'P 1'
_cell_length_a   6.94118034
_cell_length_b   7.44884100
_cell_length_c   11.48633177
_cell_angle_alpha   90.00000000
_cell_angle_beta   89.88233495
_cell_angle_gamma   90.00000000
_symmetry_Int_Tables_number   1
_chemical_formula_structural   Rb4YHoF10
_chemical_formula_sum   'Rb8 Y2 Ho2 F20'
_cell_volume   593.88515936
_cell_formula_units_Z   2
loop_
 _symmetry_equiv_pos_site_id
 _symmetry_equiv_pos_as_xyz
  1  'x, y, z'
loop_
 _atom_site_type_symbol
 _atom_site_label
 _atom_site_symmetry_multiplicity
 _atom_site_fract_x
 _atom_site_fract_y
 _atom_site_fract_z
 _atom_site_occupancy
  Rb  Rb0  1  0.536458  0.997219  0.828489  1
  Rb  Rb1  1  0.463542  0.497219  0.171511  1
  Rb  Rb2  1  0.963370  0.996981  0.329783  1
  Rb  Rb3  1  0.036630  0.496981  0.670217  1
  Rb  Rb4  1  0.536458  0.502781  0.828489  1
  Rb  Rb5  1  0.463542  0.002781  0.171511  1
  Rb  Rb6  1  0.963370  0.503019  0.329783  1
  Rb  Rb7  1  0.036630  0.003019  0.670217  1
  Y  Y8  1  0.939603  0.250000  0.001728  1
  Y  Y9  1  0.060397  0.750000  0.998272  1
  Ho  Ho10  1  0.559344  0.250000  0.501453  1
  Ho  Ho11  1  0.440656  0.750000  0.498547  1
  F  F12  1  0.881425  0.750000  0.838872  1
  F  F13  1  0.118575  0.250000  0.161128  1
  F  F14  1  0.617661  0.750000  0.340065  1
  F  F15  1  0.382339  0.250000  0.659935  1
  F  F16  1  0.848713  0.250000  0.816518  1
  F  F17  1  0.151287  0.750000  0.183482  1
  F  F18  1  0.650251  0.250000  0.317755  1
  F  F19  1  0.349749  0.750000  0.682245  1
  F  F20  1  0.641780  0.964960  0.568975  1
  F  F21  1  0.358220  0.464960  0.431025  1
  F  F22  1  0.856679  0.964993  0.070263  1
  F  F23  1  0.143321  0.464993  0.929737  1
  F  F24  1  0.377859  0.750000  0.984838  1
  F  F25  1  0.622141  0.250000  0.015162  1
  F  F26  1  0.126227  0.750000  0.484282  1
  F  F27  1  0.873773  0.250000  0.515718  1
  F  F28  1  0.143321  0.035007  0.929737  1
  F  F29  1  0.856679  0.535007  0.070263  1
  F  F30  1  0.358220  0.035040  0.431025  1
  F  F31  1  0.641780  0.535040  0.568975  1
