# generated using pymatgen
data_Lu3ZnHg2C
_symmetry_space_group_name_H-M   'P 1'
_cell_length_a   9.21676694
_cell_length_b   9.21676762
_cell_length_c   9.21676900
_cell_angle_alpha   59.99999863
_cell_angle_beta   59.99999618
_cell_angle_gamma   59.99999576
_symmetry_Int_Tables_number   1
_chemical_formula_structural   Lu3ZnHg2C
_chemical_formula_sum   'Lu12 Zn4 Hg8 C4'
_cell_volume   553.63165969
_cell_formula_units_Z   4
loop_
 _symmetry_equiv_pos_site_id
 _symmetry_equiv_pos_as_xyz
  1  'x, y, z'
loop_
 _atom_site_type_symbol
 _atom_site_label
 _atom_site_symmetry_multiplicity
 _atom_site_fract_x
 _atom_site_fract_y
 _atom_site_fract_z
 _atom_site_occupancy
  Lu  Lu0  1  0.443115  0.443115  0.056885  1
  Lu  Lu1  1  0.056885  0.443115  0.056885  1
  Lu  Lu2  1  0.443115  0.056885  0.056885  1
  Lu  Lu3  1  0.056885  0.056885  0.443115  1
  Lu  Lu4  1  0.443115  0.056885  0.443115  1
  Lu  Lu5  1  0.056885  0.443115  0.443115  1
  Lu  Lu6  1  0.806885  0.806885  0.193115  1
  Lu  Lu7  1  0.193115  0.806885  0.193115  1
  Lu  Lu8  1  0.806885  0.193115  0.193115  1
  Lu  Lu9  1  0.193115  0.193115  0.806885  1
  Lu  Lu10  1  0.806885  0.193115  0.806885  1
  Lu  Lu11  1  0.193115  0.806885  0.806885  1
  Zn  Zn12  1  0.625000  0.625000  0.125000  1
  Zn  Zn13  1  0.625000  0.125000  0.625000  1
  Zn  Zn14  1  0.125000  0.625000  0.625000  1
  Zn  Zn15  1  0.625000  0.625000  0.625000  1
  Hg  Hg16  1  0.835690  0.835690  0.492932  1
  Hg  Hg17  1  0.835690  0.492932  0.835690  1
  Hg  Hg18  1  0.492932  0.835690  0.835690  1
  Hg  Hg19  1  0.835690  0.835690  0.835690  1
  Hg  Hg20  1  0.414310  0.414310  0.757068  1
  Hg  Hg21  1  0.414310  0.757068  0.414310  1
  Hg  Hg22  1  0.757068  0.414310  0.414310  1
  Hg  Hg23  1  0.414310  0.414310  0.414310  1
  C  C24  1  0.125000  0.125000  0.625000  1
  C  C25  1  0.125000  0.625000  0.125000  1
  C  C26  1  0.625000  0.125000  0.125000  1
  C  C27  1  0.125000  0.125000  0.125000  1
