# generated using pymatgen
data_Tb3Ho8ErNi4
_symmetry_space_group_name_H-M   'P 1'
_cell_length_a   6.33420913
_cell_length_b   6.81762327
_cell_length_c   9.50699709
_cell_angle_alpha   89.99191789
_cell_angle_beta   89.98684950
_cell_angle_gamma   90.02481410
_symmetry_Int_Tables_number   1
_chemical_formula_structural   Tb3Ho8ErNi4
_chemical_formula_sum   'Tb3 Ho8 Er1 Ni4'
_cell_volume   410.55249984
_cell_formula_units_Z   1
loop_
 _symmetry_equiv_pos_site_id
 _symmetry_equiv_pos_as_xyz
  1  'x, y, z'
loop_
 _atom_site_type_symbol
 _atom_site_label
 _atom_site_symmetry_multiplicity
 _atom_site_fract_x
 _atom_site_fract_y
 _atom_site_fract_z
 _atom_site_occupancy
  Tb  Tb0  1  0.861547  0.532030  0.249842  1
  Tb  Tb1  1  0.639143  0.032255  0.249948  1
  Tb  Tb2  1  0.139119  0.468069  0.750108  1
  Ho  Ho3  1  0.178951  0.177448  0.434239  1
  Ho  Ho4  1  0.678075  0.322047  0.566359  1
  Ho  Ho5  1  0.820619  0.822295  0.933884  1
  Ho  Ho6  1  0.677943  0.322044  0.933704  1
  Ho  Ho7  1  0.820698  0.822383  0.566245  1
  Ho  Ho8  1  0.321705  0.678221  0.434075  1
  Ho  Ho9  1  0.179095  0.177450  0.065803  1
  Ho  Ho10  1  0.360434  0.967116  0.750069  1
  Er  Er11  1  0.321753  0.678255  0.065939  1
  Ni  Ni12  1  0.056631  0.891110  0.249867  1
  Ni  Ni13  1  0.443945  0.391776  0.249800  1
  Ni  Ni14  1  0.945436  0.108073  0.749996  1
  Ni  Ni15  1  0.554906  0.609429  0.750123  1
