# generated using pymatgen
data_NaCr2PbF9
_symmetry_space_group_name_H-M   'P 1'
_cell_length_a   7.26744398
_cell_length_b   7.26744317
_cell_length_c   7.71724242
_cell_angle_alpha   88.25797166
_cell_angle_beta   88.25796921
_cell_angle_gamma   118.61790681
_symmetry_Int_Tables_number   1
_chemical_formula_structural   NaCr2PbF9
_chemical_formula_sum   'Na2 Cr4 Pb2 F18'
_cell_volume   357.16253045
_cell_formula_units_Z   2
loop_
 _symmetry_equiv_pos_site_id
 _symmetry_equiv_pos_as_xyz
  1  'x, y, z'
loop_
 _atom_site_type_symbol
 _atom_site_label
 _atom_site_symmetry_multiplicity
 _atom_site_fract_x
 _atom_site_fract_y
 _atom_site_fract_z
 _atom_site_occupancy
  Na  Na0  1  0.500000  0.000000  0.000000  1
  Na  Na1  1  0.000000  0.500000  0.500000  1
  Cr  Cr2  1  0.000000  0.000000  0.500000  1
  Cr  Cr3  1  0.000000  0.000000  0.000000  1
  Cr  Cr4  1  0.500000  0.000000  0.500000  1
  Cr  Cr5  1  0.000000  0.500000  0.000000  1
  Pb  Pb6  1  0.473572  0.526428  0.750000  1
  Pb  Pb7  1  0.526428  0.473572  0.250000  1
  F  F8  1  0.194880  0.890938  0.538426  1
  F  F9  1  0.805120  0.109062  0.461574  1
  F  F10  1  0.109062  0.805120  0.961574  1
  F  F11  1  0.890938  0.194880  0.038426  1
  F  F12  1  0.974616  0.025384  0.750000  1
  F  F13  1  0.025384  0.974616  0.250000  1
  F  F14  1  0.513663  0.894535  0.730100  1
  F  F15  1  0.486337  0.105465  0.269900  1
  F  F16  1  0.105465  0.486337  0.769900  1
  F  F17  1  0.894535  0.513663  0.230100  1
  F  F18  1  0.569688  0.276050  0.577844  1
  F  F19  1  0.430312  0.723950  0.422156  1
  F  F20  1  0.723950  0.430312  0.922156  1
  F  F21  1  0.276050  0.569688  0.077844  1
  F  F22  1  0.708888  0.785062  0.023380  1
  F  F23  1  0.291112  0.214938  0.976620  1
  F  F24  1  0.214938  0.291112  0.476620  1
  F  F25  1  0.785062  0.708888  0.523380  1
