# generated using pymatgen
data_AcPrPa2(GeRh)4
_symmetry_space_group_name_H-M   'P 1'
_cell_length_a   4.44611600
_cell_length_b   7.70959753
_cell_length_c   7.49057386
_cell_angle_alpha   93.29922769
_cell_angle_beta   90.00000000
_cell_angle_gamma   90.00000000
_symmetry_Int_Tables_number   1
_chemical_formula_structural   AcPrPa2(GeRh)4
_chemical_formula_sum   'Ac1 Pr1 Pa2 Ge4 Rh4'
_cell_volume   256.33457384
_cell_formula_units_Z   1
loop_
 _symmetry_equiv_pos_site_id
 _symmetry_equiv_pos_as_xyz
  1  'x, y, z'
loop_
 _atom_site_type_symbol
 _atom_site_label
 _atom_site_symmetry_multiplicity
 _atom_site_fract_x
 _atom_site_fract_y
 _atom_site_fract_z
 _atom_site_occupancy
  Ac  Ac0  1  0.750000  0.006036  0.233566  1
  Pr  Pr1  1  0.250000  0.997294  0.757274  1
  Pa  Pa2  1  0.250000  0.501250  0.699115  1
  Pa  Pa3  1  0.750000  0.496209  0.305441  1
  Ge  Ge4  1  0.250000  0.293169  0.084262  1
  Ge  Ge5  1  0.750000  0.709882  0.911160  1
  Ge  Ge6  1  0.250000  0.771364  0.398410  1
  Ge  Ge7  1  0.750000  0.219831  0.611513  1
  Rh  Rh8  1  0.750000  0.731752  0.568864  1
  Rh  Rh9  1  0.250000  0.271201  0.434493  1
  Rh  Rh10  1  0.750000  0.372989  0.940493  1
  Rh  Rh11  1  0.250000  0.629023  0.055408  1
