# generated using pymatgen
data_Er6Ti4Al12TcRh6
_symmetry_space_group_name_H-M   'P 1'
_cell_length_a   8.96096893
_cell_length_b   8.96096832
_cell_length_c   8.96097000
_cell_angle_alpha   60.00000118
_cell_angle_beta   60.00000342
_cell_angle_gamma   60.00000004
_symmetry_Int_Tables_number   1
_chemical_formula_structural   Er6Ti4Al12TcRh6
_chemical_formula_sum   'Er6 Ti4 Al12 Tc1 Rh6'
_cell_volume   508.80334063
_cell_formula_units_Z   1
loop_
 _symmetry_equiv_pos_site_id
 _symmetry_equiv_pos_as_xyz
  1  'x, y, z'
loop_
 _atom_site_type_symbol
 _atom_site_label
 _atom_site_symmetry_multiplicity
 _atom_site_fract_x
 _atom_site_fract_y
 _atom_site_fract_z
 _atom_site_occupancy
  Er  Er0  1  0.704852  0.295148  0.295148  1
  Er  Er1  1  0.704852  0.295148  0.704852  1
  Er  Er2  1  0.704852  0.704852  0.295148  1
  Er  Er3  1  0.295148  0.704852  0.704852  1
  Er  Er4  1  0.295148  0.704852  0.295148  1
  Er  Er5  1  0.295148  0.295148  0.704852  1
  Ti  Ti6  1  0.644284  0.118572  0.118572  1
  Ti  Ti7  1  0.118572  0.644284  0.118572  1
  Ti  Ti8  1  0.118572  0.118572  0.644284  1
  Ti  Ti9  1  0.118572  0.118572  0.118572  1
  Al  Al10  1  0.354513  0.881829  0.881829  1
  Al  Al11  1  0.881829  0.354513  0.881829  1
  Al  Al12  1  0.881829  0.881829  0.354513  1
  Al  Al13  1  0.881829  0.881829  0.881829  1
  Al  Al14  1  0.012329  0.329224  0.329224  1
  Al  Al15  1  0.329224  0.012329  0.329224  1
  Al  Al16  1  0.329224  0.329224  0.012329  1
  Al  Al17  1  0.329224  0.329224  0.329224  1
  Al  Al18  1  0.986072  0.671309  0.671309  1
  Al  Al19  1  0.671309  0.986072  0.671309  1
  Al  Al20  1  0.671309  0.671309  0.986072  1
  Al  Al21  1  0.671309  0.671309  0.671309  1
  Tc  Tc22  1  0.000000  0.000000  0.000000  1
  Rh  Rh23  1  0.498876  0.001124  0.001124  1
  Rh  Rh24  1  0.498876  0.001124  0.498876  1
  Rh  Rh25  1  0.498876  0.498876  0.001124  1
  Rh  Rh26  1  0.001124  0.498876  0.498876  1
  Rh  Rh27  1  0.001124  0.498876  0.001124  1
  Rh  Rh28  1  0.001124  0.001124  0.498876  1
