# generated using pymatgen
data_Ba4NaAs10Ir3Ru7
_symmetry_space_group_name_H-M   'P 1'
_cell_length_a   9.09062106
_cell_length_b   9.08883263
_cell_length_c   9.09197605
_cell_angle_alpha   118.35949006
_cell_angle_beta   118.36581630
_cell_angle_gamma   92.87380015
_symmetry_Int_Tables_number   1
_chemical_formula_structural   Ba4NaAs10Ir3Ru7
_chemical_formula_sum   'Ba4 Na1 As10 Ir3 Ru7'
_cell_volume   543.52923638
_cell_formula_units_Z   1
loop_
 _symmetry_equiv_pos_site_id
 _symmetry_equiv_pos_as_xyz
  1  'x, y, z'
loop_
 _atom_site_type_symbol
 _atom_site_label
 _atom_site_symmetry_multiplicity
 _atom_site_fract_x
 _atom_site_fract_y
 _atom_site_fract_z
 _atom_site_occupancy
  Ba  Ba0  1  0.195723  0.607323  0.804136  1
  Ba  Ba1  1  0.391490  0.196303  0.588457  1
  Ba  Ba2  1  0.607831  0.804017  0.411866  1
  Ba  Ba3  1  0.804510  0.392653  0.195586  1
  Na  Na4  1  0.000350  0.999991  0.000350  1
  As  As5  1  0.447593  0.048415  0.199096  1
  As  As6  1  0.644863  0.649414  0.002051  1
  As  As7  1  0.847424  0.247425  0.801309  1
  As  As8  1  0.046829  0.847013  0.600510  1
  As  As9  1  0.248643  0.443450  0.397137  1
  As  As10  1  0.356024  0.354680  0.002843  1
  As  As11  1  0.556022  0.953409  0.804452  1
  As  As12  1  0.749833  0.552153  0.597051  1
  As  As13  1  0.950454  0.150728  0.396513  1
  As  As14  1  0.152406  0.753225  0.198938  1
  Ir  Ir15  1  0.847695  0.550725  0.900306  1
  Ir  Ir16  1  0.050962  0.151130  0.700598  1
  Ir  Ir17  1  0.250907  0.748650  0.499500  1
  Ru  Ru18  1  0.349090  0.049762  0.897233  1
  Ru  Ru19  1  0.549390  0.649265  0.700768  1
  Ru  Ru20  1  0.751338  0.251340  0.502702  1
  Ru  Ru21  1  0.950501  0.848888  0.300525  1
  Ru  Ru22  1  0.150050  0.450440  0.098777  1
  Ru  Ru23  1  0.450350  0.349494  0.297893  1
  Ru  Ru24  1  0.649720  0.950107  0.101402  1
