# generated using pymatgen
data_Ba4LiCuO6
_symmetry_space_group_name_H-M   'P 1'
_cell_length_a   7.16868575
_cell_length_b   7.16868494
_cell_length_c   11.28042100
_cell_angle_alpha   90.00000000
_cell_angle_beta   90.00000000
_cell_angle_gamma   132.49840163
_symmetry_Int_Tables_number   1
_chemical_formula_structural   Ba4LiCuO6
_chemical_formula_sum   'Ba8 Li2 Cu2 O12'
_cell_volume   427.41162578
_cell_formula_units_Z   2
loop_
 _symmetry_equiv_pos_site_id
 _symmetry_equiv_pos_as_xyz
  1  'x, y, z'
loop_
 _atom_site_type_symbol
 _atom_site_label
 _atom_site_symmetry_multiplicity
 _atom_site_fract_x
 _atom_site_fract_y
 _atom_site_fract_z
 _atom_site_occupancy
  Ba  Ba0  1  0.179394  0.884750  0.750000  1
  Ba  Ba1  1  0.645921  0.354079  0.500000  1
  Ba  Ba2  1  0.820606  0.115250  0.250000  1
  Ba  Ba3  1  0.884750  0.179394  0.750000  1
  Ba  Ba4  1  0.115250  0.820606  0.250000  1
  Ba  Ba5  1  0.354079  0.645921  0.000000  1
  Ba  Ba6  1  0.354079  0.645921  0.500000  1
  Ba  Ba7  1  0.645921  0.354079  0.000000  1
  Li  Li8  1  0.535841  0.535841  0.250000  1
  Li  Li9  1  0.464159  0.464159  0.750000  1
  Cu  Cu10  1  0.000000  0.000000  0.000000  1
  Cu  Cu11  1  0.000000  0.000000  0.500000  1
  O  O12  1  0.278303  0.577546  0.250000  1
  O  O13  1  0.145856  0.854144  0.500000  1
  O  O14  1  0.577546  0.278303  0.250000  1
  O  O15  1  0.753273  0.753273  0.393765  1
  O  O16  1  0.145856  0.854144  0.000000  1
  O  O17  1  0.854144  0.145856  0.000000  1
  O  O18  1  0.422454  0.721697  0.750000  1
  O  O19  1  0.721697  0.422454  0.750000  1
  O  O20  1  0.753273  0.753273  0.106235  1
  O  O21  1  0.854144  0.145856  0.500000  1
  O  O22  1  0.246727  0.246727  0.606235  1
  O  O23  1  0.246727  0.246727  0.893765  1
