# generated using pymatgen
data_CeMn2(Al4Ni)2
_symmetry_space_group_name_H-M   'P 1'
_cell_length_a   5.12649732
_cell_length_b   6.66647133
_cell_length_c   6.75422314
_cell_angle_alpha   81.60953064
_cell_angle_beta   67.69709342
_cell_angle_gamma   67.38737983
_symmetry_Int_Tables_number   1
_chemical_formula_structural   CeMn2(Al4Ni)2
_chemical_formula_sum   'Ce1 Mn2 Al8 Ni2'
_cell_volume   197.14423177
_cell_formula_units_Z   1
loop_
 _symmetry_equiv_pos_site_id
 _symmetry_equiv_pos_as_xyz
  1  'x, y, z'
loop_
 _atom_site_type_symbol
 _atom_site_label
 _atom_site_symmetry_multiplicity
 _atom_site_fract_x
 _atom_site_fract_y
 _atom_site_fract_z
 _atom_site_occupancy
  Ce  Ce0  1  0.000000  0.000000  0.000000  1
  Mn  Mn1  1  0.000000  0.500000  0.000000  1
  Mn  Mn2  1  0.500000  0.500000  0.000000  1
  Al  Al3  1  0.342792  0.658674  0.655741  1
  Al  Al4  1  0.001466  0.341326  0.655741  1
  Al  Al5  1  0.998534  0.658674  0.344259  1
  Al  Al6  1  0.657208  0.341326  0.344259  1
  Al  Al7  1  0.276084  0.221214  0.226617  1
  Al  Al8  1  0.497298  0.778786  0.226617  1
  Al  Al9  1  0.502702  0.221214  0.773383  1
  Al  Al10  1  0.723916  0.778786  0.773383  1
  Ni  Ni11  1  0.000000  0.000000  0.500000  1
  Ni  Ni12  1  0.500000  0.000000  0.500000  1
