# generated using pymatgen
data_Nd2As7Pd12
_symmetry_space_group_name_H-M   'P 1'
_cell_length_a   10.09601100
_cell_length_b   10.09601125
_cell_length_c   4.18200100
_cell_angle_alpha   90.00000000
_cell_angle_beta   90.00000000
_cell_angle_gamma   120.00000247
_symmetry_Int_Tables_number   1
_chemical_formula_structural   Nd2As7Pd12
_chemical_formula_sum   'Nd2 As7 Pd12'
_cell_volume   369.15979322
_cell_formula_units_Z   1
loop_
 _symmetry_equiv_pos_site_id
 _symmetry_equiv_pos_as_xyz
  1  'x, y, z'
loop_
 _atom_site_type_symbol
 _atom_site_label
 _atom_site_symmetry_multiplicity
 _atom_site_fract_x
 _atom_site_fract_y
 _atom_site_fract_z
 _atom_site_occupancy
  Nd  Nd0  1  0.666667  0.333333  0.245588  1
  Nd  Nd1  1  0.000000  0.000000  0.752559  1
  As  As2  1  0.333333  0.666667  0.481646  1
  As  As3  1  0.741999  0.782368  0.252016  1
  As  As4  1  0.040369  0.258001  0.252016  1
  As  As5  1  0.217632  0.959631  0.252016  1
  As  As6  1  0.923989  0.551445  0.744907  1
  As  As7  1  0.627456  0.076011  0.744907  1
  As  As8  1  0.448555  0.372544  0.744907  1
  Pd  Pd9  1  0.770569  0.045117  0.249455  1
  Pd  Pd10  1  0.274548  0.229431  0.249455  1
  Pd  Pd11  1  0.954883  0.725452  0.249455  1
  Pd  Pd12  1  0.897602  0.288257  0.746436  1
  Pd  Pd13  1  0.390654  0.102398  0.746436  1
  Pd  Pd14  1  0.711743  0.609346  0.746436  1
  Pd  Pd15  1  0.476092  0.553978  0.227731  1
  Pd  Pd16  1  0.077885  0.523908  0.227731  1
  Pd  Pd17  1  0.446022  0.922115  0.227731  1
  Pd  Pd18  1  0.193352  0.775379  0.770030  1
  Pd  Pd19  1  0.582027  0.806648  0.770030  1
  Pd  Pd20  1  0.224621  0.417973  0.770030  1
