# generated using pymatgen
data_Ca4LaDy3Hg8
_symmetry_space_group_name_H-M   'P 1'
_cell_length_a   7.56708180
_cell_length_b   7.55392400
_cell_length_c   7.52390496
_cell_angle_alpha   90.00000000
_cell_angle_beta   89.85697529
_cell_angle_gamma   90.00000000
_symmetry_Int_Tables_number   1
_chemical_formula_structural   Ca4LaDy3Hg8
_chemical_formula_sum   'Ca4 La1 Dy3 Hg8'
_cell_volume   430.07380115
_cell_formula_units_Z   1
loop_
 _symmetry_equiv_pos_site_id
 _symmetry_equiv_pos_as_xyz
  1  'x, y, z'
loop_
 _atom_site_type_symbol
 _atom_site_label
 _atom_site_symmetry_multiplicity
 _atom_site_fract_x
 _atom_site_fract_y
 _atom_site_fract_z
 _atom_site_occupancy
  Ca  Ca0  1  0.749436  0.250000  0.000110  1
  Ca  Ca1  1  0.249871  0.750000  0.499873  1
  Ca  Ca2  1  0.750353  0.250000  0.500132  1
  Ca  Ca3  1  0.250395  0.750000  0.999876  1
  La  La4  1  0.751599  0.750000  0.499977  1
  Dy  Dy5  1  0.251451  0.250000  0.000013  1
  Dy  Dy6  1  0.748706  0.750000  0.999992  1
  Dy  Dy7  1  0.248622  0.250000  0.499969  1
  Hg  Hg8  1  0.004960  0.495047  0.243295  1
  Hg  Hg9  1  0.004960  0.004952  0.243295  1
  Hg  Hg10  1  0.495090  0.004945  0.246537  1
  Hg  Hg11  1  0.495090  0.495056  0.246537  1
  Hg  Hg12  1  0.494978  0.495105  0.753451  1
  Hg  Hg13  1  0.494978  0.004894  0.753451  1
  Hg  Hg14  1  0.004755  0.005038  0.756744  1
  Hg  Hg15  1  0.004755  0.494963  0.756744  1
