# generated using pymatgen
data_Ca2ZnCo3(PO4)4
_symmetry_space_group_name_H-M   'P 1'
_cell_length_a   5.03984157
_cell_length_b   8.54825319
_cell_length_c   9.09781855
_cell_angle_alpha   113.42236703
_cell_angle_beta   102.43340194
_cell_angle_gamma   94.17486222
_symmetry_Int_Tables_number   1
_chemical_formula_structural   Ca2ZnCo3(PO4)4
_chemical_formula_sum   'Ca2 Zn1 Co3 P4 O16'
_cell_volume   345.68893751
_cell_formula_units_Z   1
loop_
 _symmetry_equiv_pos_site_id
 _symmetry_equiv_pos_as_xyz
  1  'x, y, z'
loop_
 _atom_site_type_symbol
 _atom_site_label
 _atom_site_symmetry_multiplicity
 _atom_site_fract_x
 _atom_site_fract_y
 _atom_site_fract_z
 _atom_site_occupancy
  Ca  Ca0  1  0.774303  0.267923  0.947008  1
  Ca  Ca1  1  0.226113  0.732965  0.053523  1
  Zn  Zn2  1  0.156413  0.916840  0.711962  1
  Co  Co3  1  0.620133  0.390305  0.587870  1
  Co  Co4  1  0.379747  0.609509  0.411965  1
  Co  Co5  1  0.846248  0.085699  0.289778  1
  P  P6  1  0.890510  0.718810  0.302417  1
  P  P7  1  0.109977  0.280821  0.698182  1
  P  P8  1  0.320092  0.208552  0.181465  1
  P  P9  1  0.679311  0.791276  0.817627  1
  O  O10  1  0.035328  0.438487  0.830523  1
  O  O11  1  0.964937  0.560803  0.170132  1
  O  O12  1  0.441678  0.052595  0.198907  1
  O  O13  1  0.557926  0.947412  0.800045  1
  O  O14  1  0.061111  0.728979  0.475280  1
  O  O15  1  0.938862  0.270545  0.525505  1
  O  O16  1  0.996407  0.117753  0.716166  1
  O  O17  1  0.002207  0.881307  0.283184  1
  O  O18  1  0.432236  0.367228  0.358103  1
  O  O19  1  0.566870  0.632079  0.641464  1
  O  O20  1  0.608151  0.743621  0.950193  1
  O  O21  1  0.392022  0.257214  0.049671  1
  O  O22  1  0.422055  0.290770  0.707355  1
  O  O23  1  0.578204  0.708881  0.292842  1
  O  O24  1  0.999617  0.829267  0.851810  1
  O  O25  1  0.999541  0.170357  0.147024  1
