# generated using pymatgen
data_Pr2Se3O10
_symmetry_space_group_name_H-M   'P 1'
_cell_length_a   9.03271888
_cell_length_b   9.03271911
_cell_length_c   8.28001762
_cell_angle_alpha   67.96551042
_cell_angle_beta   67.96551150
_cell_angle_gamma   47.21022102
_symmetry_Int_Tables_number   1
_chemical_formula_structural   Pr2Se3O10
_chemical_formula_sum   'Pr4 Se6 O20'
_cell_volume   452.30906746
_cell_formula_units_Z   2
loop_
 _symmetry_equiv_pos_site_id
 _symmetry_equiv_pos_as_xyz
  1  'x, y, z'
loop_
 _atom_site_type_symbol
 _atom_site_label
 _atom_site_symmetry_multiplicity
 _atom_site_fract_x
 _atom_site_fract_y
 _atom_site_fract_z
 _atom_site_occupancy
  Pr  Pr0  1  0.790276  0.587515  0.853874  1
  Pr  Pr1  1  0.412485  0.209724  0.646126  1
  Pr  Pr2  1  0.209724  0.412485  0.146126  1
  Pr  Pr3  1  0.587515  0.790276  0.353874  1
  Se  Se4  1  0.947935  0.792171  0.463302  1
  Se  Se5  1  0.207829  0.052065  0.036698  1
  Se  Se6  1  0.052065  0.207829  0.536698  1
  Se  Se7  1  0.792171  0.947935  0.963302  1
  Se  Se8  1  0.621930  0.378070  0.250000  1
  Se  Se9  1  0.378070  0.621930  0.750000  1
  O  O10  1  0.767139  0.288493  0.061450  1
  O  O11  1  0.711507  0.232861  0.438550  1
  O  O12  1  0.232861  0.711507  0.938550  1
  O  O13  1  0.288493  0.767139  0.561450  1
  O  O14  1  0.401478  0.414658  0.298178  1
  O  O15  1  0.585342  0.598522  0.201822  1
  O  O16  1  0.598522  0.585342  0.701822  1
  O  O17  1  0.414658  0.401478  0.798178  1
  O  O18  1  0.070109  0.566794  0.617069  1
  O  O19  1  0.433206  0.929891  0.882931  1
  O  O20  1  0.929891  0.433206  0.382931  1
  O  O21  1  0.566794  0.070109  0.117069  1
  O  O22  1  0.988468  0.725294  0.275611  1
  O  O23  1  0.274706  0.011532  0.224389  1
  O  O24  1  0.011532  0.274706  0.724389  1
  O  O25  1  0.725294  0.988468  0.775611  1
  O  O26  1  0.698103  0.859845  0.547697  1
  O  O27  1  0.140155  0.301897  0.952303  1
  O  O28  1  0.301897  0.140155  0.452303  1
  O  O29  1  0.859845  0.698103  0.047697  1
