# generated using pymatgen
data_TbEu9(IrRh)2
_symmetry_space_group_name_H-M   'P 1'
_cell_length_a   6.68809278
_cell_length_b   7.60667658
_cell_length_c   8.86455968
_cell_angle_alpha   96.75096369
_cell_angle_beta   112.16268564
_cell_angle_gamma   90.00000008
_symmetry_Int_Tables_number   1
_chemical_formula_structural   TbEu9(IrRh)2
_chemical_formula_sum   'Tb1 Eu9 Ir2 Rh2'
_cell_volume   414.27896762
_cell_formula_units_Z   1
loop_
 _symmetry_equiv_pos_site_id
 _symmetry_equiv_pos_as_xyz
  1  'x, y, z'
loop_
 _atom_site_type_symbol
 _atom_site_label
 _atom_site_symmetry_multiplicity
 _atom_site_fract_x
 _atom_site_fract_y
 _atom_site_fract_z
 _atom_site_occupancy
  Tb  Tb0  1  0.563855  0.250000  0.000000  1
  Eu  Eu1  1  0.979673  0.920367  0.179342  1
  Eu  Eu2  1  0.800331  0.579633  0.820658  1
  Eu  Eu3  1  0.020445  0.081780  0.821621  1
  Eu  Eu4  1  0.198823  0.418220  0.178379  1
  Eu  Eu5  1  0.635435  0.819155  0.431722  1
  Eu  Eu6  1  0.203713  0.680845  0.568278  1
  Eu  Eu7  1  0.362672  0.183242  0.565853  1
  Eu  Eu8  1  0.796818  0.316758  0.434147  1
  Eu  Eu9  1  0.424585  0.750000  0.000000  1
  Ir  Ir10  1  0.191466  0.416189  0.786653  1
  Ir  Ir11  1  0.404813  0.083811  0.213347  1
  Rh  Rh12  1  0.814248  0.568653  0.211124  1
  Rh  Rh13  1  0.603124  0.931347  0.788876  1
