# generated using pymatgen
data_Cs(PuS2)3
_symmetry_space_group_name_H-M   'P 1'
_cell_length_a   6.98898906
_cell_length_b   6.98898911
_cell_length_c   8.70113620
_cell_angle_alpha   97.70317170
_cell_angle_beta   97.70317269
_cell_angle_gamma   119.95870158
_symmetry_Int_Tables_number   1
_chemical_formula_structural   Cs(PuS2)3
_chemical_formula_sum   'Cs1 Pu3 S6'
_cell_volume   354.76579724
_cell_formula_units_Z   1
loop_
 _symmetry_equiv_pos_site_id
 _symmetry_equiv_pos_as_xyz
  1  'x, y, z'
loop_
 _atom_site_type_symbol
 _atom_site_label
 _atom_site_symmetry_multiplicity
 _atom_site_fract_x
 _atom_site_fract_y
 _atom_site_fract_z
 _atom_site_occupancy
  Cs  Cs0  1  0.000000  0.000000  0.500000  1
  Pu  Pu1  1  0.833120  0.166880  0.000000  1
  Pu  Pu2  1  0.500000  0.500000  0.000000  1
  Pu  Pu3  1  0.166880  0.833120  0.000000  1
  S  S4  1  0.221049  0.221049  0.164917  1
  S  S5  1  0.888273  0.555239  0.165168  1
  S  S6  1  0.555239  0.888273  0.165168  1
  S  S7  1  0.444761  0.111727  0.834833  1
  S  S8  1  0.111727  0.444761  0.834833  1
  S  S9  1  0.778953  0.778953  0.835084  1
