# generated using pymatgen
data_Tb3Dy(Zn5Sn)2
_symmetry_space_group_name_H-M   'P 1'
_cell_length_a   8.39571101
_cell_length_b   8.39571145
_cell_length_c   9.01407900
_cell_angle_alpha   90.00000000
_cell_angle_beta   90.00000000
_cell_angle_gamma   149.74245130
_symmetry_Int_Tables_number   1
_chemical_formula_structural   Tb3Dy(Zn5Sn)2
_chemical_formula_sum   'Tb3 Dy1 Zn10 Sn2'
_cell_volume   320.16228713
_cell_formula_units_Z   1
loop_
 _symmetry_equiv_pos_site_id
 _symmetry_equiv_pos_as_xyz
  1  'x, y, z'
loop_
 _atom_site_type_symbol
 _atom_site_label
 _atom_site_symmetry_multiplicity
 _atom_site_fract_x
 _atom_site_fract_y
 _atom_site_fract_z
 _atom_site_occupancy
  Tb  Tb0  1  0.202839  0.797161  0.250000  1
  Tb  Tb1  1  0.999975  0.000025  0.500060  1
  Tb  Tb2  1  0.999975  0.000025  0.999940  1
  Dy  Dy3  1  0.797123  0.202877  0.750000  1
  Zn  Zn4  1  0.813300  0.186700  0.390927  1
  Zn  Zn5  1  0.186754  0.813246  0.609261  1
  Zn  Zn6  1  0.813300  0.186700  0.109073  1
  Zn  Zn7  1  0.186754  0.813246  0.890739  1
  Zn  Zn8  1  0.656133  0.343867  0.481670  1
  Zn  Zn9  1  0.343872  0.656128  0.518503  1
  Zn  Zn10  1  0.656133  0.343867  0.018330  1
  Zn  Zn11  1  0.343872  0.656128  0.981497  1
  Zn  Zn12  1  0.392199  0.607801  0.250000  1
  Zn  Zn13  1  0.607882  0.392118  0.750000  1
  Sn  Sn14  1  0.553499  0.446501  0.250000  1
  Sn  Sn15  1  0.446391  0.553609  0.750000  1
