# generated using pymatgen
data_CsRb2NbSe4
_symmetry_space_group_name_H-M   'P 1'
_cell_length_a   10.36111000
_cell_length_b   10.47980700
_cell_length_c   11.52315600
_cell_angle_alpha   90.00000000
_cell_angle_beta   90.00000000
_cell_angle_gamma   90.00000000
_symmetry_Int_Tables_number   1
_chemical_formula_structural   CsRb2NbSe4
_chemical_formula_sum   'Cs4 Rb8 Nb4 Se16'
_cell_volume   1251.21231554
_cell_formula_units_Z   4
loop_
 _symmetry_equiv_pos_site_id
 _symmetry_equiv_pos_as_xyz
  1  'x, y, z'
loop_
 _atom_site_type_symbol
 _atom_site_label
 _atom_site_symmetry_multiplicity
 _atom_site_fract_x
 _atom_site_fract_y
 _atom_site_fract_z
 _atom_site_occupancy
  Cs  Cs0  1  0.642911  0.915111  0.250000  1
  Cs  Cs1  1  0.142911  0.584889  0.250000  1
  Cs  Cs2  1  0.857089  0.415111  0.750000  1
  Cs  Cs3  1  0.357089  0.084889  0.750000  1
  Rb  Rb4  1  0.056271  0.793789  0.953358  1
  Rb  Rb5  1  0.556271  0.706211  0.546642  1
  Rb  Rb6  1  0.443729  0.293789  0.046642  1
  Rb  Rb7  1  0.943729  0.206211  0.453358  1
  Rb  Rb8  1  0.943729  0.206211  0.046642  1
  Rb  Rb9  1  0.443729  0.293789  0.453358  1
  Rb  Rb10  1  0.556271  0.706211  0.953358  1
  Rb  Rb11  1  0.056271  0.793789  0.546642  1
  Nb  Nb12  1  0.781571  0.982916  0.750000  1
  Nb  Nb13  1  0.218429  0.017084  0.250000  1
  Nb  Nb14  1  0.718429  0.482916  0.250000  1
  Nb  Nb15  1  0.281571  0.517084  0.750000  1
  Se  Se16  1  0.333420  0.953257  0.076388  1
  Se  Se17  1  0.833420  0.546743  0.423612  1
  Se  Se18  1  0.166580  0.453257  0.923612  1
  Se  Se19  1  0.666580  0.046743  0.576388  1
  Se  Se20  1  0.003356  0.923443  0.250000  1
  Se  Se21  1  0.503356  0.576557  0.250000  1
  Se  Se22  1  0.496644  0.423443  0.750000  1
  Se  Se23  1  0.996644  0.076557  0.750000  1
  Se  Se24  1  0.666580  0.046743  0.923612  1
  Se  Se25  1  0.333420  0.953257  0.423612  1
  Se  Se26  1  0.833420  0.546743  0.076388  1
  Se  Se27  1  0.166580  0.453257  0.576388  1
  Se  Se28  1  0.804021  0.752645  0.750000  1
  Se  Se29  1  0.304021  0.747355  0.750000  1
  Se  Se30  1  0.695979  0.252645  0.250000  1
  Se  Se31  1  0.195979  0.247355  0.250000  1
