# generated using pymatgen
data_Zr6GePN2
_symmetry_space_group_name_H-M   'P 1'
_cell_length_a   5.85816959
_cell_length_b   5.85817135
_cell_length_c   8.58293500
_cell_angle_alpha   90.00000000
_cell_angle_beta   90.00000000
_cell_angle_gamma   145.53413996
_symmetry_Int_Tables_number   1
_chemical_formula_structural   Zr6GePN2
_chemical_formula_sum   'Zr6 Ge1 P1 N2'
_cell_volume   166.69059575
_cell_formula_units_Z   1
loop_
 _symmetry_equiv_pos_site_id
 _symmetry_equiv_pos_as_xyz
  1  'x, y, z'
loop_
 _atom_site_type_symbol
 _atom_site_label
 _atom_site_symmetry_multiplicity
 _atom_site_fract_x
 _atom_site_fract_y
 _atom_site_fract_z
 _atom_site_occupancy
  Zr  Zr0  1  0.944007  0.055993  0.750000  1
  Zr  Zr1  1  0.065651  0.934349  0.250000  1
  Zr  Zr2  1  0.630228  0.369772  0.549963  1
  Zr  Zr3  1  0.366660  0.633340  0.439181  1
  Zr  Zr4  1  0.366660  0.633340  0.060819  1
  Zr  Zr5  1  0.630228  0.369772  0.950037  1
  Ge  Ge6  1  0.254059  0.745941  0.750000  1
  P  P7  1  0.744142  0.255858  0.250000  1
  N  N8  1  0.999182  0.000818  0.497726  1
  N  N9  1  0.999182  0.000818  0.002274  1
