# generated using pymatgen
data_Yb2AlSbO6
_symmetry_space_group_name_H-M   'P 1'
_cell_length_a   5.34023747
_cell_length_b   5.44279700
_cell_length_c   7.60685425
_cell_angle_alpha   90.00000000
_cell_angle_beta   90.23717392
_cell_angle_gamma   90.00000000
_symmetry_Int_Tables_number   1
_chemical_formula_structural   Yb2AlSbO6
_chemical_formula_sum   'Yb4 Al2 Sb2 O12'
_cell_volume   221.09762656
_cell_formula_units_Z   2
loop_
 _symmetry_equiv_pos_site_id
 _symmetry_equiv_pos_as_xyz
  1  'x, y, z'
loop_
 _atom_site_type_symbol
 _atom_site_label
 _atom_site_symmetry_multiplicity
 _atom_site_fract_x
 _atom_site_fract_y
 _atom_site_fract_z
 _atom_site_occupancy
  Yb  Yb0  1  0.511991  0.547003  0.249298  1
  Yb  Yb1  1  0.988009  0.047003  0.250702  1
  Yb  Yb2  1  0.488009  0.452997  0.750702  1
  Yb  Yb3  1  0.011991  0.952997  0.749298  1
  Al  Al4  1  0.000000  0.500000  0.500000  1
  Al  Al5  1  0.500000  0.000000  0.000000  1
  Sb  Sb6  1  0.000000  0.500000  0.000000  1
  Sb  Sb7  1  0.500000  0.000000  0.500000  1
  O  O8  1  0.415687  0.976900  0.244769  1
  O  O9  1  0.084313  0.476900  0.255231  1
  O  O10  1  0.584313  0.023100  0.755231  1
  O  O11  1  0.915687  0.523100  0.744769  1
  O  O12  1  0.789244  0.796925  0.043968  1
  O  O13  1  0.710756  0.296925  0.456032  1
  O  O14  1  0.200931  0.211329  0.544433  1
  O  O15  1  0.299069  0.711329  0.955567  1
  O  O16  1  0.210756  0.203075  0.956032  1
  O  O17  1  0.289244  0.703075  0.543968  1
  O  O18  1  0.799069  0.788671  0.455567  1
  O  O19  1  0.700931  0.288671  0.044433  1
