# generated using pymatgen
data_Dy9Ho(CoBi2)2
_symmetry_space_group_name_H-M   'P 1'
_cell_length_a   7.98619824
_cell_length_b   8.86871220
_cell_length_c   12.38157637
_cell_angle_alpha   90.01758230
_cell_angle_beta   89.97797315
_cell_angle_gamma   89.98280940
_symmetry_Int_Tables_number   1
_chemical_formula_structural   Dy9Ho(CoBi2)2
_chemical_formula_sum   'Dy18 Ho2 Co4 Bi8'
_cell_volume   876.95340166
_cell_formula_units_Z   2
loop_
 _symmetry_equiv_pos_site_id
 _symmetry_equiv_pos_as_xyz
  1  'x, y, z'
loop_
 _atom_site_type_symbol
 _atom_site_label
 _atom_site_symmetry_multiplicity
 _atom_site_fract_x
 _atom_site_fract_y
 _atom_site_fract_z
 _atom_site_occupancy
  Dy  Dy0  1  0.346081  0.750027  0.699991  1
  Dy  Dy1  1  0.653919  0.249973  0.300009  1
  Dy  Dy2  1  0.846267  0.249877  0.800178  1
  Dy  Dy3  1  0.153733  0.750123  0.199822  1
  Dy  Dy4  1  0.884908  0.750278  0.810582  1
  Dy  Dy5  1  0.115092  0.249722  0.189418  1
  Dy  Dy6  1  0.384840  0.250032  0.689705  1
  Dy  Dy7  1  0.615160  0.749968  0.310295  1
  Dy  Dy8  1  0.676323  0.538039  0.563076  1
  Dy  Dy9  1  0.323677  0.461961  0.436924  1
  Dy  Dy10  1  0.176291  0.461990  0.936939  1
  Dy  Dy11  1  0.323699  0.038044  0.436897  1
  Dy  Dy12  1  0.823709  0.538010  0.063061  1
  Dy  Dy13  1  0.676301  0.961956  0.563103  1
  Dy  Dy14  1  0.052146  0.750023  0.498021  1
  Dy  Dy15  1  0.947854  0.249977  0.501979  1
  Dy  Dy16  1  0.552268  0.249776  0.002016  1
  Dy  Dy17  1  0.447732  0.750224  0.997984  1
  Ho  Ho18  1  0.824620  0.961882  0.062992  1
  Ho  Ho19  1  0.175380  0.038118  0.937008  1
  Co  Co20  1  0.066292  0.750413  0.991650  1
  Co  Co21  1  0.933708  0.249587  0.008350  1
  Co  Co22  1  0.566509  0.250001  0.508478  1
  Co  Co23  1  0.433491  0.749999  0.491522  1
  Bi  Bi24  1  0.572187  0.509858  0.826399  1
  Bi  Bi25  1  0.427813  0.490142  0.173601  1
  Bi  Bi26  1  0.072150  0.490166  0.673668  1
  Bi  Bi27  1  0.428246  0.009794  0.173539  1
  Bi  Bi28  1  0.927850  0.509834  0.326332  1
  Bi  Bi29  1  0.571754  0.990206  0.826461  1
  Bi  Bi30  1  0.927744  0.990138  0.326271  1
  Bi  Bi31  1  0.072256  0.009862  0.673729  1
