# generated using pymatgen
data_LuVF7
_symmetry_space_group_name_H-M   'P 1'
_cell_length_a   5.43570600
_cell_length_b   8.67485489
_cell_length_c   11.60915645
_cell_angle_alpha   63.25855101
_cell_angle_beta   90.00000000
_cell_angle_gamma   90.00000000
_symmetry_Int_Tables_number   1
_chemical_formula_structural   LuVF7
_chemical_formula_sum   'Lu4 V4 F28'
_cell_volume   488.86925316
_cell_formula_units_Z   4
loop_
 _symmetry_equiv_pos_site_id
 _symmetry_equiv_pos_as_xyz
  1  'x, y, z'
loop_
 _atom_site_type_symbol
 _atom_site_label
 _atom_site_symmetry_multiplicity
 _atom_site_fract_x
 _atom_site_fract_y
 _atom_site_fract_z
 _atom_site_occupancy
  Lu  Lu0  1  0.259337  0.811007  0.269201  1
  Lu  Lu1  1  0.740663  0.188993  0.730799  1
  Lu  Lu2  1  0.759337  0.188993  0.230799  1
  Lu  Lu3  1  0.240663  0.811007  0.769201  1
  V  V4  1  0.757017  0.725883  0.045728  1
  V  V5  1  0.242983  0.274117  0.954272  1
  V  V6  1  0.257017  0.274117  0.454272  1
  V  V7  1  0.742983  0.725883  0.545728  1
  F  F8  1  0.953016  0.705591  0.423549  1
  F  F9  1  0.046984  0.294409  0.576451  1
  F  F10  1  0.453016  0.294409  0.076451  1
  F  F11  1  0.546984  0.705591  0.923549  1
  F  F12  1  0.483405  0.731908  0.144951  1
  F  F13  1  0.516595  0.268092  0.855049  1
  F  F14  1  0.983405  0.268092  0.355049  1
  F  F15  1  0.016595  0.731908  0.644951  1
  F  F16  1  0.966095  0.746247  0.171179  1
  F  F17  1  0.033905  0.253753  0.828821  1
  F  F18  1  0.466095  0.253753  0.328821  1
  F  F19  1  0.533905  0.746247  0.671179  1
  F  F20  1  0.770283  0.489547  0.138019  1
  F  F21  1  0.229717  0.510453  0.861981  1
  F  F22  1  0.270283  0.510453  0.361981  1
  F  F23  1  0.729717  0.489547  0.638019  1
  F  F24  1  0.955717  0.281657  0.047383  1
  F  F25  1  0.044283  0.718343  0.952617  1
  F  F26  1  0.455717  0.718343  0.452617  1
  F  F27  1  0.544283  0.281657  0.547383  1
  F  F28  1  0.740813  0.960436  0.453452  1
  F  F29  1  0.259187  0.039564  0.546548  1
  F  F30  1  0.240813  0.039564  0.046548  1
  F  F31  1  0.759187  0.960436  0.953452  1
  F  F32  1  0.577217  0.974825  0.230909  1
  F  F33  1  0.422783  0.025175  0.769091  1
  F  F34  1  0.077217  0.025175  0.269091  1
  F  F35  1  0.922783  0.974825  0.730909  1
