# generated using pymatgen
data_CaDy2Zn11
_symmetry_space_group_name_H-M   'P 1'
_cell_length_a   8.21048229
_cell_length_b   8.21048222
_cell_length_c   8.21048190
_cell_angle_alpha   148.32040367
_cell_angle_beta   115.73708085
_cell_angle_gamma   73.42679176
_symmetry_Int_Tables_number   1
_chemical_formula_structural   CaDy2Zn11
_chemical_formula_sum   'Ca1 Dy2 Zn11'
_cell_volume   257.64647772
_cell_formula_units_Z   1
loop_
 _symmetry_equiv_pos_site_id
 _symmetry_equiv_pos_as_xyz
  1  'x, y, z'
loop_
 _atom_site_type_symbol
 _atom_site_label
 _atom_site_symmetry_multiplicity
 _atom_site_fract_x
 _atom_site_fract_y
 _atom_site_fract_z
 _atom_site_occupancy
  Ca  Ca0  1  0.000000  0.000000  0.000000  1
  Dy  Dy1  1  0.298127  0.298127  0.000000  1
  Dy  Dy2  1  0.701873  0.701873  0.000000  1
  Zn  Zn3  1  0.500000  0.000000  0.500000  1
  Zn  Zn4  1  0.678779  0.500000  0.178779  1
  Zn  Zn5  1  0.321221  0.500000  0.821221  1
  Zn  Zn6  1  0.693634  0.337610  0.356024  1
  Zn  Zn7  1  0.306366  0.662390  0.643976  1
  Zn  Zn8  1  0.981587  0.337610  0.643976  1
  Zn  Zn9  1  0.018413  0.662390  0.356024  1
  Zn  Zn10  1  0.422630  0.137586  0.285044  1
  Zn  Zn11  1  0.577370  0.862414  0.714956  1
  Zn  Zn12  1  0.852543  0.137586  0.714956  1
  Zn  Zn13  1  0.147457  0.862414  0.285044  1
