# generated using pymatgen
data_Pr4Cu8P7
_symmetry_space_group_name_H-M   'P 1'
_cell_length_a   4.01053200
_cell_length_b   12.85775273
_cell_length_c   13.25795700
_cell_angle_alpha   80.87100923
_cell_angle_beta   90.00000000
_cell_angle_gamma   90.00000000
_symmetry_Int_Tables_number   1
_chemical_formula_structural   Pr4Cu8P7
_chemical_formula_sum   'Pr8 Cu16 P14'
_cell_volume   675.00595238
_cell_formula_units_Z   2
loop_
 _symmetry_equiv_pos_site_id
 _symmetry_equiv_pos_as_xyz
  1  'x, y, z'
loop_
 _atom_site_type_symbol
 _atom_site_label
 _atom_site_symmetry_multiplicity
 _atom_site_fract_x
 _atom_site_fract_y
 _atom_site_fract_z
 _atom_site_occupancy
  Pr  Pr0  1  0.750000  0.789748  0.553078  1
  Pr  Pr1  1  0.250000  0.210252  0.446922  1
  Pr  Pr2  1  0.750000  0.477267  0.711800  1
  Pr  Pr3  1  0.250000  0.522733  0.288200  1
  Pr  Pr4  1  0.750000  0.728999  0.894444  1
  Pr  Pr5  1  0.250000  0.109940  0.799156  1
  Pr  Pr6  1  0.750000  0.890060  0.200844  1
  Pr  Pr7  1  0.250000  0.271001  0.105556  1
  Cu  Cu8  1  0.250000  0.981818  0.580256  1
  Cu  Cu9  1  0.750000  0.018182  0.419744  1
  Cu  Cu10  1  0.250000  0.659734  0.722451  1
  Cu  Cu11  1  0.750000  0.340266  0.277549  1
  Cu  Cu12  1  0.250000  0.551637  0.043521  1
  Cu  Cu13  1  0.750000  0.448363  0.956479  1
  Cu  Cu14  1  0.250000  0.063012  0.273749  1
  Cu  Cu15  1  0.750000  0.936988  0.726251  1
  Cu  Cu16  1  0.250000  0.434064  0.527463  1
  Cu  Cu17  1  0.750000  0.565936  0.472537  1
  Cu  Cu18  1  0.250000  0.910225  0.988304  1
  Cu  Cu19  1  0.750000  0.089775  0.011696  1
  Cu  Cu20  1  0.250000  0.735781  0.386534  1
  Cu  Cu21  1  0.750000  0.264219  0.613466  1
  Cu  Cu22  1  0.250000  0.339903  0.859916  1
  Cu  Cu23  1  0.750000  0.660097  0.140084  1
  P  P24  1  0.250000  0.916985  0.406243  1
  P  P25  1  0.750000  0.464775  0.132255  1
  P  P26  1  0.250000  0.535225  0.867745  1
  P  P27  1  0.750000  0.083015  0.593757  1
  P  P28  1  0.250000  0.735701  0.069607  1
  P  P29  1  0.750000  0.264299  0.930393  1
  P  P30  1  0.750000  0.164329  0.278704  1
  P  P31  1  0.250000  0.835671  0.721296  1
  P  P32  1  0.250000  0.039851  0.100943  1
  P  P33  1  0.750000  0.960149  0.899057  1
  P  P34  1  0.250000  0.316122  0.681329  1
  P  P35  1  0.750000  0.683878  0.318671  1
  P  P36  1  0.250000  0.612339  0.560728  1
  P  P37  1  0.750000  0.387661  0.439272  1
