# generated using pymatgen
data_RbPrGeSe4
_symmetry_space_group_name_H-M   'P 1'
_cell_length_a   6.96647711
_cell_length_b   7.18447386
_cell_length_c   9.54966244
_cell_angle_alpha   90.26700686
_cell_angle_beta   107.74645691
_cell_angle_gamma   90.18234019
_symmetry_Int_Tables_number   1
_chemical_formula_structural   RbPrGeSe4
_chemical_formula_sum   'Rb2 Pr2 Ge2 Se8'
_cell_volume   455.21072219
_cell_formula_units_Z   2
loop_
 _symmetry_equiv_pos_site_id
 _symmetry_equiv_pos_as_xyz
  1  'x, y, z'
loop_
 _atom_site_type_symbol
 _atom_site_label
 _atom_site_symmetry_multiplicity
 _atom_site_fract_x
 _atom_site_fract_y
 _atom_site_fract_z
 _atom_site_occupancy
  Rb  Rb0  1  0.260069  0.011749  0.062030  1
  Rb  Rb1  1  0.742555  0.508562  0.934456  1
  Pr  Pr2  1  0.770419  0.498446  0.450064  1
  Pr  Pr3  1  0.227792  0.999239  0.550114  1
  Ge  Ge4  1  0.219187  0.531027  0.326259  1
  Ge  Ge5  1  0.781166  0.032747  0.674473  1
  Se  Se6  1  0.421643  0.526337  0.168402  1
  Se  Se7  1  0.968502  0.769329  0.278927  1
  Se  Se8  1  0.013411  0.257734  0.297463  1
  Se  Se9  1  0.574447  0.094788  0.430297  1
  Se  Se10  1  0.424159  0.597600  0.570900  1
  Se  Se11  1  0.983945  0.759185  0.703779  1
  Se  Se12  1  0.031853  0.273217  0.719498  1
  Se  Se13  1  0.580851  0.033439  0.833343  1
