# generated using pymatgen
data_Tb5Y3Ir3WO24
_symmetry_space_group_name_H-M   'P 1'
_cell_length_a   5.30093946
_cell_length_b   9.20084905
_cell_length_c   9.95659186
_cell_angle_alpha   90.09107814
_cell_angle_beta   90.00351811
_cell_angle_gamma   90.08192848
_symmetry_Int_Tables_number   1
_chemical_formula_structural   Tb5Y3Ir3WO24
_chemical_formula_sum   'Tb5 Y3 Ir3 W1 O24'
_cell_volume   485.61317615
_cell_formula_units_Z   1
loop_
 _symmetry_equiv_pos_site_id
 _symmetry_equiv_pos_as_xyz
  1  'x, y, z'
loop_
 _atom_site_type_symbol
 _atom_site_label
 _atom_site_symmetry_multiplicity
 _atom_site_fract_x
 _atom_site_fract_y
 _atom_site_fract_z
 _atom_site_occupancy
  Tb  Tb0  1  0.983367  0.600782  0.534254  1
  Tb  Tb1  1  0.483825  0.896294  0.467439  1
  Tb  Tb2  1  0.020199  0.102208  0.962350  1
  Tb  Tb3  1  0.516843  0.398791  0.034094  1
  Tb  Tb4  1  0.460488  0.781249  0.870088  1
  Y  Y5  1  0.960433  0.719108  0.130003  1
  Y  Y6  1  0.041025  0.218091  0.369870  1
  Y  Y7  1  0.540519  0.281772  0.629617  1
  Ir  Ir8  1  0.959126  0.996676  0.647248  1
  Ir  Ir9  1  0.459043  0.503294  0.351845  1
  Ir  Ir10  1  0.041216  0.496431  0.851772  1
  W  W11  1  0.540199  0.004864  0.151306  1
  O  O12  1  0.752967  0.088588  0.502239  1
  O  O13  1  0.252398  0.410133  0.496491  1
  O  O14  1  0.246912  0.588872  0.997286  1
  O  O15  1  0.746634  0.911463  0.004927  1
  O  O16  1  0.234613  0.115823  0.569939  1
  O  O17  1  0.734488  0.383868  0.429706  1
  O  O18  1  0.765313  0.614633  0.930963  1
  O  O19  1  0.268143  0.885817  0.067564  1
  O  O20  1  0.082867  0.844238  0.527568  1
  O  O21  1  0.582536  0.653775  0.474266  1
  O  O22  1  0.916086  0.344489  0.971505  1
  O  O23  1  0.413979  0.156758  0.030169  1
  O  O24  1  0.691710  0.859667  0.264707  1
  O  O25  1  0.186772  0.642942  0.736426  1
  O  O26  1  0.312401  0.357109  0.236690  1
  O  O27  1  0.812145  0.142999  0.762623  1
  O  O28  1  0.328792  0.048523  0.299187  1
  O  O29  1  0.834220  0.445774  0.701894  1
  O  O30  1  0.674914  0.865704  0.682334  1
  O  O31  1  0.167177  0.946419  0.796528  1
  O  O32  1  0.821558  0.136883  0.179614  1
  O  O33  1  0.325532  0.365954  0.817240  1
  O  O34  1  0.176083  0.635009  0.317842  1
  O  O35  1  0.665478  0.555000  0.202409  1
