# generated using pymatgen
data_CaEu2(GaP2)2
_symmetry_space_group_name_H-M   'P 1'
_cell_length_a   8.14441076
_cell_length_b   8.14441062
_cell_length_c   6.47855047
_cell_angle_alpha   89.19944316
_cell_angle_beta   89.19944078
_cell_angle_gamma   76.12745914
_symmetry_Int_Tables_number   1
_chemical_formula_structural   CaEu2(GaP2)2
_chemical_formula_sum   'Ca2 Eu4 Ga4 P8'
_cell_volume   417.13116744
_cell_formula_units_Z   2
loop_
 _symmetry_equiv_pos_site_id
 _symmetry_equiv_pos_as_xyz
  1  'x, y, z'
loop_
 _atom_site_type_symbol
 _atom_site_label
 _atom_site_symmetry_multiplicity
 _atom_site_fract_x
 _atom_site_fract_y
 _atom_site_fract_z
 _atom_site_occupancy
  Ca  Ca0  1  0.598584  0.401416  0.750000  1
  Ca  Ca1  1  0.401416  0.598584  0.250000  1
  Eu  Eu2  1  0.994336  0.247789  0.026661  1
  Eu  Eu3  1  0.752211  0.005664  0.473339  1
  Eu  Eu4  1  0.005664  0.752211  0.973339  1
  Eu  Eu5  1  0.247789  0.994336  0.526661  1
  Ga  Ga6  1  0.174934  0.419740  0.590141  1
  Ga  Ga7  1  0.580260  0.825066  0.909859  1
  Ga  Ga8  1  0.825066  0.580260  0.409859  1
  Ga  Ga9  1  0.419740  0.174934  0.090141  1
  P  P10  1  0.940078  0.287524  0.524047  1
  P  P11  1  0.712476  0.059922  0.975953  1
  P  P12  1  0.059922  0.712476  0.475953  1
  P  P13  1  0.287524  0.940078  0.024047  1
  P  P14  1  0.261091  0.433427  0.939071  1
  P  P15  1  0.566573  0.738909  0.560929  1
  P  P16  1  0.738909  0.566573  0.060929  1
  P  P17  1  0.433427  0.261091  0.439071  1
