# generated using pymatgen
data_Y10Th2IrRh3
_symmetry_space_group_name_H-M   'P 1'
_cell_length_a   6.40847027
_cell_length_b   7.16721025
_cell_length_c   9.67827800
_cell_angle_alpha   90.00000000
_cell_angle_beta   90.00000000
_cell_angle_gamma   88.82993173
_symmetry_Int_Tables_number   1
_chemical_formula_structural   Y10Th2IrRh3
_chemical_formula_sum   'Y10 Th2 Ir1 Rh3'
_cell_volume   444.43888168
_cell_formula_units_Z   1
loop_
 _symmetry_equiv_pos_site_id
 _symmetry_equiv_pos_as_xyz
  1  'x, y, z'
loop_
 _atom_site_type_symbol
 _atom_site_label
 _atom_site_symmetry_multiplicity
 _atom_site_fract_x
 _atom_site_fract_y
 _atom_site_fract_z
 _atom_site_occupancy
  Y  Y0  1  0.139854  0.465253  0.750000  1
  Y  Y1  1  0.859469  0.534101  0.250000  1
  Y  Y2  1  0.170941  0.177473  0.064267  1
  Y  Y3  1  0.830502  0.822846  0.935841  1
  Y  Y4  1  0.668908  0.323725  0.934870  1
  Y  Y5  1  0.830502  0.822846  0.564159  1
  Y  Y6  1  0.330394  0.675406  0.066376  1
  Y  Y7  1  0.170941  0.177473  0.435733  1
  Y  Y8  1  0.330394  0.675406  0.433624  1
  Y  Y9  1  0.668908  0.323725  0.565130  1
  Th  Th10  1  0.654316  0.040947  0.250000  1
  Th  Th11  1  0.346511  0.957138  0.750000  1
  Ir  Ir12  1  0.449707  0.373306  0.250000  1
  Rh  Rh13  1  0.548855  0.630546  0.750000  1
  Rh  Rh14  1  0.953128  0.116181  0.750000  1
  Rh  Rh15  1  0.046669  0.883628  0.250000  1
