# generated using pymatgen
data_BaV2(CO3)4
_symmetry_space_group_name_H-M   'P 1'
_cell_length_a   6.67661315
_cell_length_b   9.94403770
_cell_length_c   8.37458571
_cell_angle_alpha   89.75694982
_cell_angle_beta   111.90232383
_cell_angle_gamma   90.00161050
_symmetry_Int_Tables_number   1
_chemical_formula_structural   BaV2(CO3)4
_chemical_formula_sum   'Ba2 V4 C8 O24'
_cell_volume   515.87210818
_cell_formula_units_Z   2
loop_
 _symmetry_equiv_pos_site_id
 _symmetry_equiv_pos_as_xyz
  1  'x, y, z'
loop_
 _atom_site_type_symbol
 _atom_site_label
 _atom_site_symmetry_multiplicity
 _atom_site_fract_x
 _atom_site_fract_y
 _atom_site_fract_z
 _atom_site_occupancy
  Ba  Ba0  1  0.500016  0.250074  0.499936  1
  Ba  Ba1  1  0.499985  0.749891  0.500022  1
  V  V2  1  0.500231  0.750092  0.000302  1
  V  V3  1  0.500058  0.249979  0.000031  1
  V  V4  1  0.999750  0.999949  0.500245  1
  V  V5  1  0.000394  0.499953  0.499722  1
  C  C6  1  0.040278  0.248845  0.724594  1
  C  C7  1  0.040343  0.748635  0.724624  1
  C  C8  1  0.959857  0.251157  0.275377  1
  C  C9  1  0.959501  0.751371  0.275337  1
  C  C10  1  0.531447  0.998261  0.227679  1
  C  C11  1  0.531825  0.498267  0.227339  1
  C  C12  1  0.468569  0.501816  0.772361  1
  C  C13  1  0.468080  0.001681  0.772624  1
  O  O14  1  0.334422  0.463751  0.618985  1
  O  O15  1  0.333710  0.963115  0.619573  1
  O  O16  1  0.665660  0.036432  0.381011  1
  O  O17  1  0.666365  0.536741  0.380380  1
  O  O18  1  0.574238  0.414498  0.883698  1
  O  O19  1  0.574268  0.914768  0.884343  1
  O  O20  1  0.425695  0.085512  0.116262  1
  O  O21  1  0.425568  0.585244  0.115762  1
  O  O22  1  0.011097  0.376056  0.314048  1
  O  O23  1  0.009815  0.876329  0.313948  1
  O  O24  1  0.989286  0.123899  0.685988  1
  O  O25  1  0.989810  0.623699  0.685883  1
  O  O26  1  0.500653  0.369876  0.202194  1
  O  O27  1  0.500097  0.869918  0.202139  1
  O  O28  1  0.499131  0.130088  0.797677  1
  O  O29  1  0.499994  0.630125  0.798038  1
  O  O30  1  0.920519  0.340342  0.618076  1
  O  O31  1  0.920261  0.840138  0.618367  1
  O  O32  1  0.079516  0.159577  0.381745  1
  O  O33  1  0.079719  0.659944  0.381700  1
  O  O34  1  0.188528  0.283682  0.865112  1
  O  O35  1  0.188553  0.783508  0.865138  1
  O  O36  1  0.811438  0.216448  0.134881  1
  O  O37  1  0.811318  0.716337  0.134859  1
