# generated using pymatgen
data_HgBi3Ru2(RhO7)2
_symmetry_space_group_name_H-M   'P 1'
_cell_length_a   7.41382868
_cell_length_b   7.22163050
_cell_length_c   7.41382906
_cell_angle_alpha   59.35129086
_cell_angle_beta   60.04861119
_cell_angle_gamma   59.35129239
_symmetry_Int_Tables_number   1
_chemical_formula_structural   HgBi3Ru2(RhO7)2
_chemical_formula_sum   'Hg1 Bi3 Ru2 Rh2 O14'
_cell_volume   277.99230615
_cell_formula_units_Z   1
loop_
 _symmetry_equiv_pos_site_id
 _symmetry_equiv_pos_as_xyz
  1  'x, y, z'
loop_
 _atom_site_type_symbol
 _atom_site_label
 _atom_site_symmetry_multiplicity
 _atom_site_fract_x
 _atom_site_fract_y
 _atom_site_fract_z
 _atom_site_occupancy
  Hg  Hg0  1  0.125000  0.625000  0.125000  1
  Bi  Bi1  1  0.125000  0.125000  0.125000  1
  Bi  Bi2  1  0.625000  0.125000  0.125000  1
  Bi  Bi3  1  0.125000  0.125000  0.625000  1
  Ru  Ru4  1  0.625000  0.625000  0.125000  1
  Ru  Ru5  1  0.125000  0.625000  0.625000  1
  Rh  Rh6  1  0.625000  0.625000  0.625000  1
  Rh  Rh7  1  0.625000  0.125000  0.625000  1
  O  O8  1  0.244525  0.265148  0.244525  1
  O  O9  1  0.308796  0.704620  0.308796  1
  O  O10  1  0.956356  0.957167  0.540121  1
  O  O11  1  0.539381  0.962771  0.539381  1
  O  O12  1  0.694090  0.705769  0.296350  1
  O  O13  1  0.953650  0.544231  0.555910  1
  O  O14  1  0.710619  0.287229  0.710619  1
  O  O15  1  0.293644  0.292833  0.709879  1
  O  O16  1  0.709879  0.292833  0.293644  1
  O  O17  1  0.296350  0.705769  0.694090  1
  O  O18  1  0.941204  0.545380  0.941204  1
  O  O19  1  0.555910  0.544231  0.953650  1
  O  O20  1  0.005475  0.984852  0.005475  1
  O  O21  1  0.540121  0.957167  0.956356  1
