# generated using pymatgen
data_U2Ga10Tc3
_symmetry_space_group_name_H-M   'P 1'
_cell_length_a   8.92856300
_cell_length_b   8.92856300
_cell_length_c   6.44735100
_cell_angle_alpha   90.00000000
_cell_angle_beta   90.00000000
_cell_angle_gamma   90.00000000
_symmetry_Int_Tables_number   1
_chemical_formula_structural   U2Ga10Tc3
_chemical_formula_sum   'U4 Ga20 Tc6'
_cell_volume   513.97790397
_cell_formula_units_Z   2
loop_
 _symmetry_equiv_pos_site_id
 _symmetry_equiv_pos_as_xyz
  1  'x, y, z'
loop_
 _atom_site_type_symbol
 _atom_site_label
 _atom_site_symmetry_multiplicity
 _atom_site_fract_x
 _atom_site_fract_y
 _atom_site_fract_z
 _atom_site_occupancy
  U  U0  1  0.684346  0.184346  0.000000  1
  U  U1  1  0.315654  0.815654  0.000000  1
  U  U2  1  0.815654  0.684346  0.000000  1
  U  U3  1  0.184346  0.315654  0.000000  1
  Ga  Ga4  1  0.940391  0.209160  0.293949  1
  Ga  Ga5  1  0.709160  0.440391  0.293949  1
  Ga  Ga6  1  0.500000  0.000000  0.282620  1
  Ga  Ga7  1  0.559609  0.709160  0.706051  1
  Ga  Ga8  1  0.290840  0.559609  0.706051  1
  Ga  Ga9  1  0.790840  0.940391  0.293949  1
  Ga  Ga10  1  0.940391  0.209160  0.706051  1
  Ga  Ga11  1  0.290840  0.559609  0.293949  1
  Ga  Ga12  1  0.059609  0.790840  0.293949  1
  Ga  Ga13  1  0.709160  0.440391  0.706051  1
  Ga  Ga14  1  0.440391  0.290840  0.706051  1
  Ga  Ga15  1  0.059609  0.790840  0.706051  1
  Ga  Ga16  1  0.209160  0.059609  0.706051  1
  Ga  Ga17  1  0.790840  0.940391  0.706051  1
  Ga  Ga18  1  0.209160  0.059609  0.293949  1
  Ga  Ga19  1  0.000000  0.500000  0.717380  1
  Ga  Ga20  1  0.000000  0.500000  0.282620  1
  Ga  Ga21  1  0.559609  0.709160  0.293949  1
  Ga  Ga22  1  0.440391  0.290840  0.293949  1
  Ga  Ga23  1  0.500000  0.000000  0.717380  1
  Tc  Tc24  1  0.680551  0.180551  0.500000  1
  Tc  Tc25  1  0.819449  0.680551  0.500000  1
  Tc  Tc26  1  0.180551  0.319449  0.500000  1
  Tc  Tc27  1  0.000000  0.000000  0.000000  1
  Tc  Tc28  1  0.319449  0.819449  0.500000  1
  Tc  Tc29  1  0.500000  0.500000  0.000000  1
