# generated using pymatgen
data_Er5Tm(CoSn6)2
_symmetry_space_group_name_H-M   'P 1'
_cell_length_a   8.44680800
_cell_length_b   8.44680827
_cell_length_c   13.05770600
_cell_angle_alpha   90.00000000
_cell_angle_beta   90.00000000
_cell_angle_gamma   148.87825551
_symmetry_Int_Tables_number   1
_chemical_formula_structural   Er5Tm(CoSn6)2
_chemical_formula_sum   'Er5 Tm1 Co2 Sn12'
_cell_volume   481.53028096
_cell_formula_units_Z   1
loop_
 _symmetry_equiv_pos_site_id
 _symmetry_equiv_pos_as_xyz
  1  'x, y, z'
loop_
 _atom_site_type_symbol
 _atom_site_label
 _atom_site_symmetry_multiplicity
 _atom_site_fract_x
 _atom_site_fract_y
 _atom_site_fract_z
 _atom_site_occupancy
  Er  Er0  1  0.898779  0.101221  0.094030  1
  Er  Er1  1  0.101218  0.898782  0.594033  1
  Er  Er2  1  0.101218  0.898782  0.905967  1
  Er  Er3  1  0.099787  0.900213  0.250000  1
  Er  Er4  1  0.898779  0.101221  0.405970  1
  Tm  Tm5  1  0.900209  0.099791  0.750000  1
  Co  Co6  1  0.300692  0.699308  0.250000  1
  Co  Co7  1  0.699319  0.300681  0.750000  1
  Sn  Sn8  1  0.756085  0.243915  0.571318  1
  Sn  Sn9  1  0.427451  0.572549  0.575800  1
  Sn  Sn10  1  0.572545  0.427455  0.424223  1
  Sn  Sn11  1  0.733361  0.266639  0.250000  1
  Sn  Sn12  1  0.266664  0.733336  0.750000  1
  Sn  Sn13  1  0.243919  0.756081  0.071316  1
  Sn  Sn14  1  0.243919  0.756081  0.428684  1
  Sn  Sn15  1  0.572545  0.427455  0.075777  1
  Sn  Sn16  1  0.454856  0.545144  0.250000  1
  Sn  Sn17  1  0.545120  0.454880  0.750000  1
  Sn  Sn18  1  0.756085  0.243915  0.928682  1
  Sn  Sn19  1  0.427451  0.572549  0.924200  1
