# generated using pymatgen
data_Ta6Cu6Pt5Rh7
_symmetry_space_group_name_H-M   'P 1'
_cell_length_a   4.00535909
_cell_length_b   7.41715630
_cell_length_c   11.94671495
_cell_angle_alpha   90.07509342
_cell_angle_beta   90.02521449
_cell_angle_gamma   90.00044689
_symmetry_Int_Tables_number   1
_chemical_formula_structural   Ta6Cu6Pt5Rh7
_chemical_formula_sum   'Ta6 Cu6 Pt5 Rh7'
_cell_volume   354.91714145
_cell_formula_units_Z   1
loop_
 _symmetry_equiv_pos_site_id
 _symmetry_equiv_pos_as_xyz
  1  'x, y, z'
loop_
 _atom_site_type_symbol
 _atom_site_label
 _atom_site_symmetry_multiplicity
 _atom_site_fract_x
 _atom_site_fract_y
 _atom_site_fract_z
 _atom_site_occupancy
  Ta  Ta0  1  0.000045  0.499190  0.994769  1
  Ta  Ta1  1  0.499874  0.997845  0.168907  1
  Ta  Ta2  1  0.999887  0.507822  0.339241  1
  Ta  Ta3  1  0.499979  0.996432  0.503622  1
  Ta  Ta4  1  0.000097  0.498581  0.666184  1
  Ta  Ta5  1  0.500109  0.999453  0.827396  1
  Cu  Cu6  1  0.000229  0.999539  0.999808  1
  Cu  Cu7  1  0.499685  0.500952  0.166335  1
  Cu  Cu8  1  0.999999  0.998683  0.334257  1
  Cu  Cu9  1  0.500675  0.502781  0.501021  1
  Cu  Cu10  1  0.999755  0.999745  0.666352  1
  Cu  Cu11  1  0.499727  0.498822  0.832144  1
  Pt  Pt12  1  0.500055  0.248320  0.999042  1
  Pt  Pt13  1  0.500042  0.750699  0.998891  1
  Pt  Pt14  1  0.999880  0.251666  0.167420  1
  Pt  Pt15  1  0.999895  0.748523  0.166766  1
  Pt  Pt16  1  0.499861  0.251795  0.334756  1
  Rh  Rh17  1  0.499865  0.750607  0.333516  1
  Rh  Rh18  1  0.999996  0.250502  0.499697  1
  Rh  Rh19  1  0.000017  0.751795  0.501081  1
  Rh  Rh20  1  0.500050  0.250054  0.665789  1
  Rh  Rh21  1  0.500049  0.748496  0.667190  1
  Rh  Rh22  1  0.000111  0.247907  0.832948  1
  Rh  Rh23  1  0.000110  0.749782  0.832870  1
