# generated using pymatgen
data_Tb15NdCd4TcPt3
_symmetry_space_group_name_H-M   'P 1'
_cell_length_a   9.78487743
_cell_length_b   9.78487707
_cell_length_c   9.78463417
_cell_angle_alpha   59.46298196
_cell_angle_beta   59.46298505
_cell_angle_gamma   59.33584220
_symmetry_Int_Tables_number   1
_chemical_formula_structural   Tb15NdCd4TcPt3
_chemical_formula_sum   'Tb15 Nd1 Cd4 Tc1 Pt3'
_cell_volume   653.69530909
_cell_formula_units_Z   1
loop_
 _symmetry_equiv_pos_site_id
 _symmetry_equiv_pos_as_xyz
  1  'x, y, z'
loop_
 _atom_site_type_symbol
 _atom_site_label
 _atom_site_symmetry_multiplicity
 _atom_site_fract_x
 _atom_site_fract_y
 _atom_site_fract_z
 _atom_site_occupancy
  Tb  Tb0  1  0.351934  0.351934  0.352025  1
  Tb  Tb1  1  0.349649  0.349649  0.950373  1
  Tb  Tb2  1  0.350466  0.950787  0.348808  1
  Tb  Tb3  1  0.950787  0.350466  0.348808  1
  Tb  Tb4  1  0.815083  0.189504  0.186860  1
  Tb  Tb5  1  0.189551  0.809312  0.809642  1
  Tb  Tb6  1  0.189504  0.815083  0.186860  1
  Tb  Tb7  1  0.809312  0.189551  0.809642  1
  Tb  Tb8  1  0.188232  0.188232  0.815908  1
  Tb  Tb9  1  0.809345  0.809345  0.188191  1
  Tb  Tb10  1  0.935182  0.562430  0.565156  1
  Tb  Tb11  1  0.555193  0.937463  0.938835  1
  Tb  Tb12  1  0.562430  0.935182  0.565156  1
  Tb  Tb13  1  0.937463  0.555193  0.938835  1
  Tb  Tb14  1  0.564592  0.564592  0.935533  1
  Nd  Nd15  1  0.936240  0.936240  0.558098  1
  Cd  Cd16  1  0.580405  0.580405  0.580043  1
  Cd  Cd17  1  0.581672  0.581672  0.253615  1
  Cd  Cd18  1  0.578596  0.256568  0.581742  1
  Cd  Cd19  1  0.256568  0.578596  0.581742  1
  Tc  Tc20  1  0.144381  0.144381  0.141829  1
  Pt  Pt21  1  0.145196  0.145196  0.573535  1
  Pt  Pt22  1  0.145069  0.573148  0.144382  1
  Pt  Pt23  1  0.573148  0.145069  0.144382  1
