# generated using pymatgen
data_Sc6OsRuC8
_symmetry_space_group_name_H-M   'P 1'
_cell_length_a   6.80848362
_cell_length_b   6.80848333
_cell_length_c   6.69181211
_cell_angle_alpha   75.76895753
_cell_angle_beta   75.76895756
_cell_angle_gamma   38.55137054
_symmetry_Int_Tables_number   1
_chemical_formula_structural   Sc6OsRuC8
_chemical_formula_sum   'Sc6 Os1 Ru1 C8'
_cell_volume   186.65167981
_cell_formula_units_Z   1
loop_
 _symmetry_equiv_pos_site_id
 _symmetry_equiv_pos_as_xyz
  1  'x, y, z'
loop_
 _atom_site_type_symbol
 _atom_site_label
 _atom_site_symmetry_multiplicity
 _atom_site_fract_x
 _atom_site_fract_y
 _atom_site_fract_z
 _atom_site_occupancy
  Sc  Sc0  1  0.500069  0.500069  0.000796  1
  Sc  Sc1  1  0.499910  0.499910  0.499193  1
  Sc  Sc2  1  0.189163  0.189163  0.905916  1
  Sc  Sc3  1  0.190359  0.190359  0.404302  1
  Sc  Sc4  1  0.808824  0.808824  0.595851  1
  Sc  Sc5  1  0.811627  0.811627  0.094057  1
  Os  Os6  1  0.999685  0.999685  0.739461  1
  Ru  Ru7  1  0.000290  0.000290  0.262423  1
  C  C8  1  0.788267  0.466599  0.685215  1
  C  C9  1  0.466599  0.788267  0.685215  1
  C  C10  1  0.788423  0.470885  0.185701  1
  C  C11  1  0.470885  0.788423  0.185701  1
  C  C12  1  0.531987  0.211288  0.813144  1
  C  C13  1  0.211288  0.531987  0.813144  1
  C  C14  1  0.530544  0.212078  0.314941  1
  C  C15  1  0.212078  0.530544  0.314941  1
