# generated using pymatgen
data_Er4AlIr
_symmetry_space_group_name_H-M   'P 1'
_cell_length_a   9.46255524
_cell_length_b   9.46255531
_cell_length_c   9.46255500
_cell_angle_alpha   59.99999760
_cell_angle_beta   59.99999733
_cell_angle_gamma   60.00000050
_symmetry_Int_Tables_number   1
_chemical_formula_structural   Er4AlIr
_chemical_formula_sum   'Er16 Al4 Ir4'
_cell_volume   599.11509610
_cell_formula_units_Z   4
loop_
 _symmetry_equiv_pos_site_id
 _symmetry_equiv_pos_as_xyz
  1  'x, y, z'
loop_
 _atom_site_type_symbol
 _atom_site_label
 _atom_site_symmetry_multiplicity
 _atom_site_fract_x
 _atom_site_fract_y
 _atom_site_fract_z
 _atom_site_occupancy
  Er  Er0  1  0.061522  0.061522  0.438478  1
  Er  Er1  1  0.647468  0.057597  0.647468  1
  Er  Er2  1  0.194964  0.805036  0.194964  1
  Er  Er3  1  0.438478  0.061522  0.438478  1
  Er  Er4  1  0.194964  0.194964  0.805036  1
  Er  Er5  1  0.647468  0.647468  0.647468  1
  Er  Er6  1  0.057597  0.647468  0.647468  1
  Er  Er7  1  0.438478  0.061522  0.061522  1
  Er  Er8  1  0.647468  0.647468  0.057597  1
  Er  Er9  1  0.194964  0.805036  0.805036  1
  Er  Er10  1  0.805036  0.194964  0.805036  1
  Er  Er11  1  0.805036  0.194964  0.194964  1
  Er  Er12  1  0.805036  0.805036  0.194964  1
  Er  Er13  1  0.061522  0.438478  0.438478  1
  Er  Er14  1  0.438478  0.438478  0.061522  1
  Er  Er15  1  0.061522  0.438478  0.061522  1
  Al  Al16  1  0.735535  0.421488  0.421488  1
  Al  Al17  1  0.421488  0.421488  0.735535  1
  Al  Al18  1  0.421488  0.735535  0.421488  1
  Al  Al19  1  0.421488  0.421488  0.421488  1
  Ir  Ir20  1  0.858360  0.858360  0.858360  1
  Ir  Ir21  1  0.424921  0.858360  0.858360  1
  Ir  Ir22  1  0.858360  0.858360  0.424921  1
  Ir  Ir23  1  0.858360  0.424921  0.858360  1
