# generated using pymatgen
data_Ca4Pr16Bi3Pb13
_symmetry_space_group_name_H-M   'P 1'
_cell_length_a   8.42588231
_cell_length_b   8.53330008
_cell_length_c   16.44537611
_cell_angle_alpha   90.01916185
_cell_angle_beta   89.28725284
_cell_angle_gamma   90.18338348
_symmetry_Int_Tables_number   1
_chemical_formula_structural   Ca4Pr16Bi3Pb13
_chemical_formula_sum   'Ca4 Pr16 Bi3 Pb13'
_cell_volume   1182.33452063
_cell_formula_units_Z   1
loop_
 _symmetry_equiv_pos_site_id
 _symmetry_equiv_pos_as_xyz
  1  'x, y, z'
loop_
 _atom_site_type_symbol
 _atom_site_label
 _atom_site_symmetry_multiplicity
 _atom_site_fract_x
 _atom_site_fract_y
 _atom_site_fract_z
 _atom_site_occupancy
  Ca  Ca0  1  0.796436  0.496344  0.749465  1
  Ca  Ca1  1  0.296183  0.003490  0.747795  1
  Ca  Ca2  1  0.203329  0.502879  0.250748  1
  Ca  Ca3  1  0.704198  0.996410  0.249607  1
  Pr  Pr4  1  0.625829  0.163988  0.620265  1
  Pr  Pr5  1  0.119229  0.341605  0.881110  1
  Pr  Pr6  1  0.380180  0.842110  0.119561  1
  Pr  Pr7  1  0.872292  0.660559  0.378405  1
  Pr  Pr8  1  0.368422  0.836493  0.379607  1
  Pr  Pr9  1  0.872623  0.659805  0.118703  1
  Pr  Pr10  1  0.625810  0.160269  0.881754  1
  Pr  Pr11  1  0.130566  0.337486  0.621800  1
  Pr  Pr12  1  0.483029  0.681055  0.596540  1
  Pr  Pr13  1  0.968816  0.820217  0.898261  1
  Pr  Pr14  1  0.531423  0.320779  0.101694  1
  Pr  Pr15  1  0.021744  0.180043  0.400496  1
  Pr  Pr16  1  0.516686  0.318106  0.403658  1
  Pr  Pr17  1  0.023482  0.180973  0.100911  1
  Pr  Pr18  1  0.477016  0.682652  0.900419  1
  Pr  Pr19  1  0.984448  0.815764  0.598082  1
  Bi  Bi20  1  0.713341  0.960983  0.460257  1
  Bi  Bi21  1  0.220552  0.533353  0.042615  1
  Bi  Bi22  1  0.278520  0.033890  0.958139  1
  Pb  Pb23  1  0.791288  0.461834  0.539589  1
  Pb  Pb24  1  0.283217  0.038270  0.539106  1
  Pb  Pb25  1  0.777770  0.468138  0.957612  1
  Pb  Pb26  1  0.721817  0.966227  0.041551  1
  Pb  Pb27  1  0.209220  0.536531  0.460377  1
  Pb  Pb28  1  0.428815  0.384534  0.752466  1
  Pb  Pb29  1  0.927278  0.115094  0.750055  1
  Pb  Pb30  1  0.570776  0.616246  0.250558  1
  Pb  Pb31  1  0.072278  0.883783  0.248079  1
  Pb  Pb32  1  0.668133  0.853745  0.748555  1
  Pb  Pb33  1  0.171606  0.647381  0.750352  1
  Pb  Pb34  1  0.333062  0.147610  0.250736  1
  Pb  Pb35  1  0.830587  0.351352  0.251070  1
