# generated using pymatgen
data_Nd2Nb3Si7Pt9
_symmetry_space_group_name_H-M   'P 1'
_cell_length_a   9.92515900
_cell_length_b   9.92515803
_cell_length_c   4.06496700
_cell_angle_alpha   90.00000000
_cell_angle_beta   90.00000000
_cell_angle_gamma   119.99999990
_symmetry_Int_Tables_number   1
_chemical_formula_structural   Nd2Nb3Si7Pt9
_chemical_formula_sum   'Nd2 Nb3 Si7 Pt9'
_cell_volume   346.78680115
_cell_formula_units_Z   1
loop_
 _symmetry_equiv_pos_site_id
 _symmetry_equiv_pos_as_xyz
  1  'x, y, z'
loop_
 _atom_site_type_symbol
 _atom_site_label
 _atom_site_symmetry_multiplicity
 _atom_site_fract_x
 _atom_site_fract_y
 _atom_site_fract_z
 _atom_site_occupancy
  Nd  Nd0  1  0.000000  0.000000  0.000000  1
  Nd  Nd1  1  0.333333  0.666667  0.500000  1
  Nb  Nb2  1  0.881098  0.453776  0.500000  1
  Nb  Nb3  1  0.572678  0.118902  0.500000  1
  Nb  Nb4  1  0.546224  0.427322  0.500000  1
  Si  Si5  1  0.260547  0.215268  0.500000  1
  Si  Si6  1  0.784732  0.045280  0.500000  1
  Si  Si7  1  0.954720  0.739453  0.500000  1
  Si  Si8  1  0.556202  0.636716  0.000000  1
  Si  Si9  1  0.363284  0.919485  0.000000  1
  Si  Si10  1  0.080515  0.443798  0.000000  1
  Si  Si11  1  0.666667  0.333333  0.000000  1
  Pt  Pt12  1  0.226227  0.942648  0.500000  1
  Pt  Pt13  1  0.057352  0.283579  0.500000  1
  Pt  Pt14  1  0.716421  0.773773  0.500000  1
  Pt  Pt15  1  0.306044  0.406519  0.000000  1
  Pt  Pt16  1  0.593481  0.899525  0.000000  1
  Pt  Pt17  1  0.100475  0.693956  0.000000  1
  Pt  Pt18  1  0.388025  0.174714  0.000000  1
  Pt  Pt19  1  0.825286  0.213312  0.000000  1
  Pt  Pt20  1  0.786688  0.611975  0.000000  1
