# generated using pymatgen
data_Sc3TiCo10(SnB2)2
_symmetry_space_group_name_H-M   'P 1'
_cell_length_a   8.81483864
_cell_length_b   8.81483803
_cell_length_c   3.05548000
_cell_angle_alpha   90.00000000
_cell_angle_beta   90.00000000
_cell_angle_gamma   90.84547218
_symmetry_Int_Tables_number   1
_chemical_formula_structural   Sc3TiCo10(SnB2)2
_chemical_formula_sum   'Sc3 Ti1 Co10 Sn2 B4'
_cell_volume   237.38914899
_cell_formula_units_Z   1
loop_
 _symmetry_equiv_pos_site_id
 _symmetry_equiv_pos_as_xyz
  1  'x, y, z'
loop_
 _atom_site_type_symbol
 _atom_site_label
 _atom_site_symmetry_multiplicity
 _atom_site_fract_x
 _atom_site_fract_y
 _atom_site_fract_z
 _atom_site_occupancy
  Sc  Sc0  1  0.825814  0.325814  0.000000  1
  Sc  Sc1  1  0.323869  0.174539  0.000000  1
  Sc  Sc2  1  0.674539  0.823869  0.000000  1
  Ti  Ti3  1  0.173689  0.673689  0.000000  1
  Co  Co4  1  0.496226  0.996226  0.500000  1
  Co  Co5  1  0.006005  0.506005  0.500000  1
  Co  Co6  1  0.071904  0.234174  0.500000  1
  Co  Co7  1  0.223451  0.917582  0.500000  1
  Co  Co8  1  0.768863  0.070774  0.500000  1
  Co  Co9  1  0.938957  0.770460  0.500000  1
  Co  Co10  1  0.417582  0.723451  0.500000  1
  Co  Co11  1  0.570774  0.268863  0.500000  1
  Co  Co12  1  0.734174  0.571904  0.500000  1
  Co  Co13  1  0.270460  0.438957  0.500000  1
  Sn  Sn14  1  0.999342  0.003286  0.000000  1
  Sn  Sn15  1  0.503286  0.499342  0.000000  1
  B  B16  1  0.617809  0.117809  0.000000  1
  B  B17  1  0.122186  0.385326  0.000000  1
  B  B18  1  0.885326  0.622186  0.000000  1
  B  B19  1  0.375745  0.875745  0.000000  1
