# generated using pymatgen
data_Ti8Al14ZnIr(Pt2Rh)2
_symmetry_space_group_name_H-M   'P 1'
_cell_length_a   8.67928072
_cell_length_b   8.67901909
_cell_length_c   8.69229200
_cell_angle_alpha   120.04841320
_cell_angle_beta   119.87419580
_cell_angle_gamma   90.11276533
_symmetry_Int_Tables_number   1
_chemical_formula_structural   Ti8Al14ZnIr(Pt2Rh)2
_chemical_formula_sum   'Ti8 Al14 Zn1 Ir1 Pt4 Rh2'
_cell_volume   463.07617783
_cell_formula_units_Z   1
loop_
 _symmetry_equiv_pos_site_id
 _symmetry_equiv_pos_as_xyz
  1  'x, y, z'
loop_
 _atom_site_type_symbol
 _atom_site_label
 _atom_site_symmetry_multiplicity
 _atom_site_fract_x
 _atom_site_fract_y
 _atom_site_fract_z
 _atom_site_occupancy
  Ti  Ti0  1  0.791753  0.293513  0.078409  1
  Ti  Ti1  1  0.214570  0.291444  0.501684  1
  Ti  Ti2  1  0.207627  0.708410  0.498715  1
  Ti  Ti3  1  0.212267  0.711370  0.919935  1
  Ti  Ti4  1  0.792742  0.713113  0.500038  1
  Ti  Ti5  1  0.786417  0.286545  0.501770  1
  Ti  Ti6  1  0.379674  0.121402  0.740641  1
  Ti  Ti7  1  0.373922  0.637078  0.255213  1
  Al  Al8  1  0.152621  0.341338  0.186909  1
  Al  Al9  1  0.154417  0.968442  0.813597  1
  Al  Al10  1  0.151781  0.344607  0.807919  1
  Al  Al11  1  0.537835  0.345566  0.192638  1
  Al  Al12  1  0.848149  0.655947  0.811325  1
  Al  Al13  1  0.848223  0.039060  0.190959  1
  Al  Al14  1  0.844985  0.654673  0.186714  1
  Al  Al15  1  0.466370  0.655031  0.810454  1
  Al  Al16  1  0.374658  0.117848  0.257808  1
  Al  Al17  1  0.861660  0.122742  0.746069  1
  Al  Al18  1  0.620670  0.879733  0.260040  1
  Al  Al19  1  0.624817  0.362495  0.743567  1
  Al  Al20  1  0.626223  0.881229  0.743623  1
  Al  Al21  1  0.135510  0.877437  0.253187  1
  Zn  Zn22  1  0.996169  0.494849  0.498885  1
  Ir  Ir23  1  0.001439  0.499768  0.001219  1
  Pt  Pt24  1  0.998852  0.998779  0.498880  1
  Pt  Pt25  1  0.499910  0.999324  0.000199  1
  Pt  Pt26  1  0.499247  0.500055  0.000480  1
  Pt  Pt27  1  0.499299  0.499863  0.499594  1
  Rh  Rh28  1  0.000548  0.999972  0.999784  1
  Rh  Rh29  1  0.497645  0.998366  0.499747  1
