# generated using pymatgen
data_Hf6AlAs5Ru6
_symmetry_space_group_name_H-M   'P 1'
_cell_length_a   7.67227463
_cell_length_b   7.69257833
_cell_length_c   7.67227580
_cell_angle_alpha   128.38754937
_cell_angle_beta   119.99285415
_cell_angle_gamma   82.98152386
_symmetry_Int_Tables_number   1
_chemical_formula_structural   Hf6AlAs5Ru6
_chemical_formula_sum   'Hf6 Al1 As5 Ru6'
_cell_volume   295.34653916
_cell_formula_units_Z   1
loop_
 _symmetry_equiv_pos_site_id
 _symmetry_equiv_pos_as_xyz
  1  'x, y, z'
loop_
 _atom_site_type_symbol
 _atom_site_label
 _atom_site_symmetry_multiplicity
 _atom_site_fract_x
 _atom_site_fract_y
 _atom_site_fract_z
 _atom_site_occupancy
  Hf  Hf0  1  0.471470  0.702234  0.730764  1
  Hf  Hf1  1  0.524390  0.255137  0.230747  1
  Hf  Hf2  1  0.748853  0.833872  0.585019  1
  Hf  Hf3  1  0.249850  0.827802  0.077951  1
  Hf  Hf4  1  0.052779  0.255917  0.703139  1
  Hf  Hf5  1  0.949685  0.655723  0.206037  1
  Al  Al6  1  0.275069  0.275230  0.500161  1
  As  As7  1  0.725127  0.225944  0.000817  1
  As  As8  1  0.328944  0.585413  0.248150  1
  As  As9  1  0.671530  0.920377  0.259302  1
  As  As10  1  0.161075  0.920377  0.748847  1
  As  As11  1  0.837263  0.585413  0.756469  1
  Ru  Ru12  1  0.505633  0.499151  0.002865  1
  Ru  Ru13  1  0.996286  0.499151  0.493518  1
  Ru  Ru14  1  0.095841  0.253021  0.101500  1
  Ru  Ru15  1  0.904270  0.005909  0.155494  1
  Ru  Ru16  1  0.350416  0.005909  0.601639  1
  Ru  Ru17  1  0.651521  0.253021  0.657181  1
