# generated using pymatgen
data_Tb5YAl24(Ir3Ru)2
_symmetry_space_group_name_H-M   'P 1'
_cell_length_a   8.83077402
_cell_length_b   8.82984108
_cell_length_c   9.49310900
_cell_angle_alpha   90.00000000
_cell_angle_beta   90.00000000
_cell_angle_gamma   119.99650530
_symmetry_Int_Tables_number   1
_chemical_formula_structural   Tb5YAl24(Ir3Ru)2
_chemical_formula_sum   'Tb5 Y1 Al24 Ir6 Ru2'
_cell_volume   641.07088024
_cell_formula_units_Z   1
loop_
 _symmetry_equiv_pos_site_id
 _symmetry_equiv_pos_as_xyz
  1  'x, y, z'
loop_
 _atom_site_type_symbol
 _atom_site_label
 _atom_site_symmetry_multiplicity
 _atom_site_fract_x
 _atom_site_fract_y
 _atom_site_fract_z
 _atom_site_occupancy
  Tb  Tb0  1  0.808009  0.191985  0.250000  1
  Tb  Tb1  1  0.808009  0.616023  0.250000  1
  Tb  Tb2  1  0.616041  0.808021  0.750000  1
  Tb  Tb3  1  0.191956  0.807992  0.750000  1
  Tb  Tb4  1  0.191956  0.383965  0.750000  1
  Y  Y5  1  0.384060  0.192029  0.250000  1
  Al  Al6  1  0.437604  0.875244  0.250000  1
  Al  Al7  1  0.124783  0.562391  0.250000  1
  Al  Al8  1  0.437604  0.562360  0.250000  1
  Al  Al9  1  0.562404  0.124802  0.750000  1
  Al  Al10  1  0.875224  0.437612  0.750000  1
  Al  Al11  1  0.562404  0.437604  0.750000  1
  Al  Al12  1  0.163046  0.836961  0.423871  1
  Al  Al13  1  0.163046  0.326086  0.423871  1
  Al  Al14  1  0.673932  0.836966  0.423863  1
  Al  Al15  1  0.836962  0.163047  0.576130  1
  Al  Al16  1  0.836962  0.673914  0.576130  1
  Al  Al17  1  0.326077  0.163038  0.576133  1
  Al  Al18  1  0.836962  0.163047  0.923870  1
  Al  Al19  1  0.836962  0.673914  0.923870  1
  Al  Al20  1  0.326077  0.163038  0.923867  1
  Al  Al21  1  0.163046  0.836961  0.076129  1
  Al  Al22  1  0.163046  0.326086  0.076129  1
  Al  Al23  1  0.673932  0.836966  0.076137  1
  Al  Al24  1  0.333315  0.666658  0.528784  1
  Al  Al25  1  0.666639  0.333319  0.471239  1
  Al  Al26  1  0.666639  0.333319  0.028761  1
  Al  Al27  1  0.333315  0.666658  0.971216  1
  Al  Al28  1  0.999970  0.999985  0.250000  1
  Al  Al29  1  0.000017  0.000008  0.750000  1
  Ir  Ir30  1  0.500005  0.000028  0.499978  1
  Ir  Ir31  1  0.999976  0.499988  0.499963  1
  Ir  Ir32  1  0.500005  0.499977  0.499978  1
  Ir  Ir33  1  0.500005  0.000028  0.000022  1
  Ir  Ir34  1  0.999976  0.499988  0.000037  1
  Ir  Ir35  1  0.500005  0.499977  0.000022  1
  Ru  Ru36  1  0.000017  0.000008  0.499920  1
  Ru  Ru37  1  0.000017  0.000008  0.000080  1
