# generated using pymatgen
data_Pr8Dy11ErSi16
_symmetry_space_group_name_H-M   'P 1'
_cell_length_a   7.54320803
_cell_length_b   7.81898203
_cell_length_c   14.86762600
_cell_angle_alpha   90.00000000
_cell_angle_beta   90.00000000
_cell_angle_gamma   90.01012981
_symmetry_Int_Tables_number   1
_chemical_formula_structural   Pr8Dy11ErSi16
_chemical_formula_sum   'Pr8 Dy11 Er1 Si16'
_cell_volume   876.89566076
_cell_formula_units_Z   1
loop_
 _symmetry_equiv_pos_site_id
 _symmetry_equiv_pos_as_xyz
  1  'x, y, z'
loop_
 _atom_site_type_symbol
 _atom_site_label
 _atom_site_symmetry_multiplicity
 _atom_site_fract_x
 _atom_site_fract_y
 _atom_site_fract_z
 _atom_site_occupancy
  Pr  Pr0  1  0.974378  0.820101  0.098215  1
  Pr  Pr1  1  0.474567  0.680027  0.401782  1
  Pr  Pr2  1  0.525520  0.320009  0.901856  1
  Pr  Pr3  1  0.025520  0.180046  0.598144  1
  Pr  Pr4  1  0.025520  0.180046  0.901856  1
  Pr  Pr5  1  0.525520  0.320009  0.598144  1
  Pr  Pr6  1  0.474567  0.680027  0.098218  1
  Pr  Pr7  1  0.974378  0.820101  0.401785  1
  Dy  Dy8  1  0.149022  0.510509  0.250000  1
  Dy  Dy9  1  0.850989  0.489348  0.750000  1
  Dy  Dy10  1  0.351023  0.010620  0.750000  1
  Dy  Dy11  1  0.681382  0.821356  0.876927  1
  Dy  Dy12  1  0.181407  0.678647  0.623086  1
  Dy  Dy13  1  0.818512  0.321258  0.123093  1
  Dy  Dy14  1  0.318721  0.178571  0.376915  1
  Dy  Dy15  1  0.318721  0.178571  0.123085  1
  Dy  Dy16  1  0.818512  0.321258  0.376907  1
  Dy  Dy17  1  0.181407  0.678647  0.876914  1
  Dy  Dy18  1  0.681382  0.821356  0.623073  1
  Er  Er19  1  0.649029  0.989070  0.250000  1
  Si  Si20  1  0.767141  0.620793  0.250000  1
  Si  Si21  1  0.267859  0.879921  0.250000  1
  Si  Si22  1  0.732721  0.120137  0.750000  1
  Si  Si23  1  0.232813  0.379891  0.750000  1
  Si  Si24  1  0.023280  0.111017  0.250000  1
  Si  Si25  1  0.523904  0.388759  0.250000  1
  Si  Si26  1  0.476064  0.611078  0.750000  1
  Si  Si27  1  0.976084  0.888859  0.750000  1
  Si  Si28  1  0.857139  0.530771  0.960014  1
  Si  Si29  1  0.357104  0.969246  0.539961  1
  Si  Si30  1  0.642914  0.030699  0.040211  1
  Si  Si31  1  0.142872  0.469268  0.459997  1
  Si  Si32  1  0.142872  0.469268  0.040003  1
  Si  Si33  1  0.642914  0.030699  0.459789  1
  Si  Si34  1  0.357104  0.969246  0.960039  1
  Si  Si35  1  0.857139  0.530771  0.539986  1
