# generated using pymatgen
data_Ho2PaGa6Co8Ni
_symmetry_space_group_name_H-M   'P 1'
_cell_length_a   8.90175107
_cell_length_b   8.90174977
_cell_length_c   3.88798400
_cell_angle_alpha   90.00000000
_cell_angle_beta   90.00000000
_cell_angle_gamma   120.20373023
_symmetry_Int_Tables_number   1
_chemical_formula_structural   Ho2PaGa6Co8Ni
_chemical_formula_sum   'Ho2 Pa1 Ga6 Co8 Ni1'
_cell_volume   266.26291970
_cell_formula_units_Z   1
loop_
 _symmetry_equiv_pos_site_id
 _symmetry_equiv_pos_as_xyz
  1  'x, y, z'
loop_
 _atom_site_type_symbol
 _atom_site_label
 _atom_site_symmetry_multiplicity
 _atom_site_fract_x
 _atom_site_fract_y
 _atom_site_fract_z
 _atom_site_occupancy
  Ho  Ho0  1  0.667796  0.332204  0.500000  1
  Ho  Ho1  1  0.332204  0.667796  0.500000  1
  Pa  Pa2  1  0.000000  0.000000  0.000000  1
  Ga  Ga3  1  0.679619  0.679619  0.500000  1
  Ga  Ga4  1  0.323648  0.000056  0.500000  1
  Ga  Ga5  1  0.000056  0.323648  0.500000  1
  Ga  Ga6  1  0.320381  0.320381  0.500000  1
  Ga  Ga7  1  0.676352  0.999944  0.500000  1
  Ga  Ga8  1  0.999944  0.676352  0.500000  1
  Co  Co9  1  0.500000  0.000000  0.000000  1
  Co  Co10  1  0.000000  0.500000  0.000000  1
  Co  Co11  1  0.827488  0.172512  0.000000  1
  Co  Co12  1  0.829414  0.657695  0.000000  1
  Co  Co13  1  0.342305  0.170586  0.000000  1
  Co  Co14  1  0.172512  0.827488  0.000000  1
  Co  Co15  1  0.657695  0.829414  0.000000  1
  Co  Co16  1  0.170586  0.342305  0.000000  1
  Ni  Ni17  1  0.500000  0.500000  0.000000  1
