# generated using pymatgen
data_Y6Ho10Cd4Ir3Ru
_symmetry_space_group_name_H-M   'P 1'
_cell_length_a   9.63590953
_cell_length_b   9.63590866
_cell_length_c   9.63590884
_cell_angle_alpha   59.85960060
_cell_angle_beta   59.85959974
_cell_angle_gamma   59.85960874
_symmetry_Int_Tables_number   1
_chemical_formula_structural   Y6Ho10Cd4Ir3Ru
_chemical_formula_sum   'Y6 Ho10 Cd4 Ir3 Ru1'
_cell_volume   630.63377162
_cell_formula_units_Z   1
loop_
 _symmetry_equiv_pos_site_id
 _symmetry_equiv_pos_as_xyz
  1  'x, y, z'
loop_
 _atom_site_type_symbol
 _atom_site_label
 _atom_site_symmetry_multiplicity
 _atom_site_fract_x
 _atom_site_fract_y
 _atom_site_fract_z
 _atom_site_occupancy
  Y  Y0  1  0.939656  0.561063  0.561063  1
  Y  Y1  1  0.559893  0.939091  0.939091  1
  Y  Y2  1  0.561063  0.939656  0.561063  1
  Y  Y3  1  0.939091  0.559893  0.939091  1
  Y  Y4  1  0.561063  0.561063  0.939656  1
  Y  Y5  1  0.939091  0.939091  0.559893  1
  Ho  Ho6  1  0.348019  0.348019  0.348019  1
  Ho  Ho7  1  0.348223  0.348223  0.955944  1
  Ho  Ho8  1  0.348223  0.955944  0.348223  1
  Ho  Ho9  1  0.955944  0.348223  0.348223  1
  Ho  Ho10  1  0.811630  0.188674  0.188674  1
  Ho  Ho11  1  0.188397  0.810491  0.810491  1
  Ho  Ho12  1  0.188674  0.811630  0.188674  1
  Ho  Ho13  1  0.810491  0.188397  0.810491  1
  Ho  Ho14  1  0.188674  0.188674  0.811630  1
  Ho  Ho15  1  0.810491  0.810491  0.188397  1
  Cd  Cd16  1  0.580048  0.580048  0.580048  1
  Cd  Cd17  1  0.580550  0.580550  0.257770  1
  Cd  Cd18  1  0.580550  0.257770  0.580550  1
  Cd  Cd19  1  0.257770  0.580550  0.580550  1
  Ir  Ir20  1  0.142708  0.142708  0.576192  1
  Ir  Ir21  1  0.142708  0.576192  0.142708  1
  Ir  Ir22  1  0.576192  0.142708  0.142708  1
  Ru  Ru23  1  0.140850  0.140850  0.140850  1
