# generated using pymatgen
data_Ce2Cu2Si2Sn
_symmetry_space_group_name_H-M   'P 1'
_cell_length_a   9.52714684
_cell_length_b   9.52714539
_cell_length_c   6.68732000
_cell_angle_alpha   90.00000000
_cell_angle_beta   90.00000000
_cell_angle_gamma   152.81528118
_symmetry_Int_Tables_number   1
_chemical_formula_structural   Ce2Cu2Si2Sn
_chemical_formula_sum   'Ce4 Cu4 Si4 Sn2'
_cell_volume   277.30746162
_cell_formula_units_Z   2
loop_
 _symmetry_equiv_pos_site_id
 _symmetry_equiv_pos_as_xyz
  1  'x, y, z'
loop_
 _atom_site_type_symbol
 _atom_site_label
 _atom_site_symmetry_multiplicity
 _atom_site_fract_x
 _atom_site_fract_y
 _atom_site_fract_z
 _atom_site_occupancy
  Ce  Ce0  1  0.545563  0.454437  0.250000  1
  Ce  Ce1  1  0.454437  0.545563  0.750000  1
  Ce  Ce2  1  0.345900  0.654100  0.250000  1
  Ce  Ce3  1  0.654100  0.345900  0.750000  1
  Cu  Cu4  1  0.823420  0.176580  0.561924  1
  Cu  Cu5  1  0.176580  0.823420  0.438076  1
  Cu  Cu6  1  0.176580  0.823420  0.061924  1
  Cu  Cu7  1  0.823420  0.176580  0.938076  1
  Si  Si8  1  0.941166  0.058834  0.071753  1
  Si  Si9  1  0.058834  0.941166  0.928247  1
  Si  Si10  1  0.058834  0.941166  0.571753  1
  Si  Si11  1  0.941166  0.058834  0.428247  1
  Sn  Sn12  1  0.721816  0.278184  0.250000  1
  Sn  Sn13  1  0.278184  0.721816  0.750000  1
