# generated using pymatgen
data_Y3Ho7In8(CoPd)2
_symmetry_space_group_name_H-M   'P 1'
_cell_length_a   3.60018800
_cell_length_b   8.08005216
_cell_length_c   18.09719005
_cell_angle_alpha   90.10844363
_cell_angle_beta   90.00000000
_cell_angle_gamma   90.00000000
_symmetry_Int_Tables_number   1
_chemical_formula_structural   Y3Ho7In8(CoPd)2
_chemical_formula_sum   'Y3 Ho7 In8 Co2 Pd2'
_cell_volume   526.44101032
_cell_formula_units_Z   1
loop_
 _symmetry_equiv_pos_site_id
 _symmetry_equiv_pos_as_xyz
  1  'x, y, z'
loop_
 _atom_site_type_symbol
 _atom_site_label
 _atom_site_symmetry_multiplicity
 _atom_site_fract_x
 _atom_site_fract_y
 _atom_site_fract_z
 _atom_site_occupancy
  Y  Y0  1  0.500000  0.619332  0.915334  1
  Y  Y1  1  0.500000  0.000523  0.000202  1
  Y  Y2  1  0.500000  0.499926  0.499986  1
  Ho  Ho3  1  0.500000  0.226379  0.776081  1
  Ho  Ho4  1  0.500000  0.773797  0.223811  1
  Ho  Ho5  1  0.500000  0.240356  0.281614  1
  Ho  Ho6  1  0.500000  0.759286  0.718359  1
  Ho  Ho7  1  0.500000  0.113349  0.589375  1
  Ho  Ho8  1  0.500000  0.886594  0.410516  1
  Ho  Ho9  1  0.500000  0.381140  0.085731  1
  In  In10  1  0.000000  0.075434  0.152489  1
  In  In11  1  0.000000  0.925710  0.847316  1
  In  In12  1  0.000000  0.422941  0.650056  1
  In  In13  1  0.000000  0.576998  0.349809  1
  In  In14  1  0.000000  0.204129  0.431360  1
  In  In15  1  0.000000  0.795703  0.568489  1
  In  In16  1  0.000000  0.292104  0.931167  1
  In  In17  1  0.000000  0.707377  0.069171  1
  Co  Co18  1  0.000000  0.018489  0.694336  1
  Co  Co19  1  0.000000  0.981393  0.305698  1
  Pd  Pd20  1  0.000000  0.479146  0.196899  1
  Pd  Pd21  1  0.000000  0.519893  0.802202  1
