# generated using pymatgen
data_Sr4MnAl6O16
_symmetry_space_group_name_H-M   'P 1'
_cell_length_a   8.25749220
_cell_length_b   8.25749108
_cell_length_c   8.25749196
_cell_angle_alpha   109.82791943
_cell_angle_beta   109.82791292
_cell_angle_gamma   108.76015739
_symmetry_Int_Tables_number   1
_chemical_formula_structural   Sr4MnAl6O16
_chemical_formula_sum   'Sr4 Mn1 Al6 O16'
_cell_volume   433.38360554
_cell_formula_units_Z   1
loop_
 _symmetry_equiv_pos_site_id
 _symmetry_equiv_pos_as_xyz
  1  'x, y, z'
loop_
 _atom_site_type_symbol
 _atom_site_label
 _atom_site_symmetry_multiplicity
 _atom_site_fract_x
 _atom_site_fract_y
 _atom_site_fract_z
 _atom_site_occupancy
  Sr  Sr0  1  0.506218  0.006218  0.012436  1
  Sr  Sr1  1  0.993782  0.006218  0.500000  1
  Sr  Sr2  1  0.993782  0.493782  0.987564  1
  Sr  Sr3  1  0.506218  0.493782  0.500000  1
  Mn  Mn4  1  0.000000  0.000000  0.000000  1
  Al  Al5  1  0.497029  0.245795  0.748766  1
  Al  Al6  1  0.750000  0.250000  0.500000  1
  Al  Al7  1  0.251737  0.502971  0.748766  1
  Al  Al8  1  0.250000  0.750000  0.500000  1
  Al  Al9  1  0.497029  0.748263  0.251234  1
  Al  Al10  1  0.754205  0.502971  0.251234  1
  O  O11  1  0.654065  0.998383  0.344317  1
  O  O12  1  0.326822  0.663852  0.662970  1
  O  O13  1  0.661087  0.338913  0.000000  1
  O  O14  1  0.336148  0.999120  0.662970  1
  O  O15  1  0.001617  0.345935  0.655683  1
  O  O16  1  0.661087  0.661087  0.322174  1
  O  O17  1  0.654065  0.309747  0.655683  1
  O  O18  1  0.000880  0.663852  0.337030  1
  O  O19  1  0.338913  0.661087  0.000000  1
  O  O20  1  0.336148  0.673178  0.337030  1
  O  O21  1  0.690253  0.345935  0.344317  1
  O  O22  1  0.338913  0.338913  0.677826  1
  O  O23  1  0.896936  0.754900  0.857965  1
  O  O24  1  0.961029  0.103064  0.857965  1
  O  O25  1  0.245100  0.103064  0.142035  1
  O  O26  1  0.896936  0.038971  0.142035  1
