# generated using pymatgen
data_La6CuSn2Sb13
_symmetry_space_group_name_H-M   'P 1'
_cell_length_a   12.71729174
_cell_length_b   12.71729110
_cell_length_c   4.31871503
_cell_angle_alpha   80.39551747
_cell_angle_beta   80.39551995
_cell_angle_gamma   101.51643888
_symmetry_Int_Tables_number   1
_chemical_formula_structural   La6CuSn2Sb13
_chemical_formula_sum   'La6 Cu1 Sn2 Sb13'
_cell_volume   660.16810452
_cell_formula_units_Z   1
loop_
 _symmetry_equiv_pos_site_id
 _symmetry_equiv_pos_as_xyz
  1  'x, y, z'
loop_
 _atom_site_type_symbol
 _atom_site_label
 _atom_site_symmetry_multiplicity
 _atom_site_fract_x
 _atom_site_fract_y
 _atom_site_fract_z
 _atom_site_occupancy
  La  La0  1  0.324743  0.676353  0.929888  1
  La  La1  1  0.676353  0.324743  0.929888  1
  La  La2  1  0.268128  0.004629  0.795641  1
  La  La3  1  0.727320  0.995119  0.073897  1
  La  La4  1  0.995119  0.727320  0.073897  1
  La  La5  1  0.004629  0.268128  0.795641  1
  Cu  Cu6  1  0.262964  0.262964  0.679839  1
  Sn  Sn7  1  0.401843  0.401843  0.030212  1
  Sn  Sn8  1  0.596533  0.596533  0.831118  1
  Sb  Sb9  1  0.466818  0.247205  0.571372  1
  Sb  Sb10  1  0.544359  0.748619  0.284781  1
  Sb  Sb11  1  0.748619  0.544359  0.284781  1
  Sb  Sb12  1  0.247205  0.466818  0.571372  1
  Sb  Sb13  1  0.510934  0.914829  0.717662  1
  Sb  Sb14  1  0.486671  0.079960  0.147514  1
  Sb  Sb15  1  0.079960  0.486671  0.147514  1
  Sb  Sb16  1  0.914829  0.510934  0.717662  1
  Sb  Sb17  1  0.158236  0.158236  0.279014  1
  Sb  Sb18  1  0.854251  0.854251  0.584382  1
  Sb  Sb19  1  0.199000  0.799277  0.433643  1
  Sb  Sb20  1  0.799277  0.199000  0.433643  1
  Sb  Sb21  1  0.992809  0.992809  0.953939  1
