# generated using pymatgen
data_Tb20Ir5Pt4Au3
_symmetry_space_group_name_H-M   'P 1'
_cell_length_a   11.22336874
_cell_length_b   11.22336808
_cell_length_c   6.35235850
_cell_angle_alpha   90.00678969
_cell_angle_beta   90.00678680
_cell_angle_gamma   90.17045824
_symmetry_Int_Tables_number   1
_chemical_formula_structural   Tb20Ir5Pt4Au3
_chemical_formula_sum   'Tb20 Ir5 Pt4 Au3'
_cell_volume   800.16492398
_cell_formula_units_Z   1
loop_
 _symmetry_equiv_pos_site_id
 _symmetry_equiv_pos_as_xyz
  1  'x, y, z'
loop_
 _atom_site_type_symbol
 _atom_site_label
 _atom_site_symmetry_multiplicity
 _atom_site_fract_x
 _atom_site_fract_y
 _atom_site_fract_z
 _atom_site_occupancy
  Tb  Tb0  1  0.299265  0.083768  0.361931  1
  Tb  Tb1  1  0.297700  0.904509  0.872964  1
  Tb  Tb2  1  0.699588  0.088595  0.864032  1
  Tb  Tb3  1  0.696646  0.909698  0.364189  1
  Tb  Tb4  1  0.578726  0.789975  0.872985  1
  Tb  Tb5  1  0.582878  0.208255  0.374674  1
  Tb  Tb6  1  0.408365  0.790599  0.378920  1
  Tb  Tb7  1  0.415806  0.206706  0.873304  1
  Tb  Tb8  1  0.210025  0.421274  0.627015  1
  Tb  Tb9  1  0.209401  0.591635  0.121080  1
  Tb  Tb10  1  0.791745  0.417122  0.125326  1
  Tb  Tb11  1  0.793294  0.584194  0.626696  1
  Tb  Tb12  1  0.916232  0.700735  0.138069  1
  Tb  Tb13  1  0.911405  0.300412  0.635968  1
  Tb  Tb14  1  0.095491  0.702300  0.627036  1
  Tb  Tb15  1  0.090302  0.303354  0.135811  1
  Tb  Tb16  1  0.002518  0.995753  0.499318  1
  Tb  Tb17  1  0.004247  0.997482  0.000682  1
  Tb  Tb18  1  0.497256  0.500600  0.000367  1
  Tb  Tb19  1  0.499400  0.502744  0.499633  1
  Ir  Ir20  1  0.347805  0.652195  0.750000  1
  Ir  Ir21  1  0.500450  0.000327  0.114013  1
  Ir  Ir22  1  0.499226  0.000550  0.616090  1
  Ir  Ir23  1  0.999450  0.500774  0.883910  1
  Ir  Ir24  1  0.999673  0.499550  0.385987  1
  Pt  Pt25  1  0.153079  0.846921  0.250000  1
  Pt  Pt26  1  0.652742  0.347258  0.750000  1
  Pt  Pt27  1  0.655351  0.653201  0.248907  1
  Pt  Pt28  1  0.346799  0.344649  0.251093  1
  Au  Au29  1  0.845349  0.154651  0.250000  1
  Au  Au30  1  0.842884  0.843097  0.751068  1
  Au  Au31  1  0.156903  0.157116  0.748932  1
