# generated using pymatgen
data_Tb3Si3Os2
_symmetry_space_group_name_H-M   'P 1'
_cell_length_a   5.80132047
_cell_length_b   5.80131964
_cell_length_c   13.73679700
_cell_angle_alpha   90.00000000
_cell_angle_beta   90.00000000
_cell_angle_gamma   137.65481564
_symmetry_Int_Tables_number   1
_chemical_formula_structural   Tb3Si3Os2
_chemical_formula_sum   'Tb6 Si6 Os4'
_cell_volume   311.41416724
_cell_formula_units_Z   2
loop_
 _symmetry_equiv_pos_site_id
 _symmetry_equiv_pos_as_xyz
  1  'x, y, z'
loop_
 _atom_site_type_symbol
 _atom_site_label
 _atom_site_symmetry_multiplicity
 _atom_site_fract_x
 _atom_site_fract_y
 _atom_site_fract_z
 _atom_site_occupancy
  Tb  Tb0  1  0.639723  0.360277  0.250000  1
  Tb  Tb1  1  0.360277  0.639723  0.750000  1
  Tb  Tb2  1  0.924396  0.075604  0.115538  1
  Tb  Tb3  1  0.075604  0.924396  0.884462  1
  Tb  Tb4  1  0.075604  0.924396  0.615538  1
  Tb  Tb5  1  0.924396  0.075604  0.384462  1
  Si  Si6  1  0.323049  0.676951  0.250000  1
  Si  Si7  1  0.676951  0.323049  0.750000  1
  Si  Si8  1  0.618826  0.381174  0.037886  1
  Si  Si9  1  0.381174  0.618826  0.962114  1
  Si  Si10  1  0.381174  0.618826  0.537886  1
  Si  Si11  1  0.618826  0.381174  0.462114  1
  Os  Os12  1  0.786543  0.213457  0.582068  1
  Os  Os13  1  0.213457  0.786543  0.417932  1
  Os  Os14  1  0.213457  0.786543  0.082068  1
  Os  Os15  1  0.786543  0.213457  0.917932  1
