# generated using pymatgen
data_Ce5Re2BC6
_symmetry_space_group_name_H-M   'P 1'
_cell_length_a   8.55129758
_cell_length_b   8.55129762
_cell_length_c   3.49207700
_cell_angle_alpha   90.00000000
_cell_angle_beta   90.00000000
_cell_angle_gamma   124.60073051
_symmetry_Int_Tables_number   1
_chemical_formula_structural   Ce5Re2BC6
_chemical_formula_sum   'Ce5 Re2 B1 C6'
_cell_volume   210.19182633
_cell_formula_units_Z   1
loop_
 _symmetry_equiv_pos_site_id
 _symmetry_equiv_pos_as_xyz
  1  'x, y, z'
loop_
 _atom_site_type_symbol
 _atom_site_label
 _atom_site_symmetry_multiplicity
 _atom_site_fract_x
 _atom_site_fract_y
 _atom_site_fract_z
 _atom_site_occupancy
  Ce  Ce0  1  0.500000  0.500000  0.000000  1
  Ce  Ce1  1  0.061981  0.320087  0.500000  1
  Ce  Ce2  1  0.938019  0.679913  0.500000  1
  Ce  Ce3  1  0.679913  0.938019  0.500000  1
  Ce  Ce4  1  0.320087  0.061981  0.500000  1
  Re  Re5  1  0.712368  0.287632  0.000000  1
  Re  Re6  1  0.287632  0.712368  0.000000  1
  B  B7  1  0.000000  0.000000  0.000000  1
  C  C8  1  0.633549  0.366451  0.500000  1
  C  C9  1  0.366451  0.633549  0.500000  1
  C  C10  1  0.187111  0.187111  0.000000  1
  C  C11  1  0.812889  0.812889  0.000000  1
  C  C12  1  0.000000  0.500000  0.000000  1
  C  C13  1  0.500000  0.000000  0.000000  1
