# generated using pymatgen
data_Nd6HoSI12
_symmetry_space_group_name_H-M   'P 1'
_cell_length_a   9.92443025
_cell_length_b   9.92442970
_cell_length_c   9.92443000
_cell_angle_alpha   107.75161060
_cell_angle_beta   107.75160353
_cell_angle_gamma   107.75160240
_symmetry_Int_Tables_number   1
_chemical_formula_structural   Nd6HoSI12
_chemical_formula_sum   'Nd6 Ho1 S1 I12'
_cell_volume   796.79135218
_cell_formula_units_Z   1
loop_
 _symmetry_equiv_pos_site_id
 _symmetry_equiv_pos_as_xyz
  1  'x, y, z'
loop_
 _atom_site_type_symbol
 _atom_site_label
 _atom_site_symmetry_multiplicity
 _atom_site_fract_x
 _atom_site_fract_y
 _atom_site_fract_z
 _atom_site_occupancy
  Nd  Nd0  1  0.802264  0.532053  0.601535  1
  Nd  Nd1  1  0.398465  0.197736  0.467947  1
  Nd  Nd2  1  0.467947  0.398465  0.197736  1
  Nd  Nd3  1  0.601535  0.802264  0.532053  1
  Nd  Nd4  1  0.532053  0.601535  0.802264  1
  Nd  Nd5  1  0.197736  0.467947  0.398465  1
  Ho  Ho6  1  0.000000  0.000000  0.000000  1
  S  S7  1  0.500000  0.500000  0.500000  1
  I  I8  1  0.662877  0.970170  0.890701  1
  I  I9  1  0.727878  0.184296  0.573788  1
  I  I10  1  0.890701  0.662877  0.970170  1
  I  I11  1  0.272122  0.815704  0.426212  1
  I  I12  1  0.184296  0.573788  0.727878  1
  I  I13  1  0.029830  0.109299  0.337123  1
  I  I14  1  0.573788  0.727878  0.184296  1
  I  I15  1  0.109299  0.337123  0.029830  1
  I  I16  1  0.815704  0.426212  0.272122  1
  I  I17  1  0.426212  0.272122  0.815704  1
  I  I18  1  0.970170  0.890701  0.662877  1
  I  I19  1  0.337123  0.029830  0.109299  1
