# generated using pymatgen
data_Ti13Al9MoRh7
_symmetry_space_group_name_H-M   'P 1'
_cell_length_a   8.75668292
_cell_length_b   8.75668213
_cell_length_c   8.75668308
_cell_angle_alpha   59.66979025
_cell_angle_beta   59.66979603
_cell_angle_gamma   59.66980193
_symmetry_Int_Tables_number   1
_chemical_formula_structural   Ti13Al9MoRh7
_chemical_formula_sum   'Ti13 Al9 Mo1 Rh7'
_cell_volume   471.23062712
_cell_formula_units_Z   1
loop_
 _symmetry_equiv_pos_site_id
 _symmetry_equiv_pos_as_xyz
  1  'x, y, z'
loop_
 _atom_site_type_symbol
 _atom_site_label
 _atom_site_symmetry_multiplicity
 _atom_site_fract_x
 _atom_site_fract_y
 _atom_site_fract_z
 _atom_site_occupancy
  Ti  Ti0  1  0.214588  0.214588  0.786543  1
  Ti  Ti1  1  0.786543  0.214588  0.214588  1
  Ti  Ti2  1  0.214588  0.786543  0.214588  1
  Ti  Ti3  1  0.795046  0.795046  0.190737  1
  Ti  Ti4  1  0.190737  0.795046  0.795046  1
  Ti  Ti5  1  0.795046  0.190737  0.795046  1
  Ti  Ti6  1  0.378059  0.378059  0.378059  1
  Ti  Ti7  1  0.378899  0.867415  0.378899  1
  Ti  Ti8  1  0.867415  0.378899  0.378899  1
  Ti  Ti9  1  0.378899  0.378899  0.867415  1
  Ti  Ti10  1  0.846617  0.461555  0.846617  1
  Ti  Ti11  1  0.461555  0.846617  0.846617  1
  Ti  Ti12  1  0.846617  0.846617  0.461555  1
  Al  Al13  1  0.150970  0.150970  0.150970  1
  Al  Al14  1  0.154298  0.542184  0.154298  1
  Al  Al15  1  0.542184  0.154298  0.154298  1
  Al  Al16  1  0.154298  0.154298  0.542184  1
  Al  Al17  1  0.619035  0.619035  0.619035  1
  Al  Al18  1  0.620296  0.141996  0.620296  1
  Al  Al19  1  0.141996  0.620296  0.620296  1
  Al  Al20  1  0.620296  0.620296  0.141996  1
  Al  Al21  1  0.832307  0.832307  0.832307  1
  Mo  Mo22  1  0.003157  0.003157  0.003157  1
  Rh  Rh23  1  0.003485  0.003485  0.497926  1
  Rh  Rh24  1  0.497926  0.003485  0.003485  1
  Rh  Rh25  1  0.003485  0.497926  0.003485  1
  Rh  Rh26  1  0.500376  0.500376  0.000842  1
  Rh  Rh27  1  0.000842  0.500376  0.500376  1
  Rh  Rh28  1  0.500376  0.000842  0.500376  1
  Rh  Rh29  1  0.500064  0.500064  0.500064  1
