# generated using pymatgen
data_TmHf3Zr2(SnRh)6
_symmetry_space_group_name_H-M   'P 1'
_cell_length_a   7.47545286
_cell_length_b   7.45707068
_cell_length_c   7.23180900
_cell_angle_alpha   90.00000000
_cell_angle_beta   90.00000000
_cell_angle_gamma   119.99300826
_symmetry_Int_Tables_number   1
_chemical_formula_structural   TmHf3Zr2(SnRh)6
_chemical_formula_sum   'Tm1 Hf3 Zr2 Sn6 Rh6'
_cell_volume   349.15152172
_cell_formula_units_Z   1
loop_
 _symmetry_equiv_pos_site_id
 _symmetry_equiv_pos_as_xyz
  1  'x, y, z'
loop_
 _atom_site_type_symbol
 _atom_site_label
 _atom_site_symmetry_multiplicity
 _atom_site_fract_x
 _atom_site_fract_y
 _atom_site_fract_z
 _atom_site_occupancy
  Tm  Tm0  1  0.600538  0.003806  0.250000  1
  Hf  Hf1  1  0.608684  0.996888  0.750000  1
  Hf  Hf2  1  0.388566  0.395943  0.750000  1
  Hf  Hf3  1  0.001302  0.608473  0.750000  1
  Zr  Zr4  1  0.398650  0.396299  0.250000  1
  Zr  Zr5  1  0.995794  0.600115  0.250000  1
  Sn  Sn6  1  0.271477  0.002129  0.993354  1
  Sn  Sn7  1  0.729920  0.727377  0.497790  1
  Sn  Sn8  1  0.999322  0.270483  0.497930  1
  Sn  Sn9  1  0.999322  0.270483  0.002070  1
  Sn  Sn10  1  0.729920  0.727377  0.002210  1
  Sn  Sn11  1  0.271477  0.002129  0.506646  1
  Rh  Rh12  1  0.668297  0.335750  0.965048  1
  Rh  Rh13  1  0.668297  0.335750  0.534952  1
  Rh  Rh14  1  0.331592  0.663937  0.980361  1
  Rh  Rh15  1  0.331592  0.663937  0.519639  1
  Rh  Rh16  1  0.996953  0.999806  0.750000  1
  Rh  Rh17  1  0.008299  0.999323  0.250000  1
