# generated using pymatgen
data_Ce8Zn3CuSi12
_symmetry_space_group_name_H-M   'P 1'
_cell_length_a   8.14395802
_cell_length_b   8.14395837
_cell_length_c   8.47790002
_cell_angle_alpha   89.99290665
_cell_angle_beta   90.00709398
_cell_angle_gamma   120.00407100
_symmetry_Int_Tables_number   1
_chemical_formula_structural   Ce8Zn3CuSi12
_chemical_formula_sum   'Ce8 Zn3 Cu1 Si12'
_cell_volume   486.93632306
_cell_formula_units_Z   1
loop_
 _symmetry_equiv_pos_site_id
 _symmetry_equiv_pos_as_xyz
  1  'x, y, z'
loop_
 _atom_site_type_symbol
 _atom_site_label
 _atom_site_symmetry_multiplicity
 _atom_site_fract_x
 _atom_site_fract_y
 _atom_site_fract_z
 _atom_site_occupancy
  Ce  Ce0  1  0.000003  0.999997  0.250159  1
  Ce  Ce1  1  0.000017  0.999983  0.749871  1
  Ce  Ce2  1  0.499327  0.500673  0.250265  1
  Ce  Ce3  1  0.499326  0.998630  0.250350  1
  Ce  Ce4  1  0.001370  0.500674  0.250350  1
  Ce  Ce5  1  0.499893  0.500107  0.749640  1
  Ce  Ce6  1  0.499892  0.999772  0.749562  1
  Ce  Ce7  1  0.000228  0.500108  0.749562  1
  Zn  Zn8  1  0.666653  0.333347  0.498793  1
  Zn  Zn9  1  0.666642  0.333358  0.001132  1
  Zn  Zn10  1  0.333363  0.666637  0.998794  1
  Cu  Cu11  1  0.333335  0.666665  0.501479  1
  Si  Si12  1  0.169612  0.830388  0.500349  1
  Si  Si13  1  0.169843  0.339227  0.500089  1
  Si  Si14  1  0.660773  0.830157  0.500089  1
  Si  Si15  1  0.835222  0.164778  0.500039  1
  Si  Si16  1  0.834975  0.670447  0.499797  1
  Si  Si17  1  0.329553  0.165025  0.499797  1
  Si  Si18  1  0.834086  0.165914  0.999918  1
  Si  Si19  1  0.833766  0.668120  0.000162  1
  Si  Si20  1  0.331880  0.166234  0.000162  1
  Si  Si21  1  0.165949  0.834051  0.999716  1
  Si  Si22  1  0.166284  0.331991  0.999962  1
  Si  Si23  1  0.668009  0.833716  0.999962  1
