# generated using pymatgen
data_Ho3In3Ga2Co
_symmetry_space_group_name_H-M   'P 1'
_cell_length_a   7.22322500
_cell_length_b   7.22322445
_cell_length_c   4.31607800
_cell_angle_alpha   90.00000000
_cell_angle_beta   90.00000000
_cell_angle_gamma   119.99999794
_symmetry_Int_Tables_number   1
_chemical_formula_structural   Ho3In3Ga2Co
_chemical_formula_sum   'Ho3 In3 Ga2 Co1'
_cell_volume   195.02135901
_cell_formula_units_Z   1
loop_
 _symmetry_equiv_pos_site_id
 _symmetry_equiv_pos_as_xyz
  1  'x, y, z'
loop_
 _atom_site_type_symbol
 _atom_site_label
 _atom_site_symmetry_multiplicity
 _atom_site_fract_x
 _atom_site_fract_y
 _atom_site_fract_z
 _atom_site_occupancy
  Ho  Ho0  1  0.402240  0.402240  0.500000  1
  Ho  Ho1  1  0.597760  0.000000  0.500000  1
  Ho  Ho2  1  0.000000  0.597760  0.500000  1
  In  In3  1  0.757202  0.757202  0.000000  1
  In  In4  1  0.242798  0.000000  0.000000  1
  In  In5  1  0.000000  0.242798  0.000000  1
  Ga  Ga6  1  0.666667  0.333333  0.000000  1
  Ga  Ga7  1  0.333333  0.666667  0.000000  1
  Co  Co8  1  0.000000  0.000000  0.500000  1
