# generated using pymatgen
data_Ho5Tm3(HfIr3)2
_symmetry_space_group_name_H-M   'P 1'
_cell_length_a   10.77740622
_cell_length_b   10.76457300
_cell_length_c   6.22147313
_cell_angle_alpha   90.00000000
_cell_angle_beta   90.02314440
_cell_angle_gamma   90.00000000
_symmetry_Int_Tables_number   1
_chemical_formula_structural   Ho5Tm3(HfIr3)2
_chemical_formula_sum   'Ho10 Tm6 Hf4 Ir12'
_cell_volume   721.77901946
_cell_formula_units_Z   2
loop_
 _symmetry_equiv_pos_site_id
 _symmetry_equiv_pos_as_xyz
  1  'x, y, z'
loop_
 _atom_site_type_symbol
 _atom_site_label
 _atom_site_symmetry_multiplicity
 _atom_site_fract_x
 _atom_site_fract_y
 _atom_site_fract_z
 _atom_site_occupancy
  Ho  Ho0  1  0.288825  0.086426  0.372840  1
  Ho  Ho1  1  0.288825  0.913574  0.872840  1
  Ho  Ho2  1  0.711190  0.086409  0.873058  1
  Ho  Ho3  1  0.711190  0.913591  0.373058  1
  Ho  Ho4  1  0.586500  0.788962  0.873047  1
  Ho  Ho5  1  0.586500  0.211038  0.373047  1
  Ho  Ho6  1  0.413974  0.789249  0.372990  1
  Ho  Ho7  1  0.413974  0.210751  0.872990  1
  Ho  Ho8  1  0.210113  0.414494  0.626467  1
  Ho  Ho9  1  0.210113  0.585506  0.126467  1
  Tm  Tm10  1  0.790145  0.415063  0.125886  1
  Tm  Tm11  1  0.790145  0.584937  0.625886  1
  Tm  Tm12  1  0.914685  0.709836  0.125939  1
  Tm  Tm13  1  0.914685  0.290164  0.625939  1
  Tm  Tm14  1  0.084186  0.710071  0.625841  1
  Tm  Tm15  1  0.084186  0.289929  0.125841  1
  Hf  Hf16  1  0.999840  0.000102  0.501450  1
  Hf  Hf17  1  0.999840  0.999898  0.001450  1
  Hf  Hf18  1  0.500602  0.499864  0.001026  1
  Hf  Hf19  1  0.500602  0.500136  0.501026  1
  Ir  Ir20  1  0.856833  0.145459  0.250451  1
  Ir  Ir21  1  0.856833  0.854541  0.750451  1
  Ir  Ir22  1  0.142793  0.144880  0.751113  1
  Ir  Ir23  1  0.142793  0.855120  0.251113  1
  Ir  Ir24  1  0.645586  0.356882  0.750439  1
  Ir  Ir25  1  0.645586  0.643118  0.250439  1
  Ir  Ir26  1  0.355600  0.356168  0.249957  1
  Ir  Ir27  1  0.355600  0.643832  0.749957  1
  Ir  Ir28  1  0.500021  0.000074  0.119640  1
  Ir  Ir29  1  0.500021  0.999926  0.619640  1
  Ir  Ir30  1  0.999107  0.499969  0.879857  1
  Ir  Ir31  1  0.999107  0.500031  0.379857  1
