# generated using pymatgen
data_Tm4Mn13Cr2Fe5P12
_symmetry_space_group_name_H-M   'P 1'
_cell_length_a   3.60000600
_cell_length_b   10.48475300
_cell_length_c   12.14256673
_cell_angle_alpha   89.92089473
_cell_angle_beta   90.00000000
_cell_angle_gamma   90.00000000
_symmetry_Int_Tables_number   1
_chemical_formula_structural   Tm4Mn13Cr2Fe5P12
_chemical_formula_sum   'Tm4 Mn13 Cr2 Fe5 P12'
_cell_volume   458.32285384
_cell_formula_units_Z   1
loop_
 _symmetry_equiv_pos_site_id
 _symmetry_equiv_pos_as_xyz
  1  'x, y, z'
loop_
 _atom_site_type_symbol
 _atom_site_label
 _atom_site_symmetry_multiplicity
 _atom_site_fract_x
 _atom_site_fract_y
 _atom_site_fract_z
 _atom_site_occupancy
  Tm  Tm0  1  0.250000  0.580453  0.711316  1
  Tm  Tm1  1  0.250000  0.917461  0.206850  1
  Tm  Tm2  1  0.750000  0.416924  0.291509  1
  Tm  Tm3  1  0.750000  0.084783  0.792046  1
  Mn  Mn4  1  0.250000  0.788744  0.486996  1
  Mn  Mn5  1  0.750000  0.210741  0.513815  1
  Mn  Mn6  1  0.250000  0.407766  0.494532  1
  Mn  Mn7  1  0.250000  0.093485  0.990712  1
  Mn  Mn8  1  0.750000  0.590251  0.507680  1
  Mn  Mn9  1  0.750000  0.910182  0.007000  1
  Mn  Mn10  1  0.250000  0.218414  0.177097  1
  Mn  Mn11  1  0.250000  0.282728  0.674920  1
  Mn  Mn12  1  0.750000  0.780113  0.823498  1
  Mn  Mn13  1  0.750000  0.717386  0.323853  1
  Mn  Mn14  1  0.250000  0.876842  0.696887  1
  Mn  Mn15  1  0.250000  0.623424  0.199489  1
  Mn  Mn16  1  0.750000  0.122963  0.302925  1
  Cr  Cr17  1  0.250000  0.706246  0.987094  1
  Cr  Cr18  1  0.750000  0.295964  0.010615  1
  Fe  Fe19  1  0.750000  0.375479  0.800366  1
  Fe  Fe20  1  0.250000  0.464217  0.934657  1
  Fe  Fe21  1  0.250000  0.036283  0.432150  1
  Fe  Fe22  1  0.750000  0.537279  0.067503  1
  Fe  Fe23  1  0.750000  0.961889  0.568060  1
  P  P24  1  0.250000  0.422045  0.111921  1
  P  P25  1  0.250000  0.078077  0.610789  1
  P  P26  1  0.750000  0.573974  0.888247  1
  P  P27  1  0.750000  0.921467  0.388372  1
  P  P28  1  0.250000  0.268773  0.869123  1
  P  P29  1  0.250000  0.236603  0.372337  1
  P  P30  1  0.750000  0.737186  0.127032  1
  P  P31  1  0.750000  0.761411  0.628952  1
  P  P32  1  0.250000  0.591389  0.387118  1
  P  P33  1  0.250000  0.905157  0.885926  1
  P  P34  1  0.750000  0.407024  0.615753  1
  P  P35  1  0.750000  0.096875  0.112861  1
