# generated using pymatgen
data_Rb4Yb(VS4)2
_symmetry_space_group_name_H-M   'P 1'
_cell_length_a   9.43159663
_cell_length_b   9.51950591
_cell_length_c   11.39627900
_cell_angle_alpha   105.22197127
_cell_angle_beta   104.18274119
_cell_angle_gamma   92.77632927
_symmetry_Int_Tables_number   1
_chemical_formula_structural   Rb4Yb(VS4)2
_chemical_formula_sum   'Rb8 Yb2 V4 S16'
_cell_volume   950.23310176
_cell_formula_units_Z   2
loop_
 _symmetry_equiv_pos_site_id
 _symmetry_equiv_pos_as_xyz
  1  'x, y, z'
loop_
 _atom_site_type_symbol
 _atom_site_label
 _atom_site_symmetry_multiplicity
 _atom_site_fract_x
 _atom_site_fract_y
 _atom_site_fract_z
 _atom_site_occupancy
  Rb  Rb0  1  0.942340  0.525947  0.256782  1
  Rb  Rb1  1  0.057660  0.474053  0.743218  1
  Rb  Rb2  1  0.762141  0.997232  0.467453  1
  Rb  Rb3  1  0.237859  0.002768  0.532547  1
  Rb  Rb4  1  0.602719  0.745532  0.021651  1
  Rb  Rb5  1  0.397281  0.254468  0.978349  1
  Rb  Rb6  1  0.620028  0.679682  0.616036  1
  Rb  Rb7  1  0.379972  0.320318  0.383964  1
  Yb  Yb8  1  0.853241  0.137040  0.924146  1
  Yb  Yb9  1  0.146759  0.862960  0.075854  1
  V  V10  1  0.951675  0.112389  0.231520  1
  V  V11  1  0.048325  0.887611  0.768480  1
  V  V12  1  0.375505  0.686115  0.258683  1
  V  V13  1  0.624495  0.313885  0.741317  1
  S  S14  1  0.957606  0.885885  0.234851  1
  S  S15  1  0.042394  0.114115  0.765149  1
  S  S16  1  0.589271  0.080667  0.730365  1
  S  S17  1  0.410729  0.919333  0.269635  1
  S  S18  1  0.294729  0.661653  0.413766  1
  S  S19  1  0.705271  0.338347  0.586234  1
  S  S20  1  0.788717  0.419033  0.918567  1
  S  S21  1  0.211283  0.580967  0.081433  1
  S  S22  1  0.016442  0.253385  0.418689  1
  S  S23  1  0.983558  0.746615  0.581311  1
  S  S24  1  0.107155  0.164647  0.129339  1
  S  S25  1  0.892845  0.835353  0.870661  1
  S  S26  1  0.734630  0.141504  0.129536  1
  S  S27  1  0.265370  0.858496  0.870464  1
  S  S28  1  0.576139  0.587777  0.264713  1
  S  S29  1  0.423861  0.412223  0.735287  1
