# generated using pymatgen
data_Th3Cu2Se7
_symmetry_space_group_name_H-M   'P 1'
_cell_length_a   10.40411200
_cell_length_b   10.40411211
_cell_length_c   6.11178300
_cell_angle_alpha   90.00000000
_cell_angle_beta   90.00000000
_cell_angle_gamma   119.99999329
_symmetry_Int_Tables_number   1
_chemical_formula_structural   Th3Cu2Se7
_chemical_formula_sum   'Th6 Cu4 Se14'
_cell_volume   572.93932123
_cell_formula_units_Z   2
loop_
 _symmetry_equiv_pos_site_id
 _symmetry_equiv_pos_as_xyz
  1  'x, y, z'
loop_
 _atom_site_type_symbol
 _atom_site_label
 _atom_site_symmetry_multiplicity
 _atom_site_fract_x
 _atom_site_fract_y
 _atom_site_fract_z
 _atom_site_occupancy
  Th  Th0  1  0.228109  0.847784  0.028410  1
  Th  Th1  1  0.152216  0.380325  0.028410  1
  Th  Th2  1  0.847784  0.619675  0.528410  1
  Th  Th3  1  0.619675  0.771891  0.028410  1
  Th  Th4  1  0.771891  0.152216  0.528410  1
  Th  Th5  1  0.380325  0.228109  0.528410  1
  Cu  Cu6  1  0.666667  0.333333  0.157310  1
  Cu  Cu7  1  0.333333  0.666667  0.657310  1
  Cu  Cu8  1  0.000000  0.000000  0.502526  1
  Cu  Cu9  1  0.000000  0.000000  0.002526  1
  Se  Se10  1  0.666667  0.333333  0.757715  1
  Se  Se11  1  0.567424  0.487317  0.278803  1
  Se  Se12  1  0.153588  0.892657  0.514670  1
  Se  Se13  1  0.512683  0.080107  0.278803  1
  Se  Se14  1  0.432576  0.512683  0.778803  1
  Se  Se15  1  0.487317  0.919893  0.778803  1
  Se  Se16  1  0.846412  0.107343  0.014670  1
  Se  Se17  1  0.080107  0.567424  0.778803  1
  Se  Se18  1  0.739069  0.846412  0.514670  1
  Se  Se19  1  0.333333  0.666667  0.257715  1
  Se  Se20  1  0.919893  0.432576  0.278803  1
  Se  Se21  1  0.260931  0.153588  0.014670  1
  Se  Se22  1  0.107343  0.260931  0.514670  1
  Se  Se23  1  0.892657  0.739069  0.014670  1
