# generated using pymatgen
data_Ce4Tm4B24MoOs3
_symmetry_space_group_name_H-M   'P 1'
_cell_length_a   3.69589600
_cell_length_b   9.17996685
_cell_length_c   11.57304959
_cell_angle_alpha   89.90974200
_cell_angle_beta   90.00000000
_cell_angle_gamma   90.00000000
_symmetry_Int_Tables_number   1
_chemical_formula_structural   Ce4Tm4B24MoOs3
_chemical_formula_sum   'Ce4 Tm4 B24 Mo1 Os3'
_cell_volume   392.65228575
_cell_formula_units_Z   1
loop_
 _symmetry_equiv_pos_site_id
 _symmetry_equiv_pos_as_xyz
  1  'x, y, z'
loop_
 _atom_site_type_symbol
 _atom_site_label
 _atom_site_symmetry_multiplicity
 _atom_site_fract_x
 _atom_site_fract_y
 _atom_site_fract_z
 _atom_site_occupancy
  Ce  Ce0  1  0.000000  0.323808  0.412788  1
  Ce  Ce1  1  0.000000  0.678134  0.583953  1
  Ce  Ce2  1  0.000000  0.820325  0.088392  1
  Ce  Ce3  1  0.000000  0.177398  0.914577  1
  Tm  Tm4  1  0.000000  0.944772  0.374159  1
  Tm  Tm5  1  0.000000  0.055722  0.626471  1
  Tm  Tm6  1  0.000000  0.446123  0.126013  1
  Tm  Tm7  1  0.000000  0.555203  0.873134  1
  B  B8  1  0.500000  0.553605  0.432811  1
  B  B9  1  0.500000  0.444740  0.568950  1
  B  B10  1  0.500000  0.054785  0.068424  1
  B  B11  1  0.500000  0.944829  0.931805  1
  B  B12  1  0.500000  0.750171  0.419830  1
  B  B13  1  0.500000  0.250709  0.581285  1
  B  B14  1  0.500000  0.250047  0.080902  1
  B  B15  1  0.500000  0.749840  0.918662  1
  B  B16  1  0.500000  0.793994  0.265537  1
  B  B17  1  0.500000  0.207429  0.734043  1
  B  B18  1  0.500000  0.291845  0.233236  1
  B  B19  1  0.500000  0.708294  0.766135  1
  B  B20  1  0.500000  0.632155  0.184176  1
  B  B21  1  0.500000  0.367620  0.815589  1
  B  B22  1  0.500000  0.131635  0.314595  1
  B  B23  1  0.500000  0.868767  0.684734  1
  B  B24  1  0.500000  0.984226  0.213866  1
  B  B25  1  0.500000  0.015743  0.786132  1
  B  B26  1  0.500000  0.482086  0.285527  1
  B  B27  1  0.500000  0.515239  0.714124  1
  B  B28  1  0.500000  0.605853  0.027583  1
  B  B29  1  0.500000  0.394037  0.970520  1
  B  B30  1  0.500000  0.106113  0.471317  1
  B  B31  1  0.500000  0.895454  0.530232  1
  Mo  Mo32  1  0.000000  0.639010  0.320383  1
  Os  Os33  1  0.000000  0.359817  0.680948  1
  Os  Os34  1  0.000000  0.139393  0.178980  1
  Os  Os35  1  0.000000  0.861076  0.820186  1
