# generated using pymatgen
data_Dy3Y3Ho4Cd3Ru
_symmetry_space_group_name_H-M   'P 1'
_cell_length_a   9.59896900
_cell_length_b   9.59896925
_cell_length_c   9.83564400
_cell_angle_alpha   90.00000000
_cell_angle_beta   90.00000000
_cell_angle_gamma   120.00000260
_symmetry_Int_Tables_number   1
_chemical_formula_structural   Dy3Y3Ho4Cd3Ru
_chemical_formula_sum   'Dy6 Y6 Ho8 Cd6 Ru2'
_cell_volume   784.84267772
_cell_formula_units_Z   2
loop_
 _symmetry_equiv_pos_site_id
 _symmetry_equiv_pos_as_xyz
  1  'x, y, z'
loop_
 _atom_site_type_symbol
 _atom_site_label
 _atom_site_symmetry_multiplicity
 _atom_site_fract_x
 _atom_site_fract_y
 _atom_site_fract_z
 _atom_site_occupancy
  Dy  Dy0  1  0.209863  0.790137  0.439808  1
  Dy  Dy1  1  0.209863  0.419727  0.439808  1
  Dy  Dy2  1  0.580273  0.790137  0.439808  1
  Dy  Dy3  1  0.790137  0.209863  0.560192  1
  Dy  Dy4  1  0.790137  0.580273  0.560192  1
  Dy  Dy5  1  0.419727  0.209863  0.560192  1
  Y  Y6  1  0.541200  0.458800  0.249909  1
  Y  Y7  1  0.541200  0.082398  0.249909  1
  Y  Y8  1  0.917602  0.458800  0.249909  1
  Y  Y9  1  0.458800  0.541200  0.750091  1
  Y  Y10  1  0.458800  0.917602  0.750091  1
  Y  Y11  1  0.082398  0.541200  0.750091  1
  Ho  Ho12  1  0.000000  0.000000  0.500000  1
  Ho  Ho13  1  0.000000  0.000000  0.000000  1
  Ho  Ho14  1  0.790080  0.209920  0.939845  1
  Ho  Ho15  1  0.790080  0.580161  0.939845  1
  Ho  Ho16  1  0.419839  0.209920  0.939845  1
  Ho  Ho17  1  0.209920  0.790080  0.060155  1
  Ho  Ho18  1  0.209920  0.419839  0.060155  1
  Ho  Ho19  1  0.580161  0.790080  0.060155  1
  Cd  Cd20  1  0.885452  0.114548  0.249953  1
  Cd  Cd21  1  0.885452  0.770906  0.249953  1
  Cd  Cd22  1  0.229094  0.114548  0.249953  1
  Cd  Cd23  1  0.114548  0.885452  0.750047  1
  Cd  Cd24  1  0.114548  0.229094  0.750047  1
  Cd  Cd25  1  0.770906  0.885452  0.750047  1
  Ru  Ru26  1  0.333333  0.666667  0.249910  1
  Ru  Ru27  1  0.666667  0.333333  0.750090  1
