# generated using pymatgen
data_Hf3Al2GaPd3
_symmetry_space_group_name_H-M   'P 1'
_cell_length_a   7.18172200
_cell_length_b   7.21404733
_cell_length_c   7.01074273
_cell_angle_alpha   89.87053819
_cell_angle_beta   90.00000000
_cell_angle_gamma   119.85187467
_symmetry_Int_Tables_number   1
_chemical_formula_structural   Hf3Al2GaPd3
_chemical_formula_sum   'Hf6 Al4 Ga2 Pd6'
_cell_volume   315.02648232
_cell_formula_units_Z   2
loop_
 _symmetry_equiv_pos_site_id
 _symmetry_equiv_pos_as_xyz
  1  'x, y, z'
loop_
 _atom_site_type_symbol
 _atom_site_label
 _atom_site_symmetry_multiplicity
 _atom_site_fract_x
 _atom_site_fract_y
 _atom_site_fract_z
 _atom_site_occupancy
  Hf  Hf0  1  0.608426  0.588391  0.250310  1
  Hf  Hf1  1  0.020034  0.411609  0.749690  1
  Hf  Hf2  1  0.410745  0.020823  0.250374  1
  Hf  Hf3  1  0.980645  0.392476  0.250262  1
  Hf  Hf4  1  0.389922  0.979177  0.749626  1
  Hf  Hf5  1  0.588169  0.607524  0.749738  1
  Al  Al6  1  0.252069  0.252886  0.500207  1
  Al  Al7  1  0.747653  0.000000  0.500000  1
  Al  Al8  1  0.999183  0.747114  0.499793  1
  Al  Al9  1  0.731587  0.000000  0.000000  1
  Ga  Ga10  1  0.272114  0.275516  0.000184  1
  Ga  Ga11  1  0.996597  0.724484  0.999816  1
  Pd  Pd12  1  0.333228  0.666676  0.471016  1
  Pd  Pd13  1  0.999869  0.999811  0.762333  1
  Pd  Pd14  1  0.000057  0.000189  0.237667  1
  Pd  Pd15  1  0.337250  0.671352  0.030349  1
  Pd  Pd16  1  0.666553  0.333324  0.528984  1
  Pd  Pd17  1  0.665899  0.328648  0.969651  1
