# generated using pymatgen
data_SbWO4
_symmetry_space_group_name_H-M   'P 1'
_cell_length_a   5.60636253
_cell_length_b   5.03585301
_cell_length_c   12.12772848
_cell_angle_alpha   89.99878545
_cell_angle_beta   90.53904017
_cell_angle_gamma   89.99339783
_symmetry_Int_Tables_number   1
_chemical_formula_structural   SbWO4
_chemical_formula_sum   'Sb4 W4 O16'
_cell_volume   342.38479095
_cell_formula_units_Z   4
loop_
 _symmetry_equiv_pos_site_id
 _symmetry_equiv_pos_as_xyz
  1  'x, y, z'
loop_
 _atom_site_type_symbol
 _atom_site_label
 _atom_site_symmetry_multiplicity
 _atom_site_fract_x
 _atom_site_fract_y
 _atom_site_fract_z
 _atom_site_occupancy
  Sb  Sb0  1  0.499697  0.055622  0.250066  1
  Sb  Sb1  1  0.999707  0.444356  0.249989  1
  Sb  Sb2  1  0.999906  0.559844  0.749983  1
  Sb  Sb3  1  0.499909  0.940141  0.750044  1
  W  W4  1  0.852758  0.001508  0.000536  1
  W  W5  1  0.352705  0.498404  0.000549  1
  W  W6  1  0.147303  0.001643  0.499484  1
  W  W7  1  0.647378  0.498489  0.499494  1
  O  O8  1  0.085067  0.751244  0.049257  1
  O  O9  1  0.585124  0.748612  0.049220  1
  O  O10  1  0.825152  0.166437  0.156288  1
  O  O11  1  0.325193  0.333538  0.156316  1
  O  O12  1  0.174510  0.166727  0.343777  1
  O  O13  1  0.674555  0.333249  0.343810  1
  O  O14  1  0.914989  0.751452  0.450662  1
  O  O15  1  0.415011  0.748731  0.450601  1
  O  O16  1  0.395507  0.238266  0.549953  1
  O  O17  1  0.895525  0.261896  0.550011  1
  O  O18  1  0.672174  0.665322  0.655926  1
  O  O19  1  0.172211  0.834715  0.655917  1
  O  O20  1  0.327848  0.664716  0.843974  1
  O  O21  1  0.827866  0.835223  0.843963  1
  O  O22  1  0.604928  0.238518  0.950063  1
  O  O23  1  0.104976  0.261345  0.950116  1
