# generated using pymatgen
data_Zr2InGaPt2
_symmetry_space_group_name_H-M   'P 1'
_cell_length_a   7.37059800
_cell_length_b   7.37059791
_cell_length_c   7.22001800
_cell_angle_alpha   90.00000000
_cell_angle_beta   90.00000000
_cell_angle_gamma   120.00000042
_symmetry_Int_Tables_number   1
_chemical_formula_structural   Zr2InGaPt2
_chemical_formula_sum   'Zr6 In3 Ga3 Pt6'
_cell_volume   339.68342400
_cell_formula_units_Z   3
loop_
 _symmetry_equiv_pos_site_id
 _symmetry_equiv_pos_as_xyz
  1  'x, y, z'
loop_
 _atom_site_type_symbol
 _atom_site_label
 _atom_site_symmetry_multiplicity
 _atom_site_fract_x
 _atom_site_fract_y
 _atom_site_fract_z
 _atom_site_occupancy
  Zr  Zr0  1  0.386498  0.410014  0.744568  1
  Zr  Zr1  1  0.023517  0.613502  0.744568  1
  Zr  Zr2  1  0.589986  0.976483  0.744568  1
  Zr  Zr3  1  0.613502  0.023517  0.255432  1
  Zr  Zr4  1  0.976483  0.589986  0.255432  1
  Zr  Zr5  1  0.410014  0.386498  0.255432  1
  In  In6  1  0.255992  0.000000  0.000000  1
  In  In7  1  0.744008  0.744008  0.000000  1
  In  In8  1  0.000000  0.255992  0.000000  1
  Ga  Ga9  1  0.715431  0.715431  0.500000  1
  Ga  Ga10  1  0.284569  0.000000  0.500000  1
  Ga  Ga11  1  0.000000  0.284569  0.500000  1
  Pt  Pt12  1  0.666667  0.333333  0.959810  1
  Pt  Pt13  1  0.000000  0.000000  0.710654  1
  Pt  Pt14  1  0.666667  0.333333  0.536403  1
  Pt  Pt15  1  0.333333  0.666667  0.463597  1
  Pt  Pt16  1  0.333333  0.666667  0.040190  1
  Pt  Pt17  1  0.000000  0.000000  0.289346  1
