# generated using pymatgen
data_Y3Al3GaAu2
_symmetry_space_group_name_H-M   'P 1'
_cell_length_a   7.14832400
_cell_length_b   7.14832385
_cell_length_c   4.25149300
_cell_angle_alpha   90.00000000
_cell_angle_beta   90.00000000
_cell_angle_gamma   120.00000072
_symmetry_Int_Tables_number   1
_chemical_formula_structural   Y3Al3GaAu2
_chemical_formula_sum   'Y3 Al3 Ga1 Au2'
_cell_volume   188.13974244
_cell_formula_units_Z   1
loop_
 _symmetry_equiv_pos_site_id
 _symmetry_equiv_pos_as_xyz
  1  'x, y, z'
loop_
 _atom_site_type_symbol
 _atom_site_label
 _atom_site_symmetry_multiplicity
 _atom_site_fract_x
 _atom_site_fract_y
 _atom_site_fract_z
 _atom_site_occupancy
  Y  Y0  1  0.002238  0.418513  0.500000  1
  Y  Y1  1  0.581487  0.583726  0.500000  1
  Y  Y2  1  0.416274  0.997762  0.500000  1
  Al  Al3  1  0.993735  0.755784  0.000000  1
  Al  Al4  1  0.244216  0.237952  0.000000  1
  Al  Al5  1  0.762048  0.006265  0.000000  1
  Ga  Ga6  1  0.333333  0.666667  0.000000  1
  Au  Au7  1  0.666667  0.333333  0.000000  1
  Au  Au8  1  0.000000  0.000000  0.500000  1
