# generated using pymatgen
data_Dy3Er5C14
_symmetry_space_group_name_H-M   'P 1'
_cell_length_a   3.68612997
_cell_length_b   6.42901231
_cell_length_c   13.70798443
_cell_angle_alpha   89.95141854
_cell_angle_beta   89.99388777
_cell_angle_gamma   105.02949393
_symmetry_Int_Tables_number   1
_chemical_formula_structural   Dy3Er5C14
_chemical_formula_sum   'Dy3 Er5 C14'
_cell_volume   313.74162152
_cell_formula_units_Z   1
loop_
 _symmetry_equiv_pos_site_id
 _symmetry_equiv_pos_as_xyz
  1  'x, y, z'
loop_
 _atom_site_type_symbol
 _atom_site_label
 _atom_site_symmetry_multiplicity
 _atom_site_fract_x
 _atom_site_fract_y
 _atom_site_fract_z
 _atom_site_occupancy
  Dy  Dy0  1  0.368021  0.239704  0.444939  1
  Dy  Dy1  1  0.368014  0.739290  0.055283  1
  Dy  Dy2  1  0.631903  0.260604  0.944553  1
  Er  Er3  1  0.945424  0.839210  0.837703  1
  Er  Er4  1  0.054837  0.160957  0.162026  1
  Er  Er5  1  0.054381  0.661278  0.338162  1
  Er  Er6  1  0.945870  0.339735  0.661943  1
  Er  Er7  1  0.631692  0.759907  0.554896  1
  C  C8  1  0.736112  0.947776  0.396211  1
  C  C9  1  0.260496  0.047830  0.604466  1
  C  C10  1  0.263047  0.551164  0.895096  1
  C  C11  1  0.737873  0.448874  0.104543  1
  C  C12  1  0.536613  0.573989  0.715597  1
  C  C13  1  0.463416  0.427451  0.283859  1
  C  C14  1  0.464495  0.927680  0.216702  1
  C  C15  1  0.536617  0.073136  0.783684  1
  C  C16  1  0.622148  0.954761  0.304040  1
  C  C17  1  0.378099  0.044381  0.696358  1
  C  C18  1  0.378371  0.545891  0.802975  1
  C  C19  1  0.622267  0.454971  0.196466  1
  C  C20  1  0.000014  0.999947  0.000062  1
  C  C21  1  0.000291  0.501463  0.500436  1
