# generated using pymatgen
data_Nb6Co4Si2C
_symmetry_space_group_name_H-M   'P 1'
_cell_length_a   7.94152851
_cell_length_b   7.94152822
_cell_length_c   7.94152800
_cell_angle_alpha   59.99999259
_cell_angle_beta   59.99999378
_cell_angle_gamma   59.99999226
_symmetry_Int_Tables_number   1
_chemical_formula_structural   Nb6Co4Si2C
_chemical_formula_sum   'Nb12 Co8 Si4 C2'
_cell_volume   354.15810585
_cell_formula_units_Z   2
loop_
 _symmetry_equiv_pos_site_id
 _symmetry_equiv_pos_as_xyz
  1  'x, y, z'
loop_
 _atom_site_type_symbol
 _atom_site_label
 _atom_site_symmetry_multiplicity
 _atom_site_fract_x
 _atom_site_fract_y
 _atom_site_fract_z
 _atom_site_occupancy
  Nb  Nb0  1  0.051938  0.051938  0.448062  1
  Nb  Nb1  1  0.448062  0.051938  0.448062  1
  Nb  Nb2  1  0.051938  0.448062  0.448062  1
  Nb  Nb3  1  0.448062  0.448062  0.051938  1
  Nb  Nb4  1  0.051938  0.448062  0.051938  1
  Nb  Nb5  1  0.448062  0.051938  0.051938  1
  Nb  Nb6  1  0.198062  0.198062  0.801938  1
  Nb  Nb7  1  0.801938  0.198062  0.801938  1
  Nb  Nb8  1  0.198062  0.801938  0.801938  1
  Nb  Nb9  1  0.801938  0.801938  0.198062  1
  Nb  Nb10  1  0.198062  0.801938  0.198062  1
  Nb  Nb11  1  0.801938  0.198062  0.198062  1
  Co  Co12  1  0.419713  0.419713  0.740863  1
  Co  Co13  1  0.419713  0.740863  0.419713  1
  Co  Co14  1  0.740863  0.419713  0.419713  1
  Co  Co15  1  0.419713  0.419713  0.419713  1
  Co  Co16  1  0.830287  0.830287  0.509137  1
  Co  Co17  1  0.830287  0.509137  0.830287  1
  Co  Co18  1  0.509137  0.830287  0.830287  1
  Co  Co19  1  0.830287  0.830287  0.830287  1
  Si  Si20  1  0.625000  0.625000  0.125000  1
  Si  Si21  1  0.625000  0.125000  0.625000  1
  Si  Si22  1  0.125000  0.625000  0.625000  1
  Si  Si23  1  0.625000  0.625000  0.625000  1
  C  C24  1  0.250000  0.250000  0.250000  1
  C  C25  1  0.000000  0.000000  0.000000  1
