# generated using pymatgen
data_TbPa3(SnRh2)2
_symmetry_space_group_name_H-M   'P 1'
_cell_length_a   7.66338066
_cell_length_b   7.66338054
_cell_length_c   3.64984600
_cell_angle_alpha   90.00000000
_cell_angle_beta   90.00000000
_cell_angle_gamma   92.27688121
_symmetry_Int_Tables_number   1
_chemical_formula_structural   TbPa3(SnRh2)2
_chemical_formula_sum   'Tb1 Pa3 Sn2 Rh4'
_cell_volume   214.17674955
_cell_formula_units_Z   1
loop_
 _symmetry_equiv_pos_site_id
 _symmetry_equiv_pos_as_xyz
  1  'x, y, z'
loop_
 _atom_site_type_symbol
 _atom_site_label
 _atom_site_symmetry_multiplicity
 _atom_site_fract_x
 _atom_site_fract_y
 _atom_site_fract_z
 _atom_site_occupancy
  Tb  Tb0  1  0.824817  0.675183  0.500000  1
  Pa  Pa1  1  0.674718  0.171513  0.500000  1
  Pa  Pa2  1  0.328487  0.825282  0.500000  1
  Pa  Pa3  1  0.170741  0.329259  0.500000  1
  Sn  Sn4  1  0.506899  0.502624  0.000000  1
  Sn  Sn5  1  0.997376  0.993101  0.000000  1
  Rh  Rh6  1  0.875527  0.350339  0.000000  1
  Rh  Rh7  1  0.149661  0.624473  0.000000  1
  Rh  Rh8  1  0.358610  0.141390  0.000000  1
  Rh  Rh9  1  0.613164  0.886836  0.000000  1
