# generated using pymatgen
data_Tb5Dy3(SiI6)2
_symmetry_space_group_name_H-M   'P 1'
_cell_length_a   4.21788300
_cell_length_b   14.04985712
_cell_length_c   14.82398812
_cell_angle_alpha   90.01476353
_cell_angle_beta   90.00000000
_cell_angle_gamma   90.00000000
_symmetry_Int_Tables_number   1
_chemical_formula_structural   Tb5Dy3(SiI6)2
_chemical_formula_sum   'Tb5 Dy3 Si2 I12'
_cell_volume   878.47919425
_cell_formula_units_Z   1
loop_
 _symmetry_equiv_pos_site_id
 _symmetry_equiv_pos_as_xyz
  1  'x, y, z'
loop_
 _atom_site_type_symbol
 _atom_site_label
 _atom_site_symmetry_multiplicity
 _atom_site_fract_x
 _atom_site_fract_y
 _atom_site_fract_z
 _atom_site_occupancy
  Tb  Tb0  1  0.500000  0.114265  0.347466  1
  Tb  Tb1  1  0.500000  0.885733  0.652543  1
  Tb  Tb2  1  0.000000  0.111634  0.574769  1
  Tb  Tb3  1  0.000000  0.888367  0.425232  1
  Tb  Tb4  1  0.000000  0.611338  0.925447  1
  Dy  Dy5  1  0.500000  0.613925  0.152123  1
  Dy  Dy6  1  0.500000  0.386031  0.847907  1
  Dy  Dy7  1  0.000000  0.388754  0.074477  1
  Si  Si8  1  0.500000  0.000000  0.499997  1
  Si  Si9  1  0.500000  0.499577  0.000286  1
  I  I10  1  0.500000  0.245471  0.161277  1
  I  I11  1  0.500000  0.754989  0.838428  1
  I  I12  1  0.500000  0.744739  0.338117  1
  I  I13  1  0.500000  0.255249  0.661891  1
  I  I14  1  0.000000  0.258863  0.414141  1
  I  I15  1  0.000000  0.741139  0.585853  1
  I  I16  1  0.000000  0.758256  0.086227  1
  I  I17  1  0.000000  0.241897  0.914071  1
  I  I18  1  0.000000  0.999161  0.240294  1
  I  I19  1  0.000000  0.000859  0.759702  1
  I  I20  1  0.000000  0.499472  0.259034  1
  I  I21  1  0.000000  0.500282  0.740717  1
