# generated using pymatgen
data_Ho4Er2OsPd
_symmetry_space_group_name_H-M   'P 1'
_cell_length_a   6.39892700
_cell_length_b   7.30355032
_cell_length_c   9.22449200
_cell_angle_alpha   90.00000000
_cell_angle_beta   90.00000000
_cell_angle_gamma   90.49568755
_symmetry_Int_Tables_number   1
_chemical_formula_structural   Ho4Er2OsPd
_chemical_formula_sum   'Ho8 Er4 Os2 Pd2'
_cell_volume   431.08944271
_cell_formula_units_Z   2
loop_
 _symmetry_equiv_pos_site_id
 _symmetry_equiv_pos_as_xyz
  1  'x, y, z'
loop_
 _atom_site_type_symbol
 _atom_site_label
 _atom_site_symmetry_multiplicity
 _atom_site_fract_x
 _atom_site_fract_y
 _atom_site_fract_z
 _atom_site_occupancy
  Ho  Ho0  1  0.178369  0.184572  0.062057  1
  Ho  Ho1  1  0.821631  0.815428  0.937943  1
  Ho  Ho2  1  0.663728  0.325625  0.941409  1
  Ho  Ho3  1  0.821631  0.815428  0.562057  1
  Ho  Ho4  1  0.336272  0.674375  0.058591  1
  Ho  Ho5  1  0.178369  0.184572  0.437943  1
  Ho  Ho6  1  0.336272  0.674375  0.441409  1
  Ho  Ho7  1  0.663728  0.325625  0.558591  1
  Er  Er8  1  0.623711  0.044580  0.250000  1
  Er  Er9  1  0.376289  0.955420  0.750000  1
  Er  Er10  1  0.125004  0.475961  0.750000  1
  Er  Er11  1  0.874996  0.524039  0.250000  1
  Os  Os12  1  0.459289  0.385566  0.250000  1
  Os  Os13  1  0.540711  0.614434  0.750000  1
  Pd  Pd14  1  0.955426  0.114357  0.750000  1
  Pd  Pd15  1  0.044574  0.885643  0.250000  1
