# generated using pymatgen
data_HfV5O14
_symmetry_space_group_name_H-M   'P 1'
_cell_length_a   7.21549800
_cell_length_b   8.82431180
_cell_length_c   5.61505500
_cell_angle_alpha   90.00000000
_cell_angle_beta   90.00000000
_cell_angle_gamma   89.92380526
_symmetry_Int_Tables_number   1
_chemical_formula_structural   HfV5O14
_chemical_formula_sum   'Hf1 V5 O14'
_cell_volume   357.52036620
_cell_formula_units_Z   1
loop_
 _symmetry_equiv_pos_site_id
 _symmetry_equiv_pos_as_xyz
  1  'x, y, z'
loop_
 _atom_site_type_symbol
 _atom_site_label
 _atom_site_symmetry_multiplicity
 _atom_site_fract_x
 _atom_site_fract_y
 _atom_site_fract_z
 _atom_site_occupancy
  Hf  Hf0  1  0.500001  0.500000  0.000000  1
  V  V1  1  0.000000  0.000000  0.500000  1
  V  V2  1  0.291681  0.111970  0.000000  1
  V  V3  1  0.708320  0.888031  0.000000  1
  V  V4  1  0.804859  0.375785  0.500000  1
  V  V5  1  0.195141  0.624215  0.500000  1
  O  O6  1  0.500001  0.000000  0.000000  1
  O  O7  1  0.349120  0.301377  0.000000  1
  O  O8  1  0.650881  0.698624  0.000000  1
  O  O9  1  0.167591  0.072849  0.253523  1
  O  O10  1  0.832410  0.927152  0.253523  1
  O  O11  1  0.673879  0.409485  0.252511  1
  O  O12  1  0.326121  0.590515  0.252511  1
  O  O13  1  0.878497  0.190857  0.500000  1
  O  O14  1  0.000000  0.500000  0.500000  1
  O  O15  1  0.121503  0.809143  0.500000  1
  O  O16  1  0.673879  0.409485  0.747488  1
  O  O17  1  0.326121  0.590515  0.747488  1
  O  O18  1  0.167591  0.072849  0.746477  1
  O  O19  1  0.832410  0.927152  0.746477  1
