# generated using pymatgen
data_Sc6FeSn6RuPt4
_symmetry_space_group_name_H-M   'P 1'
_cell_length_a   7.59629800
_cell_length_b   7.59629796
_cell_length_c   6.89275500
_cell_angle_alpha   90.00000000
_cell_angle_beta   90.00000000
_cell_angle_gamma   120.00000016
_symmetry_Int_Tables_number   1
_chemical_formula_structural   Sc6FeSn6RuPt4
_chemical_formula_sum   'Sc6 Fe1 Sn6 Ru1 Pt4'
_cell_volume   344.45100646
_cell_formula_units_Z   1
loop_
 _symmetry_equiv_pos_site_id
 _symmetry_equiv_pos_as_xyz
  1  'x, y, z'
loop_
 _atom_site_type_symbol
 _atom_site_label
 _atom_site_symmetry_multiplicity
 _atom_site_fract_x
 _atom_site_fract_y
 _atom_site_fract_z
 _atom_site_occupancy
  Sc  Sc0  1  0.394259  0.004176  0.250000  1
  Sc  Sc1  1  0.609918  0.605741  0.250000  1
  Sc  Sc2  1  0.995824  0.390082  0.250000  1
  Sc  Sc3  1  0.388087  0.995606  0.750000  1
  Sc  Sc4  1  0.607518  0.611913  0.750000  1
  Sc  Sc5  1  0.004394  0.392482  0.750000  1
  Fe  Fe6  1  0.000000  0.000000  0.750000  1
  Sn  Sn7  1  0.271162  0.271180  0.995250  1
  Sn  Sn8  1  0.000018  0.728838  0.995250  1
  Sn  Sn9  1  0.000018  0.728838  0.504750  1
  Sn  Sn10  1  0.728820  0.999982  0.504750  1
  Sn  Sn11  1  0.271162  0.271180  0.504750  1
  Sn  Sn12  1  0.728820  0.999982  0.995250  1
  Ru  Ru13  1  0.000000  0.000000  0.250000  1
  Pt  Pt14  1  0.666667  0.333333  0.993098  1
  Pt  Pt15  1  0.333333  0.666667  0.492903  1
  Pt  Pt16  1  0.333333  0.666667  0.007097  1
  Pt  Pt17  1  0.666667  0.333333  0.506902  1
