# generated using pymatgen
data_Ti2ReSi12Mo17
_symmetry_space_group_name_H-M   'P 1'
_cell_length_a   4.89479625
_cell_length_b   7.28368684
_cell_length_c   13.73282200
_cell_angle_alpha   90.00000000
_cell_angle_beta   90.00000000
_cell_angle_gamma   109.61678256
_symmetry_Int_Tables_number   1
_chemical_formula_structural   Ti2ReSi12Mo17
_chemical_formula_sum   'Ti2 Re1 Si12 Mo17'
_cell_volume   461.18773160
_cell_formula_units_Z   1
loop_
 _symmetry_equiv_pos_site_id
 _symmetry_equiv_pos_as_xyz
  1  'x, y, z'
loop_
 _atom_site_type_symbol
 _atom_site_label
 _atom_site_symmetry_multiplicity
 _atom_site_fract_x
 _atom_site_fract_y
 _atom_site_fract_z
 _atom_site_occupancy
  Ti  Ti0  1  0.000651  0.500168  0.250000  1
  Ti  Ti1  1  0.498607  0.500422  0.750000  1
  Re  Re2  1  0.997838  0.499306  0.750000  1
  Si  Si3  1  0.250282  0.000471  0.999680  1
  Si  Si4  1  0.749587  0.999279  0.501150  1
  Si  Si5  1  0.749587  0.999279  0.998850  1
  Si  Si6  1  0.250282  0.000471  0.500320  1
  Si  Si7  1  0.748768  0.500000  0.083554  1
  Si  Si8  1  0.244816  0.499874  0.584747  1
  Si  Si9  1  0.748768  0.500000  0.416446  1
  Si  Si10  1  0.244816  0.499874  0.915253  1
  Si  Si11  1  0.419297  0.833903  0.250000  1
  Si  Si12  1  0.919151  0.829466  0.750000  1
  Si  Si13  1  0.085440  0.166786  0.250000  1
  Si  Si14  1  0.589649  0.170747  0.750000  1
  Mo  Mo15  1  0.928315  0.851969  0.349365  1
  Mo  Mo16  1  0.426821  0.853469  0.847629  1
  Mo  Mo17  1  0.578237  0.148421  0.149955  1
  Mo  Mo18  1  0.075087  0.146467  0.651771  1
  Mo  Mo19  1  0.147756  0.301007  0.073573  1
  Mo  Mo20  1  0.648162  0.302279  0.573842  1
  Mo  Mo21  1  0.349071  0.698811  0.426682  1
  Mo  Mo22  1  0.847895  0.697788  0.926626  1
  Mo  Mo23  1  0.349071  0.698811  0.073318  1
  Mo  Mo24  1  0.847895  0.697788  0.573374  1
  Mo  Mo25  1  0.147756  0.301007  0.426427  1
  Mo  Mo26  1  0.648162  0.302279  0.926158  1
  Mo  Mo27  1  0.578237  0.148421  0.350045  1
  Mo  Mo28  1  0.075087  0.146467  0.848229  1
  Mo  Mo29  1  0.928315  0.851969  0.150635  1
  Mo  Mo30  1  0.426821  0.853469  0.652371  1
  Mo  Mo31  1  0.499768  0.499539  0.250000  1
