# generated using pymatgen
data_Ca4Nd3Ni4Sn13
_symmetry_space_group_name_H-M   'P 1'
_cell_length_a   11.30359000
_cell_length_b   11.30359000
_cell_length_c   4.61408900
_cell_angle_alpha   90.00000000
_cell_angle_beta   90.00000000
_cell_angle_gamma   90.00000000
_symmetry_Int_Tables_number   1
_chemical_formula_structural   Ca4Nd3Ni4Sn13
_chemical_formula_sum   'Ca4 Nd3 Ni4 Sn13'
_cell_volume   589.54744337
_cell_formula_units_Z   1
loop_
 _symmetry_equiv_pos_site_id
 _symmetry_equiv_pos_as_xyz
  1  'x, y, z'
loop_
 _atom_site_type_symbol
 _atom_site_label
 _atom_site_symmetry_multiplicity
 _atom_site_fract_x
 _atom_site_fract_y
 _atom_site_fract_z
 _atom_site_occupancy
  Ca  Ca0  1  0.838191  0.171577  0.000000  1
  Ca  Ca1  1  0.828423  0.838191  0.000000  1
  Ca  Ca2  1  0.161809  0.828423  0.000000  1
  Ca  Ca3  1  0.171577  0.161809  0.000000  1
  Nd  Nd4  1  0.500000  0.500000  0.500000  1
  Nd  Nd5  1  0.000000  0.500000  0.000000  1
  Nd  Nd6  1  0.500000  0.000000  0.000000  1
  Ni  Ni7  1  0.776398  0.619546  0.500000  1
  Ni  Ni8  1  0.380454  0.776398  0.500000  1
  Ni  Ni9  1  0.619546  0.223602  0.500000  1
  Ni  Ni10  1  0.223602  0.380454  0.500000  1
  Sn  Sn11  1  0.019790  0.284758  0.500000  1
  Sn  Sn12  1  0.980210  0.715242  0.500000  1
  Sn  Sn13  1  0.213917  0.611593  0.500000  1
  Sn  Sn14  1  0.573632  0.303852  0.000000  1
  Sn  Sn15  1  0.696148  0.573632  0.000000  1
  Sn  Sn16  1  0.786083  0.388407  0.500000  1
  Sn  Sn17  1  0.715242  0.019790  0.500000  1
  Sn  Sn18  1  0.000000  0.000000  0.500000  1
  Sn  Sn19  1  0.284758  0.980210  0.500000  1
  Sn  Sn20  1  0.426368  0.696148  0.000000  1
  Sn  Sn21  1  0.611593  0.786083  0.500000  1
  Sn  Sn22  1  0.303852  0.426368  0.000000  1
  Sn  Sn23  1  0.388407  0.213917  0.500000  1
