# generated using pymatgen
data_Nd20Si5Sb7
_symmetry_space_group_name_H-M   'P 1'
_cell_length_a   8.23105092
_cell_length_b   9.35907964
_cell_length_c   12.27137400
_cell_angle_alpha   90.03244019
_cell_angle_beta   90.20153330
_cell_angle_gamma   90.09947102
_symmetry_Int_Tables_number   1
_chemical_formula_structural   Nd20Si5Sb7
_chemical_formula_sum   'Nd20 Si5 Sb7'
_cell_volume   945.31861781
_cell_formula_units_Z   1
loop_
 _symmetry_equiv_pos_site_id
 _symmetry_equiv_pos_as_xyz
  1  'x, y, z'
loop_
 _atom_site_type_symbol
 _atom_site_label
 _atom_site_symmetry_multiplicity
 _atom_site_fract_x
 _atom_site_fract_y
 _atom_site_fract_z
 _atom_site_occupancy
  Nd  Nd0  1  0.816708  0.955843  0.071550  1
  Nd  Nd1  1  0.309027  0.044740  0.435266  1
  Nd  Nd2  1  0.185333  0.453991  0.935242  1
  Nd  Nd3  1  0.687788  0.544833  0.560531  1
  Nd  Nd4  1  0.186668  0.045362  0.937069  1
  Nd  Nd5  1  0.686841  0.953177  0.563264  1
  Nd  Nd6  1  0.813612  0.545033  0.065385  1
  Nd  Nd7  1  0.311502  0.454996  0.437462  1
  Nd  Nd8  1  0.537314  0.252293  0.998874  1
  Nd  Nd9  1  0.032082  0.763568  0.494657  1
  Nd  Nd10  1  0.460229  0.746845  0.002392  1
  Nd  Nd11  1  0.959493  0.234339  0.493762  1
  Nd  Nd12  1  0.161488  0.758117  0.219507  1
  Nd  Nd13  1  0.671044  0.243040  0.286058  1
  Nd  Nd14  1  0.833981  0.250032  0.783746  1
  Nd  Nd15  1  0.335379  0.748843  0.711647  1
  Nd  Nd16  1  0.651561  0.761034  0.294416  1
  Nd  Nd17  1  0.134592  0.243339  0.208815  1
  Nd  Nd18  1  0.359177  0.250472  0.706377  1
  Nd  Nd19  1  0.861599  0.748706  0.793974  1
  Si  Si20  1  0.936950  0.993292  0.325354  1
  Si  Si21  1  0.919109  0.250272  0.018273  1
  Si  Si22  1  0.419198  0.750486  0.477460  1
  Si  Si23  1  0.079823  0.749958  0.983141  1
  Si  Si24  1  0.579377  0.249385  0.519517  1
  Sb  Sb25  1  0.430708  0.010196  0.173237  1
  Sb  Sb26  1  0.067811  0.490713  0.669541  1
  Sb  Sb27  1  0.569572  0.510164  0.824177  1
  Sb  Sb28  1  0.069486  0.008529  0.677548  1
  Sb  Sb29  1  0.569560  0.989721  0.826911  1
  Sb  Sb30  1  0.931057  0.508139  0.327199  1
  Sb  Sb31  1  0.431927  0.490545  0.177642  1
