# generated using pymatgen
data_TbCeTc3Os
_symmetry_space_group_name_H-M   'P 1'
_cell_length_a   5.23947600
_cell_length_b   5.23947609
_cell_length_c   9.38145600
_cell_angle_alpha   90.00000000
_cell_angle_beta   90.00000000
_cell_angle_gamma   119.99998680
_symmetry_Int_Tables_number   1
_chemical_formula_structural   TbCeTc3Os
_chemical_formula_sum   'Tb2 Ce2 Tc6 Os2'
_cell_volume   223.03686584
_cell_formula_units_Z   2
loop_
 _symmetry_equiv_pos_site_id
 _symmetry_equiv_pos_as_xyz
  1  'x, y, z'
loop_
 _atom_site_type_symbol
 _atom_site_label
 _atom_site_symmetry_multiplicity
 _atom_site_fract_x
 _atom_site_fract_y
 _atom_site_fract_z
 _atom_site_occupancy
  Tb  Tb0  1  0.666667  0.333333  0.934650  1
  Tb  Tb1  1  0.333333  0.666667  0.065350  1
  Ce  Ce2  1  0.333333  0.666667  0.441020  1
  Ce  Ce3  1  0.666667  0.333333  0.558980  1
  Tc  Tc4  1  0.830038  0.169962  0.246324  1
  Tc  Tc5  1  0.830038  0.660076  0.246324  1
  Tc  Tc6  1  0.339924  0.169962  0.246324  1
  Tc  Tc7  1  0.169962  0.830038  0.753676  1
  Tc  Tc8  1  0.169962  0.339924  0.753676  1
  Tc  Tc9  1  0.660076  0.830038  0.753676  1
  Os  Os10  1  0.000000  0.000000  0.500000  1
  Os  Os11  1  0.000000  0.000000  0.000000  1
