# generated using pymatgen
data_LiSc(Ta2B5)4
_symmetry_space_group_name_H-M   'P 1'
_cell_length_a   6.18719320
_cell_length_b   7.02664619
_cell_length_c   7.34581639
_cell_angle_alpha   93.56674414
_cell_angle_beta   102.17139989
_cell_angle_gamma   116.15985635
_symmetry_Int_Tables_number   1
_chemical_formula_structural   LiSc(Ta2B5)4
_chemical_formula_sum   'Li1 Sc1 Ta8 B20'
_cell_volume   275.78802700
_cell_formula_units_Z   1
loop_
 _symmetry_equiv_pos_site_id
 _symmetry_equiv_pos_as_xyz
  1  'x, y, z'
loop_
 _atom_site_type_symbol
 _atom_site_label
 _atom_site_symmetry_multiplicity
 _atom_site_fract_x
 _atom_site_fract_y
 _atom_site_fract_z
 _atom_site_occupancy
  Li  Li0  1  0.999683  0.999617  0.000124  1
  Sc  Sc1  1  0.500530  0.800421  0.399612  1
  Ta  Ta2  1  0.501256  0.002549  0.999492  1
  Ta  Ta3  1  0.000988  0.397350  0.199819  1
  Ta  Ta4  1  0.500553  0.198797  0.601050  1
  Ta  Ta5  1  0.998019  0.795882  0.400009  1
  Ta  Ta6  1  0.502101  0.599708  0.799767  1
  Ta  Ta7  1  0.496336  0.398744  0.198818  1
  Ta  Ta8  1  0.001342  0.203970  0.601599  1
  Ta  Ta9  1  0.999263  0.603279  0.799994  1
  B  B10  1  0.329428  0.229733  0.869581  1
  B  B11  1  0.333149  0.632971  0.067014  1
  B  B12  1  0.165023  0.362423  0.936221  1
  B  B13  1  0.330311  0.033013  0.264231  1
  B  B14  1  0.165169  0.769103  0.129699  1
  B  B15  1  0.835278  0.230225  0.869886  1
  B  B16  1  0.165234  0.165019  0.327999  1
  B  B17  1  0.835427  0.638678  0.063385  1
  B  B18  1  0.333423  0.432881  0.465231  1
  B  B19  1  0.667099  0.367735  0.932898  1
  B  B20  1  0.834444  0.032775  0.263539  1
  B  B21  1  0.669237  0.769017  0.130214  1
  B  B22  1  0.334416  0.834928  0.666732  1
  B  B23  1  0.168093  0.568262  0.533239  1
  B  B24  1  0.665491  0.164663  0.333621  1
  B  B25  1  0.832333  0.431930  0.466995  1
  B  B26  1  0.165190  0.966885  0.737881  1
  B  B27  1  0.834676  0.834461  0.671070  1
  B  B28  1  0.666655  0.567906  0.533334  1
  B  B29  1  0.669851  0.967077  0.736944  1
