# generated using pymatgen
data_Hf16Fe4SnOs3
_symmetry_space_group_name_H-M   'P 1'
_cell_length_a   8.64731472
_cell_length_b   8.64731411
_cell_length_c   8.64731602
_cell_angle_alpha   60.14346113
_cell_angle_beta   60.14346581
_cell_angle_gamma   60.14346433
_symmetry_Int_Tables_number   1
_chemical_formula_structural   Hf16Fe4SnOs3
_chemical_formula_sum   'Hf16 Fe4 Sn1 Os3'
_cell_volume   458.70965745
_cell_formula_units_Z   1
loop_
 _symmetry_equiv_pos_site_id
 _symmetry_equiv_pos_as_xyz
  1  'x, y, z'
loop_
 _atom_site_type_symbol
 _atom_site_label
 _atom_site_symmetry_multiplicity
 _atom_site_fract_x
 _atom_site_fract_y
 _atom_site_fract_z
 _atom_site_occupancy
  Hf  Hf0  1  0.697177  0.098095  0.098095  1
  Hf  Hf1  1  0.098095  0.697177  0.098095  1
  Hf  Hf2  1  0.098095  0.098095  0.697177  1
  Hf  Hf3  1  0.101498  0.101498  0.101498  1
  Hf  Hf4  1  0.311455  0.311455  0.705065  1
  Hf  Hf5  1  0.689011  0.689011  0.312941  1
  Hf  Hf6  1  0.311455  0.705065  0.311455  1
  Hf  Hf7  1  0.689011  0.312941  0.689011  1
  Hf  Hf8  1  0.705065  0.311455  0.311455  1
  Hf  Hf9  1  0.312941  0.689011  0.689011  1
  Hf  Hf10  1  0.948767  0.948767  0.551264  1
  Hf  Hf11  1  0.556703  0.556703  0.938117  1
  Hf  Hf12  1  0.948767  0.551264  0.948767  1
  Hf  Hf13  1  0.556703  0.938117  0.556703  1
  Hf  Hf14  1  0.551264  0.948767  0.948767  1
  Hf  Hf15  1  0.938117  0.556703  0.556703  1
  Fe  Fe16  1  0.328735  0.889526  0.889526  1
  Fe  Fe17  1  0.889526  0.328735  0.889526  1
  Fe  Fe18  1  0.889526  0.889526  0.328735  1
  Fe  Fe19  1  0.890323  0.890323  0.890323  1
  Sn  Sn20  1  0.328873  0.328873  0.328873  1
  Os  Os21  1  0.995094  0.331898  0.331898  1
  Os  Os22  1  0.331898  0.995094  0.331898  1
  Os  Os23  1  0.331898  0.331898  0.995094  1
