# generated using pymatgen
data_Cs6Pr(NpBr6)3
_symmetry_space_group_name_H-M   'P 1'
_cell_length_a   10.63887560
_cell_length_b   10.63887420
_cell_length_c   10.63887448
_cell_angle_alpha   83.41887797
_cell_angle_beta   83.41887862
_cell_angle_gamma   83.41887684
_symmetry_Int_Tables_number   1
_chemical_formula_structural   Cs6Pr(NpBr6)3
_chemical_formula_sum   'Cs6 Pr1 Np3 Br18'
_cell_volume   1182.05186177
_cell_formula_units_Z   1
loop_
 _symmetry_equiv_pos_site_id
 _symmetry_equiv_pos_as_xyz
  1  'x, y, z'
loop_
 _atom_site_type_symbol
 _atom_site_label
 _atom_site_symmetry_multiplicity
 _atom_site_fract_x
 _atom_site_fract_y
 _atom_site_fract_z
 _atom_site_occupancy
  Cs  Cs0  1  0.089034  0.750038  0.410982  1
  Cs  Cs1  1  0.750038  0.410982  0.089034  1
  Cs  Cs2  1  0.249913  0.589297  0.910817  1
  Cs  Cs3  1  0.410982  0.089034  0.750038  1
  Cs  Cs4  1  0.910817  0.249913  0.589297  1
  Cs  Cs5  1  0.589297  0.910817  0.249913  1
  Pr  Pr6  1  0.349432  0.349432  0.349432  1
  Np  Np7  1  0.651888  0.651888  0.651888  1
  Np  Np8  1  0.848375  0.848375  0.848375  1
  Np  Np9  1  0.151427  0.151427  0.151427  1
  Br  Br10  1  0.266889  0.915499  0.080011  1
  Br  Br11  1  0.732789  0.084721  0.919763  1
  Br  Br12  1  0.906326  0.593739  0.749844  1
  Br  Br13  1  0.084721  0.919763  0.732789  1
  Br  Br14  1  0.593739  0.749844  0.906326  1
  Br  Br15  1  0.420294  0.586915  0.231202  1
  Br  Br16  1  0.249339  0.092204  0.406535  1
  Br  Br17  1  0.915499  0.080011  0.266889  1
  Br  Br18  1  0.580239  0.415584  0.766905  1
  Br  Br19  1  0.080011  0.266889  0.915499  1
  Br  Br20  1  0.919763  0.732789  0.084721  1
  Br  Br21  1  0.415584  0.766905  0.580239  1
  Br  Br22  1  0.231202  0.420294  0.586915  1
  Br  Br23  1  0.749844  0.906326  0.593739  1
  Br  Br24  1  0.092204  0.406535  0.249339  1
  Br  Br25  1  0.766905  0.580239  0.415584  1
  Br  Br26  1  0.406535  0.249339  0.092204  1
  Br  Br27  1  0.586915  0.231202  0.420294  1
