# generated using pymatgen
data_Dy5ErCrFeB14
_symmetry_space_group_name_H-M   'P 1'
_cell_length_a   8.05452539
_cell_length_b   8.05452543
_cell_length_c   9.28860800
_cell_angle_alpha   90.00000000
_cell_angle_beta   90.00000000
_cell_angle_gamma   155.45219801
_symmetry_Int_Tables_number   1
_chemical_formula_structural   Dy5ErCrFeB14
_chemical_formula_sum   'Dy5 Er1 Cr1 Fe1 B14'
_cell_volume   250.35236288
_cell_formula_units_Z   1
loop_
 _symmetry_equiv_pos_site_id
 _symmetry_equiv_pos_as_xyz
  1  'x, y, z'
loop_
 _atom_site_type_symbol
 _atom_site_label
 _atom_site_symmetry_multiplicity
 _atom_site_fract_x
 _atom_site_fract_y
 _atom_site_fract_z
 _atom_site_occupancy
  Dy  Dy0  1  0.894582  0.105418  0.439933  1
  Dy  Dy1  1  0.105028  0.894972  0.562244  1
  Dy  Dy2  1  0.894582  0.105418  0.060067  1
  Dy  Dy3  1  0.105028  0.894972  0.937756  1
  Dy  Dy4  1  0.242605  0.757395  0.250000  1
  Er  Er5  1  0.759582  0.240418  0.750000  1
  Cr  Cr6  1  0.053097  0.946903  0.250000  1
  Fe  Fe7  1  0.945304  0.054696  0.750000  1
  B  B8  1  0.727877  0.272123  0.469267  1
  B  B9  1  0.272582  0.727418  0.535593  1
  B  B10  1  0.727877  0.272123  0.030733  1
  B  B11  1  0.272582  0.727418  0.964407  1
  B  B12  1  0.631523  0.368477  0.150829  1
  B  B13  1  0.370291  0.629709  0.846700  1
  B  B14  1  0.631523  0.368477  0.349171  1
  B  B15  1  0.370291  0.629709  0.653300  1
  B  B16  1  0.521337  0.478663  0.095825  1
  B  B17  1  0.477970  0.522030  0.902481  1
  B  B18  1  0.521337  0.478663  0.404175  1
  B  B19  1  0.477970  0.522030  0.597519  1
  B  B20  1  0.458806  0.541194  0.250000  1
  B  B21  1  0.538226  0.461774  0.750000  1
