# generated using pymatgen
data_Er4As5Rh7Au
_symmetry_space_group_name_H-M   'P 1'
_cell_length_a   7.28248327
_cell_length_b   7.28248368
_cell_length_c   7.28248223
_cell_angle_alpha   110.41667653
_cell_angle_beta   107.59641680
_cell_angle_gamma   110.41667671
_symmetry_Int_Tables_number   1
_chemical_formula_structural   Er4As5Rh7Au
_chemical_formula_sum   'Er4 As5 Rh7 Au1'
_cell_volume   297.07704571
_cell_formula_units_Z   1
loop_
 _symmetry_equiv_pos_site_id
 _symmetry_equiv_pos_as_xyz
  1  'x, y, z'
loop_
 _atom_site_type_symbol
 _atom_site_label
 _atom_site_symmetry_multiplicity
 _atom_site_fract_x
 _atom_site_fract_y
 _atom_site_fract_z
 _atom_site_occupancy
  Er  Er0  1  0.485652  0.493583  0.485652  1
  Er  Er1  1  0.992070  0.506417  0.992070  1
  Er  Er2  1  0.485652  0.000000  0.992070  1
  Er  Er3  1  0.992070  0.000000  0.485652  1
  As  As4  1  0.678730  0.684969  0.993760  1
  As  As5  1  0.308791  0.315031  0.993760  1
  As  As6  1  0.993760  0.684969  0.678730  1
  As  As7  1  0.993760  0.315031  0.308791  1
  As  As8  1  0.340018  0.000000  0.340018  1
  Rh  Rh9  1  0.494388  0.745521  0.239910  1
  Rh  Rh10  1  0.748867  0.254479  0.494388  1
  Rh  Rh11  1  0.239910  0.745521  0.494388  1
  Rh  Rh12  1  0.244047  0.500000  0.744047  1
  Rh  Rh13  1  0.044761  0.000000  0.044761  1
  Rh  Rh14  1  0.494388  0.254479  0.748867  1
  Rh  Rh15  1  0.744047  0.500000  0.244047  1
  Au  Au16  1  0.719093  0.000000  0.719093  1
