# generated using pymatgen
data_Tb8Lu11ScSi15Os
_symmetry_space_group_name_H-M   'P 1'
_cell_length_a   7.25493129
_cell_length_b   7.65700073
_cell_length_c   14.34026700
_cell_angle_alpha   90.00000000
_cell_angle_beta   90.00000000
_cell_angle_gamma   90.15719835
_symmetry_Int_Tables_number   1
_chemical_formula_structural   Tb8Lu11ScSi15Os
_chemical_formula_sum   'Tb8 Lu11 Sc1 Si15 Os1'
_cell_volume   796.61337742
_cell_formula_units_Z   1
loop_
 _symmetry_equiv_pos_site_id
 _symmetry_equiv_pos_as_xyz
  1  'x, y, z'
loop_
 _atom_site_type_symbol
 _atom_site_label
 _atom_site_symmetry_multiplicity
 _atom_site_fract_x
 _atom_site_fract_y
 _atom_site_fract_z
 _atom_site_occupancy
  Tb  Tb0  1  0.016881  0.181764  0.097824  1
  Tb  Tb1  1  0.986313  0.827299  0.904000  1
  Tb  Tb2  1  0.483684  0.678973  0.904523  1
  Tb  Tb3  1  0.986313  0.827299  0.596000  1
  Tb  Tb4  1  0.514249  0.319310  0.097449  1
  Tb  Tb5  1  0.016881  0.181764  0.402176  1
  Tb  Tb6  1  0.514249  0.319310  0.402551  1
  Tb  Tb7  1  0.483684  0.678973  0.595477  1
  Lu  Lu8  1  0.153675  0.504100  0.750000  1
  Lu  Lu9  1  0.840992  0.489015  0.250000  1
  Lu  Lu10  1  0.666234  0.991761  0.750000  1
  Lu  Lu11  1  0.313664  0.172605  0.626020  1
  Lu  Lu12  1  0.675605  0.826300  0.373462  1
  Lu  Lu13  1  0.176328  0.679656  0.373968  1
  Lu  Lu14  1  0.675605  0.826300  0.126538  1
  Lu  Lu15  1  0.835140  0.314995  0.626252  1
  Lu  Lu16  1  0.313664  0.172605  0.873980  1
  Lu  Lu17  1  0.835140  0.314995  0.873748  1
  Lu  Lu18  1  0.176328  0.679656  0.126032  1
  Sc  Sc19  1  0.341116  0.013106  0.250000  1
  Si  Si20  1  0.976203  0.895209  0.250000  1
  Si  Si21  1  0.473528  0.607405  0.250000  1
  Si  Si22  1  0.527267  0.394740  0.750000  1
  Si  Si23  1  0.279342  0.865623  0.750000  1
  Si  Si24  1  0.713258  0.131958  0.250000  1
  Si  Si25  1  0.220281  0.364977  0.250000  1
  Si  Si26  1  0.771077  0.625358  0.750000  1
  Si  Si27  1  0.157250  0.472910  0.536497  1
  Si  Si28  1  0.846941  0.533985  0.461695  1
  Si  Si29  1  0.347112  0.968883  0.458523  1
  Si  Si30  1  0.846941  0.533985  0.038305  1
  Si  Si31  1  0.651083  0.031265  0.537218  1
  Si  Si32  1  0.157250  0.472910  0.963503  1
  Si  Si33  1  0.651083  0.031265  0.962782  1
  Si  Si34  1  0.347112  0.968883  0.041477  1
  Os  Os35  1  0.028526  0.100855  0.750000  1
