# generated using pymatgen
data_Sr4Eu2(CrH9)3
_symmetry_space_group_name_H-M   'P 1'
_cell_length_a   8.69539800
_cell_length_b   8.57813601
_cell_length_c   5.03887600
_cell_angle_alpha   90.00000000
_cell_angle_beta   90.00000000
_cell_angle_gamma   120.45325080
_symmetry_Int_Tables_number   1
_chemical_formula_structural   Sr4Eu2(CrH9)3
_chemical_formula_sum   'Sr4 Eu2 Cr3 H27'
_cell_volume   323.99998323
_cell_formula_units_Z   1
loop_
 _symmetry_equiv_pos_site_id
 _symmetry_equiv_pos_as_xyz
  1  'x, y, z'
loop_
 _atom_site_type_symbol
 _atom_site_label
 _atom_site_symmetry_multiplicity
 _atom_site_fract_x
 _atom_site_fract_y
 _atom_site_fract_z
 _atom_site_occupancy
  Sr  Sr0  1  0.260348  0.000000  0.500000  1
  Sr  Sr1  1  0.000390  0.602380  0.000000  1
  Sr  Sr2  1  0.398009  0.397620  0.000000  1
  Sr  Sr3  1  0.608810  0.000000  0.000000  1
  Eu  Eu4  1  0.998299  0.261888  0.500000  1
  Eu  Eu5  1  0.736411  0.738112  0.500000  1
  Cr  Cr6  1  0.670506  0.336568  0.500000  1
  Cr  Cr7  1  0.333937  0.663432  0.500000  1
  Cr  Cr8  1  0.000161  0.000000  0.000000  1
  H  H9  1  0.795680  0.321701  0.735194  1
  H  H10  1  0.686191  0.475471  0.740000  1
  H  H11  1  0.532125  0.211624  0.739456  1
  H  H12  1  0.210720  0.524529  0.260000  1
  H  H13  1  0.532125  0.211624  0.260544  1
  H  H14  1  0.795680  0.321701  0.264806  1
  H  H15  1  0.686191  0.475471  0.260000  1
  H  H16  1  0.320500  0.788376  0.739456  1
  H  H17  1  0.473978  0.678299  0.735194  1
  H  H18  1  0.203762  0.000000  0.000000  1
  H  H19  1  0.774370  0.781116  0.000000  1
  H  H20  1  0.993254  0.218884  0.000000  1
  H  H21  1  0.853745  0.000000  0.248629  1
  H  H22  1  0.142436  0.151029  0.759651  1
  H  H23  1  0.991408  0.848971  0.759651  1
  H  H24  1  0.991408  0.848971  0.240349  1
  H  H25  1  0.142436  0.151029  0.240349  1
  H  H26  1  0.853745  0.000000  0.751371  1
  H  H27  1  0.138221  0.643706  0.500000  1
  H  H28  1  0.514820  0.860589  0.500000  1
  H  H29  1  0.342148  0.477908  0.500000  1
  H  H30  1  0.494514  0.356294  0.500000  1
  H  H31  1  0.864240  0.522092  0.500000  1
  H  H32  1  0.654233  0.139411  0.500000  1
  H  H33  1  0.210720  0.524529  0.740000  1
  H  H34  1  0.320500  0.788376  0.260544  1
  H  H35  1  0.473978  0.678299  0.264806  1
