# generated using pymatgen
data_Li3H7Ru
_symmetry_space_group_name_H-M   'P 1'
_cell_length_a   9.07400800
_cell_length_b   9.07400800
_cell_length_c   5.05236800
_cell_angle_alpha   90.00000000
_cell_angle_beta   90.00000000
_cell_angle_gamma   90.00000000
_symmetry_Int_Tables_number   1
_chemical_formula_structural   Li3H7Ru
_chemical_formula_sum   'Li12 H28 Ru4'
_cell_volume   415.99996247
_cell_formula_units_Z   4
loop_
 _symmetry_equiv_pos_site_id
 _symmetry_equiv_pos_as_xyz
  1  'x, y, z'
loop_
 _atom_site_type_symbol
 _atom_site_label
 _atom_site_symmetry_multiplicity
 _atom_site_fract_x
 _atom_site_fract_y
 _atom_site_fract_z
 _atom_site_occupancy
  Li  Li0  1  0.704238  0.967243  0.500000  1
  Li  Li1  1  0.295762  0.032757  0.500000  1
  Li  Li2  1  0.204238  0.532757  0.000000  1
  Li  Li3  1  0.795762  0.467243  0.000000  1
  Li  Li4  1  0.967243  0.704238  0.500000  1
  Li  Li5  1  0.032757  0.295762  0.500000  1
  Li  Li6  1  0.532757  0.204238  0.000000  1
  Li  Li7  1  0.467243  0.795762  0.000000  1
  Li  Li8  1  0.388648  0.388648  0.500000  1
  Li  Li9  1  0.611352  0.611352  0.500000  1
  Li  Li10  1  0.888648  0.111352  0.000000  1
  Li  Li11  1  0.111352  0.888648  0.000000  1
  H  H12  1  0.599082  0.400918  0.701660  1
  H  H13  1  0.400918  0.599082  0.701660  1
  H  H14  1  0.099082  0.099082  0.201660  1
  H  H15  1  0.900918  0.900918  0.201660  1
  H  H16  1  0.400918  0.599082  0.298340  1
  H  H17  1  0.599082  0.400918  0.298340  1
  H  H18  1  0.900918  0.900918  0.798340  1
  H  H19  1  0.099082  0.099082  0.798340  1
  H  H20  1  0.744462  0.255538  0.190001  1
  H  H21  1  0.255538  0.744462  0.190001  1
  H  H22  1  0.244462  0.244462  0.690001  1
  H  H23  1  0.755538  0.755538  0.690001  1
  H  H24  1  0.255538  0.744462  0.809999  1
  H  H25  1  0.744462  0.255538  0.809999  1
  H  H26  1  0.755538  0.755538  0.309999  1
  H  H27  1  0.244462  0.244462  0.309999  1
  H  H28  1  0.566837  0.164416  0.500000  1
  H  H29  1  0.433163  0.835584  0.500000  1
  H  H30  1  0.066837  0.335584  0.000000  1
  H  H31  1  0.933163  0.664416  0.000000  1
  H  H32  1  0.164416  0.566837  0.500000  1
  H  H33  1  0.835584  0.433163  0.500000  1
  H  H34  1  0.335584  0.066837  0.000000  1
  H  H35  1  0.664416  0.933163  0.000000  1
  H  H36  1  0.833252  0.166748  0.500000  1
  H  H37  1  0.166748  0.833252  0.500000  1
  H  H38  1  0.333252  0.333252  0.000000  1
  H  H39  1  0.666748  0.666748  0.000000  1
  Ru  Ru40  1  0.702914  0.297086  0.500000  1
  Ru  Ru41  1  0.297086  0.702914  0.500000  1
  Ru  Ru42  1  0.202914  0.202914  0.000000  1
  Ru  Ru43  1  0.797086  0.797086  0.000000  1
