# generated using pymatgen
data_TbLu4(CoO6)2
_symmetry_space_group_name_H-M   'P 1'
_cell_length_a   6.65788694
_cell_length_b   6.65788659
_cell_length_c   7.05903177
_cell_angle_alpha   74.60159427
_cell_angle_beta   74.60158401
_cell_angle_gamma   50.46383841
_symmetry_Int_Tables_number   1
_chemical_formula_structural   TbLu4(CoO6)2
_chemical_formula_sum   'Tb1 Lu4 Co2 O12'
_cell_volume   230.69183559
_cell_formula_units_Z   1
loop_
 _symmetry_equiv_pos_site_id
 _symmetry_equiv_pos_as_xyz
  1  'x, y, z'
loop_
 _atom_site_type_symbol
 _atom_site_label
 _atom_site_symmetry_multiplicity
 _atom_site_fract_x
 _atom_site_fract_y
 _atom_site_fract_z
 _atom_site_occupancy
  Tb  Tb0  1  0.000000  0.000000  0.000000  1
  Lu  Lu1  1  0.692589  0.692589  0.664754  1
  Lu  Lu2  1  0.694926  0.694926  0.143339  1
  Lu  Lu3  1  0.305074  0.305074  0.856661  1
  Lu  Lu4  1  0.307411  0.307411  0.335246  1
  Co  Co5  1  0.245047  0.754953  0.500000  1
  Co  Co6  1  0.754953  0.245047  0.500000  1
  O  O7  1  0.408446  0.903018  0.921747  1
  O  O8  1  0.578876  0.098852  0.579601  1
  O  O9  1  0.901148  0.421124  0.420399  1
  O  O10  1  0.096982  0.591554  0.078253  1
  O  O11  1  0.000483  0.000483  0.327543  1
  O  O12  1  0.499821  0.499821  0.681064  1
  O  O13  1  0.903018  0.408446  0.921747  1
  O  O14  1  0.098852  0.578876  0.579601  1
  O  O15  1  0.421124  0.901148  0.420399  1
  O  O16  1  0.591554  0.096982  0.078253  1
  O  O17  1  0.500179  0.500179  0.318936  1
  O  O18  1  0.999517  0.999517  0.672457  1
