# generated using pymatgen
data_TbHo2(GaNi3)2
_symmetry_space_group_name_H-M   'P 1'
_cell_length_a   7.70863355
_cell_length_b   7.70175025
_cell_length_c   7.70174936
_cell_angle_alpha   109.43600137
_cell_angle_beta   109.47071758
_cell_angle_gamma   109.47072485
_symmetry_Int_Tables_number   1
_chemical_formula_structural   TbHo2(GaNi3)2
_chemical_formula_sum   'Tb2 Ho4 Ga4 Ni12'
_cell_volume   352.15045343
_cell_formula_units_Z   2
loop_
 _symmetry_equiv_pos_site_id
 _symmetry_equiv_pos_as_xyz
  1  'x, y, z'
loop_
 _atom_site_type_symbol
 _atom_site_label
 _atom_site_symmetry_multiplicity
 _atom_site_fract_x
 _atom_site_fract_y
 _atom_site_fract_z
 _atom_site_occupancy
  Tb  Tb0  1  0.710245  0.710620  0.999625  1
  Tb  Tb1  1  0.289755  0.000375  0.289380  1
  Ho  Ho2  1  0.000000  0.291115  0.290812  1
  Ho  Ho3  1  0.290328  0.290580  0.999748  1
  Ho  Ho4  1  0.709672  0.000252  0.709420  1
  Ho  Ho5  1  0.000000  0.709188  0.708885  1
  Ga  Ga6  1  0.000000  0.000014  0.500810  1
  Ga  Ga7  1  0.000000  0.499190  0.999986  1
  Ga  Ga8  1  0.500000  0.000191  0.999809  1
  Ga  Ga9  1  0.500000  0.500191  0.499809  1
  Ni  Ni10  1  0.337273  0.337606  0.675613  1
  Ni  Ni11  1  0.662727  0.000333  0.338338  1
  Ni  Ni12  1  0.000000  0.661538  0.338462  1
  Ni  Ni13  1  0.662138  0.337314  0.999880  1
  Ni  Ni14  1  0.337862  0.675177  0.337742  1
  Ni  Ni15  1  0.000000  0.337762  0.662238  1
  Ni  Ni16  1  0.337273  0.661662  0.999667  1
  Ni  Ni17  1  0.337862  0.000120  0.662686  1
  Ni  Ni18  1  0.676809  0.338467  0.338341  1
  Ni  Ni19  1  0.662138  0.662258  0.324823  1
  Ni  Ni20  1  0.662727  0.324387  0.662394  1
  Ni  Ni21  1  0.323191  0.661659  0.661533  1
