# generated using pymatgen
data_CaTbTh2(Al3Ir)6
_symmetry_space_group_name_H-M   'P 1'
_cell_length_a   7.61781411
_cell_length_b   7.61649358
_cell_length_c   9.53987100
_cell_angle_alpha   90.00000000
_cell_angle_beta   90.00000000
_cell_angle_gamma   119.44051797
_symmetry_Int_Tables_number   1
_chemical_formula_structural   CaTbTh2(Al3Ir)6
_chemical_formula_sum   'Ca1 Tb1 Th2 Al18 Ir6'
_cell_volume   482.03603818
_cell_formula_units_Z   1
loop_
 _symmetry_equiv_pos_site_id
 _symmetry_equiv_pos_as_xyz
  1  'x, y, z'
loop_
 _atom_site_type_symbol
 _atom_site_label
 _atom_site_symmetry_multiplicity
 _atom_site_fract_x
 _atom_site_fract_y
 _atom_site_fract_z
 _atom_site_occupancy
  Ca  Ca0  1  0.004443  0.327808  0.750000  1
  Tb  Tb1  1  0.327617  0.004010  0.750000  1
  Th  Th2  1  0.994885  0.670613  0.250000  1
  Th  Th3  1  0.672039  0.995954  0.250000  1
  Al  Al4  1  0.134519  0.134556  0.250000  1
  Al  Al5  1  0.873700  0.872625  0.750000  1
  Al  Al6  1  0.005649  0.335616  0.068660  1
  Al  Al7  1  0.999491  0.663512  0.919441  1
  Al  Al8  1  0.999491  0.663512  0.580559  1
  Al  Al9  1  0.335575  0.005433  0.429708  1
  Al  Al10  1  0.005649  0.335616  0.431340  1
  Al  Al11  1  0.665204  0.000336  0.580517  1
  Al  Al12  1  0.665204  0.000336  0.919483  1
  Al  Al13  1  0.335575  0.005433  0.070292  1
  Al  Al14  1  0.332118  0.332817  0.553867  1
  Al  Al15  1  0.663095  0.663256  0.456816  1
  Al  Al16  1  0.663095  0.663256  0.043184  1
  Al  Al17  1  0.332118  0.332817  0.946133  1
  Al  Al18  1  0.340042  0.543127  0.250000  1
  Al  Al19  1  0.657401  0.448714  0.750000  1
  Al  Al20  1  0.543000  0.339522  0.250000  1
  Al  Al21  1  0.449644  0.661307  0.750000  1
  Ir  Ir22  1  0.671932  0.328451  0.002090  1
  Ir  Ir23  1  0.329480  0.673952  0.001951  1
  Ir  Ir24  1  0.329480  0.673952  0.498049  1
  Ir  Ir25  1  0.671932  0.328451  0.497910  1
  Ir  Ir26  1  0.998811  0.997508  0.002467  1
  Ir  Ir27  1  0.998811  0.997508  0.497533  1
