# generated using pymatgen
data_Zr10ScTa9Si16
_symmetry_space_group_name_H-M   'P 1'
_cell_length_a   6.94852681
_cell_length_b   6.94860309
_cell_length_c   12.77081627
_cell_angle_alpha   90.18207892
_cell_angle_beta   89.86320895
_cell_angle_gamma   90.01481632
_symmetry_Int_Tables_number   1
_chemical_formula_structural   Zr10ScTa9Si16
_chemical_formula_sum   'Zr10 Sc1 Ta9 Si16'
_cell_volume   616.60274738
_cell_formula_units_Z   1
loop_
 _symmetry_equiv_pos_site_id
 _symmetry_equiv_pos_as_xyz
  1  'x, y, z'
loop_
 _atom_site_type_symbol
 _atom_site_label
 _atom_site_symmetry_multiplicity
 _atom_site_fract_x
 _atom_site_fract_y
 _atom_site_fract_z
 _atom_site_occupancy
  Zr  Zr0  1  0.501954  0.649028  0.124344  1
  Zr  Zr1  1  0.147990  0.998703  0.873559  1
  Zr  Zr2  1  0.001639  0.655554  0.032372  1
  Zr  Zr3  1  0.998264  0.344572  0.528928  1
  Zr  Zr4  1  0.657889  0.998862  0.969243  1
  Zr  Zr5  1  0.154171  0.498763  0.780389  1
  Zr  Zr6  1  0.844303  0.500502  0.280718  1
  Zr  Zr7  1  0.502350  0.158618  0.221218  1
  Zr  Zr8  1  0.501011  0.840951  0.718581  1
  Zr  Zr9  1  0.340156  0.000926  0.469164  1
  Sc  Sc10  1  0.499291  0.351266  0.622101  1
  Ta  Ta11  1  0.348913  0.508115  0.376533  1
  Ta  Ta12  1  0.852395  0.998303  0.374279  1
  Ta  Ta13  1  0.007114  0.151732  0.126229  1
  Ta  Ta14  1  0.992542  0.850006  0.625999  1
  Ta  Ta15  1  0.651938  0.491006  0.875506  1
  Ta  Ta16  1  0.672010  0.674474  0.499245  1
  Ta  Ta17  1  0.826833  0.170070  0.749629  1
  Ta  Ta18  1  0.172170  0.832036  0.252088  1
  Ta  Ta19  1  0.329087  0.326187  0.000567  1
  Si  Si20  1  0.045746  0.703621  0.436495  1
  Si  Si21  1  0.953643  0.299710  0.936158  1
  Si  Si22  1  0.699910  0.046475  0.563579  1
  Si  Si23  1  0.201567  0.452354  0.186988  1
  Si  Si24  1  0.796564  0.545989  0.684874  1
  Si  Si25  1  0.455026  0.200506  0.813422  1
  Si  Si26  1  0.548462  0.801717  0.315994  1
  Si  Si27  1  0.300162  0.955182  0.065825  1
  Si  Si28  1  0.855992  0.788516  0.821253  1
  Si  Si29  1  0.138074  0.210125  0.323480  1
  Si  Si30  1  0.799556  0.865647  0.179446  1
  Si  Si31  1  0.289610  0.641254  0.572264  1
  Si  Si32  1  0.710533  0.355733  0.071825  1
  Si  Si33  1  0.636700  0.294432  0.425658  1
  Si  Si34  1  0.363778  0.700546  0.926504  1
  Si  Si35  1  0.202660  0.138517  0.675539  1
