# generated using pymatgen
data_Ba4NiRuO8
_symmetry_space_group_name_H-M   'P 1'
_cell_length_a   7.30705143
_cell_length_b   7.30705040
_cell_length_c   5.79140100
_cell_angle_alpha   90.00000000
_cell_angle_beta   90.00000000
_cell_angle_gamma   133.47321838
_symmetry_Int_Tables_number   1
_chemical_formula_structural   Ba4NiRuO8
_chemical_formula_sum   'Ba4 Ni1 Ru1 O8'
_cell_volume   224.39990137
_cell_formula_units_Z   1
loop_
 _symmetry_equiv_pos_site_id
 _symmetry_equiv_pos_as_xyz
  1  'x, y, z'
loop_
 _atom_site_type_symbol
 _atom_site_label
 _atom_site_symmetry_multiplicity
 _atom_site_fract_x
 _atom_site_fract_y
 _atom_site_fract_z
 _atom_site_occupancy
  Ba  Ba0  1  0.645512  0.354488  0.000000  1
  Ba  Ba1  1  0.143415  0.856585  0.500000  1
  Ba  Ba2  1  0.856585  0.143415  0.500000  1
  Ba  Ba3  1  0.354488  0.645512  0.000000  1
  Ni  Ni4  1  0.000000  0.000000  0.000000  1
  Ru  Ru5  1  0.500000  0.500000  0.500000  1
  O  O6  1  0.738573  0.738573  0.263996  1
  O  O7  1  0.261427  0.261427  0.736004  1
  O  O8  1  0.261427  0.261427  0.263996  1
  O  O9  1  0.738573  0.738573  0.736004  1
  O  O10  1  0.843176  0.156824  0.000000  1
  O  O11  1  0.349009  0.650991  0.500000  1
  O  O12  1  0.650991  0.349009  0.500000  1
  O  O13  1  0.156824  0.843176  0.000000  1
