# generated using pymatgen
data_Sc8Ta2Nb9Si16W
_symmetry_space_group_name_H-M   'P 1'
_cell_length_a   6.69064500
_cell_length_b   6.88414809
_cell_length_c   13.12307600
_cell_angle_alpha   90.00000000
_cell_angle_beta   90.00000000
_cell_angle_gamma   89.98900730
_symmetry_Int_Tables_number   1
_chemical_formula_structural   Sc8Ta2Nb9Si16W
_chemical_formula_sum   'Sc8 Ta2 Nb9 Si16 W1'
_cell_volume   604.44087775
_cell_formula_units_Z   1
loop_
 _symmetry_equiv_pos_site_id
 _symmetry_equiv_pos_as_xyz
  1  'x, y, z'
loop_
 _atom_site_type_symbol
 _atom_site_label
 _atom_site_symmetry_multiplicity
 _atom_site_fract_x
 _atom_site_fract_y
 _atom_site_fract_z
 _atom_site_occupancy
  Sc  Sc0  1  0.500334  0.673911  0.595120  1
  Sc  Sc1  1  0.999778  0.825239  0.905257  1
  Sc  Sc2  1  0.500854  0.325474  0.094631  1
  Sc  Sc3  1  0.001229  0.174319  0.405420  1
  Sc  Sc4  1  0.500854  0.325474  0.405369  1
  Sc  Sc5  1  0.001229  0.174319  0.094580  1
  Sc  Sc6  1  0.500334  0.673911  0.904880  1
  Sc  Sc7  1  0.999778  0.825239  0.594743  1
  Ta  Ta8  1  0.837880  0.494209  0.750000  1
  Ta  Ta9  1  0.338330  0.006690  0.750000  1
  Nb  Nb10  1  0.663100  0.174071  0.624659  1
  Nb  Nb11  1  0.163796  0.325518  0.874971  1
  Nb  Nb12  1  0.335838  0.827778  0.125668  1
  Nb  Nb13  1  0.836016  0.673720  0.374321  1
  Nb  Nb14  1  0.335838  0.827778  0.374332  1
  Nb  Nb15  1  0.836016  0.673720  0.125679  1
  Nb  Nb16  1  0.663100  0.174071  0.875341  1
  Nb  Nb17  1  0.163796  0.325518  0.625029  1
  Nb  Nb18  1  0.162382  0.505778  0.250000  1
  Si  Si19  1  0.668824  0.967112  0.458907  1
  Si  Si20  1  0.168971  0.532972  0.039641  1
  Si  Si21  1  0.330676  0.032518  0.960517  1
  Si  Si22  1  0.830943  0.467484  0.539807  1
  Si  Si23  1  0.330676  0.032518  0.539483  1
  Si  Si24  1  0.830943  0.467484  0.960193  1
  Si  Si25  1  0.668824  0.967112  0.041093  1
  Si  Si26  1  0.168971  0.532972  0.460359  1
  Si  Si27  1  0.460558  0.387904  0.750000  1
  Si  Si28  1  0.959330  0.113282  0.750000  1
  Si  Si29  1  0.539987  0.612783  0.250000  1
  Si  Si30  1  0.035758  0.889858  0.250000  1
  Si  Si31  1  0.704531  0.860600  0.750000  1
  Si  Si32  1  0.204269  0.640159  0.750000  1
  Si  Si33  1  0.299876  0.139320  0.250000  1
  Si  Si34  1  0.795280  0.355637  0.250000  1
  W  W35  1  0.661097  0.993551  0.250000  1
