# generated using pymatgen
data_Sc2Tc3Os
_symmetry_space_group_name_H-M   'P 1'
_cell_length_a   5.21018500
_cell_length_b   5.21018389
_cell_length_c   8.68664500
_cell_angle_alpha   90.00000000
_cell_angle_beta   90.00000000
_cell_angle_gamma   120.00001339
_symmetry_Int_Tables_number   1
_chemical_formula_structural   Sc2Tc3Os
_chemical_formula_sum   'Sc4 Tc6 Os2'
_cell_volume   204.21556610
_cell_formula_units_Z   2
loop_
 _symmetry_equiv_pos_site_id
 _symmetry_equiv_pos_as_xyz
  1  'x, y, z'
loop_
 _atom_site_type_symbol
 _atom_site_label
 _atom_site_symmetry_multiplicity
 _atom_site_fract_x
 _atom_site_fract_y
 _atom_site_fract_z
 _atom_site_occupancy
  Sc  Sc0  1  0.333333  0.666667  0.435950  1
  Sc  Sc1  1  0.666667  0.333333  0.564050  1
  Sc  Sc2  1  0.666667  0.333333  0.935950  1
  Sc  Sc3  1  0.333333  0.666667  0.064050  1
  Tc  Tc4  1  0.172767  0.345532  0.750000  1
  Tc  Tc5  1  0.172767  0.827233  0.750000  1
  Tc  Tc6  1  0.345532  0.172767  0.250000  1
  Tc  Tc7  1  0.827233  0.654468  0.250000  1
  Tc  Tc8  1  0.654468  0.827233  0.750000  1
  Tc  Tc9  1  0.827233  0.172767  0.250000  1
  Os  Os10  1  0.000000  0.000000  0.000000  1
  Os  Os11  1  0.000000  0.000000  0.500000  1
