# generated using pymatgen
data_SmHo3(Ga2Ag)4
_symmetry_space_group_name_H-M   'P 1'
_cell_length_a   4.38769800
_cell_length_b   6.96868008
_cell_length_c   10.27580437
_cell_angle_alpha   90.12696453
_cell_angle_beta   90.00000000
_cell_angle_gamma   90.00000000
_symmetry_Int_Tables_number   1
_chemical_formula_structural   SmHo3(Ga2Ag)4
_chemical_formula_sum   'Sm1 Ho3 Ga8 Ag4'
_cell_volume   314.19698701
_cell_formula_units_Z   1
loop_
 _symmetry_equiv_pos_site_id
 _symmetry_equiv_pos_as_xyz
  1  'x, y, z'
loop_
 _atom_site_type_symbol
 _atom_site_label
 _atom_site_symmetry_multiplicity
 _atom_site_fract_x
 _atom_site_fract_y
 _atom_site_fract_z
 _atom_site_occupancy
  Sm  Sm0  1  0.250000  0.279217  0.675523  1
  Ho  Ho1  1  0.250000  0.779113  0.825224  1
  Ho  Ho2  1  0.750000  0.220558  0.175341  1
  Ho  Ho3  1  0.750000  0.720715  0.324672  1
  Ga  Ga4  1  0.250000  0.928911  0.154546  1
  Ga  Ga5  1  0.750000  0.069832  0.846271  1
  Ga  Ga6  1  0.750000  0.573365  0.654271  1
  Ga  Ga7  1  0.250000  0.429272  0.345325  1
  Ga  Ga8  1  0.250000  0.702630  0.535860  1
  Ga  Ga9  1  0.750000  0.298865  0.462964  1
  Ga  Ga10  1  0.750000  0.799046  0.036131  1
  Ga  Ga11  1  0.250000  0.199963  0.965314  1
  Ag  Ag12  1  0.250000  0.544859  0.095694  1
  Ag  Ag13  1  0.750000  0.455484  0.904806  1
  Ag  Ag14  1  0.750000  0.954079  0.595022  1
  Ag  Ag15  1  0.250000  0.044090  0.403035  1
