# generated using pymatgen
data_Ce3HoEr6(SiB4)4
_symmetry_space_group_name_H-M   'P 1'
_cell_length_a   7.23150807
_cell_length_b   7.23150810
_cell_length_c   8.10950600
_cell_angle_alpha   89.99869260
_cell_angle_beta   89.99869495
_cell_angle_gamma   90.14582423
_symmetry_Int_Tables_number   1
_chemical_formula_structural   Ce3HoEr6(SiB4)4
_chemical_formula_sum   'Ce3 Ho1 Er6 Si4 B16'
_cell_volume   424.08288402
_cell_formula_units_Z   1
loop_
 _symmetry_equiv_pos_site_id
 _symmetry_equiv_pos_as_xyz
  1  'x, y, z'
loop_
 _atom_site_type_symbol
 _atom_site_label
 _atom_site_symmetry_multiplicity
 _atom_site_fract_x
 _atom_site_fract_y
 _atom_site_fract_z
 _atom_site_occupancy
  Ce  Ce0  1  0.681817  0.181817  0.230236  1
  Ce  Ce1  1  0.317622  0.817622  0.769588  1
  Ce  Ce2  1  0.318444  0.818444  0.230985  1
  Ho  Ho3  1  0.681597  0.181597  0.777791  1
  Er  Er4  1  0.820007  0.679823  0.220933  1
  Er  Er5  1  0.819783  0.680232  0.778904  1
  Er  Er6  1  0.180232  0.319783  0.778904  1
  Er  Er7  1  0.179823  0.320007  0.220933  1
  Er  Er8  1  0.999259  0.000937  0.500472  1
  Er  Er9  1  0.500937  0.499259  0.500472  1
  Si  Si10  1  0.114021  0.614021  0.500646  1
  Si  Si11  1  0.883960  0.383960  0.501301  1
  Si  Si12  1  0.384381  0.116562  0.501525  1
  Si  Si13  1  0.616562  0.884381  0.501525  1
  B  B14  1  0.172463  0.039301  0.998744  1
  B  B15  1  0.826988  0.961246  0.999200  1
  B  B16  1  0.959891  0.172794  0.998995  1
  B  B17  1  0.328130  0.539118  0.998903  1
  B  B18  1  0.039118  0.828130  0.998903  1
  B  B19  1  0.672794  0.459891  0.998995  1
  B  B20  1  0.539301  0.672463  0.998744  1
  B  B21  1  0.461246  0.326988  0.999200  1
  B  B22  1  0.090760  0.590760  0.999085  1
  B  B23  1  0.909485  0.409485  0.000643  1
  B  B24  1  0.410134  0.090357  0.999295  1
  B  B25  1  0.590357  0.910134  0.999295  1
  B  B26  1  0.999755  0.000197  0.161459  1
  B  B27  1  0.000293  0.000646  0.836434  1
  B  B28  1  0.500646  0.500293  0.836434  1
  B  B29  1  0.500197  0.499755  0.161459  1
