# generated using pymatgen
data_Y6Ti15AlIr7
_symmetry_space_group_name_H-M   'P 1'
_cell_length_a   9.14475901
_cell_length_b   9.17212636
_cell_length_c   9.17212600
_cell_angle_alpha   60.00000849
_cell_angle_beta   59.90096197
_cell_angle_gamma   59.90096857
_symmetry_Int_Tables_number   1
_chemical_formula_structural   Y6Ti15AlIr7
_chemical_formula_sum   'Y6 Ti15 Al1 Ir7'
_cell_volume   543.18230319
_cell_formula_units_Z   1
loop_
 _symmetry_equiv_pos_site_id
 _symmetry_equiv_pos_as_xyz
  1  'x, y, z'
loop_
 _atom_site_type_symbol
 _atom_site_label
 _atom_site_symmetry_multiplicity
 _atom_site_fract_x
 _atom_site_fract_y
 _atom_site_fract_z
 _atom_site_occupancy
  Y  Y0  1  0.699053  0.302218  0.302218  1
  Y  Y1  1  0.300240  0.700696  0.700696  1
  Y  Y2  1  0.300240  0.700696  0.298369  1
  Y  Y3  1  0.699053  0.302218  0.696513  1
  Y  Y4  1  0.300240  0.298369  0.700696  1
  Y  Y5  1  0.699053  0.696513  0.302218  1
  Ti  Ti6  1  0.325164  0.326949  0.326949  1
  Ti  Ti7  1  0.674453  0.671150  0.671150  1
  Ti  Ti8  1  0.325164  0.326949  0.020938  1
  Ti  Ti9  1  0.325164  0.020938  0.326949  1
  Ti  Ti10  1  0.674453  0.671150  0.983247  1
  Ti  Ti11  1  0.674453  0.983247  0.671150  1
  Ti  Ti12  1  0.021679  0.326107  0.326107  1
  Ti  Ti13  1  0.972367  0.675877  0.675877  1
  Ti  Ti14  1  0.124436  0.114661  0.114661  1
  Ti  Ti15  1  0.880374  0.881864  0.881864  1
  Ti  Ti16  1  0.124436  0.114661  0.646244  1
  Ti  Ti17  1  0.124436  0.646244  0.114661  1
  Ti  Ti18  1  0.880374  0.881864  0.355898  1
  Ti  Ti19  1  0.880374  0.355898  0.881864  1
  Ti  Ti20  1  0.645683  0.118106  0.118106  1
  Al  Al21  1  0.359850  0.880050  0.880050  1
  Ir  Ir22  1  0.497724  0.999549  0.999549  1
  Ir  Ir23  1  0.000057  0.500107  0.500107  1
  Ir  Ir24  1  0.000057  0.500107  0.999729  1
  Ir  Ir25  1  0.497724  0.999549  0.503177  1
  Ir  Ir26  1  0.000057  0.999729  0.500107  1
  Ir  Ir27  1  0.497724  0.503177  0.999549  1
  Ir  Ir28  1  0.995922  0.001360  0.001360  1
