# generated using pymatgen
data_NdPa3AgTe12
_symmetry_space_group_name_H-M   'P 1'
_cell_length_a   7.49041884
_cell_length_b   7.48724003
_cell_length_c   11.61714264
_cell_angle_alpha   72.00806079
_cell_angle_beta   71.84886338
_cell_angle_gamma   70.09416695
_symmetry_Int_Tables_number   1
_chemical_formula_structural   NdPa3AgTe12
_chemical_formula_sum   'Nd1 Pa3 Ag1 Te12'
_cell_volume   566.91317376
_cell_formula_units_Z   1
loop_
 _symmetry_equiv_pos_site_id
 _symmetry_equiv_pos_as_xyz
  1  'x, y, z'
loop_
 _atom_site_type_symbol
 _atom_site_label
 _atom_site_symmetry_multiplicity
 _atom_site_fract_x
 _atom_site_fract_y
 _atom_site_fract_z
 _atom_site_occupancy
  Nd  Nd0  1  0.194703  0.688558  0.161444  1
  Pa  Pa1  1  0.807965  0.808412  0.837515  1
  Pa  Pa2  1  0.310880  0.311340  0.841423  1
  Pa  Pa3  1  0.691158  0.196112  0.155833  1
  Ag  Ag4  1  0.816087  0.817266  0.534407  1
  Te  Te5  1  0.008762  0.026975  0.312212  1
  Te  Te6  1  0.516034  0.496552  0.322968  1
  Te  Te7  1  0.472595  0.988505  0.692212  1
  Te  Te8  1  0.991901  0.473962  0.686895  1
  Te  Te9  1  0.270893  0.251455  0.324938  1
  Te  Te10  1  0.748649  0.767282  0.317444  1
  Te  Te11  1  0.235904  0.736760  0.686154  1
  Te  Te12  1  0.737804  0.236115  0.682237  1
  Te  Te13  1  0.013755  0.028893  0.943082  1
  Te  Te14  1  0.529900  0.515269  0.939465  1
  Te  Te15  1  0.488225  0.985868  0.048283  1
  Te  Te16  1  0.976081  0.481975  0.047885  1
