# generated using pymatgen
data_Sc2CuB2IrRh4
_symmetry_space_group_name_H-M   'P 1'
_cell_length_a   9.36897100
_cell_length_b   3.04263900
_cell_length_c   9.36897100
_cell_angle_alpha   90.00000000
_cell_angle_beta   90.00000000
_cell_angle_gamma   90.00000000
_symmetry_Int_Tables_number   1
_chemical_formula_structural   Sc2CuB2IrRh4
_chemical_formula_sum   'Sc4 Cu2 B4 Ir2 Rh8'
_cell_volume   267.07560263
_cell_formula_units_Z   2
loop_
 _symmetry_equiv_pos_site_id
 _symmetry_equiv_pos_as_xyz
  1  'x, y, z'
loop_
 _atom_site_type_symbol
 _atom_site_label
 _atom_site_symmetry_multiplicity
 _atom_site_fract_x
 _atom_site_fract_y
 _atom_site_fract_z
 _atom_site_occupancy
  Sc  Sc0  1  0.677658  0.000000  0.177658  1
  Sc  Sc1  1  0.177658  0.000000  0.322342  1
  Sc  Sc2  1  0.822342  0.000000  0.677658  1
  Sc  Sc3  1  0.322342  0.000000  0.822342  1
  Cu  Cu4  1  0.000000  0.000000  0.000000  1
  Cu  Cu5  1  0.500001  0.000000  0.500001  1
  B  B6  1  0.373355  0.000000  0.126645  1
  B  B7  1  0.873356  0.000000  0.373355  1
  B  B8  1  0.126645  0.000000  0.626645  1
  B  B9  1  0.626645  0.000000  0.873356  1
  Ir  Ir10  1  0.500001  0.499999  0.000000  1
  Ir  Ir11  1  0.000000  0.499999  0.500001  1
  Rh  Rh12  1  0.216218  0.499999  0.070430  1
  Rh  Rh13  1  0.929570  0.499999  0.216218  1
  Rh  Rh14  1  0.429570  0.499999  0.283781  1
  Rh  Rh15  1  0.716219  0.499999  0.429570  1
  Rh  Rh16  1  0.283781  0.499999  0.570431  1
  Rh  Rh17  1  0.570431  0.499999  0.716219  1
  Rh  Rh18  1  0.070430  0.499999  0.783782  1
  Rh  Rh19  1  0.783782  0.499999  0.929570  1
