# generated using pymatgen
data_Dy6Tm2Sc12Si15Sn
_symmetry_space_group_name_H-M   'P 1'
_cell_length_a   7.11601385
_cell_length_b   7.40991147
_cell_length_c   14.04381837
_cell_angle_alpha   89.96675138
_cell_angle_beta   89.58216421
_cell_angle_gamma   90.07031624
_symmetry_Int_Tables_number   1
_chemical_formula_structural   Dy6Tm2Sc12Si15Sn
_chemical_formula_sum   'Dy6 Tm2 Sc12 Si15 Sn1'
_cell_volume   740.49658057
_cell_formula_units_Z   1
loop_
 _symmetry_equiv_pos_site_id
 _symmetry_equiv_pos_as_xyz
  1  'x, y, z'
loop_
 _atom_site_type_symbol
 _atom_site_label
 _atom_site_symmetry_multiplicity
 _atom_site_fract_x
 _atom_site_fract_y
 _atom_site_fract_z
 _atom_site_occupancy
  Dy  Dy0  1  0.011406  0.176201  0.096542  1
  Dy  Dy1  1  0.988395  0.824485  0.904320  1
  Dy  Dy2  1  0.488968  0.676192  0.904684  1
  Dy  Dy3  1  0.988971  0.829836  0.598016  1
  Dy  Dy4  1  0.510932  0.323854  0.096399  1
  Dy  Dy5  1  0.005778  0.170053  0.399537  1
  Tm  Tm6  1  0.512905  0.319546  0.399600  1
  Tm  Tm7  1  0.501726  0.685463  0.599930  1
  Sc  Sc8  1  0.162250  0.502213  0.754900  1
  Sc  Sc9  1  0.837029  0.497507  0.249454  1
  Sc  Sc10  1  0.337642  0.003017  0.249627  1
  Sc  Sc11  1  0.663805  0.997071  0.751423  1
  Sc  Sc12  1  0.343331  0.162549  0.630872  1
  Sc  Sc13  1  0.663688  0.824804  0.372656  1
  Sc  Sc14  1  0.163577  0.683218  0.369085  1
  Sc  Sc15  1  0.667786  0.823217  0.124517  1
  Sc  Sc16  1  0.823085  0.323993  0.626673  1
  Sc  Sc17  1  0.330831  0.175745  0.875222  1
  Sc  Sc18  1  0.831020  0.323319  0.875213  1
  Sc  Sc19  1  0.168882  0.676689  0.125413  1
  Si  Si20  1  0.034695  0.117991  0.751195  1
  Si  Si21  1  0.963382  0.885708  0.246934  1
  Si  Si22  1  0.465817  0.614030  0.248967  1
  Si  Si23  1  0.532548  0.386786  0.751780  1
  Si  Si24  1  0.287126  0.869251  0.751847  1
  Si  Si25  1  0.711784  0.127555  0.247984  1
  Si  Si26  1  0.212935  0.372349  0.249668  1
  Si  Si27  1  0.788413  0.628437  0.750958  1
  Si  Si28  1  0.828415  0.538358  0.458703  1
  Si  Si29  1  0.338786  0.964281  0.460226  1
  Si  Si30  1  0.842426  0.534747  0.039373  1
  Si  Si31  1  0.661463  0.037047  0.537890  1
  Si  Si32  1  0.156782  0.464704  0.961717  1
  Si  Si33  1  0.657230  0.035210  0.960807  1
  Si  Si34  1  0.341668  0.965337  0.039798  1
  Sn  Sn35  1  0.174519  0.459238  0.538070  1
