# generated using pymatgen
data_Ti4NbMo5N12
_symmetry_space_group_name_H-M   'P 1'
_cell_length_a   5.07507700
_cell_length_b   5.08169856
_cell_length_c   10.26772700
_cell_angle_alpha   90.00000000
_cell_angle_beta   90.00000000
_cell_angle_gamma   119.95692530
_symmetry_Int_Tables_number   1
_chemical_formula_structural   Ti4NbMo5N12
_chemical_formula_sum   'Ti4 Nb1 Mo5 N12'
_cell_volume   229.42715603
_cell_formula_units_Z   1
loop_
 _symmetry_equiv_pos_site_id
 _symmetry_equiv_pos_as_xyz
  1  'x, y, z'
loop_
 _atom_site_type_symbol
 _atom_site_label
 _atom_site_symmetry_multiplicity
 _atom_site_fract_x
 _atom_site_fract_y
 _atom_site_fract_z
 _atom_site_occupancy
  Ti  Ti0  1  0.333484  0.666898  0.499085  1
  Ti  Ti1  1  0.666587  0.333102  0.000915  1
  Ti  Ti2  1  0.666587  0.333102  0.499085  1
  Ti  Ti3  1  0.333484  0.666898  0.000915  1
  Nb  Nb4  1  0.325434  0.000000  0.250000  1
  Mo  Mo5  1  0.674900  0.000000  0.750000  1
  Mo  Mo6  1  0.673323  0.674252  0.250000  1
  Mo  Mo7  1  0.999071  0.325748  0.250000  1
  Mo  Mo8  1  0.000609  0.674494  0.750000  1
  Mo  Mo9  1  0.326115  0.325506  0.750000  1
  N  N10  1  0.342076  0.346184  0.378509  1
  N  N11  1  0.661976  0.000000  0.378909  1
  N  N12  1  0.995891  0.653816  0.378509  1
  N  N13  1  0.000149  0.342745  0.876914  1
  N  N14  1  0.661976  0.000000  0.121091  1
  N  N15  1  0.657404  0.657255  0.876914  1
  N  N16  1  0.342706  0.000000  0.876671  1
  N  N17  1  0.657404  0.657255  0.623086  1
  N  N18  1  0.000149  0.342745  0.623086  1
  N  N19  1  0.995891  0.653816  0.121491  1
  N  N20  1  0.342706  0.000000  0.623329  1
  N  N21  1  0.342076  0.346184  0.121491  1
