# generated using pymatgen
data_Tc3Se4F
_symmetry_space_group_name_H-M   'P 1'
_cell_length_a   6.67335896
_cell_length_b   6.70252928
_cell_length_c   8.88693983
_cell_angle_alpha   101.00849064
_cell_angle_beta   113.32846907
_cell_angle_gamma   93.79705443
_symmetry_Int_Tables_number   1
_chemical_formula_structural   Tc3Se4F
_chemical_formula_sum   'Tc6 Se8 F2'
_cell_volume   353.82235903
_cell_formula_units_Z   2
loop_
 _symmetry_equiv_pos_site_id
 _symmetry_equiv_pos_as_xyz
  1  'x, y, z'
loop_
 _atom_site_type_symbol
 _atom_site_label
 _atom_site_symmetry_multiplicity
 _atom_site_fract_x
 _atom_site_fract_y
 _atom_site_fract_z
 _atom_site_occupancy
  Tc  Tc0  1  0.436755  0.368240  0.275127  1
  Tc  Tc1  1  0.205213  0.537432  0.432077  1
  Tc  Tc2  1  0.569731  0.754056  0.462956  1
  Tc  Tc3  1  0.430269  0.245944  0.537043  1
  Tc  Tc4  1  0.794787  0.462567  0.567923  1
  Tc  Tc5  1  0.563245  0.631760  0.724873  1
  Se  Se6  1  0.230357  0.656384  0.187480  1
  Se  Se7  1  0.094302  0.171041  0.260927  1
  Se  Se8  1  0.782112  0.588924  0.304107  1
  Se  Se9  1  0.669922  0.099470  0.385461  1
  Se  Se10  1  0.330078  0.900530  0.614539  1
  Se  Se11  1  0.217888  0.411076  0.695893  1
  Se  Se12  1  0.905698  0.828958  0.739072  1
  Se  Se13  1  0.769642  0.343616  0.812519  1
  F  F14  1  0.370012  0.231679  0.040786  1
  F  F15  1  0.629988  0.768319  0.959214  1
