# generated using pymatgen
data_CaHo2(Al3Pd2)3
_symmetry_space_group_name_H-M   'P 1'
_cell_length_a   4.19218800
_cell_length_b   9.43483908
_cell_length_c   9.43545337
_cell_angle_alpha   119.99790276
_cell_angle_beta   90.00000000
_cell_angle_gamma   90.00000000
_symmetry_Int_Tables_number   1
_chemical_formula_structural   CaHo2(Al3Pd2)3
_chemical_formula_sum   'Ca1 Ho2 Al9 Pd6'
_cell_volume   323.20482065
_cell_formula_units_Z   1
loop_
 _symmetry_equiv_pos_site_id
 _symmetry_equiv_pos_as_xyz
  1  'x, y, z'
loop_
 _atom_site_type_symbol
 _atom_site_label
 _atom_site_symmetry_multiplicity
 _atom_site_fract_x
 _atom_site_fract_y
 _atom_site_fract_z
 _atom_site_occupancy
  Ca  Ca0  1  0.000000  0.999970  0.000000  1
  Ho  Ho1  1  0.500000  0.333614  0.667236  1
  Ho  Ho2  1  0.500000  0.666380  0.332765  1
  Al  Al3  1  0.500000  0.306163  0.000000  1
  Al  Al4  1  0.500000  0.694167  0.694037  1
  Al  Al5  1  0.500000  0.000129  0.305962  1
  Al  Al6  1  0.500000  0.693823  0.000000  1
  Al  Al7  1  0.500000  0.305826  0.305964  1
  Al  Al8  1  0.500000  0.999862  0.694036  1
  Al  Al9  1  0.000000  0.499992  0.000001  1
  Al  Al10  1  0.000000  0.500013  0.500005  1
  Al  Al11  1  0.000000  0.000006  0.499994  1
  Pd  Pd12  1  0.000000  0.185996  0.371972  1
  Pd  Pd13  1  0.000000  0.185980  0.814044  1
  Pd  Pd14  1  0.000000  0.628028  0.814034  1
  Pd  Pd15  1  0.000000  0.814023  0.628027  1
  Pd  Pd16  1  0.000000  0.371936  0.185956  1
  Pd  Pd17  1  0.000000  0.813995  0.185967  1
