# generated using pymatgen
data_Li8P4Pd7Pt5
_symmetry_space_group_name_H-M   'P 1'
_cell_length_a   7.20619004
_cell_length_b   7.14977803
_cell_length_c   7.16458904
_cell_angle_alpha   89.91986790
_cell_angle_beta   90.06817734
_cell_angle_gamma   89.44228839
_symmetry_Int_Tables_number   1
_chemical_formula_structural   Li8P4Pd7Pt5
_chemical_formula_sum   'Li8 P4 Pd7 Pt5'
_cell_volume   369.12056395
_cell_formula_units_Z   1
loop_
 _symmetry_equiv_pos_site_id
 _symmetry_equiv_pos_as_xyz
  1  'x, y, z'
loop_
 _atom_site_type_symbol
 _atom_site_label
 _atom_site_symmetry_multiplicity
 _atom_site_fract_x
 _atom_site_fract_y
 _atom_site_fract_z
 _atom_site_occupancy
  Li  Li0  1  0.296558  0.298012  0.288358  1
  Li  Li1  1  0.042707  0.463393  0.548743  1
  Li  Li2  1  0.549143  0.037346  0.453577  1
  Li  Li3  1  0.460941  0.537008  0.042325  1
  Li  Li4  1  0.198086  0.702857  0.790231  1
  Li  Li5  1  0.951095  0.956424  0.953865  1
  Li  Li6  1  0.794828  0.211087  0.713954  1
  Li  Li7  1  0.706417  0.790804  0.207307  1
  P  P8  1  0.866822  0.368580  0.109128  1
  P  P9  1  0.373760  0.136773  0.889302  1
  P  P10  1  0.632141  0.632344  0.613488  1
  P  P11  1  0.124776  0.863411  0.387230  1
  Pd  Pd12  1  0.187365  0.073976  0.626671  1
  Pd  Pd13  1  0.431994  0.377799  0.675962  1
  Pd  Pd14  1  0.069968  0.619457  0.178274  1
  Pd  Pd15  1  0.937733  0.126098  0.321485  1
  Pd  Pd16  1  0.314028  0.924399  0.128638  1
  Pd  Pd17  1  0.679543  0.419297  0.372729  1
  Pd  Pd18  1  0.560850  0.874492  0.823763  1
  Pt  Pt19  1  0.625611  0.160984  0.084602  1
  Pt  Pt20  1  0.376651  0.667126  0.420696  1
  Pt  Pt21  1  0.873052  0.840999  0.581516  1
  Pt  Pt22  1  0.121981  0.332324  0.916048  1
  Pt  Pt23  1  0.823951  0.585012  0.872107  1
