# generated using pymatgen
data_Dy3In3Ni2Ag
_symmetry_space_group_name_H-M   'P 1'
_cell_length_a   7.70582600
_cell_length_b   7.70582594
_cell_length_c   3.72717500
_cell_angle_alpha   90.00000000
_cell_angle_beta   90.00000000
_cell_angle_gamma   120.00000027
_symmetry_Int_Tables_number   1
_chemical_formula_structural   Dy3In3Ni2Ag
_chemical_formula_sum   'Dy3 In3 Ni2 Ag1'
_cell_volume   191.66764551
_cell_formula_units_Z   1
loop_
 _symmetry_equiv_pos_site_id
 _symmetry_equiv_pos_as_xyz
  1  'x, y, z'
loop_
 _atom_site_type_symbol
 _atom_site_label
 _atom_site_symmetry_multiplicity
 _atom_site_fract_x
 _atom_site_fract_y
 _atom_site_fract_z
 _atom_site_occupancy
  Dy  Dy0  1  0.394624  0.420029  0.500000  1
  Dy  Dy1  1  0.579971  0.974596  0.500000  1
  Dy  Dy2  1  0.025404  0.605376  0.500000  1
  In  In3  1  0.749468  0.746059  0.000000  1
  In  In4  1  0.996590  0.250532  0.000000  1
  In  In5  1  0.253941  0.003410  0.000000  1
  Ni  Ni6  1  0.333333  0.666667  0.000000  1
  Ni  Ni7  1  0.000000  0.000000  0.500000  1
  Ag  Ag8  1  0.666667  0.333333  0.000000  1
