# generated using pymatgen
data_Y4ErSi12Ir19
_symmetry_space_group_name_H-M   'P 1'
_cell_length_a   12.83841000
_cell_length_b   12.83840139
_cell_length_c   3.98589300
_cell_angle_alpha   90.00000000
_cell_angle_beta   90.00000000
_cell_angle_gamma   119.99998440
_symmetry_Int_Tables_number   1
_chemical_formula_structural   Y4ErSi12Ir19
_chemical_formula_sum   'Y4 Er1 Si12 Ir19'
_cell_volume   568.95579708
_cell_formula_units_Z   1
loop_
 _symmetry_equiv_pos_site_id
 _symmetry_equiv_pos_as_xyz
  1  'x, y, z'
loop_
 _atom_site_type_symbol
 _atom_site_label
 _atom_site_symmetry_multiplicity
 _atom_site_fract_x
 _atom_site_fract_y
 _atom_site_fract_z
 _atom_site_occupancy
  Y  Y0  1  0.666664  0.333326  0.000000  1
  Y  Y1  1  0.333336  0.666662  0.000000  1
  Y  Y2  1  0.814800  0.814812  0.500000  1
  Y  Y3  1  0.185200  0.000012  0.500000  1
  Er  Er4  1  0.000000  0.185093  0.500000  1
  Si  Si5  1  0.688102  0.168810  0.500000  1
  Si  Si6  1  0.831175  0.519260  0.500000  1
  Si  Si7  1  0.480655  0.311882  0.500000  1
  Si  Si8  1  0.168825  0.688086  0.500000  1
  Si  Si9  1  0.519345  0.831228  0.500000  1
  Si  Si10  1  0.311898  0.480709  0.500000  1
  Si  Si11  1  0.631846  0.631845  0.000000  1
  Si  Si12  1  0.368154  0.999999  0.000000  1
  Si  Si13  1  0.000000  0.367835  0.000000  1
  Si  Si14  1  0.181071  0.181381  0.000000  1
  Si  Si15  1  0.818929  0.000310  0.000000  1
  Si  Si16  1  0.000000  0.818759  0.000000  1
  Ir  Ir17  1  0.806403  0.182609  0.000000  1
  Ir  Ir18  1  0.817456  0.623343  0.000000  1
  Ir  Ir19  1  0.376616  0.194129  0.000000  1
  Ir  Ir20  1  0.182544  0.805887  0.000000  1
  Ir  Ir21  1  0.623384  0.817514  0.000000  1
  Ir  Ir22  1  0.193597  0.376206  0.000000  1
  Ir  Ir23  1  0.447074  0.447072  0.000000  1
  Ir  Ir24  1  0.552926  0.999997  0.000000  1
  Ir  Ir25  1  0.000000  0.552833  0.000000  1
  Ir  Ir26  1  0.282515  0.282715  0.500000  1
  Ir  Ir27  1  0.717485  0.000199  0.500000  1
  Ir  Ir28  1  0.000000  0.717175  0.500000  1
  Ir  Ir29  1  0.873816  0.361556  0.500000  1
  Ir  Ir30  1  0.638337  0.512109  0.500000  1
  Ir  Ir31  1  0.487868  0.126234  0.500000  1
  Ir  Ir32  1  0.361663  0.873770  0.500000  1
  Ir  Ir33  1  0.512132  0.638364  0.500000  1
  Ir  Ir34  1  0.126184  0.487738  0.500000  1
  Ir  Ir35  1  0.000000  0.000540  0.000000  1
