# generated using pymatgen
data_Nd2ZnGaPd2
_symmetry_space_group_name_H-M   'P 1'
_cell_length_a   4.53352300
_cell_length_b   7.15231900
_cell_length_c   7.86455000
_cell_angle_alpha   90.00000000
_cell_angle_beta   90.00000000
_cell_angle_gamma   90.00000000
_symmetry_Int_Tables_number   1
_chemical_formula_structural   Nd2ZnGaPd2
_chemical_formula_sum   'Nd4 Zn2 Ga2 Pd4'
_cell_volume   255.00962781
_cell_formula_units_Z   2
loop_
 _symmetry_equiv_pos_site_id
 _symmetry_equiv_pos_as_xyz
  1  'x, y, z'
loop_
 _atom_site_type_symbol
 _atom_site_label
 _atom_site_symmetry_multiplicity
 _atom_site_fract_x
 _atom_site_fract_y
 _atom_site_fract_z
 _atom_site_occupancy
  Nd  Nd0  1  0.250000  0.024164  0.694658  1
  Nd  Nd1  1  0.250000  0.524164  0.805342  1
  Nd  Nd2  1  0.750000  0.976242  0.304551  1
  Nd  Nd3  1  0.750000  0.476242  0.195449  1
  Zn  Zn4  1  0.250000  0.168583  0.074955  1
  Zn  Zn5  1  0.250000  0.668583  0.425045  1
  Ga  Ga6  1  0.750000  0.834032  0.927361  1
  Ga  Ga7  1  0.750000  0.334032  0.572639  1
  Pd  Pd8  1  0.250000  0.280246  0.401375  1
  Pd  Pd9  1  0.250000  0.780246  0.098625  1
  Pd  Pd10  1  0.750000  0.716733  0.603180  1
  Pd  Pd11  1  0.750000  0.216733  0.896820  1
