# generated using pymatgen
data_Sc2CdPd3
_symmetry_space_group_name_H-M   'P 1'
_cell_length_a   4.66167400
_cell_length_b   4.66167254
_cell_length_c   11.48070400
_cell_angle_alpha   90.00000000
_cell_angle_beta   90.00000000
_cell_angle_gamma   119.99999617
_symmetry_Int_Tables_number   1
_chemical_formula_structural   Sc2CdPd3
_chemical_formula_sum   'Sc4 Cd2 Pd6'
_cell_volume   216.06420838
_cell_formula_units_Z   2
loop_
 _symmetry_equiv_pos_site_id
 _symmetry_equiv_pos_as_xyz
  1  'x, y, z'
loop_
 _atom_site_type_symbol
 _atom_site_label
 _atom_site_symmetry_multiplicity
 _atom_site_fract_x
 _atom_site_fract_y
 _atom_site_fract_z
 _atom_site_occupancy
  Sc  Sc0  1  0.000000  0.000000  0.500000  1
  Sc  Sc1  1  0.333333  0.666667  0.175075  1
  Sc  Sc2  1  0.666667  0.333333  0.824925  1
  Sc  Sc3  1  0.000000  0.000000  0.000000  1
  Cd  Cd4  1  0.333333  0.666667  0.668587  1
  Cd  Cd5  1  0.666667  0.333333  0.331413  1
  Pd  Pd6  1  0.333333  0.666667  0.421988  1
  Pd  Pd7  1  0.666667  0.333333  0.074733  1
  Pd  Pd8  1  0.000000  0.000000  0.757214  1
  Pd  Pd9  1  0.000000  0.000000  0.242786  1
  Pd  Pd10  1  0.333333  0.666667  0.925267  1
  Pd  Pd11  1  0.666667  0.333333  0.578012  1
