# generated using pymatgen
data_Er6Tm2Ti11Si16Rh
_symmetry_space_group_name_H-M   'P 1'
_cell_length_a   7.01128329
_cell_length_b   7.01233468
_cell_length_c   12.82016609
_cell_angle_alpha   90.11651420
_cell_angle_beta   89.90105692
_cell_angle_gamma   89.78495578
_symmetry_Int_Tables_number   1
_chemical_formula_structural   Er6Tm2Ti11Si16Rh
_chemical_formula_sum   'Er6 Tm2 Ti11 Si16 Rh1'
_cell_volume   630.30273558
_cell_formula_units_Z   1
loop_
 _symmetry_equiv_pos_site_id
 _symmetry_equiv_pos_as_xyz
  1  'x, y, z'
loop_
 _atom_site_type_symbol
 _atom_site_label
 _atom_site_symmetry_multiplicity
 _atom_site_fract_x
 _atom_site_fract_y
 _atom_site_fract_z
 _atom_site_occupancy
  Er  Er0  1  0.501371  0.157603  0.214823  1
  Er  Er1  1  0.842068  0.496614  0.282303  1
  Er  Er2  1  0.157711  0.501192  0.785143  1
  Er  Er3  1  0.656565  0.997917  0.968192  1
  Er  Er4  1  0.003850  0.340858  0.532802  1
  Er  Er5  1  0.998195  0.656400  0.031694  1
  Tm  Tm6  1  0.341061  0.003363  0.467334  1
  Tm  Tm7  1  0.496813  0.842126  0.717909  1
  Ti  Ti8  1  0.175869  0.826712  0.248458  1
  Ti  Ti9  1  0.826539  0.175624  0.751346  1
  Ti  Ti10  1  0.673676  0.674239  0.500099  1
  Ti  Ti11  1  0.148490  0.002051  0.875177  1
  Ti  Ti12  1  0.494007  0.655878  0.124979  1
  Ti  Ti13  1  0.506592  0.350668  0.627801  1
  Ti  Ti14  1  0.655631  0.493905  0.874749  1
  Ti  Ti15  1  0.350362  0.507080  0.372464  1
  Ti  Ti16  1  0.849794  0.994696  0.374834  1
  Ti  Ti17  1  0.002613  0.148441  0.124583  1
  Ti  Ti18  1  0.994607  0.850090  0.625340  1
  Si  Si19  1  0.203273  0.133875  0.684674  1
  Si  Si20  1  0.371497  0.703781  0.933100  1
  Si  Si21  1  0.631281  0.295075  0.433640  1
  Si  Si22  1  0.703224  0.371390  0.066424  1
  Si  Si23  1  0.295472  0.632585  0.566643  1
  Si  Si24  1  0.796340  0.866658  0.183347  1
  Si  Si25  1  0.134465  0.202728  0.315367  1
  Si  Si26  1  0.866273  0.796292  0.816539  1
  Si  Si27  1  0.286319  0.950047  0.063690  1
  Si  Si28  1  0.547355  0.792841  0.315744  1
  Si  Si29  1  0.448649  0.209095  0.817458  1
  Si  Si30  1  0.792380  0.547885  0.684336  1
  Si  Si31  1  0.209764  0.448663  0.182542  1
  Si  Si32  1  0.707169  0.047819  0.565650  1
  Si  Si33  1  0.949863  0.285959  0.936022  1
  Si  Si34  1  0.048327  0.708249  0.434530  1
  Rh  Rh35  1  0.332536  0.331597  0.000263  1
