# generated using pymatgen
data_Sr12TlGe11Au12
_symmetry_space_group_name_H-M   'P 1'
_cell_length_a   4.69186500
_cell_length_b   8.07356863
_cell_length_c   23.19104300
_cell_angle_alpha   89.87047073
_cell_angle_beta   90.00000000
_cell_angle_gamma   90.00000000
_symmetry_Int_Tables_number   1
_chemical_formula_structural   Sr12TlGe11Au12
_chemical_formula_sum   'Sr12 Tl1 Ge11 Au12'
_cell_volume   878.47664592
_cell_formula_units_Z   1
loop_
 _symmetry_equiv_pos_site_id
 _symmetry_equiv_pos_as_xyz
  1  'x, y, z'
loop_
 _atom_site_type_symbol
 _atom_site_label
 _atom_site_symmetry_multiplicity
 _atom_site_fract_x
 _atom_site_fract_y
 _atom_site_fract_z
 _atom_site_occupancy
  Sr  Sr0  1  0.750000  0.212283  0.497102  1
  Sr  Sr1  1  0.250000  0.794915  0.166470  1
  Sr  Sr2  1  0.250000  0.786791  0.499165  1
  Sr  Sr3  1  0.250000  0.795656  0.834144  1
  Sr  Sr4  1  0.250000  0.704735  0.332146  1
  Sr  Sr5  1  0.750000  0.206898  0.837533  1
  Sr  Sr6  1  0.750000  0.286119  0.999999  1
  Sr  Sr7  1  0.750000  0.292758  0.664912  1
  Sr  Sr8  1  0.750000  0.293770  0.333386  1
  Sr  Sr9  1  0.250000  0.702720  0.662760  1
  Sr  Sr10  1  0.250000  0.714647  0.002185  1
  Sr  Sr11  1  0.750000  0.205238  0.167830  1
  Tl  Tl12  1  0.750000  0.914562  0.728851  1
  Ge  Ge13  1  0.250000  0.410142  0.563943  1
  Ge  Ge14  1  0.250000  0.081345  0.392459  1
  Ge  Ge15  1  0.250000  0.090033  0.067714  1
  Ge  Ge16  1  0.250000  0.419434  0.894939  1
  Ge  Ge17  1  0.750000  0.582724  0.107051  1
  Ge  Ge18  1  0.250000  0.422381  0.776694  1
  Ge  Ge19  1  0.750000  0.580703  0.225909  1
  Ge  Ge20  1  0.750000  0.587669  0.432379  1
  Ge  Ge21  1  0.750000  0.910655  0.935718  1
  Ge  Ge22  1  0.250000  0.080489  0.273952  1
  Ge  Ge23  1  0.750000  0.914843  0.599344  1
  Au  Au24  1  0.250000  0.084423  0.593025  1
  Au  Au25  1  0.250000  0.112294  0.740926  1
  Au  Au26  1  0.750000  0.587206  0.905830  1
  Au  Au27  1  0.750000  0.913734  0.402665  1
  Au  Au28  1  0.750000  0.579930  0.565874  1
  Au  Au29  1  0.750000  0.569325  0.765981  1
  Au  Au30  1  0.250000  0.418586  0.431528  1
  Au  Au31  1  0.250000  0.413706  0.237475  1
  Au  Au32  1  0.750000  0.919026  0.068357  1
  Au  Au33  1  0.250000  0.415022  0.096252  1
  Au  Au34  1  0.250000  0.081908  0.933056  1
  Au  Au35  1  0.750000  0.913328  0.262442  1
