# generated using pymatgen
data_Se2Cl15
_symmetry_space_group_name_H-M   'P 1'
_cell_length_a   7.73643177
_cell_length_b   13.87341787
_cell_length_c   14.65590505
_cell_angle_alpha   102.91641010
_cell_angle_beta   108.55588011
_cell_angle_gamma   106.36187671
_symmetry_Int_Tables_number   1
_chemical_formula_structural   Se2Cl15
_chemical_formula_sum   'Se4 Cl30'
_cell_volume   1343.38080591
_cell_formula_units_Z   2
loop_
 _symmetry_equiv_pos_site_id
 _symmetry_equiv_pos_as_xyz
  1  'x, y, z'
loop_
 _atom_site_type_symbol
 _atom_site_label
 _atom_site_symmetry_multiplicity
 _atom_site_fract_x
 _atom_site_fract_y
 _atom_site_fract_z
 _atom_site_occupancy
  Se  Se0  1  0.709311  0.269268  0.285225  1
  Se  Se1  1  0.290689  0.730732  0.714775  1
  Se  Se2  1  0.874198  0.586530  0.419826  1
  Se  Se3  1  0.125802  0.413470  0.580174  1
  Cl  Cl4  1  0.754273  0.932722  0.497849  1
  Cl  Cl5  1  0.245727  0.067278  0.502151  1
  Cl  Cl6  1  0.341562  0.737373  0.120225  1
  Cl  Cl7  1  0.658438  0.262627  0.879775  1
  Cl  Cl8  1  0.120196  0.979884  0.169074  1
  Cl  Cl9  1  0.879804  0.020116  0.830926  1
  Cl  Cl10  1  0.836795  0.897577  0.073000  1
  Cl  Cl11  1  0.163205  0.102423  0.927000  1
  Cl  Cl12  1  0.051251  0.656078  0.070574  1
  Cl  Cl13  1  0.948749  0.343922  0.929426  1
  Cl  Cl14  1  0.435124  0.459352  0.036126  1
  Cl  Cl15  1  0.564876  0.540648  0.963874  1
  Cl  Cl16  1  0.531945  0.161927  0.565969  1
  Cl  Cl17  1  0.468055  0.838073  0.434031  1
  Cl  Cl18  1  0.753312  0.193556  0.148124  1
  Cl  Cl19  1  0.246688  0.806444  0.851876  1
  Cl  Cl20  1  0.414998  0.268501  0.203318  1
  Cl  Cl21  1  0.585002  0.731499  0.796682  1
  Cl  Cl22  1  0.875704  0.464042  0.268509  1
  Cl  Cl23  1  0.124296  0.535958  0.731491  1
  Cl  Cl24  1  0.901847  0.696922  0.581012  1
  Cl  Cl25  1  0.098153  0.303078  0.418988  1
  Cl  Cl26  1  0.750540  0.403945  0.469153  1
  Cl  Cl27  1  0.249460  0.596055  0.530847  1
  Cl  Cl28  1  0.563591  0.565890  0.341679  1
  Cl  Cl29  1  0.436409  0.434110  0.658321  1
  Cl  Cl30  1  0.000909  0.724725  0.375189  1
  Cl  Cl31  1  0.999091  0.275275  0.624811  1
  Cl  Cl32  1  0.400800  0.880157  0.681337  1
  Cl  Cl33  1  0.599200  0.119843  0.318663  1
