# generated using pymatgen
data_YbHf2AgF11
_symmetry_space_group_name_H-M   'P 1'
_cell_length_a   5.95520671
_cell_length_b   5.95520663
_cell_length_c   7.86451355
_cell_angle_alpha   69.80915659
_cell_angle_beta   69.80915381
_cell_angle_gamma   73.75529164
_symmetry_Int_Tables_number   1
_chemical_formula_structural   YbHf2AgF11
_chemical_formula_sum   'Yb1 Hf2 Ag1 F11'
_cell_volume   241.56652309
_cell_formula_units_Z   1
loop_
 _symmetry_equiv_pos_site_id
 _symmetry_equiv_pos_as_xyz
  1  'x, y, z'
loop_
 _atom_site_type_symbol
 _atom_site_label
 _atom_site_symmetry_multiplicity
 _atom_site_fract_x
 _atom_site_fract_y
 _atom_site_fract_z
 _atom_site_occupancy
  Yb  Yb0  1  0.000000  0.000000  0.500000  1
  Hf  Hf1  1  0.506123  0.506123  0.764363  1
  Hf  Hf2  1  0.493877  0.493877  0.235637  1
  Ag  Ag3  1  0.000000  0.000000  0.000000  1
  F  F4  1  0.207221  0.760485  0.309081  1
  F  F5  1  0.239515  0.792779  0.690919  1
  F  F6  1  0.792779  0.239515  0.690919  1
  F  F7  1  0.760485  0.207221  0.309081  1
  F  F8  1  0.500000  0.500000  0.500000  1
  F  F9  1  0.660003  0.339997  0.000000  1
  F  F10  1  0.339997  0.660003  0.000000  1
  F  F11  1  0.740026  0.740026  0.654883  1
  F  F12  1  0.259974  0.259974  0.345117  1
  F  F13  1  0.722151  0.722151  0.113151  1
  F  F14  1  0.277849  0.277849  0.886849  1
