# generated using pymatgen
data_Tl2MoF5
_symmetry_space_group_name_H-M   'P 1'
_cell_length_a   6.23232300
_cell_length_b   8.34209100
_cell_length_c   12.22351100
_cell_angle_alpha   90.00000000
_cell_angle_beta   90.00000000
_cell_angle_gamma   90.00000000
_symmetry_Int_Tables_number   1
_chemical_formula_structural   Tl2MoF5
_chemical_formula_sum   'Tl8 Mo4 F20'
_cell_volume   635.50773954
_cell_formula_units_Z   4
loop_
 _symmetry_equiv_pos_site_id
 _symmetry_equiv_pos_as_xyz
  1  'x, y, z'
loop_
 _atom_site_type_symbol
 _atom_site_label
 _atom_site_symmetry_multiplicity
 _atom_site_fract_x
 _atom_site_fract_y
 _atom_site_fract_z
 _atom_site_occupancy
  Tl  Tl0  1  0.750000  0.474717  0.253620  1
  Tl  Tl1  1  0.250000  0.525283  0.746380  1
  Tl  Tl2  1  0.250000  0.025283  0.753620  1
  Tl  Tl3  1  0.750000  0.974717  0.246380  1
  Tl  Tl4  1  0.750000  0.864297  0.584673  1
  Tl  Tl5  1  0.250000  0.135703  0.415327  1
  Tl  Tl6  1  0.250000  0.635703  0.084673  1
  Tl  Tl7  1  0.750000  0.364297  0.915327  1
  Mo  Mo8  1  0.750000  0.838011  0.944261  1
  Mo  Mo9  1  0.250000  0.161989  0.055739  1
  Mo  Mo10  1  0.250000  0.661989  0.444261  1
  Mo  Mo11  1  0.750000  0.338011  0.555739  1
  F  F12  1  0.750000  0.725485  0.099260  1
  F  F13  1  0.250000  0.274515  0.900740  1
  F  F14  1  0.250000  0.774515  0.599260  1
  F  F15  1  0.750000  0.225485  0.400740  1
  F  F16  1  0.986147  0.675123  0.896416  1
  F  F17  1  0.013853  0.324877  0.103584  1
  F  F18  1  0.013853  0.824877  0.396416  1
  F  F19  1  0.486147  0.324877  0.103584  1
  F  F20  1  0.986147  0.175123  0.603584  1
  F  F21  1  0.513853  0.675123  0.896416  1
  F  F22  1  0.513853  0.175123  0.603584  1
  F  F23  1  0.486147  0.824877  0.396416  1
  F  F24  1  0.000000  0.000000  0.000000  1
  F  F25  1  0.000000  0.500000  0.500000  1
  F  F26  1  0.500000  0.000000  0.000000  1
  F  F27  1  0.500000  0.500000  0.500000  1
  F  F28  1  0.750000  0.957602  0.795532  1
  F  F29  1  0.250000  0.042398  0.204468  1
  F  F30  1  0.250000  0.542398  0.295532  1
  F  F31  1  0.750000  0.457602  0.704468  1
