# generated using pymatgen
data_Er3Tm5(LuIn4)2
_symmetry_space_group_name_H-M   'P 1'
_cell_length_a   9.17401112
_cell_length_b   9.17913865
_cell_length_c   6.58190000
_cell_angle_alpha   89.99884550
_cell_angle_beta   89.99864042
_cell_angle_gamma   119.94224005
_symmetry_Int_Tables_number   1
_chemical_formula_structural   Er3Tm5(LuIn4)2
_chemical_formula_sum   'Er3 Tm5 Lu2 In8'
_cell_volume   480.28119215
_cell_formula_units_Z   1
loop_
 _symmetry_equiv_pos_site_id
 _symmetry_equiv_pos_as_xyz
  1  'x, y, z'
loop_
 _atom_site_type_symbol
 _atom_site_label
 _atom_site_symmetry_multiplicity
 _atom_site_fract_x
 _atom_site_fract_y
 _atom_site_fract_z
 _atom_site_occupancy
  Er  Er0  1  0.290051  0.000148  0.749868  1
  Er  Er1  1  0.710120  0.000046  0.250145  1
  Er  Er2  1  0.000119  0.289749  0.749859  1
  Tm  Tm3  1  0.666651  0.333845  0.000069  1
  Tm  Tm4  1  0.333332  0.666378  0.000075  1
  Tm  Tm5  1  0.999860  0.709803  0.250151  1
  Tm  Tm6  1  0.710086  0.710138  0.749845  1
  Tm  Tm7  1  0.289804  0.290001  0.250152  1
  Lu  Lu8  1  0.333352  0.666397  0.499936  1
  Lu  Lu9  1  0.666643  0.333839  0.499944  1
  In  In10  1  0.000015  0.999793  0.499799  1
  In  In11  1  0.000014  0.999792  0.000194  1
  In  In12  1  0.627607  0.999614  0.749813  1
  In  In13  1  0.372019  0.000061  0.250184  1
  In  In14  1  0.999644  0.627580  0.749808  1
  In  In15  1  0.000333  0.372733  0.250184  1
  In  In16  1  0.372808  0.372847  0.749790  1
  In  In17  1  0.627544  0.627232  0.250186  1
