# generated using pymatgen
data_ErTm3Hf5Si8Mo
_symmetry_space_group_name_H-M   'P 1'
_cell_length_a   7.19920978
_cell_length_b   6.95029138
_cell_length_c   7.15869705
_cell_angle_alpha   71.93406435
_cell_angle_beta   89.81240207
_cell_angle_gamma   90.03829329
_symmetry_Int_Tables_number   1
_chemical_formula_structural   ErTm3Hf5Si8Mo
_chemical_formula_sum   'Er1 Tm3 Hf5 Si8 Mo1'
_cell_volume   340.53553246
_cell_formula_units_Z   1
loop_
 _symmetry_equiv_pos_site_id
 _symmetry_equiv_pos_as_xyz
  1  'x, y, z'
loop_
 _atom_site_type_symbol
 _atom_site_label
 _atom_site_symmetry_multiplicity
 _atom_site_fract_x
 _atom_site_fract_y
 _atom_site_fract_z
 _atom_site_occupancy
  Er  Er0  1  0.830074  0.928424  0.192061  1
  Tm  Tm1  1  0.674034  0.430619  0.192052  1
  Tm  Tm2  1  0.170119  0.071857  0.807499  1
  Tm  Tm3  1  0.325901  0.569380  0.807957  1
  Hf  Hf4  1  0.499899  0.000004  0.500096  1
  Hf  Hf5  1  0.176730  0.253141  0.251905  1
  Hf  Hf6  1  0.681453  0.253705  0.746536  1
  Hf  Hf7  1  0.823327  0.746909  0.748150  1
  Hf  Hf8  1  0.318596  0.746309  0.253445  1
  Si  Si9  1  0.468612  0.131752  0.082559  1
  Si  Si10  1  0.969332  0.368269  0.915302  1
  Si  Si11  1  0.531057  0.868371  0.917296  1
  Si  Si12  1  0.030846  0.631478  0.084596  1
  Si  Si13  1  0.877889  0.133990  0.491214  1
  Si  Si14  1  0.374055  0.370128  0.509845  1
  Si  Si15  1  0.122266  0.866103  0.509072  1
  Si  Si16  1  0.625780  0.629680  0.490356  1
  Mo  Mo17  1  0.000030  0.499882  0.500059  1
