# generated using pymatgen
data_YbLu3Ir4F28
_symmetry_space_group_name_H-M   'P 1'
_cell_length_a   5.48275256
_cell_length_b   8.79033918
_cell_length_c   11.85536478
_cell_angle_alpha   62.76466171
_cell_angle_beta   89.94558718
_cell_angle_gamma   89.91515147
_symmetry_Int_Tables_number   1
_chemical_formula_structural   YbLu3Ir4F28
_chemical_formula_sum   'Yb1 Lu3 Ir4 F28'
_cell_volume   508.02613982
_cell_formula_units_Z   1
loop_
 _symmetry_equiv_pos_site_id
 _symmetry_equiv_pos_as_xyz
  1  'x, y, z'
loop_
 _atom_site_type_symbol
 _atom_site_label
 _atom_site_symmetry_multiplicity
 _atom_site_fract_x
 _atom_site_fract_y
 _atom_site_fract_z
 _atom_site_occupancy
  Yb  Yb0  1  0.260656  0.819444  0.264441  1
  Lu  Lu1  1  0.738923  0.183959  0.735493  1
  Lu  Lu2  1  0.763989  0.178820  0.235931  1
  Lu  Lu3  1  0.238957  0.817291  0.764309  1
  Ir  Ir4  1  0.758051  0.725575  0.043046  1
  Ir  Ir5  1  0.240550  0.273993  0.955402  1
  Ir  Ir6  1  0.259008  0.272941  0.456357  1
  Ir  Ir7  1  0.740263  0.725160  0.545270  1
  F  F8  1  0.938538  0.704956  0.419216  1
  F  F9  1  0.055793  0.291460  0.586320  1
  F  F10  1  0.440508  0.295123  0.083073  1
  F  F11  1  0.554460  0.707411  0.913442  1
  F  F12  1  0.469166  0.727881  0.134797  1
  F  F13  1  0.534263  0.270455  0.860016  1
  F  F14  1  0.965928  0.271756  0.362593  1
  F  F15  1  0.033446  0.729508  0.640482  1
  F  F16  1  0.953734  0.742287  0.171811  1
  F  F17  1  0.041870  0.254928  0.824037  1
  F  F18  1  0.458435  0.254971  0.325292  1
  F  F19  1  0.540963  0.745299  0.675960  1
  F  F20  1  0.768935  0.477378  0.140402  1
  F  F21  1  0.230363  0.522406  0.858706  1
  F  F22  1  0.268824  0.516386  0.361246  1
  F  F23  1  0.730944  0.475712  0.642774  1
  F  F24  1  0.939789  0.281499  0.044210  1
  F  F25  1  0.059400  0.721492  0.952048  1
  F  F26  1  0.445484  0.717345  0.458925  1
  F  F27  1  0.559282  0.277007  0.547966  1
  F  F28  1  0.738947  0.973387  0.451339  1
  F  F29  1  0.259594  0.024794  0.552616  1
  F  F30  1  0.241015  0.030064  0.047179  1
  F  F31  1  0.759623  0.975074  0.946928  1
  F  F32  1  0.593319  0.975844  0.229450  1
  F  F33  1  0.417662  0.028324  0.767751  1
  F  F34  1  0.081684  0.039169  0.268811  1
  F  F35  1  0.917634  0.970901  0.732361  1
