# generated using pymatgen
data_Hf3NbSi2(PRh2)2
_symmetry_space_group_name_H-M   'P 1'
_cell_length_a   3.81578700
_cell_length_b   6.48293167
_cell_length_c   7.42992823
_cell_angle_alpha   90.38213979
_cell_angle_beta   90.00000000
_cell_angle_gamma   90.00000000
_symmetry_Int_Tables_number   1
_chemical_formula_structural   Hf3NbSi2(PRh2)2
_chemical_formula_sum   'Hf3 Nb1 Si2 P2 Rh4'
_cell_volume   183.79366052
_cell_formula_units_Z   1
loop_
 _symmetry_equiv_pos_site_id
 _symmetry_equiv_pos_as_xyz
  1  'x, y, z'
loop_
 _atom_site_type_symbol
 _atom_site_label
 _atom_site_symmetry_multiplicity
 _atom_site_fract_x
 _atom_site_fract_y
 _atom_site_fract_z
 _atom_site_occupancy
  Hf  Hf0  1  0.750000  0.476359  0.320918  1
  Hf  Hf1  1  0.250000  0.025963  0.819978  1
  Hf  Hf2  1  0.750000  0.972835  0.180887  1
  Nb  Nb3  1  0.250000  0.528401  0.674787  1
  Si  Si4  1  0.750000  0.724561  0.872379  1
  Si  Si5  1  0.750000  0.240841  0.623226  1
  P  P6  1  0.250000  0.262246  0.121097  1
  P  P7  1  0.250000  0.763040  0.383577  1
  Rh  Rh8  1  0.250000  0.647907  0.066347  1
  Rh  Rh9  1  0.250000  0.147343  0.433691  1
  Rh  Rh10  1  0.750000  0.859493  0.561977  1
  Rh  Rh11  1  0.750000  0.351013  0.941139  1
