# generated using pymatgen
data_TaNb4Mo8W3
_symmetry_space_group_name_H-M   'P 1'
_cell_length_a   6.41344700
_cell_length_b   4.54555100
_cell_length_c   9.12022800
_cell_angle_alpha   90.00000000
_cell_angle_beta   90.00021400
_cell_angle_gamma   90.00000000
_symmetry_Int_Tables_number   1
_chemical_formula_structural   TaNb4Mo8W3
_chemical_formula_sum   'Ta1 Nb4 Mo8 W3'
_cell_volume   265.87881867
_cell_formula_units_Z   1
loop_
 _symmetry_equiv_pos_site_id
 _symmetry_equiv_pos_as_xyz
  1  'x, y, z'
loop_
 _atom_site_type_symbol
 _atom_site_label
 _atom_site_symmetry_multiplicity
 _atom_site_fract_x
 _atom_site_fract_y
 _atom_site_fract_z
 _atom_site_occupancy
  Ta  Ta0  1  0.749994  0.250000  0.124995  1
  Nb  Nb1  1  0.249992  0.250000  0.125007  1
  Nb  Nb2  1  0.749993  0.750000  0.375404  1
  Nb  Nb3  1  0.250009  0.250000  0.625008  1
  Nb  Nb4  1  0.750007  0.750000  0.874587  1
  Mo  Mo5  1  0.497237  0.750000  0.124998  1
  Mo  Mo6  1  0.002748  0.750000  0.124998  1
  Mo  Mo7  1  0.498016  0.250000  0.377874  1
  Mo  Mo8  1  0.001971  0.250000  0.377875  1
  Mo  Mo9  1  0.999918  0.750000  0.624998  1
  Mo  Mo10  1  0.500095  0.750000  0.624999  1
  Mo  Mo11  1  0.001991  0.250000  0.872121  1
  Mo  Mo12  1  0.498023  0.250000  0.872122  1
  W  W13  1  0.249994  0.750000  0.375553  1
  W  W14  1  0.750006  0.250000  0.624994  1
  W  W15  1  0.250006  0.750000  0.874467  1
