# generated using pymatgen
data_NaTb5SmRhBr12
_symmetry_space_group_name_H-M   'P 1'
_cell_length_a   9.15740686
_cell_length_b   9.38306512
_cell_length_c   9.40512254
_cell_angle_alpha   106.93382154
_cell_angle_beta   106.44607027
_cell_angle_gamma   107.23940748
_symmetry_Int_Tables_number   1
_chemical_formula_structural   NaTb5SmRhBr12
_chemical_formula_sum   'Na1 Tb5 Sm1 Rh1 Br12'
_cell_volume   675.30985970
_cell_formula_units_Z   1
loop_
 _symmetry_equiv_pos_site_id
 _symmetry_equiv_pos_as_xyz
  1  'x, y, z'
loop_
 _atom_site_type_symbol
 _atom_site_label
 _atom_site_symmetry_multiplicity
 _atom_site_fract_x
 _atom_site_fract_y
 _atom_site_fract_z
 _atom_site_occupancy
  Na  Na0  1  0.498549  0.500003  0.502013  1
  Tb  Tb1  1  0.030522  0.325989  0.113198  1
  Tb  Tb2  1  0.110949  0.029915  0.322332  1
  Tb  Tb3  1  0.701408  0.896650  0.973528  1
  Tb  Tb4  1  0.972509  0.674867  0.885629  1
  Tb  Tb5  1  0.886264  0.969254  0.675457  1
  Sm  Sm6  1  0.305380  0.104608  0.026855  1
  Rh  Rh7  1  0.002264  0.000587  0.998917  1
  Br  Br8  1  0.684206  0.214031  0.073799  1
  Br  Br9  1  0.070503  0.680453  0.214463  1
  Br  Br10  1  0.215000  0.074145  0.677761  1
  Br  Br11  1  0.319465  0.779856  0.926028  1
  Br  Br12  1  0.924985  0.318442  0.783864  1
  Br  Br13  1  0.778917  0.923386  0.313854  1
  Br  Br14  1  0.450381  0.149001  0.371151  1
  Br  Br15  1  0.370133  0.454315  0.152852  1
  Br  Br16  1  0.143413  0.366555  0.448315  1
  Br  Br17  1  0.549602  0.852650  0.637274  1
  Br  Br18  1  0.633630  0.552943  0.853105  1
  Br  Br19  1  0.851919  0.632351  0.549606  1
