# generated using pymatgen
data_SmGaRu2C
_symmetry_space_group_name_H-M   'P 1'
_cell_length_a   5.90032888
_cell_length_b   5.90032778
_cell_length_c   7.35919600
_cell_angle_alpha   90.00000000
_cell_angle_beta   90.00000000
_cell_angle_gamma   140.44599302
_symmetry_Int_Tables_number   1
_chemical_formula_structural   SmGaRu2C
_chemical_formula_sum   'Sm2 Ga2 Ru4 C2'
_cell_volume   163.15086364
_cell_formula_units_Z   2
loop_
 _symmetry_equiv_pos_site_id
 _symmetry_equiv_pos_as_xyz
  1  'x, y, z'
loop_
 _atom_site_type_symbol
 _atom_site_label
 _atom_site_symmetry_multiplicity
 _atom_site_fract_x
 _atom_site_fract_y
 _atom_site_fract_z
 _atom_site_occupancy
  Sm  Sm0  1  0.546832  0.453168  0.250000  1
  Sm  Sm1  1  0.453168  0.546832  0.750000  1
  Ga  Ga2  1  0.270081  0.729919  0.250000  1
  Ga  Ga3  1  0.729919  0.270081  0.750000  1
  Ru  Ru4  1  0.836126  0.163874  0.057015  1
  Ru  Ru5  1  0.163874  0.836126  0.942985  1
  Ru  Ru6  1  0.163874  0.836126  0.557015  1
  Ru  Ru7  1  0.836126  0.163874  0.442985  1
  C  C8  1  0.000000  0.000000  0.000000  1
  C  C9  1  0.000000  0.000000  0.500000  1
