# generated using pymatgen
data_Cs2K3Rb4AlBi4
_symmetry_space_group_name_H-M   'P 1'
_cell_length_a   11.23043514
_cell_length_b   11.25822088
_cell_length_c   11.76211527
_cell_angle_alpha   89.99999823
_cell_angle_beta   89.93795053
_cell_angle_gamma   120.08182633
_symmetry_Int_Tables_number   1
_chemical_formula_structural   Cs2K3Rb4AlBi4
_chemical_formula_sum   'Cs4 K6 Rb8 Al2 Bi8'
_cell_volume   1286.83655407
_cell_formula_units_Z   2
loop_
 _symmetry_equiv_pos_site_id
 _symmetry_equiv_pos_as_xyz
  1  'x, y, z'
loop_
 _atom_site_type_symbol
 _atom_site_label
 _atom_site_symmetry_multiplicity
 _atom_site_fract_x
 _atom_site_fract_y
 _atom_site_fract_z
 _atom_site_occupancy
  Cs  Cs0  1  0.208898  0.791258  0.957086  1
  Cs  Cs1  1  0.208899  0.417639  0.957085  1
  Cs  Cs2  1  0.582457  0.791227  0.957135  1
  Cs  Cs3  1  0.418399  0.209200  0.457147  1
  K  K4  1  0.238841  0.119420  0.750137  1
  K  K5  1  0.880351  0.119502  0.749585  1
  K  K6  1  0.761341  0.880671  0.250595  1
  K  K7  1  0.118977  0.238606  0.250380  1
  K  K8  1  0.118980  0.880371  0.250380  1
  K  K9  1  0.880354  0.760852  0.749585  1
  Rb  Rb10  1  0.791223  0.582603  0.042709  1
  Rb  Rb11  1  0.791731  0.208510  0.457700  1
  Rb  Rb12  1  0.791730  0.583222  0.457699  1
  Rb  Rb13  1  0.208330  0.791108  0.542242  1
  Rb  Rb14  1  0.583095  0.791546  0.542202  1
  Rb  Rb15  1  0.417464  0.208733  0.042403  1
  Rb  Rb16  1  0.791224  0.208621  0.042708  1
  Rb  Rb17  1  0.208331  0.417221  0.542243  1
  Al  Al18  1  0.334050  0.667025  0.250976  1
  Al  Al19  1  0.666685  0.333343  0.748760  1
  Bi  Bi20  1  0.000158  0.000079  0.000040  1
  Bi  Bi21  1  0.046352  0.523176  0.251211  1
  Bi  Bi22  1  0.476273  0.952543  0.250785  1
  Bi  Bi23  1  0.524541  0.048548  0.749755  1
  Bi  Bi24  1  0.524541  0.475992  0.749755  1
  Bi  Bi25  1  0.998955  0.999477  0.499898  1
  Bi  Bi26  1  0.476273  0.523731  0.250785  1
  Bi  Bi27  1  0.951547  0.475774  0.749015  1
