# generated using pymatgen
data_Sm5Th(ZnAu5)2
_symmetry_space_group_name_H-M   'P 1'
_cell_length_a   8.58780342
_cell_length_b   8.58780498
_cell_length_c   13.58186800
_cell_angle_alpha   90.00000000
_cell_angle_beta   90.00000000
_cell_angle_gamma   127.33627872
_symmetry_Int_Tables_number   1
_chemical_formula_structural   Sm5Th(ZnAu5)2
_chemical_formula_sum   'Sm10 Th2 Zn4 Au20'
_cell_volume   796.41578022
_cell_formula_units_Z   2
loop_
 _symmetry_equiv_pos_site_id
 _symmetry_equiv_pos_as_xyz
  1  'x, y, z'
loop_
 _atom_site_type_symbol
 _atom_site_label
 _atom_site_symmetry_multiplicity
 _atom_site_fract_x
 _atom_site_fract_y
 _atom_site_fract_z
 _atom_site_occupancy
  Sm  Sm0  1  0.320087  0.679913  0.250000  1
  Sm  Sm1  1  0.679913  0.320087  0.750000  1
  Sm  Sm2  1  0.630822  0.369178  0.461445  1
  Sm  Sm3  1  0.369178  0.630822  0.538555  1
  Sm  Sm4  1  0.630822  0.369178  0.038555  1
  Sm  Sm5  1  0.369178  0.630822  0.961445  1
  Sm  Sm6  1  0.881306  0.118694  0.950669  1
  Sm  Sm7  1  0.118694  0.881306  0.049331  1
  Sm  Sm8  1  0.881306  0.118694  0.549331  1
  Sm  Sm9  1  0.118694  0.881306  0.450669  1
  Th  Th10  1  0.929413  0.070587  0.250000  1
  Th  Th11  1  0.070587  0.929413  0.750000  1
  Zn  Zn12  1  0.719400  0.280600  0.250000  1
  Zn  Zn13  1  0.280600  0.719400  0.750000  1
  Zn  Zn14  1  0.533132  0.466868  0.250000  1
  Zn  Zn15  1  0.466868  0.533132  0.750000  1
  Au  Au16  1  0.319794  0.066482  0.250000  1
  Au  Au17  1  0.066482  0.319794  0.750000  1
  Au  Au18  1  0.680206  0.933518  0.750000  1
  Au  Au19  1  0.933518  0.680206  0.250000  1
  Au  Au20  1  0.569827  0.002702  0.395765  1
  Au  Au21  1  0.002702  0.569827  0.604235  1
  Au  Au22  1  0.569827  0.002702  0.104235  1
  Au  Au23  1  0.002702  0.569827  0.895765  1
  Au  Au24  1  0.430173  0.997298  0.604235  1
  Au  Au25  1  0.997298  0.430173  0.395765  1
  Au  Au26  1  0.430173  0.997298  0.895765  1
  Au  Au27  1  0.997298  0.430173  0.104235  1
  Au  Au28  1  0.686052  0.741968  0.395006  1
  Au  Au29  1  0.741968  0.686052  0.604994  1
  Au  Au30  1  0.686052  0.741968  0.104994  1
  Au  Au31  1  0.741968  0.686052  0.895006  1
  Au  Au32  1  0.313948  0.258032  0.604994  1
  Au  Au33  1  0.258032  0.313948  0.395006  1
  Au  Au34  1  0.313948  0.258032  0.895006  1
  Au  Au35  1  0.258032  0.313948  0.104994  1
