# generated using pymatgen
data_Na5InBr8
_symmetry_space_group_name_H-M   'P 1'
_cell_length_a   7.39227385
_cell_length_b   7.39227462
_cell_length_c   8.54901500
_cell_angle_alpha   90.00000000
_cell_angle_beta   90.00000000
_cell_angle_gamma   109.37539169
_symmetry_Int_Tables_number   1
_chemical_formula_structural   Na5InBr8
_chemical_formula_sum   'Na5 In1 Br8'
_cell_volume   440.70916829
_cell_formula_units_Z   1
loop_
 _symmetry_equiv_pos_site_id
 _symmetry_equiv_pos_as_xyz
  1  'x, y, z'
loop_
 _atom_site_type_symbol
 _atom_site_label
 _atom_site_symmetry_multiplicity
 _atom_site_fract_x
 _atom_site_fract_y
 _atom_site_fract_z
 _atom_site_occupancy
  Na  Na0  1  0.500000  0.000000  0.238163  1
  Na  Na1  1  0.000000  0.500000  0.761837  1
  Na  Na2  1  0.500000  0.000000  0.761837  1
  Na  Na3  1  0.000000  0.500000  0.238163  1
  Na  Na4  1  0.500000  0.500000  0.000000  1
  In  In5  1  0.500000  0.500000  0.500000  1
  Br  Br6  1  0.275086  0.275086  0.274699  1
  Br  Br7  1  0.724914  0.724914  0.274699  1
  Br  Br8  1  0.271201  0.728799  0.500000  1
  Br  Br9  1  0.275086  0.275086  0.725301  1
  Br  Br10  1  0.724914  0.724914  0.725301  1
  Br  Br11  1  0.254426  0.745574  0.000000  1
  Br  Br12  1  0.728799  0.271201  0.500000  1
  Br  Br13  1  0.745574  0.254426  0.000000  1
