# generated using pymatgen
data_Ho4Fe15Co(P3Ru)4
_symmetry_space_group_name_H-M   'P 1'
_cell_length_a   3.71043100
_cell_length_b   10.32758696
_cell_length_c   11.83773390
_cell_angle_alpha   89.37201047
_cell_angle_beta   90.00000000
_cell_angle_gamma   90.00000000
_symmetry_Int_Tables_number   1
_chemical_formula_structural   Ho4Fe15Co(P3Ru)4
_chemical_formula_sum   'Ho4 Fe15 Co1 P12 Ru4'
_cell_volume   453.59233468
_cell_formula_units_Z   1
loop_
 _symmetry_equiv_pos_site_id
 _symmetry_equiv_pos_as_xyz
  1  'x, y, z'
loop_
 _atom_site_type_symbol
 _atom_site_label
 _atom_site_symmetry_multiplicity
 _atom_site_fract_x
 _atom_site_fract_y
 _atom_site_fract_z
 _atom_site_occupancy
  Ho  Ho0  1  0.250000  0.577985  0.703445  1
  Ho  Ho1  1  0.250000  0.915003  0.204604  1
  Ho  Ho2  1  0.750000  0.421396  0.295625  1
  Ho  Ho3  1  0.750000  0.085682  0.796084  1
  Fe  Fe4  1  0.250000  0.096687  0.988991  1
  Fe  Fe5  1  0.750000  0.591289  0.510928  1
  Fe  Fe6  1  0.750000  0.904109  0.011357  1
  Fe  Fe7  1  0.250000  0.218134  0.175314  1
  Fe  Fe8  1  0.250000  0.276833  0.673217  1
  Fe  Fe9  1  0.750000  0.783364  0.823442  1
  Fe  Fe10  1  0.750000  0.723225  0.327198  1
  Fe  Fe11  1  0.250000  0.875226  0.706213  1
  Fe  Fe12  1  0.250000  0.618371  0.202007  1
  Fe  Fe13  1  0.750000  0.123263  0.295284  1
  Fe  Fe14  1  0.750000  0.381436  0.798740  1
  Fe  Fe15  1  0.250000  0.463687  0.933475  1
  Fe  Fe16  1  0.250000  0.037399  0.432754  1
  Fe  Fe17  1  0.750000  0.536921  0.065637  1
  Fe  Fe18  1  0.750000  0.962501  0.568309  1
  Co  Co19  1  0.250000  0.406061  0.487314  1
  P  P20  1  0.250000  0.425205  0.114782  1
  P  P21  1  0.250000  0.075722  0.614634  1
  P  P22  1  0.750000  0.575289  0.884861  1
  P  P23  1  0.750000  0.924278  0.386037  1
  P  P24  1  0.250000  0.271229  0.862607  1
  P  P25  1  0.250000  0.234088  0.366900  1
  P  P26  1  0.750000  0.729486  0.137640  1
  P  P27  1  0.750000  0.762933  0.630075  1
  P  P28  1  0.250000  0.599738  0.390699  1
  P  P29  1  0.250000  0.906967  0.898021  1
  P  P30  1  0.750000  0.400630  0.610259  1
  P  P31  1  0.750000  0.094290  0.103511  1
  Ru  Ru32  1  0.250000  0.707836  0.987756  1
  Ru  Ru33  1  0.250000  0.791693  0.489867  1
  Ru  Ru34  1  0.750000  0.292972  0.012513  1
  Ru  Ru35  1  0.750000  0.209069  0.509902  1
