# generated using pymatgen
data_Gd5Co2
_symmetry_space_group_name_H-M   'P 1'
_cell_length_a   8.51554329
_cell_length_b   8.51554424
_cell_length_c   7.00952100
_cell_angle_alpha   83.58199418
_cell_angle_beta   83.58199347
_cell_angle_gamma   43.52758398
_symmetry_Int_Tables_number   1
_chemical_formula_structural   Gd5Co2
_chemical_formula_sum   'Gd10 Co4'
_cell_volume   347.51759071
_cell_formula_units_Z   2
loop_
 _symmetry_equiv_pos_site_id
 _symmetry_equiv_pos_as_xyz
  1  'x, y, z'
loop_
 _atom_site_type_symbol
 _atom_site_label
 _atom_site_symmetry_multiplicity
 _atom_site_fract_x
 _atom_site_fract_y
 _atom_site_fract_z
 _atom_site_occupancy
  Gd  Gd0  1  0.645658  0.786061  0.684943  1
  Gd  Gd1  1  0.213939  0.354342  0.815057  1
  Gd  Gd2  1  0.354342  0.213939  0.315057  1
  Gd  Gd3  1  0.786061  0.645658  0.184943  1
  Gd  Gd4  1  0.427957  0.572043  0.750000  1
  Gd  Gd5  1  0.572043  0.427957  0.250000  1
  Gd  Gd6  1  0.202113  0.986446  0.086644  1
  Gd  Gd7  1  0.013554  0.797887  0.413356  1
  Gd  Gd8  1  0.797887  0.013554  0.913356  1
  Gd  Gd9  1  0.986446  0.202113  0.586644  1
  Co  Co10  1  0.399272  0.823107  0.426638  1
  Co  Co11  1  0.176893  0.600728  0.073362  1
  Co  Co12  1  0.600728  0.176893  0.573362  1
  Co  Co13  1  0.823107  0.399272  0.926638  1
