# generated using pymatgen
data_La2GaCuPt8
_symmetry_space_group_name_H-M   'P 1'
_cell_length_a   5.28649894
_cell_length_b   5.28649796
_cell_length_c   8.89380100
_cell_angle_alpha   90.00000000
_cell_angle_beta   90.00000000
_cell_angle_gamma   116.37236098
_symmetry_Int_Tables_number   1
_chemical_formula_structural   La2GaCuPt8
_chemical_formula_sum   'La2 Ga1 Cu1 Pt8'
_cell_volume   222.68749824
_cell_formula_units_Z   1
loop_
 _symmetry_equiv_pos_site_id
 _symmetry_equiv_pos_as_xyz
  1  'x, y, z'
loop_
 _atom_site_type_symbol
 _atom_site_label
 _atom_site_symmetry_multiplicity
 _atom_site_fract_x
 _atom_site_fract_y
 _atom_site_fract_z
 _atom_site_occupancy
  La  La0  1  0.000000  0.000000  0.758638  1
  La  La1  1  0.000000  0.000000  0.241362  1
  Ga  Ga2  1  0.500000  0.500000  0.500000  1
  Cu  Cu3  1  0.500000  0.500000  0.000000  1
  Pt  Pt4  1  0.662876  0.337124  0.750026  1
  Pt  Pt5  1  0.662876  0.337124  0.249974  1
  Pt  Pt6  1  0.337124  0.662876  0.750026  1
  Pt  Pt7  1  0.500000  0.000000  0.500000  1
  Pt  Pt8  1  0.000000  0.500000  0.000000  1
  Pt  Pt9  1  0.500000  0.000000  0.000000  1
  Pt  Pt10  1  0.337124  0.662876  0.249974  1
  Pt  Pt11  1  0.000000  0.500000  0.500000  1
