# generated using pymatgen
data_Lu2HfIrF14
_symmetry_space_group_name_H-M   'P 1'
_cell_length_a   5.53166409
_cell_length_b   8.83885188
_cell_length_c   11.90610630
_cell_angle_alpha   62.75169930
_cell_angle_beta   90.00940511
_cell_angle_gamma   90.14255679
_symmetry_Int_Tables_number   1
_chemical_formula_structural   Lu2HfIrF14
_chemical_formula_sum   'Lu4 Hf2 Ir2 F28'
_cell_volume   517.53124529
_cell_formula_units_Z   2
loop_
 _symmetry_equiv_pos_site_id
 _symmetry_equiv_pos_as_xyz
  1  'x, y, z'
loop_
 _atom_site_type_symbol
 _atom_site_label
 _atom_site_symmetry_multiplicity
 _atom_site_fract_x
 _atom_site_fract_y
 _atom_site_fract_z
 _atom_site_occupancy
  Lu  Lu0  1  0.257445  0.817094  0.266418  1
  Lu  Lu1  1  0.742555  0.182906  0.733582  1
  Lu  Lu2  1  0.758642  0.183404  0.237733  1
  Lu  Lu3  1  0.241358  0.816596  0.762267  1
  Hf  Hf4  1  0.756433  0.725341  0.043876  1
  Hf  Hf5  1  0.243567  0.274659  0.956124  1
  Ir  Ir6  1  0.258700  0.272772  0.457399  1
  Ir  Ir7  1  0.741300  0.727228  0.542601  1
  F  F8  1  0.945409  0.707607  0.414438  1
  F  F9  1  0.054591  0.292393  0.585562  1
  F  F10  1  0.453951  0.290160  0.086960  1
  F  F11  1  0.546049  0.709840  0.913040  1
  F  F12  1  0.469753  0.730245  0.145638  1
  F  F13  1  0.530247  0.269755  0.854362  1
  F  F14  1  0.969415  0.268243  0.361471  1
  F  F15  1  0.030585  0.731757  0.638529  1
  F  F16  1  0.962122  0.746318  0.176238  1
  F  F17  1  0.037878  0.253682  0.823762  1
  F  F18  1  0.458514  0.253266  0.326479  1
  F  F19  1  0.541486  0.746734  0.673521  1
  F  F20  1  0.775443  0.471678  0.143149  1
  F  F21  1  0.224557  0.528322  0.856851  1
  F  F22  1  0.267742  0.519426  0.360692  1
  F  F23  1  0.732258  0.480574  0.639308  1
  F  F24  1  0.938696  0.275068  0.050152  1
  F  F25  1  0.061304  0.724932  0.949848  1
  F  F26  1  0.443311  0.721018  0.451803  1
  F  F27  1  0.556689  0.278982  0.548197  1
  F  F28  1  0.739971  0.974319  0.448824  1
  F  F29  1  0.260029  0.025681  0.551176  1
  F  F30  1  0.239425  0.020937  0.058120  1
  F  F31  1  0.760575  0.979063  0.941880  1
  F  F32  1  0.580145  0.972189  0.232837  1
  F  F33  1  0.419855  0.027811  0.767163  1
  F  F34  1  0.079014  0.029186  0.267892  1
  F  F35  1  0.920986  0.970814  0.732108  1
