# generated using pymatgen
data_Sc12Ni4SnRh
_symmetry_space_group_name_H-M   'P 1'
_cell_length_a   7.75255633
_cell_length_b   7.75255760
_cell_length_c   7.75255626
_cell_angle_alpha   111.29165267
_cell_angle_beta   111.23624323
_cell_angle_gamma   105.94236319
_symmetry_Int_Tables_number   1
_chemical_formula_structural   Sc12Ni4SnRh
_chemical_formula_sum   'Sc12 Ni4 Sn1 Rh1'
_cell_volume   357.67233966
_cell_formula_units_Z   1
loop_
 _symmetry_equiv_pos_site_id
 _symmetry_equiv_pos_as_xyz
  1  'x, y, z'
loop_
 _atom_site_type_symbol
 _atom_site_label
 _atom_site_symmetry_multiplicity
 _atom_site_fract_x
 _atom_site_fract_y
 _atom_site_fract_z
 _atom_site_occupancy
  Sc  Sc0  1  0.419913  0.223039  0.196872  1
  Sc  Sc1  1  0.580087  0.776961  0.803128  1
  Sc  Sc2  1  0.026167  0.223039  0.803128  1
  Sc  Sc3  1  0.973833  0.776961  0.196872  1
  Sc  Sc4  1  0.183506  0.284486  0.467993  1
  Sc  Sc5  1  0.816494  0.715514  0.532007  1
  Sc  Sc6  1  0.183506  0.715514  0.899019  1
  Sc  Sc7  1  0.816494  0.284486  0.100981  1
  Sc  Sc8  1  0.319450  0.619378  0.299928  1
  Sc  Sc9  1  0.680550  0.380622  0.700072  1
  Sc  Sc10  1  0.319450  0.019522  0.700072  1
  Sc  Sc11  1  0.680550  0.980478  0.299928  1
  Ni  Ni12  1  0.355919  0.000000  0.355919  1
  Ni  Ni13  1  0.644081  0.000000  0.644081  1
  Ni  Ni14  1  0.127388  0.627388  0.500000  1
  Ni  Ni15  1  0.872612  0.372612  0.500000  1
  Sn  Sn16  1  0.500000  0.500000  0.000000  1
  Rh  Rh17  1  0.000000  0.000000  0.000000  1
