# generated using pymatgen
data_TbPr9Si5Au
_symmetry_space_group_name_H-M   'P 1'
_cell_length_a   7.75722106
_cell_length_b   7.75722115
_cell_length_c   9.10009971
_cell_angle_alpha   115.22768181
_cell_angle_beta   115.22767968
_cell_angle_gamma   89.99999575
_symmetry_Int_Tables_number   1
_chemical_formula_structural   TbPr9Si5Au
_chemical_formula_sum   'Tb1 Pr9 Si5 Au1'
_cell_volume   436.93700650
_cell_formula_units_Z   1
loop_
 _symmetry_equiv_pos_site_id
 _symmetry_equiv_pos_as_xyz
  1  'x, y, z'
loop_
 _atom_site_type_symbol
 _atom_site_label
 _atom_site_symmetry_multiplicity
 _atom_site_fract_x
 _atom_site_fract_y
 _atom_site_fract_z
 _atom_site_occupancy
  Tb  Tb0  1  0.481498  0.481498  0.962995  1
  Pr  Pr1  1  0.023128  0.023128  0.046257  1
  Pr  Pr2  1  0.960637  0.814162  0.285592  1
  Pr  Pr3  1  0.324955  0.471430  0.285592  1
  Pr  Pr4  1  0.814162  0.324955  0.285592  1
  Pr  Pr5  1  0.471430  0.960637  0.285592  1
  Pr  Pr6  1  0.030589  0.174792  0.713509  1
  Pr  Pr7  1  0.682919  0.538717  0.713509  1
  Pr  Pr8  1  0.174792  0.682919  0.713509  1
  Pr  Pr9  1  0.538717  0.030589  0.713509  1
  Si  Si10  1  0.253877  0.253877  0.507754  1
  Si  Si11  1  0.612227  0.880466  0.997511  1
  Si  Si12  1  0.385284  0.117045  0.997511  1
  Si  Si13  1  0.880466  0.385284  0.997511  1
  Si  Si14  1  0.117045  0.612227  0.997511  1
  Au  Au15  1  0.748275  0.748275  0.496549  1
