# generated using pymatgen
data_TlI31
_symmetry_space_group_name_H-M   'P 1'
_cell_length_a   9.06740700
_cell_length_b   10.57322472
_cell_length_c   20.69655400
_cell_angle_alpha   84.98879561
_cell_angle_beta   90.00000000
_cell_angle_gamma   90.00000000
_symmetry_Int_Tables_number   1
_chemical_formula_structural   TlI31
_chemical_formula_sum   'Tl1 I31'
_cell_volume   1976.63008388
_cell_formula_units_Z   1
loop_
 _symmetry_equiv_pos_site_id
 _symmetry_equiv_pos_as_xyz
  1  'x, y, z'
loop_
 _atom_site_type_symbol
 _atom_site_label
 _atom_site_symmetry_multiplicity
 _atom_site_fract_x
 _atom_site_fract_y
 _atom_site_fract_z
 _atom_site_occupancy
  Tl  Tl0  1  0.750000  0.843762  0.198951  1
  I  I1  1  0.750000  0.325323  0.336076  1
  I  I2  1  0.250000  0.708353  0.648586  1
  I  I3  1  0.250000  0.179080  0.825395  1
  I  I4  1  0.250000  0.303608  0.167390  1
  I  I5  1  0.750000  0.010167  0.747656  1
  I  I6  1  0.750000  0.733448  0.349380  1
  I  I7  1  0.590645  0.646577  0.103564  1
  I  I8  1  0.250000  0.517533  0.274594  1
  I  I9  1  0.502107  0.853772  0.588767  1
  I  I10  1  0.250000  0.774455  0.797482  1
  I  I11  1  0.250000  0.024730  0.446968  1
  I  I12  1  0.750000  0.593002  0.466995  1
  I  I13  1  0.501597  0.295731  0.889194  1
  I  I14  1  0.250000  0.808323  0.927868  1
  I  I15  1  0.750000  0.204091  0.205740  1
  I  I16  1  0.494033  0.173560  0.394091  1
  I  I17  1  0.750000  0.270663  0.676706  1
  I  I18  1  0.250000  0.731334  0.343612  1
  I  I19  1  0.005967  0.173560  0.394091  1
  I  I20  1  0.750000  0.995106  0.529912  1
  I  I21  1  0.909355  0.646577  0.103564  1
  I  I22  1  0.250000  0.053674  0.231052  1
  I  I23  1  0.750000  0.081479  0.089978  1
  I  I24  1  0.750000  0.748444  0.804214  1
  I  I25  1  0.750000  0.513746  0.732829  1
  I  I26  1  0.250000  0.554899  0.076131  1
  I  I27  1  0.997893  0.853772  0.588767  1
  I  I28  1  0.750000  0.413022  0.950515  1
  I  I29  1  0.250000  0.378343  0.545293  1
  I  I30  1  0.250000  0.294137  0.675443  1
  I  I31  1  0.998403  0.295731  0.889194  1
