# generated using pymatgen
data_Lu(Hf3Sn2)3
_symmetry_space_group_name_H-M   'P 1'
_cell_length_a   8.52076347
_cell_length_b   8.52076446
_cell_length_c   5.75749000
_cell_angle_alpha   90.00000000
_cell_angle_beta   90.00000000
_cell_angle_gamma   120.64853491
_symmetry_Int_Tables_number   1
_chemical_formula_structural   Lu(Hf3Sn2)3
_chemical_formula_sum   'Lu1 Hf9 Sn6'
_cell_volume   359.62137028
_cell_formula_units_Z   1
loop_
 _symmetry_equiv_pos_site_id
 _symmetry_equiv_pos_as_xyz
  1  'x, y, z'
loop_
 _atom_site_type_symbol
 _atom_site_label
 _atom_site_symmetry_multiplicity
 _atom_site_fract_x
 _atom_site_fract_y
 _atom_site_fract_z
 _atom_site_occupancy
  Lu  Lu0  1  0.765331  0.765331  0.750000  1
  Hf  Hf1  1  0.248667  0.001265  0.750000  1
  Hf  Hf2  1  0.001265  0.248667  0.750000  1
  Hf  Hf3  1  0.236787  0.236787  0.250000  1
  Hf  Hf4  1  0.753413  0.000802  0.250000  1
  Hf  Hf5  1  0.000802  0.753413  0.250000  1
  Hf  Hf6  1  0.665340  0.332719  0.000460  1
  Hf  Hf7  1  0.332719  0.665340  0.000460  1
  Hf  Hf8  1  0.332719  0.665340  0.499540  1
  Hf  Hf9  1  0.665340  0.332719  0.499540  1
  Sn  Sn10  1  0.391755  0.391755  0.750000  1
  Sn  Sn11  1  0.606015  0.001510  0.750000  1
  Sn  Sn12  1  0.001510  0.606015  0.750000  1
  Sn  Sn13  1  0.606597  0.606597  0.250000  1
  Sn  Sn14  1  0.392166  0.999576  0.250000  1
  Sn  Sn15  1  0.999576  0.392166  0.250000  1
