# generated using pymatgen
data_SrBi3RuRh3O14
_symmetry_space_group_name_H-M   'P 1'
_cell_length_a   7.41187540
_cell_length_b   7.33341115
_cell_length_c   7.41187535
_cell_angle_alpha   59.41588917
_cell_angle_beta   59.88931865
_cell_angle_gamma   59.41588713
_symmetry_Int_Tables_number   1
_chemical_formula_structural   SrBi3RuRh3O14
_chemical_formula_sum   'Sr1 Bi3 Ru1 Rh3 O14'
_cell_volume   282.09665342
_cell_formula_units_Z   1
loop_
 _symmetry_equiv_pos_site_id
 _symmetry_equiv_pos_as_xyz
  1  'x, y, z'
loop_
 _atom_site_type_symbol
 _atom_site_label
 _atom_site_symmetry_multiplicity
 _atom_site_fract_x
 _atom_site_fract_y
 _atom_site_fract_z
 _atom_site_occupancy
  Sr  Sr0  1  0.125000  0.625000  0.125000  1
  Bi  Bi1  1  0.125000  0.125000  0.125000  1
  Bi  Bi2  1  0.625000  0.125000  0.125000  1
  Bi  Bi3  1  0.125000  0.125000  0.625000  1
  Ru  Ru4  1  0.625000  0.625000  0.625000  1
  Rh  Rh5  1  0.625000  0.625000  0.125000  1
  Rh  Rh6  1  0.125000  0.625000  0.625000  1
  Rh  Rh7  1  0.625000  0.125000  0.625000  1
  O  O8  1  0.256683  0.230153  0.256683  1
  O  O9  1  0.293612  0.711199  0.293612  1
  O  O10  1  0.954762  0.958161  0.545447  1
  O  O11  1  0.546792  0.953292  0.546792  1
  O  O12  1  0.692595  0.709073  0.302615  1
  O  O13  1  0.947385  0.540927  0.557405  1
  O  O14  1  0.703208  0.296708  0.703208  1
  O  O15  1  0.295238  0.291839  0.704553  1
  O  O16  1  0.704553  0.291839  0.295238  1
  O  O17  1  0.302615  0.709073  0.692595  1
  O  O18  1  0.956388  0.538801  0.956388  1
  O  O19  1  0.557405  0.540927  0.947385  1
  O  O20  1  0.993317  0.019847  0.993317  1
  O  O21  1  0.545447  0.958161  0.954762  1
