# generated using pymatgen
data_PrMg4UCu18
_symmetry_space_group_name_H-M   'P 1'
_cell_length_a   5.04487104
_cell_length_b   5.06740194
_cell_length_c   16.11112612
_cell_angle_alpha   89.94851723
_cell_angle_beta   89.98289883
_cell_angle_gamma   120.55033200
_symmetry_Int_Tables_number   1
_chemical_formula_structural   PrMg4UCu18
_chemical_formula_sum   'Pr1 Mg4 U1 Cu18'
_cell_volume   354.69609988
_cell_formula_units_Z   1
loop_
 _symmetry_equiv_pos_site_id
 _symmetry_equiv_pos_as_xyz
  1  'x, y, z'
loop_
 _atom_site_type_symbol
 _atom_site_label
 _atom_site_symmetry_multiplicity
 _atom_site_fract_x
 _atom_site_fract_y
 _atom_site_fract_z
 _atom_site_occupancy
  Pr  Pr0  1  0.333577  0.666798  0.749990  1
  Mg  Mg1  1  0.666497  0.333375  0.035337  1
  Mg  Mg2  1  0.666496  0.333347  0.464705  1
  Mg  Mg3  1  0.333512  0.666638  0.528742  1
  Mg  Mg4  1  0.333523  0.666668  0.971274  1
  U  U5  1  0.666726  0.333246  0.250045  1
  Cu  Cu6  1  0.999973  0.999939  0.001476  1
  Cu  Cu7  1  0.167581  0.335711  0.124441  1
  Cu  Cu8  1  0.167658  0.832048  0.124582  1
  Cu  Cu9  1  0.664191  0.832268  0.124403  1
  Cu  Cu10  1  0.999877  0.000095  0.250040  1
  Cu  Cu11  1  0.333385  0.666394  0.250050  1
  Cu  Cu12  1  0.167590  0.335662  0.375605  1
  Cu  Cu13  1  0.167696  0.832039  0.375501  1
  Cu  Cu14  1  0.664188  0.832258  0.375675  1
  Cu  Cu15  1  0.999976  0.999924  0.498518  1
  Cu  Cu16  1  0.335914  0.167902  0.621175  1
  Cu  Cu17  1  0.832232  0.167909  0.621201  1
  Cu  Cu18  1  0.832322  0.664239  0.621205  1
  Cu  Cu19  1  0.000437  0.000132  0.749927  1
  Cu  Cu20  1  0.666328  0.333485  0.749924  1
  Cu  Cu21  1  0.335857  0.167808  0.878725  1
  Cu  Cu22  1  0.832205  0.167894  0.878730  1
  Cu  Cu23  1  0.832265  0.664230  0.878729  1
