# generated using pymatgen
data_CaLu(ZnGa)2
_symmetry_space_group_name_H-M   'P 1'
_cell_length_a   4.47812400
_cell_length_b   4.47812301
_cell_length_c   7.12617500
_cell_angle_alpha   90.00000000
_cell_angle_beta   90.00000000
_cell_angle_gamma   120.00000733
_symmetry_Int_Tables_number   1
_chemical_formula_structural   CaLu(ZnGa)2
_chemical_formula_sum   'Ca1 Lu1 Zn2 Ga2'
_cell_volume   123.75969116
_cell_formula_units_Z   1
loop_
 _symmetry_equiv_pos_site_id
 _symmetry_equiv_pos_as_xyz
  1  'x, y, z'
loop_
 _atom_site_type_symbol
 _atom_site_label
 _atom_site_symmetry_multiplicity
 _atom_site_fract_x
 _atom_site_fract_y
 _atom_site_fract_z
 _atom_site_occupancy
  Ca  Ca0  1  0.000000  0.000000  0.500000  1
  Lu  Lu1  1  0.000000  0.000000  0.000000  1
  Zn  Zn2  1  0.333333  0.666667  0.782699  1
  Zn  Zn3  1  0.666667  0.333333  0.217301  1
  Ga  Ga4  1  0.333333  0.666667  0.214654  1
  Ga  Ga5  1  0.666667  0.333333  0.785346  1
