# generated using pymatgen
data_Ho6Th2Mg2FeCo
_symmetry_space_group_name_H-M   'P 1'
_cell_length_a   9.60400345
_cell_length_b   9.60400278
_cell_length_c   9.63398200
_cell_angle_alpha   59.89668666
_cell_angle_beta   59.89668899
_cell_angle_gamma   59.80231628
_symmetry_Int_Tables_number   1
_chemical_formula_structural   Ho6Th2Mg2FeCo
_chemical_formula_sum   'Ho12 Th4 Mg4 Fe2 Co2'
_cell_volume   626.41833603
_cell_formula_units_Z   2
loop_
 _symmetry_equiv_pos_site_id
 _symmetry_equiv_pos_as_xyz
  1  'x, y, z'
loop_
 _atom_site_type_symbol
 _atom_site_label
 _atom_site_symmetry_multiplicity
 _atom_site_fract_x
 _atom_site_fract_y
 _atom_site_fract_z
 _atom_site_occupancy
  Ho  Ho0  1  0.814339  0.185975  0.186596  1
  Ho  Ho1  1  0.185975  0.814339  0.813090  1
  Ho  Ho2  1  0.185975  0.814339  0.186596  1
  Ho  Ho3  1  0.814339  0.185975  0.813090  1
  Ho  Ho4  1  0.186383  0.186383  0.813617  1
  Ho  Ho5  1  0.813831  0.813831  0.186169  1
  Ho  Ho6  1  0.935939  0.562717  0.565533  1
  Ho  Ho7  1  0.562717  0.935939  0.935812  1
  Ho  Ho8  1  0.562717  0.935939  0.565533  1
  Ho  Ho9  1  0.935939  0.562717  0.935812  1
  Ho  Ho10  1  0.564258  0.564258  0.935742  1
  Ho  Ho11  1  0.935933  0.935933  0.564067  1
  Th  Th12  1  0.343156  0.343156  0.345972  1
  Th  Th13  1  0.343156  0.343156  0.967718  1
  Th  Th14  1  0.342184  0.968481  0.344669  1
  Th  Th15  1  0.968481  0.342184  0.344669  1
  Mg  Mg16  1  0.579324  0.579324  0.580962  1
  Mg  Mg17  1  0.579324  0.579324  0.260387  1
  Mg  Mg18  1  0.579313  0.259425  0.580630  1
  Mg  Mg19  1  0.259425  0.579313  0.580630  1
  Fe  Fe20  1  0.146750  0.146750  0.143524  1
  Fe  Fe21  1  0.146750  0.146750  0.562975  1
  Co  Co22  1  0.145412  0.568380  0.143103  1
  Co  Co23  1  0.568380  0.145412  0.143103  1
