# generated using pymatgen
data_Pr6Al24Ir3Ru4Rh
_symmetry_space_group_name_H-M   'P 1'
_cell_length_a   8.91749700
_cell_length_b   8.92894940
_cell_length_c   9.69105713
_cell_angle_alpha   89.89655925
_cell_angle_beta   90.00000000
_cell_angle_gamma   119.95757682
_symmetry_Int_Tables_number   1
_chemical_formula_structural   Pr6Al24Ir3Ru4Rh
_chemical_formula_sum   'Pr6 Al24 Ir3 Ru4 Rh1'
_cell_volume   668.54350150
_cell_formula_units_Z   1
loop_
 _symmetry_equiv_pos_site_id
 _symmetry_equiv_pos_as_xyz
  1  'x, y, z'
loop_
 _atom_site_type_symbol
 _atom_site_label
 _atom_site_symmetry_multiplicity
 _atom_site_fract_x
 _atom_site_fract_y
 _atom_site_fract_z
 _atom_site_occupancy
  Pr  Pr0  1  0.191344  0.382689  0.250502  1
  Pr  Pr1  1  0.808656  0.617311  0.749498  1
  Pr  Pr2  1  0.619063  0.809360  0.250090  1
  Pr  Pr3  1  0.380937  0.190640  0.749910  1
  Pr  Pr4  1  0.190297  0.809360  0.250090  1
  Pr  Pr5  1  0.809703  0.190640  0.749910  1
  Al  Al6  1  0.333516  0.667031  0.017070  1
  Al  Al7  1  0.666484  0.332969  0.982930  1
  Al  Al8  1  0.667399  0.334796  0.516361  1
  Al  Al9  1  0.332601  0.665204  0.483639  1
  Al  Al10  1  0.163757  0.327513  0.575674  1
  Al  Al11  1  0.836243  0.672487  0.424326  1
  Al  Al12  1  0.673381  0.834868  0.575755  1
  Al  Al13  1  0.836938  0.673875  0.075135  1
  Al  Al14  1  0.326619  0.165132  0.424245  1
  Al  Al15  1  0.163062  0.326125  0.924865  1
  Al  Al16  1  0.161488  0.834868  0.575755  1
  Al  Al17  1  0.326085  0.163144  0.075313  1
  Al  Al18  1  0.838512  0.165132  0.424245  1
  Al  Al19  1  0.673915  0.836856  0.924687  1
  Al  Al20  1  0.837059  0.163144  0.075313  1
  Al  Al21  1  0.162941  0.836856  0.924687  1
  Al  Al22  1  0.562973  0.125945  0.249470  1
  Al  Al23  1  0.437027  0.874055  0.750530  1
  Al  Al24  1  0.873990  0.437596  0.250610  1
  Al  Al25  1  0.126010  0.562404  0.749390  1
  Al  Al26  1  0.563605  0.437596  0.250610  1
  Al  Al27  1  0.436395  0.562404  0.749390  1
  Al  Al28  1  0.000419  0.000838  0.249921  1
  Al  Al29  1  0.999581  0.999162  0.750079  1
  Ir  Ir30  1  0.500000  0.000000  0.000000  1
  Ir  Ir31  1  0.000000  0.500000  0.000000  1
  Ir  Ir32  1  0.500000  0.500000  0.000000  1
  Ru  Ru33  1  0.000000  0.500000  0.500000  1
  Ru  Ru34  1  0.500000  0.500000  0.500000  1
  Ru  Ru35  1  0.000000  0.000000  0.000000  1
  Ru  Ru36  1  0.000000  0.000000  0.500000  1
  Rh  Rh37  1  0.500000  0.000000  0.500000  1
