# generated using pymatgen
data_ThNiBN
_symmetry_space_group_name_H-M   'P 1'
_cell_length_a   3.66785000
_cell_length_b   3.66785000
_cell_length_c   7.58888300
_cell_angle_alpha   90.00000000
_cell_angle_beta   90.00000000
_cell_angle_gamma   90.00000000
_symmetry_Int_Tables_number   1
_chemical_formula_structural   ThNiBN
_chemical_formula_sum   'Th2 Ni2 B2 N2'
_cell_volume   102.09418116
_cell_formula_units_Z   2
loop_
 _symmetry_equiv_pos_site_id
 _symmetry_equiv_pos_as_xyz
  1  'x, y, z'
loop_
 _atom_site_type_symbol
 _atom_site_label
 _atom_site_symmetry_multiplicity
 _atom_site_fract_x
 _atom_site_fract_y
 _atom_site_fract_z
 _atom_site_occupancy
  Th  Th0  1  0.000000  0.500000  0.320098  1
  Th  Th1  1  0.500000  0.000000  0.679902  1
  Ni  Ni2  1  0.000000  0.000000  0.000000  1
  Ni  Ni3  1  0.500000  0.500000  0.000000  1
  B  B4  1  0.000000  0.500000  0.848368  1
  B  B5  1  0.500000  0.000000  0.151632  1
  N  N6  1  0.000000  0.500000  0.649120  1
  N  N7  1  0.500000  0.000000  0.350880  1
