# generated using pymatgen
data_TbEr2Al3SiAu2
_symmetry_space_group_name_H-M   'P 1'
_cell_length_a   6.99955080
_cell_length_b   7.01944236
_cell_length_c   4.30608300
_cell_angle_alpha   90.00000000
_cell_angle_beta   90.00000000
_cell_angle_gamma   120.27489567
_symmetry_Int_Tables_number   1
_chemical_formula_structural   TbEr2Al3SiAu2
_chemical_formula_sum   'Tb1 Er2 Al3 Si1 Au2'
_cell_volume   182.71580859
_cell_formula_units_Z   1
loop_
 _symmetry_equiv_pos_site_id
 _symmetry_equiv_pos_as_xyz
  1  'x, y, z'
loop_
 _atom_site_type_symbol
 _atom_site_label
 _atom_site_symmetry_multiplicity
 _atom_site_fract_x
 _atom_site_fract_y
 _atom_site_fract_z
 _atom_site_occupancy
  Tb  Tb0  1  0.426001  0.421700  0.500000  1
  Er  Er1  1  0.578596  0.002740  0.500000  1
  Er  Er2  1  0.999199  0.577276  0.500000  1
  Al  Al3  1  0.751988  0.758837  0.000000  1
  Al  Al4  1  0.242265  0.994558  0.000000  1
  Al  Al5  1  0.004902  0.247916  0.000000  1
  Si  Si6  1  0.668318  0.331773  0.000000  1
  Au  Au7  1  0.332095  0.668821  0.000000  1
  Au  Au8  1  0.996633  0.996381  0.500000  1
