# generated using pymatgen
data_Y7Ho3(In2Au)4
_symmetry_space_group_name_H-M   'P 1'
_cell_length_a   3.66646600
_cell_length_b   8.24300820
_cell_length_c   18.40157101
_cell_angle_alpha   89.96842843
_cell_angle_beta   90.00000000
_cell_angle_gamma   90.00000000
_symmetry_Int_Tables_number   1
_chemical_formula_structural   Y7Ho3(In2Au)4
_chemical_formula_sum   'Y7 Ho3 In8 Au4'
_cell_volume   556.14524682
_cell_formula_units_Z   1
loop_
 _symmetry_equiv_pos_site_id
 _symmetry_equiv_pos_as_xyz
  1  'x, y, z'
loop_
 _atom_site_type_symbol
 _atom_site_label
 _atom_site_symmetry_multiplicity
 _atom_site_fract_x
 _atom_site_fract_y
 _atom_site_fract_z
 _atom_site_occupancy
  Y  Y0  1  0.000000  0.499773  0.500134  1
  Y  Y1  1  0.000000  0.000879  0.999666  1
  Y  Y2  1  0.000000  0.734823  0.284004  1
  Y  Y3  1  0.000000  0.264983  0.716163  1
  Y  Y4  1  0.000000  0.764993  0.783272  1
  Y  Y5  1  0.000000  0.235084  0.216865  1
  Y  Y6  1  0.000000  0.621042  0.079217  1
  Ho  Ho7  1  0.000000  0.379504  0.919596  1
  Ho  Ho8  1  0.000000  0.879685  0.580085  1
  Ho  Ho9  1  0.000000  0.120010  0.420113  1
  In  In10  1  0.500000  0.708693  0.933370  1
  In  In11  1  0.500000  0.291147  0.066222  1
  In  In12  1  0.500000  0.791565  0.434277  1
  In  In13  1  0.500000  0.207839  0.565798  1
  In  In14  1  0.500000  0.581290  0.647273  1
  In  In15  1  0.500000  0.418523  0.353017  1
  In  In16  1  0.500000  0.919599  0.147726  1
  In  In17  1  0.500000  0.081064  0.852315  1
  Au  Au18  1  0.500000  0.526044  0.196842  1
  Au  Au19  1  0.500000  0.473429  0.803850  1
  Au  Au20  1  0.500000  0.973607  0.695542  1
  Au  Au21  1  0.500000  0.026426  0.304652  1
