# generated using pymatgen
data_Tb8MnIrI8
_symmetry_space_group_name_H-M   'P 1'
_cell_length_a   11.28127206
_cell_length_b   11.28127431
_cell_length_c   6.14984100
_cell_angle_alpha   90.00599303
_cell_angle_beta   90.00599303
_cell_angle_gamma   90.02691214
_symmetry_Int_Tables_number   1
_chemical_formula_structural   Tb8MnIrI8
_chemical_formula_sum   'Tb8 Mn1 Ir1 I8'
_cell_volume   782.67248623
_cell_formula_units_Z   1
loop_
 _symmetry_equiv_pos_site_id
 _symmetry_equiv_pos_as_xyz
  1  'x, y, z'
loop_
 _atom_site_type_symbol
 _atom_site_label
 _atom_site_symmetry_multiplicity
 _atom_site_fract_x
 _atom_site_fract_y
 _atom_site_fract_z
 _atom_site_occupancy
  Tb  Tb0  1  0.801583  0.081469  0.005547  1
  Tb  Tb1  1  0.081466  0.801590  0.494952  1
  Tb  Tb2  1  0.081342  0.198245  0.005511  1
  Tb  Tb3  1  0.198236  0.081351  0.494884  1
  Tb  Tb4  1  0.918649  0.801764  0.005116  1
  Tb  Tb5  1  0.918531  0.198417  0.494453  1
  Tb  Tb6  1  0.198410  0.918534  0.005048  1
  Tb  Tb7  1  0.801755  0.918658  0.494489  1
  Mn  Mn8  1  0.000016  0.999984  0.250000  1
  Ir  Ir9  1  0.999963  0.000037  0.750000  1
  I  I10  1  0.643236  0.149869  0.496506  1
  I  I11  1  0.850374  0.643330  0.501860  1
  I  I12  1  0.356670  0.149626  0.998140  1
  I  I13  1  0.149695  0.356679  0.496333  1
  I  I14  1  0.643321  0.850305  0.003667  1
  I  I15  1  0.356762  0.850139  0.501690  1
  I  I16  1  0.149861  0.643238  0.998310  1
  I  I17  1  0.850131  0.356764  0.003494  1
