# generated using pymatgen
data_Zr10AlPb6Au
_symmetry_space_group_name_H-M   'P 1'
_cell_length_a   8.86037300
_cell_length_b   8.86037353
_cell_length_c   6.03486300
_cell_angle_alpha   90.00000000
_cell_angle_beta   90.00000000
_cell_angle_gamma   119.99999431
_symmetry_Int_Tables_number   1
_chemical_formula_structural   Zr10AlPb6Au
_chemical_formula_sum   'Zr10 Al1 Pb6 Au1'
_cell_volume   410.30055819
_cell_formula_units_Z   1
loop_
 _symmetry_equiv_pos_site_id
 _symmetry_equiv_pos_as_xyz
  1  'x, y, z'
loop_
 _atom_site_type_symbol
 _atom_site_label
 _atom_site_symmetry_multiplicity
 _atom_site_fract_x
 _atom_site_fract_y
 _atom_site_fract_z
 _atom_site_occupancy
  Zr  Zr0  1  0.666667  0.333333  0.000000  1
  Zr  Zr1  1  0.333333  0.666667  0.000000  1
  Zr  Zr2  1  0.333333  0.666667  0.500000  1
  Zr  Zr3  1  0.666667  0.333333  0.500000  1
  Zr  Zr4  1  0.732299  0.732299  0.739498  1
  Zr  Zr5  1  0.267701  0.000000  0.739498  1
  Zr  Zr6  1  0.000000  0.267701  0.739498  1
  Zr  Zr7  1  0.267701  0.267701  0.260502  1
  Zr  Zr8  1  0.732299  0.000000  0.260502  1
  Zr  Zr9  1  0.000000  0.732299  0.260502  1
  Al  Al10  1  0.000000  0.000000  0.500000  1
  Pb  Pb11  1  0.386476  0.386476  0.753017  1
  Pb  Pb12  1  0.613524  0.000000  0.753017  1
  Pb  Pb13  1  0.000000  0.613524  0.753017  1
  Pb  Pb14  1  0.613524  0.613524  0.246983  1
  Pb  Pb15  1  0.386476  0.000000  0.246983  1
  Pb  Pb16  1  0.000000  0.386476  0.246983  1
  Au  Au17  1  0.000000  0.000000  0.000000  1
