# generated using pymatgen
data_Rb2Sb4Te7
_symmetry_space_group_name_H-M   'P 1'
_cell_length_a   4.43752500
_cell_length_b   13.88924158
_cell_length_c   16.17108123
_cell_angle_alpha   86.01506017
_cell_angle_beta   90.00000000
_cell_angle_gamma   90.00000000
_symmetry_Int_Tables_number   1
_chemical_formula_structural   Rb2Sb4Te7
_chemical_formula_sum   'Rb4 Sb8 Te14'
_cell_volume   994.27646678
_cell_formula_units_Z   2
loop_
 _symmetry_equiv_pos_site_id
 _symmetry_equiv_pos_as_xyz
  1  'x, y, z'
loop_
 _atom_site_type_symbol
 _atom_site_label
 _atom_site_symmetry_multiplicity
 _atom_site_fract_x
 _atom_site_fract_y
 _atom_site_fract_z
 _atom_site_occupancy
  Rb  Rb0  1  0.250000  0.568870  0.811832  1
  Rb  Rb1  1  0.750000  0.431130  0.188168  1
  Rb  Rb2  1  0.750000  0.825207  0.625959  1
  Rb  Rb3  1  0.250000  0.174793  0.374041  1
  Sb  Sb4  1  0.250000  0.948331  0.877405  1
  Sb  Sb5  1  0.750000  0.051669  0.122595  1
  Sb  Sb6  1  0.250000  0.830938  0.274460  1
  Sb  Sb7  1  0.750000  0.169062  0.725540  1
  Sb  Sb8  1  0.750000  0.732913  0.050077  1
  Sb  Sb9  1  0.250000  0.267087  0.949923  1
  Sb  Sb10  1  0.750000  0.609312  0.430970  1
  Sb  Sb11  1  0.250000  0.390688  0.569030  1
  Te  Te12  1  0.250000  0.459214  0.389939  1
  Te  Te13  1  0.750000  0.540786  0.610061  1
  Te  Te14  1  0.250000  0.592433  0.036913  1
  Te  Te15  1  0.750000  0.407567  0.963087  1
  Te  Te16  1  0.750000  0.987835  0.300196  1
  Te  Te17  1  0.250000  0.012165  0.699804  1
  Te  Te18  1  0.750000  0.795246  0.860650  1
  Te  Te19  1  0.250000  0.204754  0.139350  1
  Te  Te20  1  0.250000  0.759766  0.456324  1
  Te  Te21  1  0.750000  0.240234  0.543676  1
  Te  Te22  1  0.750000  0.687626  0.240542  1
  Te  Te23  1  0.250000  0.312374  0.759458  1
  Te  Te24  1  0.250000  0.900894  0.083742  1
  Te  Te25  1  0.750000  0.099106  0.916258  1
