# generated using pymatgen
data_Dy3ErAl2(HgPt2)2
_symmetry_space_group_name_H-M   'P 1'
_cell_length_a   4.19993500
_cell_length_b   7.13011450
_cell_length_c   8.40065557
_cell_angle_alpha   93.69178907
_cell_angle_beta   90.00000000
_cell_angle_gamma   90.00000000
_symmetry_Int_Tables_number   1
_chemical_formula_structural   Dy3ErAl2(HgPt2)2
_chemical_formula_sum   'Dy3 Er1 Al2 Hg2 Pt4'
_cell_volume   251.04414214
_cell_formula_units_Z   1
loop_
 _symmetry_equiv_pos_site_id
 _symmetry_equiv_pos_as_xyz
  1  'x, y, z'
loop_
 _atom_site_type_symbol
 _atom_site_label
 _atom_site_symmetry_multiplicity
 _atom_site_fract_x
 _atom_site_fract_y
 _atom_site_fract_z
 _atom_site_occupancy
  Dy  Dy0  1  0.250000  0.458708  0.186966  1
  Dy  Dy1  1  0.750000  0.541583  0.813080  1
  Dy  Dy2  1  0.750000  0.037206  0.684838  1
  Er  Er3  1  0.250000  0.961583  0.315279  1
  Al  Al4  1  0.750000  0.637736  0.439421  1
  Al  Al5  1  0.250000  0.361729  0.559965  1
  Hg  Hg6  1  0.250000  0.853687  0.934126  1
  Hg  Hg7  1  0.750000  0.145742  0.066553  1
  Pt  Pt8  1  0.250000  0.733218  0.594737  1
  Pt  Pt9  1  0.750000  0.266308  0.403307  1
  Pt  Pt10  1  0.750000  0.733641  0.151438  1
  Pt  Pt11  1  0.250000  0.268860  0.850289  1
