# generated using pymatgen
data_Pr16MgAg(HgIr2)2
_symmetry_space_group_name_H-M   'P 1'
_cell_length_a   10.00198087
_cell_length_b   10.04763166
_cell_length_c   10.04763323
_cell_angle_alpha   59.86132138
_cell_angle_beta   59.81295500
_cell_angle_gamma   59.81295413
_symmetry_Int_Tables_number   1
_chemical_formula_structural   Pr16MgAg(HgIr2)2
_chemical_formula_sum   'Pr16 Mg1 Ag1 Hg2 Ir4'
_cell_volume   711.23024117
_cell_formula_units_Z   1
loop_
 _symmetry_equiv_pos_site_id
 _symmetry_equiv_pos_as_xyz
  1  'x, y, z'
loop_
 _atom_site_type_symbol
 _atom_site_label
 _atom_site_symmetry_multiplicity
 _atom_site_fract_x
 _atom_site_fract_y
 _atom_site_fract_z
 _atom_site_occupancy
  Pr  Pr0  1  0.348435  0.346880  0.346880  1
  Pr  Pr1  1  0.347885  0.347774  0.956607  1
  Pr  Pr2  1  0.347885  0.956607  0.347774  1
  Pr  Pr3  1  0.948360  0.350165  0.350165  1
  Pr  Pr4  1  0.807208  0.192723  0.192723  1
  Pr  Pr5  1  0.186422  0.810858  0.810858  1
  Pr  Pr6  1  0.189594  0.809656  0.190178  1
  Pr  Pr7  1  0.805278  0.193354  0.806967  1
  Pr  Pr8  1  0.189594  0.190178  0.809656  1
  Pr  Pr9  1  0.805278  0.806967  0.193354  1
  Pr  Pr10  1  0.938198  0.561561  0.561561  1
  Pr  Pr11  1  0.558752  0.939754  0.939754  1
  Pr  Pr12  1  0.559048  0.938957  0.561647  1
  Pr  Pr13  1  0.938711  0.560234  0.938183  1
  Pr  Pr14  1  0.559048  0.561647  0.938957  1
  Pr  Pr15  1  0.938711  0.938183  0.560234  1
  Mg  Mg16  1  0.290464  0.570320  0.570320  1
  Ag  Ag17  1  0.579154  0.585083  0.585083  1
  Hg  Hg18  1  0.581557  0.587525  0.248203  1
  Hg  Hg19  1  0.581557  0.248203  0.587525  1
  Ir  Ir20  1  0.140541  0.141893  0.141893  1
  Ir  Ir21  1  0.141142  0.143305  0.575947  1
  Ir  Ir22  1  0.141142  0.575947  0.143305  1
  Ir  Ir23  1  0.576038  0.142227  0.142227  1
