# generated using pymatgen
data_Li4(BSe)9
_symmetry_space_group_name_H-M   'P 1'
_cell_length_a   10.86353800
_cell_length_b   11.41613385
_cell_length_c   16.08094000
_cell_angle_alpha   90.00000000
_cell_angle_beta   90.00000000
_cell_angle_gamma   118.06030798
_symmetry_Int_Tables_number   1
_chemical_formula_structural   Li4(BSe)9
_chemical_formula_sum   'Li16 B36 Se36'
_cell_volume   1759.92163834
_cell_formula_units_Z   4
loop_
 _symmetry_equiv_pos_site_id
 _symmetry_equiv_pos_as_xyz
  1  'x, y, z'
loop_
 _atom_site_type_symbol
 _atom_site_label
 _atom_site_symmetry_multiplicity
 _atom_site_fract_x
 _atom_site_fract_y
 _atom_site_fract_z
 _atom_site_occupancy
  Li  Li0  1  0.189551  0.142989  0.619698  1
  Li  Li1  1  0.809819  0.357083  0.120147  1
  Li  Li2  1  0.809752  0.857198  0.379715  1
  Li  Li3  1  0.190210  0.642835  0.879838  1
  Li  Li4  1  0.428330  0.349499  0.348403  1
  Li  Li5  1  0.571575  0.150407  0.848299  1
  Li  Li6  1  0.571673  0.650497  0.651629  1
  Li  Li7  1  0.428448  0.849532  0.151603  1
  Li  Li8  1  0.958653  0.222314  0.783792  1
  Li  Li9  1  0.041383  0.277785  0.283756  1
  Li  Li10  1  0.041387  0.777573  0.216166  1
  Li  Li11  1  0.958705  0.722397  0.716225  1
  Li  Li12  1  0.975199  0.525737  0.348550  1
  Li  Li13  1  0.024831  0.974182  0.848480  1
  Li  Li14  1  0.024750  0.474476  0.651498  1
  Li  Li15  1  0.975201  0.025813  0.151482  1
  B  B16  1  0.505433  0.853920  0.500557  1
  B  B17  1  0.494587  0.646074  0.000535  1
  B  B18  1  0.494532  0.146067  0.499502  1
  B  B19  1  0.505453  0.353901  0.999457  1
  B  B20  1  0.820789  0.461539  0.869388  1
  B  B21  1  0.179168  0.038443  0.369366  1
  B  B22  1  0.179240  0.538455  0.130640  1
  B  B23  1  0.820783  0.961488  0.630629  1
  B  B24  1  0.378181  0.877087  0.559084  1
  B  B25  1  0.621823  0.622889  0.059052  1
  B  B26  1  0.621796  0.122909  0.440975  1
  B  B27  1  0.378200  0.377081  0.940936  1
  B  B28  1  0.259708  0.890726  0.726378  1
  B  B29  1  0.740343  0.609278  0.226359  1
  B  B30  1  0.740320  0.109320  0.273663  1
  B  B31  1  0.259655  0.390736  0.773644  1
  B  B32  1  0.454025  0.045081  0.589737  1
  B  B33  1  0.545966  0.454892  0.089697  1
  B  B34  1  0.545940  0.954918  0.410326  1
  B  B35  1  0.454071  0.545083  0.910301  1
  B  B36  1  0.339284  0.989230  0.502233  1
  B  B37  1  0.660698  0.510737  0.002198  1
  B  B38  1  0.660675  0.010756  0.497821  1
  B  B39  1  0.339330  0.489239  0.997801  1
  B  B40  1  0.628427  0.129480  0.551590  1
  B  B41  1  0.371569  0.370497  0.051553  1
  B  B42  1  0.371543  0.870507  0.448470  1
  B  B43  1  0.628468  0.629478  0.948437  1
  B  B44  1  0.556947  0.961573  0.588193  1
  B  B45  1  0.443069  0.538416  0.088171  1
  B  B46  1  0.443023  0.038420  0.411867  1
  B  B47  1  0.556965  0.461561  0.911828  1
  B  B48  1  0.681063  0.412648  0.575140  1
  B  B49  1  0.318983  0.087337  0.075125  1
  B  B50  1  0.318943  0.587322  0.424935  1
  B  B51  1  0.681103  0.912654  0.924864  1
  Se  Se52  1  0.769279  0.598217  0.603401  1
  Se  Se53  1  0.230831  0.901779  0.103420  1
  Se  Se54  1  0.230756  0.401767  0.396624  1
  Se  Se55  1  0.769227  0.098210  0.896582  1
  Se  Se56  1  0.974149  0.960958  0.692058  1
  Se  Se57  1  0.025948  0.539013  0.192141  1
  Se  Se58  1  0.025954  0.039152  0.307875  1
  Se  Se59  1  0.974046  0.460869  0.807922  1
  Se  Se60  1  0.496196  0.673692  0.490457  1
  Se  Se61  1  0.503871  0.826315  0.990416  1
  Se  Se62  1  0.503802  0.326306  0.509605  1
  Se  Se63  1  0.496204  0.173675  0.009563  1
  Se  Se64  1  0.162930  0.345825  0.667956  1
  Se  Se65  1  0.836978  0.154348  0.167965  1
  Se  Se66  1  0.837148  0.654433  0.332010  1
  Se  Se67  1  0.163023  0.845632  0.832073  1
  Se  Se68  1  0.641430  0.915067  0.685846  1
  Se  Se69  1  0.358620  0.584934  0.185838  1
  Se  Se70  1  0.358560  0.084929  0.314205  1
  Se  Se71  1  0.641422  0.415050  0.814170  1
  Se  Se72  1  0.385733  0.080244  0.698888  1
  Se  Se73  1  0.614249  0.419745  0.198869  1
  Se  Se74  1  0.614218  0.919781  0.301152  1
  Se  Se75  1  0.385807  0.580257  0.801141  1
  Se  Se76  1  0.762131  0.297537  0.610735  1
  Se  Se77  1  0.237912  0.202445  0.110722  1
  Se  Se78  1  0.237848  0.702405  0.389350  1
  Se  Se79  1  0.762163  0.797519  0.889268  1
  Se  Se80  1  0.242814  0.753572  0.645338  1
  Se  Se81  1  0.757272  0.746385  0.145276  1
  Se  Se82  1  0.757202  0.246429  0.354728  1
  Se  Se83  1  0.242780  0.253590  0.854677  1
  Se  Se84  1  0.849370  0.020895  0.513179  1
  Se  Se85  1  0.150604  0.479046  0.013194  1
  Se  Se86  1  0.150518  0.978950  0.486797  1
  Se  Se87  1  0.849434  0.520971  0.986827  1
