# generated using pymatgen
data_Er4Al18ZnRh5
_symmetry_space_group_name_H-M   'P 1'
_cell_length_a   7.57222822
_cell_length_b   7.57222827
_cell_length_c   9.42096026
_cell_angle_alpha   90.01310951
_cell_angle_beta   90.01310684
_cell_angle_gamma   119.50027339
_symmetry_Int_Tables_number   1
_chemical_formula_structural   Er4Al18ZnRh5
_chemical_formula_sum   'Er4 Al18 Zn1 Rh5'
_cell_volume   470.15182130
_cell_formula_units_Z   1
loop_
 _symmetry_equiv_pos_site_id
 _symmetry_equiv_pos_as_xyz
  1  'x, y, z'
loop_
 _atom_site_type_symbol
 _atom_site_label
 _atom_site_symmetry_multiplicity
 _atom_site_fract_x
 _atom_site_fract_y
 _atom_site_fract_z
 _atom_site_occupancy
  Er  Er0  1  0.995315  0.675206  0.749181  1
  Er  Er1  1  0.004685  0.324794  0.250819  1
  Er  Er2  1  0.675206  0.995315  0.749181  1
  Er  Er3  1  0.324794  0.004685  0.250819  1
  Al  Al4  1  0.134452  0.134452  0.756717  1
  Al  Al5  1  0.865548  0.865548  0.243283  1
  Al  Al6  1  0.001543  0.344279  0.579800  1
  Al  Al7  1  0.998457  0.655721  0.420200  1
  Al  Al8  1  0.001416  0.664310  0.072964  1
  Al  Al9  1  0.335690  0.998584  0.927036  1
  Al  Al10  1  0.998584  0.335690  0.927036  1
  Al  Al11  1  0.664310  0.001416  0.072964  1
  Al  Al12  1  0.655721  0.998457  0.420200  1
  Al  Al13  1  0.344279  0.001543  0.579800  1
  Al  Al14  1  0.332273  0.332273  0.051637  1
  Al  Al15  1  0.667727  0.667727  0.948363  1
  Al  Al16  1  0.658959  0.658959  0.557756  1
  Al  Al17  1  0.341041  0.341041  0.442244  1
  Al  Al18  1  0.339052  0.552243  0.751543  1
  Al  Al19  1  0.660948  0.447757  0.248457  1
  Al  Al20  1  0.552243  0.339052  0.751543  1
  Al  Al21  1  0.447757  0.660948  0.248457  1
  Zn  Zn22  1  0.000000  0.000000  0.500000  1
  Rh  Rh23  1  0.672311  0.327689  0.500000  1
  Rh  Rh24  1  0.327689  0.672311  0.500000  1
  Rh  Rh25  1  0.328347  0.671653  0.000000  1
  Rh  Rh26  1  0.671653  0.328347  0.000000  1
  Rh  Rh27  1  0.000000  0.000000  0.000000  1
