# generated using pymatgen
data_Rb4CoSeF12
_symmetry_space_group_name_H-M   'P 1'
_cell_length_a   6.06549600
_cell_length_b   6.06549633
_cell_length_c   9.88599100
_cell_angle_alpha   90.00000000
_cell_angle_beta   90.00000000
_cell_angle_gamma   119.99999822
_symmetry_Int_Tables_number   1
_chemical_formula_structural   Rb4CoSeF12
_chemical_formula_sum   'Rb4 Co1 Se1 F12'
_cell_volume   314.98038897
_cell_formula_units_Z   1
loop_
 _symmetry_equiv_pos_site_id
 _symmetry_equiv_pos_as_xyz
  1  'x, y, z'
loop_
 _atom_site_type_symbol
 _atom_site_label
 _atom_site_symmetry_multiplicity
 _atom_site_fract_x
 _atom_site_fract_y
 _atom_site_fract_z
 _atom_site_occupancy
  Rb  Rb0  1  0.666667  0.333333  0.381375  1
  Rb  Rb1  1  0.333333  0.666667  0.865478  1
  Rb  Rb2  1  0.000000  0.000000  0.603633  1
  Rb  Rb3  1  0.000000  0.000000  0.096906  1
  Co  Co4  1  0.666667  0.333333  0.755914  1
  Se  Se5  1  0.333333  0.666667  0.259529  1
  F  F6  1  0.525776  0.474224  0.649351  1
  F  F7  1  0.038423  0.519212  0.141440  1
  F  F8  1  0.480788  0.961577  0.141440  1
  F  F9  1  0.525776  0.051554  0.649351  1
  F  F10  1  0.948446  0.474224  0.649351  1
  F  F11  1  0.480788  0.519212  0.141440  1
  F  F12  1  0.171383  0.828617  0.364402  1
  F  F13  1  0.377866  0.188933  0.857194  1
  F  F14  1  0.811067  0.622134  0.857194  1
  F  F15  1  0.171383  0.342764  0.364402  1
  F  F16  1  0.657236  0.828617  0.364402  1
  F  F17  1  0.811067  0.188933  0.857194  1
