# generated using pymatgen
data_Sm2TmLu(B6Os)2
_symmetry_space_group_name_H-M   'P 1'
_cell_length_a   3.65781100
_cell_length_b   9.14515004
_cell_length_c   11.56229553
_cell_angle_alpha   89.97726995
_cell_angle_beta   90.00000000
_cell_angle_gamma   90.00000000
_symmetry_Int_Tables_number   1
_chemical_formula_structural   Sm2TmLu(B6Os)2
_chemical_formula_sum   'Sm4 Tm2 Lu2 B24 Os4'
_cell_volume   386.77298153
_cell_formula_units_Z   2
loop_
 _symmetry_equiv_pos_site_id
 _symmetry_equiv_pos_as_xyz
  1  'x, y, z'
loop_
 _atom_site_type_symbol
 _atom_site_label
 _atom_site_symmetry_multiplicity
 _atom_site_fract_x
 _atom_site_fract_y
 _atom_site_fract_z
 _atom_site_occupancy
  Sm  Sm0  1  0.000000  0.321648  0.414418  1
  Sm  Sm1  1  0.000000  0.678352  0.585582  1
  Sm  Sm2  1  0.000000  0.822009  0.085900  1
  Sm  Sm3  1  0.000000  0.177991  0.914100  1
  Tm  Tm4  1  0.000000  0.444277  0.127334  1
  Tm  Tm5  1  0.000000  0.555723  0.872665  1
  Lu  Lu6  1  0.000000  0.944351  0.372981  1
  Lu  Lu7  1  0.000000  0.055649  0.627020  1
  B  B8  1  0.500000  0.555647  0.431520  1
  B  B9  1  0.500000  0.444353  0.568480  1
  B  B10  1  0.500000  0.055258  0.068708  1
  B  B11  1  0.500000  0.944742  0.931292  1
  B  B12  1  0.500000  0.750654  0.418139  1
  B  B13  1  0.500000  0.249346  0.581861  1
  B  B14  1  0.500000  0.249727  0.082075  1
  B  B15  1  0.500000  0.750273  0.917925  1
  B  B16  1  0.500000  0.791942  0.266592  1
  B  B17  1  0.500000  0.208058  0.733408  1
  B  B18  1  0.500000  0.291027  0.233840  1
  B  B19  1  0.500000  0.708972  0.766160  1
  B  B20  1  0.500000  0.630833  0.184900  1
  B  B21  1  0.500000  0.369167  0.815100  1
  B  B22  1  0.500000  0.129993  0.315631  1
  B  B23  1  0.500000  0.870007  0.684369  1
  B  B24  1  0.500000  0.983761  0.214509  1
  B  B25  1  0.500000  0.016239  0.785491  1
  B  B26  1  0.500000  0.484340  0.286087  1
  B  B27  1  0.500000  0.515660  0.713913  1
  B  B28  1  0.500000  0.603055  0.028133  1
  B  B29  1  0.500000  0.396945  0.971867  1
  B  B30  1  0.500000  0.101704  0.472172  1
  B  B31  1  0.500000  0.898296  0.527828  1
  Os  Os32  1  0.000000  0.639646  0.319834  1
  Os  Os33  1  0.000000  0.360354  0.680166  1
  Os  Os34  1  0.000000  0.138347  0.180729  1
  Os  Os35  1  0.000000  0.861653  0.819271  1
