# generated using pymatgen
data_U2B8RuW
_symmetry_space_group_name_H-M   'P 1'
_cell_length_a   3.59060400
_cell_length_b   5.96795555
_cell_length_c   11.58190307
_cell_angle_alpha   89.95084580
_cell_angle_beta   90.00000000
_cell_angle_gamma   90.00000000
_symmetry_Int_Tables_number   1
_chemical_formula_structural   U2B8RuW
_chemical_formula_sum   'U4 B16 Ru2 W2'
_cell_volume   248.18347210
_cell_formula_units_Z   2
loop_
 _symmetry_equiv_pos_site_id
 _symmetry_equiv_pos_as_xyz
  1  'x, y, z'
loop_
 _atom_site_type_symbol
 _atom_site_label
 _atom_site_symmetry_multiplicity
 _atom_site_fract_x
 _atom_site_fract_y
 _atom_site_fract_z
 _atom_site_occupancy
  U  U0  1  0.000000  0.628453  0.650327  1
  U  U1  1  0.000000  0.371547  0.349673  1
  U  U2  1  0.000000  0.129060  0.850399  1
  U  U3  1  0.000000  0.870940  0.149601  1
  B  B4  1  0.500000  0.970735  0.694554  1
  B  B5  1  0.500000  0.029265  0.305446  1
  B  B6  1  0.500000  0.476680  0.808316  1
  B  B7  1  0.500000  0.523320  0.191684  1
  B  B8  1  0.500000  0.866957  0.968269  1
  B  B9  1  0.500000  0.133043  0.031731  1
  B  B10  1  0.500000  0.368970  0.532090  1
  B  B11  1  0.500000  0.631030  0.467910  1
  B  B12  1  0.500000  0.789460  0.812814  1
  B  B13  1  0.500000  0.210540  0.187186  1
  B  B14  1  0.500000  0.293166  0.691521  1
  B  B15  1  0.500000  0.706834  0.308479  1
  B  B16  1  0.500000  0.883604  0.547085  1
  B  B17  1  0.500000  0.116396  0.452915  1
  B  B18  1  0.500000  0.385974  0.953097  1
  B  B19  1  0.500000  0.614026  0.046903  1
  Ru  Ru20  1  0.000000  0.640548  0.906348  1
  Ru  Ru21  1  0.000000  0.359452  0.093652  1
  W  W22  1  0.000000  0.137676  0.592501  1
  W  W23  1  0.000000  0.862324  0.407499  1
