# generated using pymatgen
data_Zr2UCo2
_symmetry_space_group_name_H-M   'P 1'
_cell_length_a   5.55549560
_cell_length_b   5.55549680
_cell_length_c   5.55549598
_cell_angle_alpha   143.73757525
_cell_angle_beta   116.96186299
_cell_angle_gamma   74.94692448
_symmetry_Int_Tables_number   1
_chemical_formula_structural   Zr2UCo2
_chemical_formula_sum   'Zr2 U1 Co2'
_cell_volume   88.55270235
_cell_formula_units_Z   1
loop_
 _symmetry_equiv_pos_site_id
 _symmetry_equiv_pos_as_xyz
  1  'x, y, z'
loop_
 _atom_site_type_symbol
 _atom_site_label
 _atom_site_symmetry_multiplicity
 _atom_site_fract_x
 _atom_site_fract_y
 _atom_site_fract_z
 _atom_site_occupancy
  Zr  Zr0  1  0.704335  0.204335  0.500000  1
  Zr  Zr1  1  0.295666  0.795666  0.500001  1
  U  U2  1  0.000000  0.000000  0.000000  1
  Co  Co3  1  0.715411  0.500000  0.215411  1
  Co  Co4  1  0.284589  0.500001  0.784590  1
