# generated using pymatgen
data_Cs6TbDyCl12
_symmetry_space_group_name_H-M   'P 1'
_cell_length_a   9.52078600
_cell_length_b   9.47318162
_cell_length_c   7.88123200
_cell_angle_alpha   90.00000000
_cell_angle_beta   90.00000000
_cell_angle_gamma   89.91420613
_symmetry_Int_Tables_number   1
_chemical_formula_structural   Cs6TbDyCl12
_chemical_formula_sum   'Cs6 Tb1 Dy1 Cl12'
_cell_volume   710.82434319
_cell_formula_units_Z   1
loop_
 _symmetry_equiv_pos_site_id
 _symmetry_equiv_pos_as_xyz
  1  'x, y, z'
loop_
 _atom_site_type_symbol
 _atom_site_label
 _atom_site_symmetry_multiplicity
 _atom_site_fract_x
 _atom_site_fract_y
 _atom_site_fract_z
 _atom_site_occupancy
  Cs  Cs0  1  0.000000  0.000000  0.500000  1
  Cs  Cs1  1  0.000000  0.000000  0.000000  1
  Cs  Cs2  1  0.237492  0.581239  0.500000  1
  Cs  Cs3  1  0.762508  0.418761  0.500000  1
  Cs  Cs4  1  0.418813  0.235188  0.000000  1
  Cs  Cs5  1  0.581187  0.764812  0.000000  1
  Tb  Tb6  1  0.000000  0.500000  0.000000  1
  Dy  Dy7  1  0.500000  0.000000  0.500000  1
  Cl  Cl8  1  0.690420  0.055418  0.738159  1
  Cl  Cl9  1  0.309580  0.944582  0.738159  1
  Cl  Cl10  1  0.944015  0.691854  0.239816  1
  Cl  Cl11  1  0.055985  0.308146  0.239816  1
  Cl  Cl12  1  0.309580  0.944582  0.261841  1
  Cl  Cl13  1  0.690420  0.055418  0.261841  1
  Cl  Cl14  1  0.055985  0.308146  0.760184  1
  Cl  Cl15  1  0.944015  0.691854  0.760184  1
  Cl  Cl16  1  0.569970  0.730324  0.500000  1
  Cl  Cl17  1  0.430030  0.269676  0.500000  1
  Cl  Cl18  1  0.270571  0.570461  0.000000  1
  Cl  Cl19  1  0.729429  0.429539  0.000000  1
