# generated using pymatgen
data_Tb7Er9Cd2(AgPt2)2
_symmetry_space_group_name_H-M   'P 1'
_cell_length_a   9.60163628
_cell_length_b   9.60163619
_cell_length_c   9.58751700
_cell_angle_alpha   60.04863522
_cell_angle_beta   60.04863553
_cell_angle_gamma   60.05809902
_symmetry_Int_Tables_number   1
_chemical_formula_structural   Tb7Er9Cd2(AgPt2)2
_chemical_formula_sum   'Tb7 Er9 Cd2 Ag2 Pt4'
_cell_volume   625.73597442
_cell_formula_units_Z   1
loop_
 _symmetry_equiv_pos_site_id
 _symmetry_equiv_pos_as_xyz
  1  'x, y, z'
loop_
 _atom_site_type_symbol
 _atom_site_label
 _atom_site_symmetry_multiplicity
 _atom_site_fract_x
 _atom_site_fract_y
 _atom_site_fract_z
 _atom_site_occupancy
  Tb  Tb0  1  0.810552  0.810552  0.189448  1
  Tb  Tb1  1  0.933127  0.563461  0.565547  1
  Tb  Tb2  1  0.563461  0.933127  0.937865  1
  Tb  Tb3  1  0.563461  0.933127  0.565547  1
  Tb  Tb4  1  0.933127  0.563461  0.937865  1
  Tb  Tb5  1  0.563916  0.563916  0.936084  1
  Tb  Tb6  1  0.935629  0.935629  0.564371  1
  Er  Er7  1  0.352502  0.352502  0.351309  1
  Er  Er8  1  0.352502  0.352502  0.943688  1
  Er  Er9  1  0.354338  0.939006  0.353329  1
  Er  Er10  1  0.939006  0.354338  0.353329  1
  Er  Er11  1  0.810884  0.189623  0.190499  1
  Er  Er12  1  0.189623  0.810884  0.808994  1
  Er  Er13  1  0.189623  0.810884  0.190499  1
  Er  Er14  1  0.810884  0.189623  0.808994  1
  Er  Er15  1  0.190349  0.190349  0.809651  1
  Cd  Cd16  1  0.581637  0.257654  0.580355  1
  Cd  Cd17  1  0.257654  0.581637  0.580355  1
  Ag  Ag18  1  0.583675  0.583675  0.583165  1
  Ag  Ag19  1  0.583675  0.583675  0.249485  1
  Pt  Pt20  1  0.143583  0.143583  0.144309  1
  Pt  Pt21  1  0.143583  0.143583  0.568525  1
  Pt  Pt22  1  0.143671  0.569541  0.143394  1
  Pt  Pt23  1  0.569541  0.143671  0.143394  1
