# generated using pymatgen
data_Ta16Al3CuTe16
_symmetry_space_group_name_H-M   'P 1'
_cell_length_a   4.85045300
_cell_length_b   11.24681380
_cell_length_c   19.47047160
_cell_angle_alpha   89.70386595
_cell_angle_beta   90.00000000
_cell_angle_gamma   90.00000000
_symmetry_Int_Tables_number   1
_chemical_formula_structural   Ta16Al3CuTe16
_chemical_formula_sum   'Ta16 Al3 Cu1 Te16'
_cell_volume   1062.14173909
_cell_formula_units_Z   1
loop_
 _symmetry_equiv_pos_site_id
 _symmetry_equiv_pos_as_xyz
  1  'x, y, z'
loop_
 _atom_site_type_symbol
 _atom_site_label
 _atom_site_symmetry_multiplicity
 _atom_site_fract_x
 _atom_site_fract_y
 _atom_site_fract_z
 _atom_site_occupancy
  Ta  Ta0  1  0.502146  0.563319  0.383795  1
  Ta  Ta1  1  0.502146  0.436681  0.616205  1
  Ta  Ta2  1  0.500312  0.066158  0.115977  1
  Ta  Ta3  1  0.500312  0.933842  0.884023  1
  Ta  Ta4  1  0.504669  0.701726  0.535371  1
  Ta  Ta5  1  0.504669  0.298274  0.464629  1
  Ta  Ta6  1  0.499954  0.203788  0.966073  1
  Ta  Ta7  1  0.499954  0.796212  0.033927  1
  Ta  Ta8  1  0.996502  0.687026  0.442698  1
  Ta  Ta9  1  0.996502  0.312974  0.557302  1
  Ta  Ta10  1  0.000036  0.187796  0.057433  1
  Ta  Ta11  1  0.000036  0.812204  0.942567  1
  Ta  Ta12  1  0.996726  0.402208  0.392646  1
  Ta  Ta13  1  0.996726  0.597792  0.607354  1
  Ta  Ta14  1  0.999708  0.901825  0.107809  1
  Ta  Ta15  1  0.999708  0.098175  0.892191  1
  Al  Al16  1  0.750161  0.000000  0.000000  1
  Al  Al17  1  0.750042  0.500000  0.500000  1
  Al  Al18  1  0.249812  0.000000  0.000000  1
  Cu  Cu19  1  0.250148  0.500000  0.500000  1
  Te  Te20  1  0.006897  0.839116  0.560158  1
  Te  Te21  1  0.006897  0.160884  0.439842  1
  Te  Te22  1  0.000095  0.340329  0.938381  1
  Te  Te23  1  0.000095  0.659671  0.061619  1
  Te  Te24  1  0.493247  0.336099  0.319372  1
  Te  Te25  1  0.493247  0.663901  0.680628  1
  Te  Te26  1  0.500030  0.835514  0.179803  1
  Te  Te27  1  0.500030  0.164486  0.820197  1
  Te  Te28  1  0.493217  0.815125  0.403451  1
  Te  Te29  1  0.493217  0.184875  0.596549  1
  Te  Te30  1  0.500038  0.319101  0.097186  1
  Te  Te31  1  0.500038  0.680899  0.902814  1
  Te  Te32  1  0.006437  0.605189  0.303976  1
  Te  Te33  1  0.006437  0.394811  0.696024  1
  Te  Te34  1  0.999904  0.103609  0.197066  1
  Te  Te35  1  0.999904  0.896391  0.802934  1
