# generated using pymatgen
data_Dy10Al2Bi3Sb
_symmetry_space_group_name_H-M   'P 1'
_cell_length_a   8.98288400
_cell_length_b   9.08186184
_cell_length_c   6.55871700
_cell_angle_alpha   90.00000000
_cell_angle_beta   90.00000000
_cell_angle_gamma   119.88628451
_symmetry_Int_Tables_number   1
_chemical_formula_structural   Dy10Al2Bi3Sb
_chemical_formula_sum   'Dy10 Al2 Bi3 Sb1'
_cell_volume   463.91318150
_cell_formula_units_Z   1
loop_
 _symmetry_equiv_pos_site_id
 _symmetry_equiv_pos_as_xyz
  1  'x, y, z'
loop_
 _atom_site_type_symbol
 _atom_site_label
 _atom_site_symmetry_multiplicity
 _atom_site_fract_x
 _atom_site_fract_y
 _atom_site_fract_z
 _atom_site_occupancy
  Dy  Dy0  1  0.340605  0.685794  0.998348  1
  Dy  Dy1  1  0.659396  0.312011  0.502292  1
  Dy  Dy2  1  0.659396  0.312011  0.997708  1
  Dy  Dy3  1  0.340605  0.685794  0.501652  1
  Dy  Dy4  1  0.243031  0.000907  0.250000  1
  Dy  Dy5  1  0.759274  0.002958  0.750000  1
  Dy  Dy6  1  0.984774  0.230471  0.250000  1
  Dy  Dy7  1  0.755375  0.771784  0.250000  1
  Dy  Dy8  1  0.242317  0.230826  0.750000  1
  Dy  Dy9  1  0.015330  0.767319  0.750000  1
  Al  Al10  1  0.599298  0.000460  0.250000  1
  Al  Al11  1  0.399602  0.999245  0.750000  1
  Bi  Bi12  1  0.993406  0.606961  0.250000  1
  Bi  Bi13  1  0.387022  0.393218  0.250000  1
  Bi  Bi14  1  0.614648  0.607902  0.750000  1
  Sb  Sb15  1  0.005922  0.392341  0.750000  1
