# generated using pymatgen
data_Lu3Th(ReN3)4
_symmetry_space_group_name_H-M   'P 1'
_cell_length_a   5.30854300
_cell_length_b   5.65554834
_cell_length_c   7.69396400
_cell_angle_alpha   90.00000000
_cell_angle_beta   90.00000000
_cell_angle_gamma   89.73974648
_symmetry_Int_Tables_number   1
_chemical_formula_structural   Lu3Th(ReN3)4
_chemical_formula_sum   'Lu3 Th1 Re4 N12'
_cell_volume   230.99135598
_cell_formula_units_Z   1
loop_
 _symmetry_equiv_pos_site_id
 _symmetry_equiv_pos_as_xyz
  1  'x, y, z'
loop_
 _atom_site_type_symbol
 _atom_site_label
 _atom_site_symmetry_multiplicity
 _atom_site_fract_x
 _atom_site_fract_y
 _atom_site_fract_z
 _atom_site_occupancy
  Lu  Lu0  1  0.018126  0.930852  0.250000  1
  Lu  Lu1  1  0.515789  0.570387  0.750000  1
  Lu  Lu2  1  0.982067  0.071393  0.750000  1
  Th  Th3  1  0.490793  0.439781  0.250000  1
  Re  Re4  1  0.498847  0.995082  0.504743  1
  Re  Re5  1  0.000574  0.497462  0.994737  1
  Re  Re6  1  0.000574  0.497462  0.505263  1
  Re  Re7  1  0.498847  0.995082  0.995257  1
  N  N8  1  0.688729  0.303237  0.550620  1
  N  N9  1  0.300302  0.705896  0.041537  1
  N  N10  1  0.188932  0.197443  0.048416  1
  N  N11  1  0.404987  0.979181  0.750000  1
  N  N12  1  0.927704  0.528961  0.250000  1
  N  N13  1  0.300302  0.705896  0.458463  1
  N  N14  1  0.802992  0.796845  0.947062  1
  N  N15  1  0.688729  0.303237  0.949380  1
  N  N16  1  0.802992  0.796845  0.552938  1
  N  N17  1  0.098888  0.471075  0.750000  1
  N  N18  1  0.188932  0.197443  0.451584  1
  N  N19  1  0.600893  0.016444  0.250000  1
