# generated using pymatgen
data_Th8Ni3Os5
_symmetry_space_group_name_H-M   'P 1'
_cell_length_a   4.25167400
_cell_length_b   5.82429174
_cell_length_c   14.61694559
_cell_angle_alpha   90.14529108
_cell_angle_beta   90.00000000
_cell_angle_gamma   90.00000000
_symmetry_Int_Tables_number   1
_chemical_formula_structural   Th8Ni3Os5
_chemical_formula_sum   'Th8 Ni3 Os5'
_cell_volume   361.95811053
_cell_formula_units_Z   1
loop_
 _symmetry_equiv_pos_site_id
 _symmetry_equiv_pos_as_xyz
  1  'x, y, z'
loop_
 _atom_site_type_symbol
 _atom_site_label
 _atom_site_symmetry_multiplicity
 _atom_site_fract_x
 _atom_site_fract_y
 _atom_site_fract_z
 _atom_site_occupancy
  Th  Th0  1  0.250000  0.543246  0.284831  1
  Th  Th1  1  0.750000  0.461378  0.717211  1
  Th  Th2  1  0.250000  0.960025  0.785781  1
  Th  Th3  1  0.250000  0.751967  0.535936  1
  Th  Th4  1  0.250000  0.744358  0.034108  1
  Th  Th5  1  0.750000  0.257535  0.964624  1
  Th  Th6  1  0.750000  0.042002  0.214526  1
  Th  Th7  1  0.750000  0.243387  0.462781  1
  Ni  Ni8  1  0.750000  0.762415  0.901711  1
  Ni  Ni9  1  0.250000  0.236735  0.098451  1
  Ni  Ni10  1  0.250000  0.254650  0.603018  1
  Os  Os11  1  0.250000  0.056466  0.347620  1
  Os  Os12  1  0.750000  0.543286  0.139064  1
  Os  Os13  1  0.750000  0.727020  0.404331  1
  Os  Os14  1  0.250000  0.453512  0.855036  1
  Os  Os15  1  0.750000  0.962020  0.650973  1
