# generated using pymatgen
data_Ti3Mn3GaSiP
_symmetry_space_group_name_H-M   'P 1'
_cell_length_a   6.54760200
_cell_length_b   6.54760142
_cell_length_c   3.19390300
_cell_angle_alpha   90.00000000
_cell_angle_beta   90.00000000
_cell_angle_gamma   120.00000291
_symmetry_Int_Tables_number   1
_chemical_formula_structural   Ti3Mn3GaSiP
_chemical_formula_sum   'Ti3 Mn3 Ga1 Si1 P1'
_cell_volume   118.58147508
_cell_formula_units_Z   1
loop_
 _symmetry_equiv_pos_site_id
 _symmetry_equiv_pos_as_xyz
  1  'x, y, z'
loop_
 _atom_site_type_symbol
 _atom_site_label
 _atom_site_symmetry_multiplicity
 _atom_site_fract_x
 _atom_site_fract_y
 _atom_site_fract_z
 _atom_site_occupancy
  Ti  Ti0  1  0.606237  0.018338  0.000000  1
  Ti  Ti1  1  0.981662  0.587900  0.000000  1
  Ti  Ti2  1  0.412100  0.393763  0.000000  1
  Mn  Mn3  1  0.263935  0.014420  0.500000  1
  Mn  Mn4  1  0.985580  0.249514  0.500000  1
  Mn  Mn5  1  0.750486  0.736065  0.500000  1
  Ga  Ga6  1  0.333333  0.666667  0.500000  1
  Si  Si7  1  0.000000  0.000000  0.000000  1
  P  P8  1  0.666667  0.333333  0.500000  1
