# generated using pymatgen
data_DyHoEr8(In2Pt)4
_symmetry_space_group_name_H-M   'P 1'
_cell_length_a   3.60128800
_cell_length_b   8.12808602
_cell_length_c   18.18689605
_cell_angle_alpha   90.00828614
_cell_angle_beta   90.00000000
_cell_angle_gamma   90.00000000
_symmetry_Int_Tables_number   1
_chemical_formula_structural   DyHoEr8(In2Pt)4
_chemical_formula_sum   'Dy1 Ho1 Er8 In8 Pt4'
_cell_volume   532.35915251
_cell_formula_units_Z   1
loop_
 _symmetry_equiv_pos_site_id
 _symmetry_equiv_pos_as_xyz
  1  'x, y, z'
loop_
 _atom_site_type_symbol
 _atom_site_label
 _atom_site_symmetry_multiplicity
 _atom_site_fract_x
 _atom_site_fract_y
 _atom_site_fract_z
 _atom_site_occupancy
  Dy  Dy0  1  0.000000  0.500000  0.500000  1
  Ho  Ho1  1  0.000000  0.000000  0.000000  1
  Er  Er2  1  0.000000  0.116687  0.414525  1
  Er  Er3  1  0.000000  0.883313  0.585475  1
  Er  Er4  1  0.000000  0.383432  0.914559  1
  Er  Er5  1  0.000000  0.616568  0.085441  1
  Er  Er6  1  0.000000  0.243106  0.220510  1
  Er  Er7  1  0.000000  0.756894  0.779490  1
  Er  Er8  1  0.000000  0.256918  0.720425  1
  Er  Er9  1  0.000000  0.743082  0.279575  1
  In  In10  1  0.500000  0.422663  0.350683  1
  In  In11  1  0.500000  0.577337  0.649317  1
  In  In12  1  0.500000  0.077051  0.850834  1
  In  In13  1  0.500000  0.922949  0.149166  1
  In  In14  1  0.500000  0.292459  0.066581  1
  In  In15  1  0.500000  0.707541  0.933419  1
  In  In16  1  0.500000  0.206331  0.566707  1
  In  In17  1  0.500000  0.793669  0.433293  1
  Pt  Pt18  1  0.500000  0.024940  0.303526  1
  Pt  Pt19  1  0.500000  0.975060  0.696474  1
  Pt  Pt20  1  0.500000  0.475029  0.803484  1
  Pt  Pt21  1  0.500000  0.524971  0.196516  1
