# generated using pymatgen
data_LiTm16Hg3Rh4
_symmetry_space_group_name_H-M   'P 1'
_cell_length_a   9.49120172
_cell_length_b   9.44178280
_cell_length_c   9.44178200
_cell_angle_alpha   59.99999580
_cell_angle_beta   60.17208690
_cell_angle_gamma   60.17208853
_symmetry_Int_Tables_number   1
_chemical_formula_structural   LiTm16Hg3Rh4
_chemical_formula_sum   'Li1 Tm16 Hg3 Rh4'
_cell_volume   599.84484170
_cell_formula_units_Z   1
loop_
 _symmetry_equiv_pos_site_id
 _symmetry_equiv_pos_as_xyz
  1  'x, y, z'
loop_
 _atom_site_type_symbol
 _atom_site_label
 _atom_site_symmetry_multiplicity
 _atom_site_fract_x
 _atom_site_fract_y
 _atom_site_fract_z
 _atom_site_occupancy
  Li  Li0  1  0.547148  0.817617  0.817617  1
  Tm  Tm1  1  0.603284  0.599013  0.599013  1
  Tm  Tm2  1  0.603284  0.599013  0.198692  1
  Tm  Tm3  1  0.603284  0.198692  0.599013  1
  Tm  Tm4  1  0.179130  0.606956  0.606956  1
  Tm  Tm5  1  0.061339  0.438418  0.438418  1
  Tm  Tm6  1  0.434891  0.065089  0.065089  1
  Tm  Tm7  1  0.434891  0.065089  0.434933  1
  Tm  Tm8  1  0.061339  0.438418  0.061824  1
  Tm  Tm9  1  0.434891  0.434933  0.065089  1
  Tm  Tm10  1  0.061339  0.061824  0.438418  1
  Tm  Tm11  1  0.185301  0.814171  0.814171  1
  Tm  Tm12  1  0.813949  0.185383  0.185383  1
  Tm  Tm13  1  0.813949  0.185383  0.815283  1
  Tm  Tm14  1  0.185301  0.814171  0.186356  1
  Tm  Tm15  1  0.813949  0.815283  0.185383  1
  Tm  Tm16  1  0.185301  0.186356  0.814171  1
  Hg  Hg17  1  0.829425  0.837339  0.837339  1
  Hg  Hg18  1  0.829425  0.837339  0.495897  1
  Hg  Hg19  1  0.829425  0.495897  0.837339  1
  Rh  Rh20  1  0.389237  0.396640  0.396640  1
  Rh  Rh21  1  0.389237  0.396640  0.817483  1
  Rh  Rh22  1  0.389237  0.817483  0.396640  1
  Rh  Rh23  1  0.821440  0.392853  0.392853  1
