# generated using pymatgen
data_LaPa3(SnPt2)2
_symmetry_space_group_name_H-M   'P 1'
_cell_length_a   7.86553959
_cell_length_b   7.86486273
_cell_length_c   3.74208700
_cell_angle_alpha   90.00000000
_cell_angle_beta   90.00000000
_cell_angle_gamma   91.11595211
_symmetry_Int_Tables_number   1
_chemical_formula_structural   LaPa3(SnPt2)2
_chemical_formula_sum   'La1 Pa3 Sn2 Pt4'
_cell_volume   231.44679296
_cell_formula_units_Z   1
loop_
 _symmetry_equiv_pos_site_id
 _symmetry_equiv_pos_as_xyz
  1  'x, y, z'
loop_
 _atom_site_type_symbol
 _atom_site_label
 _atom_site_symmetry_multiplicity
 _atom_site_fract_x
 _atom_site_fract_y
 _atom_site_fract_z
 _atom_site_occupancy
  La  La0  1  0.324443  0.175549  0.500000  1
  Pa  Pa1  1  0.173439  0.673475  0.500000  1
  Pa  Pa2  1  0.826489  0.326590  0.500000  1
  Pa  Pa3  1  0.673309  0.826667  0.500000  1
  Sn  Sn4  1  0.500923  0.499176  0.000000  1
  Sn  Sn5  1  0.000779  0.999092  0.000000  1
  Pt  Pt6  1  0.644620  0.122027  0.000000  1
  Pt  Pt7  1  0.377995  0.855379  0.000000  1
  Pt  Pt8  1  0.113523  0.386525  0.000000  1
  Pt  Pt9  1  0.864479  0.635521  0.000000  1
