# generated using pymatgen
data_Ho7Tm(LuPt4)2
_symmetry_space_group_name_H-M   'P 1'
_cell_length_a   7.42378300
_cell_length_b   7.52465528
_cell_length_c   14.61565601
_cell_angle_alpha   90.05112433
_cell_angle_beta   90.00000000
_cell_angle_gamma   90.00000000
_symmetry_Int_Tables_number   1
_chemical_formula_structural   Ho7Tm(LuPt4)2
_chemical_formula_sum   'Ho14 Tm2 Lu4 Pt16'
_cell_volume   816.45079742
_cell_formula_units_Z   2
loop_
 _symmetry_equiv_pos_site_id
 _symmetry_equiv_pos_as_xyz
  1  'x, y, z'
loop_
 _atom_site_type_symbol
 _atom_site_label
 _atom_site_symmetry_multiplicity
 _atom_site_fract_x
 _atom_site_fract_y
 _atom_site_fract_z
 _atom_site_occupancy
  Ho  Ho0  1  0.343112  0.831946  0.122483  1
  Ho  Ho1  1  0.843112  0.668054  0.377517  1
  Ho  Ho2  1  0.343303  0.832073  0.377462  1
  Ho  Ho3  1  0.843303  0.667927  0.122538  1
  Ho  Ho4  1  0.656814  0.168021  0.877226  1
  Ho  Ho5  1  0.156814  0.331979  0.622774  1
  Ho  Ho6  1  0.501891  0.679845  0.593304  1
  Ho  Ho7  1  0.001891  0.820155  0.906696  1
  Ho  Ho8  1  0.498437  0.320314  0.093073  1
  Ho  Ho9  1  0.998437  0.179686  0.406927  1
  Ho  Ho10  1  0.498568  0.320097  0.407268  1
  Ho  Ho11  1  0.998568  0.179903  0.092732  1
  Ho  Ho12  1  0.501210  0.679046  0.906506  1
  Ho  Ho13  1  0.001210  0.820954  0.593494  1
  Tm  Tm14  1  0.656655  0.167951  0.623139  1
  Tm  Tm15  1  0.156655  0.332049  0.876861  1
  Lu  Lu16  1  0.818917  0.511459  0.749999  1
  Lu  Lu17  1  0.318917  0.988541  0.750001  1
  Lu  Lu18  1  0.181255  0.487758  0.250034  1
  Lu  Lu19  1  0.681255  0.012242  0.249966  1
  Pt  Pt20  1  0.683602  0.968873  0.458530  1
  Pt  Pt21  1  0.183602  0.531127  0.041470  1
  Pt  Pt22  1  0.315480  0.033578  0.957498  1
  Pt  Pt23  1  0.815480  0.466422  0.542502  1
  Pt  Pt24  1  0.317555  0.032388  0.542543  1
  Pt  Pt25  1  0.817555  0.467612  0.957457  1
  Pt  Pt26  1  0.683336  0.968009  0.042128  1
  Pt  Pt27  1  0.183336  0.531991  0.457872  1
  Pt  Pt28  1  0.454715  0.387061  0.749992  1
  Pt  Pt29  1  0.954715  0.112939  0.750008  1
  Pt  Pt30  1  0.544993  0.611863  0.249992  1
  Pt  Pt31  1  0.044993  0.888137  0.250008  1
  Pt  Pt32  1  0.682092  0.855975  0.749625  1
  Pt  Pt33  1  0.182092  0.644025  0.750375  1
  Pt  Pt34  1  0.318065  0.144728  0.250032  1
  Pt  Pt35  1  0.818065  0.355272  0.249968  1
