# generated using pymatgen
data_Gd3Al3Cu2Te
_symmetry_space_group_name_H-M   'P 1'
_cell_length_a   16.23564031
_cell_length_b   15.19278838
_cell_length_c   10.82572900
_cell_angle_alpha   90.00000000
_cell_angle_beta   90.00000000
_cell_angle_gamma   121.48735213
_symmetry_Int_Tables_number   1
_chemical_formula_structural   Gd3Al3Cu2Te
_chemical_formula_sum   'Gd3 Al3 Cu2 Te1'
_cell_volume   2277.13396857
_cell_formula_units_Z   1
loop_
 _symmetry_equiv_pos_site_id
 _symmetry_equiv_pos_as_xyz
  1  'x, y, z'
loop_
 _atom_site_type_symbol
 _atom_site_label
 _atom_site_symmetry_multiplicity
 _atom_site_fract_x
 _atom_site_fract_y
 _atom_site_fract_z
 _atom_site_occupancy
  Gd  Gd0  1  0.384027  0.414527  0.000000  1
  Gd  Gd1  1  0.567111  0.974284  0.000000  1
  Gd  Gd2  1  0.054121  0.581940  0.000000  1
  Al  Al3  1  0.756690  0.743497  0.500000  1
  Al  Al4  1  0.204252  0.986387  0.500000  1
  Al  Al5  1  0.015858  0.247603  0.500000  1
  Cu  Cu6  1  0.388971  0.748749  0.500000  1
  Cu  Cu7  1  0.982201  0.993845  0.000000  1
  Te  Te8  1  0.646769  0.309167  0.500000  1
