# generated using pymatgen
data_Tm8Hf11Si16Au
_symmetry_space_group_name_H-M   'P 1'
_cell_length_a   7.24809930
_cell_length_b   7.24809934
_cell_length_c   13.17496309
_cell_angle_alpha   89.80733543
_cell_angle_beta   90.19266304
_cell_angle_gamma   89.94921501
_symmetry_Int_Tables_number   1
_chemical_formula_structural   Tm8Hf11Si16Au
_chemical_formula_sum   'Tm8 Hf11 Si16 Au1'
_cell_volume   692.13783902
_cell_formula_units_Z   1
loop_
 _symmetry_equiv_pos_site_id
 _symmetry_equiv_pos_as_xyz
  1  'x, y, z'
loop_
 _atom_site_type_symbol
 _atom_site_label
 _atom_site_symmetry_multiplicity
 _atom_site_fract_x
 _atom_site_fract_y
 _atom_site_fract_z
 _atom_site_occupancy
  Tm  Tm0  1  0.997844  0.346427  0.210759  1
  Tm  Tm1  1  0.004829  0.654549  0.716655  1
  Tm  Tm2  1  0.154532  0.495774  0.464762  1
  Tm  Tm3  1  0.498311  0.848346  0.032765  1
  Tm  Tm4  1  0.848346  0.498311  0.967235  1
  Tm  Tm5  1  0.495774  0.154532  0.535238  1
  Tm  Tm6  1  0.346427  0.997844  0.789241  1
  Tm  Tm7  1  0.654549  0.004829  0.283345  1
  Hf  Hf8  1  0.824797  0.824797  0.500000  1
  Hf  Hf9  1  0.323068  0.677087  0.248988  1
  Hf  Hf10  1  0.677087  0.323068  0.751012  1
  Hf  Hf11  1  0.144816  0.997887  0.374083  1
  Hf  Hf12  1  0.857389  0.002589  0.879152  1
  Hf  Hf13  1  0.503662  0.645876  0.626488  1
  Hf  Hf14  1  0.356184  0.492802  0.877427  1
  Hf  Hf15  1  0.492802  0.356184  0.122573  1
  Hf  Hf16  1  0.645876  0.503662  0.373512  1
  Hf  Hf17  1  0.997887  0.144816  0.625917  1
  Hf  Hf18  1  0.002589  0.857389  0.120848  1
  Si  Si19  1  0.357982  0.296007  0.317113  1
  Si  Si20  1  0.642003  0.704250  0.820568  1
  Si  Si21  1  0.207159  0.859542  0.569439  1
  Si  Si22  1  0.132462  0.774593  0.925912  1
  Si  Si23  1  0.774593  0.132462  0.074088  1
  Si  Si24  1  0.859542  0.207159  0.430561  1
  Si  Si25  1  0.296007  0.357982  0.682887  1
  Si  Si26  1  0.704250  0.642003  0.179432  1
  Si  Si27  1  0.296766  0.052328  0.188444  1
  Si  Si28  1  0.703357  0.950589  0.686778  1
  Si  Si29  1  0.450242  0.797395  0.435482  1
  Si  Si30  1  0.208587  0.565252  0.064141  1
  Si  Si31  1  0.565252  0.208587  0.935859  1
  Si  Si32  1  0.797395  0.450242  0.564518  1
  Si  Si33  1  0.052328  0.296766  0.811556  1
  Si  Si34  1  0.950589  0.703357  0.313222  1
  Au  Au35  1  0.174715  0.174715  0.000000  1
