# generated using pymatgen
data_ScAl7(RuPt)4
_symmetry_space_group_name_H-M   'P 1'
_cell_length_a   6.01999666
_cell_length_b   6.02001166
_cell_length_c   6.34110700
_cell_angle_alpha   90.00340152
_cell_angle_beta   89.99781391
_cell_angle_gamma   89.91488444
_symmetry_Int_Tables_number   1
_chemical_formula_structural   ScAl7(RuPt)4
_chemical_formula_sum   'Sc1 Al7 Ru4 Pt4'
_cell_volume   229.80431792
_cell_formula_units_Z   1
loop_
 _symmetry_equiv_pos_site_id
 _symmetry_equiv_pos_as_xyz
  1  'x, y, z'
loop_
 _atom_site_type_symbol
 _atom_site_label
 _atom_site_symmetry_multiplicity
 _atom_site_fract_x
 _atom_site_fract_y
 _atom_site_fract_z
 _atom_site_occupancy
  Sc  Sc0  1  0.000038  0.000004  0.249680  1
  Al  Al1  1  0.000053  0.500015  0.249634  1
  Al  Al2  1  0.500059  0.000003  0.250421  1
  Al  Al3  1  0.500065  0.499979  0.250378  1
  Al  Al4  1  0.499945  0.000000  0.749613  1
  Al  Al5  1  0.499956  0.500016  0.749625  1
  Al  Al6  1  0.999945  0.999992  0.750287  1
  Al  Al7  1  0.999947  0.499976  0.750383  1
  Ru  Ru8  1  0.744584  0.255252  0.995556  1
  Ru  Ru9  1  0.255424  0.744744  0.995557  1
  Ru  Ru10  1  0.255117  0.744724  0.504391  1
  Ru  Ru11  1  0.744869  0.255279  0.504408  1
  Pt  Pt12  1  0.254331  0.254053  0.994437  1
  Pt  Pt13  1  0.746241  0.745963  0.505595  1
  Pt  Pt14  1  0.253741  0.254033  0.505659  1
  Pt  Pt15  1  0.745687  0.745965  0.994375  1
