# generated using pymatgen
data_DyErMn2Co10P7
_symmetry_space_group_name_H-M   'P 1'
_cell_length_a   9.05619502
_cell_length_b   9.05104228
_cell_length_c   3.60551600
_cell_angle_alpha   90.00000000
_cell_angle_beta   90.00000000
_cell_angle_gamma   119.98345721
_symmetry_Int_Tables_number   1
_chemical_formula_structural   DyErMn2Co10P7
_chemical_formula_sum   'Dy1 Er1 Mn2 Co10 P7'
_cell_volume   255.98516042
_cell_formula_units_Z   1
loop_
 _symmetry_equiv_pos_site_id
 _symmetry_equiv_pos_as_xyz
  1  'x, y, z'
loop_
 _atom_site_type_symbol
 _atom_site_label
 _atom_site_symmetry_multiplicity
 _atom_site_fract_x
 _atom_site_fract_y
 _atom_site_fract_z
 _atom_site_occupancy
  Dy  Dy0  1  0.665880  0.331007  0.000000  1
  Er  Er1  1  0.332580  0.666476  0.500000  1
  Mn  Mn2  1  0.101199  0.221984  0.500000  1
  Mn  Mn3  1  0.779582  0.878609  0.500000  1
  Co  Co4  1  0.367638  0.938740  0.000000  1
  Co  Co5  1  0.061366  0.431571  0.000000  1
  Co  Co6  1  0.569018  0.630594  0.000000  1
  Co  Co7  1  0.883489  0.725440  0.000000  1
  Co  Co8  1  0.274773  0.156627  0.000000  1
  Co  Co9  1  0.841358  0.115774  0.000000  1
  Co  Co10  1  0.951906  0.565579  0.500000  1
  Co  Co11  1  0.436544  0.385491  0.500000  1
  Co  Co12  1  0.612200  0.049152  0.500000  1
  Co  Co13  1  0.125246  0.906615  0.500000  1
  P  P14  1  0.112370  0.701708  0.000000  1
  P  P15  1  0.300071  0.412492  0.000000  1
  P  P16  1  0.585927  0.887343  0.000000  1
  P  P17  1  0.710249  0.592337  0.500000  1
  P  P18  1  0.401598  0.113094  0.500000  1
  P  P19  1  0.885418  0.289288  0.500000  1
  P  P20  1  0.001588  0.000080  0.000000  1
