# generated using pymatgen
data_MgSc12(Si4Os)3
_symmetry_space_group_name_H-M   'P 1'
_cell_length_a   4.02497800
_cell_length_b   10.41388888
_cell_length_c   11.73778250
_cell_angle_alpha   89.80667478
_cell_angle_beta   90.00000000
_cell_angle_gamma   90.00000000
_symmetry_Int_Tables_number   1
_chemical_formula_structural   MgSc12(Si4Os)3
_chemical_formula_sum   'Mg1 Sc12 Si12 Os3'
_cell_volume   491.99426012
_cell_formula_units_Z   1
loop_
 _symmetry_equiv_pos_site_id
 _symmetry_equiv_pos_as_xyz
  1  'x, y, z'
loop_
 _atom_site_type_symbol
 _atom_site_label
 _atom_site_symmetry_multiplicity
 _atom_site_fract_x
 _atom_site_fract_y
 _atom_site_fract_z
 _atom_site_occupancy
  Mg  Mg0  1  0.750000  0.884159  0.824714  1
  Sc  Sc1  1  0.250000  0.879429  0.026383  1
  Sc  Sc2  1  0.250000  0.622817  0.514543  1
  Sc  Sc3  1  0.750000  0.129904  0.984033  1
  Sc  Sc4  1  0.750000  0.377524  0.478787  1
  Sc  Sc5  1  0.250000  0.920979  0.600837  1
  Sc  Sc6  1  0.250000  0.578607  0.106358  1
  Sc  Sc7  1  0.750000  0.078805  0.394634  1
  Sc  Sc8  1  0.750000  0.422393  0.899523  1
  Sc  Sc9  1  0.250000  0.647757  0.797863  1
  Sc  Sc10  1  0.250000  0.842836  0.297735  1
  Sc  Sc11  1  0.750000  0.341456  0.202786  1
  Sc  Sc12  1  0.750000  0.169847  0.700102  1
  Si  Si13  1  0.250000  0.033557  0.826963  1
  Si  Si14  1  0.250000  0.483912  0.321512  1
  Si  Si15  1  0.750000  0.985516  0.172883  1
  Si  Si16  1  0.750000  0.510669  0.676062  1
  Si  Si17  1  0.250000  0.259620  0.843522  1
  Si  Si18  1  0.250000  0.248706  0.342304  1
  Si  Si19  1  0.750000  0.749087  0.159526  1
  Si  Si20  1  0.750000  0.742235  0.646715  1
  Si  Si21  1  0.250000  0.195866  0.543963  1
  Si  Si22  1  0.250000  0.305853  0.048870  1
  Si  Si23  1  0.750000  0.803439  0.449503  1
  Si  Si24  1  0.750000  0.677480  0.962354  1
  Os  Os25  1  0.250000  0.389598  0.675094  1
  Os  Os26  1  0.250000  0.110255  0.179805  1
  Os  Os27  1  0.750000  0.607693  0.322627  1
