# generated using pymatgen
data_ScTi4Zn(Co5B2)2
_symmetry_space_group_name_H-M   'P 1'
_cell_length_a   8.53596349
_cell_length_b   8.52454605
_cell_length_c   2.99791300
_cell_angle_alpha   90.00000000
_cell_angle_beta   90.00000000
_cell_angle_gamma   89.41077464
_symmetry_Int_Tables_number   1
_chemical_formula_structural   ScTi4Zn(Co5B2)2
_chemical_formula_sum   'Sc1 Ti4 Zn1 Co10 B4'
_cell_volume   218.13224525
_cell_formula_units_Z   1
loop_
 _symmetry_equiv_pos_site_id
 _symmetry_equiv_pos_as_xyz
  1  'x, y, z'
loop_
 _atom_site_type_symbol
 _atom_site_label
 _atom_site_symmetry_multiplicity
 _atom_site_fract_x
 _atom_site_fract_y
 _atom_site_fract_z
 _atom_site_occupancy
  Sc  Sc0  1  0.828086  0.320665  0.000000  1
  Ti  Ti1  1  0.500895  0.500206  0.000000  1
  Ti  Ti2  1  0.322875  0.172700  0.000000  1
  Ti  Ti3  1  0.676212  0.826000  0.000000  1
  Ti  Ti4  1  0.172223  0.679253  0.000000  1
  Zn  Zn5  1  0.999720  0.003120  0.000000  1
  Co  Co6  1  0.496114  0.996793  0.500000  1
  Co  Co7  1  0.005496  0.505530  0.500000  1
  Co  Co8  1  0.082783  0.221313  0.500000  1
  Co  Co9  1  0.219914  0.927459  0.500000  1
  Co  Co10  1  0.772515  0.059574  0.500000  1
  Co  Co11  1  0.929076  0.781905  0.500000  1
  Co  Co12  1  0.428921  0.719582  0.500000  1
  Co  Co13  1  0.561272  0.274595  0.500000  1
  Co  Co14  1  0.720821  0.577427  0.500000  1
  Co  Co15  1  0.282271  0.432795  0.500000  1
  B  B16  1  0.618726  0.116035  0.000000  1
  B  B17  1  0.125405  0.379849  0.000000  1
  B  B18  1  0.881800  0.626894  0.000000  1
  B  B19  1  0.374874  0.878305  0.000000  1
