# generated using pymatgen
data_Y2Er6In3Os
_symmetry_space_group_name_H-M   'P 1'
_cell_length_a   10.31707300
_cell_length_b   10.32071968
_cell_length_c   7.09298558
_cell_angle_alpha   89.95958505
_cell_angle_beta   90.00000000
_cell_angle_gamma   119.98830282
_symmetry_Int_Tables_number   1
_chemical_formula_structural   Y2Er6In3Os
_chemical_formula_sum   'Y4 Er12 In6 Os2'
_cell_volume   654.14982272
_cell_formula_units_Z   2
loop_
 _symmetry_equiv_pos_site_id
 _symmetry_equiv_pos_as_xyz
  1  'x, y, z'
loop_
 _atom_site_type_symbol
 _atom_site_label
 _atom_site_symmetry_multiplicity
 _atom_site_fract_x
 _atom_site_fract_y
 _atom_site_fract_z
 _atom_site_occupancy
  Y  Y0  1  0.532126  0.064251  0.794022  1
  Y  Y1  1  0.936180  0.468042  0.794058  1
  Y  Y2  1  0.531862  0.468042  0.794058  1
  Y  Y3  1  0.467878  0.935756  0.294050  1
  Er  Er4  1  0.066133  0.533045  0.293561  1
  Er  Er5  1  0.466912  0.533045  0.293561  1
  Er  Er6  1  0.822661  0.645322  0.497916  1
  Er  Er7  1  0.354237  0.177674  0.498555  1
  Er  Er8  1  0.823437  0.177674  0.498555  1
  Er  Er9  1  0.177256  0.354512  0.000236  1
  Er  Er10  1  0.645437  0.822264  0.999804  1
  Er  Er11  1  0.176827  0.822264  0.999804  1
  Er  Er12  1  0.667083  0.334165  0.170878  1
  Er  Er13  1  0.332993  0.665986  0.670299  1
  Er  Er14  1  0.000004  0.000008  0.777375  1
  Er  Er15  1  0.999999  0.999998  0.277267  1
  In  In16  1  0.837089  0.674180  0.041640  1
  In  In17  1  0.325805  0.162873  0.041764  1
  In  In18  1  0.837067  0.162873  0.041764  1
  In  In19  1  0.163405  0.326809  0.541000  1
  In  In20  1  0.673639  0.836550  0.541328  1
  In  In21  1  0.162912  0.836550  0.541328  1
  Os  Os22  1  0.666642  0.333284  0.565184  1
  Os  Os23  1  0.332416  0.664833  0.067895  1
