# generated using pymatgen
data_HoErGa9Co2Pd
_symmetry_space_group_name_H-M   'P 1'
_cell_length_a   7.45996291
_cell_length_b   7.46108540
_cell_length_c   9.38988900
_cell_angle_alpha   90.00000000
_cell_angle_beta   90.00000000
_cell_angle_gamma   119.53914331
_symmetry_Int_Tables_number   1
_chemical_formula_structural   HoErGa9Co2Pd
_chemical_formula_sum   'Ho2 Er2 Ga18 Co4 Pd2'
_cell_volume   454.70309908
_cell_formula_units_Z   2
loop_
 _symmetry_equiv_pos_site_id
 _symmetry_equiv_pos_as_xyz
  1  'x, y, z'
loop_
 _atom_site_type_symbol
 _atom_site_label
 _atom_site_symmetry_multiplicity
 _atom_site_fract_x
 _atom_site_fract_y
 _atom_site_fract_z
 _atom_site_occupancy
  Ho  Ho0  1  0.503176  0.822647  0.750000  1
  Ho  Ho1  1  0.496824  0.177353  0.250000  1
  Er  Er2  1  0.177002  0.496348  0.250000  1
  Er  Er3  1  0.822998  0.503652  0.750000  1
  Ga  Ga4  1  0.165233  0.941854  0.750000  1
  Ga  Ga5  1  0.834767  0.058146  0.250000  1
  Ga  Ga6  1  0.057947  0.834392  0.250000  1
  Ga  Ga7  1  0.942053  0.165608  0.750000  1
  Ga  Ga8  1  0.641844  0.642046  0.250000  1
  Ga  Ga9  1  0.358156  0.357954  0.750000  1
  Ga  Ga10  1  0.156873  0.157110  0.063770  1
  Ga  Ga11  1  0.843127  0.842890  0.563770  1
  Ga  Ga12  1  0.843127  0.842890  0.936230  1
  Ga  Ga13  1  0.156873  0.157110  0.436230  1
  Ga  Ga14  1  0.498269  0.845088  0.076141  1
  Ga  Ga15  1  0.501731  0.154912  0.576141  1
  Ga  Ga16  1  0.154354  0.501422  0.924114  1
  Ga  Ga17  1  0.845646  0.498578  0.424114  1
  Ga  Ga18  1  0.501731  0.154912  0.923859  1
  Ga  Ga19  1  0.498269  0.845088  0.423859  1
  Ga  Ga20  1  0.845646  0.498578  0.075886  1
  Ga  Ga21  1  0.154354  0.501422  0.575886  1
  Co  Co22  1  0.171179  0.828992  0.999991  1
  Co  Co23  1  0.828821  0.171008  0.499991  1
  Co  Co24  1  0.828821  0.171008  0.000009  1
  Co  Co25  1  0.171179  0.828992  0.500009  1
  Pd  Pd26  1  0.500000  0.500000  0.500000  1
  Pd  Pd27  1  0.500000  0.500000  0.000000  1
