# generated using pymatgen
data_OsSe7I6
_symmetry_space_group_name_H-M   'P 1'
_cell_length_a   10.20349515
_cell_length_b   10.11268163
_cell_length_c   11.29605385
_cell_angle_alpha   102.81514885
_cell_angle_beta   103.38770827
_cell_angle_gamma   111.19170045
_symmetry_Int_Tables_number   1
_chemical_formula_structural   OsSe7I6
_chemical_formula_sum   'Os2 Se14 I12'
_cell_volume   995.45365709
_cell_formula_units_Z   2
loop_
 _symmetry_equiv_pos_site_id
 _symmetry_equiv_pos_as_xyz
  1  'x, y, z'
loop_
 _atom_site_type_symbol
 _atom_site_label
 _atom_site_symmetry_multiplicity
 _atom_site_fract_x
 _atom_site_fract_y
 _atom_site_fract_z
 _atom_site_occupancy
  Os  Os0  1  0.953491  0.841063  0.846317  1
  Os  Os1  1  0.046509  0.158937  0.153683  1
  Se  Se2  1  0.927525  0.015224  0.725783  1
  Se  Se3  1  0.072475  0.984776  0.274217  1
  Se  Se4  1  0.157622  0.243401  0.877440  1
  Se  Se5  1  0.842378  0.756599  0.122560  1
  Se  Se6  1  0.779352  0.105473  0.840248  1
  Se  Se7  1  0.220648  0.894527  0.159752  1
  Se  Se8  1  0.014930  0.309312  0.011231  1
  Se  Se9  1  0.985070  0.690688  0.988769  1
  Se  Se10  1  0.187148  0.065844  0.017469  1
  Se  Se11  1  0.812852  0.934156  0.982531  1
  Se  Se12  1  0.729638  0.630049  0.687031  1
  Se  Se13  1  0.270362  0.369951  0.312969  1
  Se  Se14  1  0.089096  0.757272  0.723895  1
  Se  Se15  1  0.910904  0.242728  0.276105  1
  I  I16  1  0.545104  0.784172  0.634115  1
  I  I17  1  0.454896  0.215828  0.365885  1
  I  I18  1  0.835826  0.677356  0.469672  1
  I  I19  1  0.164174  0.322644  0.530328  1
  I  I20  1  0.874642  0.420634  0.674744  1
  I  I21  1  0.125358  0.579366  0.325256  1
  I  I22  1  0.590204  0.503113  0.857112  1
  I  I23  1  0.409796  0.496887  0.142888  1
  I  I24  1  0.271877  0.021268  0.697670  1
  I  I25  1  0.728123  0.978732  0.302330  1
  I  I26  1  0.308458  0.747804  0.922870  1
  I  I27  1  0.691542  0.252196  0.077130  1
