# generated using pymatgen
data_Zr10GeBi6
_symmetry_space_group_name_H-M   'P 1'
_cell_length_a   5.95672101
_cell_length_b   8.77562690
_cell_length_c   8.77570001
_cell_angle_alpha   119.99967784
_cell_angle_beta   90.00067884
_cell_angle_gamma   89.99849518
_symmetry_Int_Tables_number   1
_chemical_formula_structural   Zr10GeBi6
_chemical_formula_sum   'Zr10 Ge1 Bi6'
_cell_volume   397.28230387
_cell_formula_units_Z   1
loop_
 _symmetry_equiv_pos_site_id
 _symmetry_equiv_pos_as_xyz
  1  'x, y, z'
loop_
 _atom_site_type_symbol
 _atom_site_label
 _atom_site_symmetry_multiplicity
 _atom_site_fract_x
 _atom_site_fract_y
 _atom_site_fract_z
 _atom_site_occupancy
  Zr  Zr0  1  0.500001  0.333335  0.666671  1
  Zr  Zr1  1  0.500000  0.666665  0.333329  1
  Zr  Zr2  1  0.999999  0.666667  0.333334  1
  Zr  Zr3  1  0.999999  0.333333  0.666666  1
  Zr  Zr4  1  0.764488  0.254540  0.000001  1
  Zr  Zr5  1  0.764480  0.745455  0.745449  1
  Zr  Zr6  1  0.764481  0.000004  0.254551  1
  Zr  Zr7  1  0.235511  0.745460  0.000001  1
  Zr  Zr8  1  0.235520  0.254546  0.254551  1
  Zr  Zr9  1  0.235520  0.999994  0.745448  1
  Ge  Ge10  1  0.499998  0.999999  0.000000  1
  Bi  Bi11  1  0.747876  0.610479  0.999999  1
  Bi  Bi12  1  0.747886  0.389529  0.389531  1
  Bi  Bi13  1  0.747886  0.000001  0.610470  1
  Bi  Bi14  1  0.252125  0.389520  0.999998  1
  Bi  Bi15  1  0.252114  0.610469  0.610470  1
  Bi  Bi16  1  0.252113  0.000001  0.389531  1
