# generated using pymatgen
data_Er9Sb5CO4
_symmetry_space_group_name_H-M   'P 1'
_cell_length_a   9.83322700
_cell_length_b   9.83322700
_cell_length_c   8.94767400
_cell_angle_alpha   90.00000000
_cell_angle_beta   90.00000000
_cell_angle_gamma   90.00000000
_symmetry_Int_Tables_number   1
_chemical_formula_structural   Er9Sb5CO4
_chemical_formula_sum   'Er18 Sb10 C2 O8'
_cell_volume   865.17165503
_cell_formula_units_Z   2
loop_
 _symmetry_equiv_pos_site_id
 _symmetry_equiv_pos_as_xyz
  1  'x, y, z'
loop_
 _atom_site_type_symbol
 _atom_site_label
 _atom_site_symmetry_multiplicity
 _atom_site_fract_x
 _atom_site_fract_y
 _atom_site_fract_z
 _atom_site_occupancy
  Er  Er0  1  0.170268  0.026219  0.003649  1
  Er  Er1  1  0.473781  0.170268  0.003649  1
  Er  Er2  1  0.026219  0.329732  0.003649  1
  Er  Er3  1  0.329732  0.473781  0.003649  1
  Er  Er4  1  0.750000  0.750000  0.310867  1
  Er  Er5  1  0.955131  0.144714  0.336662  1
  Er  Er6  1  0.544868  0.355286  0.336662  1
  Er  Er7  1  0.144714  0.544868  0.336662  1
  Er  Er8  1  0.355286  0.955131  0.336662  1
  Er  Er9  1  0.644714  0.044868  0.663338  1
  Er  Er10  1  0.855286  0.455132  0.663338  1
  Er  Er11  1  0.455132  0.644714  0.663338  1
  Er  Er12  1  0.044868  0.855286  0.663338  1
  Er  Er13  1  0.250000  0.250000  0.689133  1
  Er  Er14  1  0.670268  0.526220  0.996351  1
  Er  Er15  1  0.973780  0.670268  0.996351  1
  Er  Er16  1  0.526220  0.829733  0.996351  1
  Er  Er17  1  0.829733  0.973780  0.996351  1
  Sb  Sb18  1  0.653253  0.057924  0.307098  1
  Sb  Sb19  1  0.846748  0.442075  0.307098  1
  Sb  Sb20  1  0.442075  0.653253  0.307098  1
  Sb  Sb21  1  0.057924  0.846748  0.307098  1
  Sb  Sb22  1  0.250000  0.250000  0.332359  1
  Sb  Sb23  1  0.750000  0.750000  0.667641  1
  Sb  Sb24  1  0.942076  0.153253  0.692902  1
  Sb  Sb25  1  0.557924  0.346747  0.692902  1
  Sb  Sb26  1  0.153253  0.557924  0.692902  1
  Sb  Sb27  1  0.346747  0.942076  0.692902  1
  C  C28  1  0.750000  0.750000  0.059662  1
  C  C29  1  0.250000  0.250000  0.940338  1
  O  O30  1  0.975829  0.128371  0.093828  1
  O  O31  1  0.524171  0.371629  0.093828  1
  O  O32  1  0.128371  0.524171  0.093828  1
  O  O33  1  0.371629  0.975829  0.093828  1
  O  O34  1  0.628371  0.024171  0.906171  1
  O  O35  1  0.871629  0.475830  0.906171  1
  O  O36  1  0.475830  0.628371  0.906171  1
  O  O37  1  0.024171  0.871629  0.906171  1
