# generated using pymatgen
data_Er4LuCu2Bi
_symmetry_space_group_name_H-M   'P 1'
_cell_length_a   8.50525177
_cell_length_b   8.50525158
_cell_length_c   8.50525333
_cell_angle_alpha   124.70429664
_cell_angle_beta   124.70429604
_cell_angle_gamma   82.02839563
_symmetry_Int_Tables_number   1
_chemical_formula_structural   Er4LuCu2Bi
_chemical_formula_sum   'Er8 Lu2 Cu4 Bi2'
_cell_volume   399.86301133
_cell_formula_units_Z   2
loop_
 _symmetry_equiv_pos_site_id
 _symmetry_equiv_pos_as_xyz
  1  'x, y, z'
loop_
 _atom_site_type_symbol
 _atom_site_label
 _atom_site_symmetry_multiplicity
 _atom_site_fract_x
 _atom_site_fract_y
 _atom_site_fract_z
 _atom_site_occupancy
  Er  Er0  1  0.514956  0.014956  0.806445  1
  Er  Er1  1  0.208510  0.708510  0.193555  1
  Er  Er2  1  0.014956  0.208510  0.500000  1
  Er  Er3  1  0.708510  0.514956  0.500000  1
  Er  Er4  1  0.485044  0.985044  0.193555  1
  Er  Er5  1  0.791490  0.291490  0.806445  1
  Er  Er6  1  0.985044  0.791490  0.500000  1
  Er  Er7  1  0.291490  0.485044  0.500000  1
  Lu  Lu8  1  0.500000  0.500000  0.000000  1
  Lu  Lu9  1  0.000000  0.000000  0.000000  1
  Cu  Cu10  1  0.136044  0.636044  0.772088  1
  Cu  Cu11  1  0.863956  0.363956  0.227912  1
  Cu  Cu12  1  0.636044  0.863956  0.500000  1
  Cu  Cu13  1  0.363956  0.136044  0.500000  1
  Bi  Bi14  1  0.250000  0.250000  0.000000  1
  Bi  Bi15  1  0.750000  0.750000  0.000000  1
