# generated using pymatgen
data_Er3SiSe2
_symmetry_space_group_name_H-M   'P 1'
_cell_length_a   7.07831981
_cell_length_b   7.07831892
_cell_length_c   7.07831849
_cell_angle_alpha   146.57648947
_cell_angle_beta   132.49428634
_cell_angle_gamma   59.32693707
_symmetry_Int_Tables_number   1
_chemical_formula_structural   Er3SiSe2
_chemical_formula_sum   'Er3 Si1 Se2'
_cell_volume   142.77395258
_cell_formula_units_Z   1
loop_
 _symmetry_equiv_pos_site_id
 _symmetry_equiv_pos_as_xyz
  1  'x, y, z'
loop_
 _atom_site_type_symbol
 _atom_site_label
 _atom_site_symmetry_multiplicity
 _atom_site_fract_x
 _atom_site_fract_y
 _atom_site_fract_z
 _atom_site_occupancy
  Er  Er0  1  0.844486  0.344486  0.500000  1
  Er  Er1  1  0.500000  0.000000  0.500000  1
  Er  Er2  1  0.155514  0.655514  0.500000  1
  Si  Si3  1  0.000000  0.000000  0.000000  1
  Se  Se4  1  0.668888  0.668888  0.000000  1
  Se  Se5  1  0.331112  0.331112  0.000000  1
