# generated using pymatgen
data_Ho13Th3ZnCo4Hg3
_symmetry_space_group_name_H-M   'P 1'
_cell_length_a   9.49042245
_cell_length_b   9.50629222
_cell_length_c   9.49710554
_cell_angle_alpha   59.97303395
_cell_angle_beta   59.95793621
_cell_angle_gamma   59.90449918
_symmetry_Int_Tables_number   1
_chemical_formula_structural   Ho13Th3ZnCo4Hg3
_chemical_formula_sum   'Ho13 Th3 Zn1 Co4 Hg3'
_cell_volume   605.10687361
_cell_formula_units_Z   1
loop_
 _symmetry_equiv_pos_site_id
 _symmetry_equiv_pos_as_xyz
  1  'x, y, z'
loop_
 _atom_site_type_symbol
 _atom_site_label
 _atom_site_symmetry_multiplicity
 _atom_site_fract_x
 _atom_site_fract_y
 _atom_site_fract_z
 _atom_site_occupancy
  Ho  Ho0  1  0.946188  0.352043  0.351962  1
  Ho  Ho1  1  0.810786  0.189796  0.189966  1
  Ho  Ho2  1  0.188442  0.813061  0.813105  1
  Ho  Ho3  1  0.187932  0.812863  0.187824  1
  Ho  Ho4  1  0.813226  0.187438  0.811997  1
  Ho  Ho5  1  0.187899  0.187617  0.813045  1
  Ho  Ho6  1  0.813167  0.812203  0.187480  1
  Ho  Ho7  1  0.941711  0.565217  0.565313  1
  Ho  Ho8  1  0.563082  0.936750  0.937090  1
  Ho  Ho9  1  0.563772  0.937428  0.564274  1
  Ho  Ho10  1  0.941615  0.563204  0.933512  1
  Ho  Ho11  1  0.564117  0.564320  0.937382  1
  Ho  Ho12  1  0.941104  0.933411  0.563503  1
  Th  Th13  1  0.339601  0.347613  0.347330  1
  Th  Th14  1  0.344390  0.348576  0.958459  1
  Th  Th15  1  0.343593  0.958853  0.348724  1
  Zn  Zn16  1  0.249607  0.581375  0.581184  1
  Co  Co17  1  0.148401  0.141236  0.141065  1
  Co  Co18  1  0.147093  0.139627  0.570304  1
  Co  Co19  1  0.147311  0.570156  0.139343  1
  Co  Co20  1  0.565606  0.144353  0.144426  1
  Hg  Hg21  1  0.585335  0.583302  0.583063  1
  Hg  Hg22  1  0.583021  0.584297  0.245379  1
  Hg  Hg23  1  0.583001  0.245263  0.584268  1
