# generated using pymatgen
data_NdScTcB6
_symmetry_space_group_name_H-M   'P 1'
_cell_length_a   3.64543800
_cell_length_b   9.08426200
_cell_length_c   11.53912200
_cell_angle_alpha   90.00000000
_cell_angle_beta   90.00000000
_cell_angle_gamma   90.00000000
_symmetry_Int_Tables_number   1
_chemical_formula_structural   NdScTcB6
_chemical_formula_sum   'Nd4 Sc4 Tc4 B24'
_cell_volume   382.13087842
_cell_formula_units_Z   4
loop_
 _symmetry_equiv_pos_site_id
 _symmetry_equiv_pos_as_xyz
  1  'x, y, z'
loop_
 _atom_site_type_symbol
 _atom_site_label
 _atom_site_symmetry_multiplicity
 _atom_site_fract_x
 _atom_site_fract_y
 _atom_site_fract_z
 _atom_site_occupancy
  Nd  Nd0  1  0.000000  0.822120  0.084722  1
  Nd  Nd1  1  0.000000  0.177880  0.915278  1
  Nd  Nd2  1  0.000000  0.322120  0.415278  1
  Nd  Nd3  1  0.000000  0.677880  0.584722  1
  Sc  Sc4  1  0.000000  0.443957  0.130644  1
  Sc  Sc5  1  0.000000  0.556043  0.869356  1
  Sc  Sc6  1  0.000000  0.943957  0.369356  1
  Sc  Sc7  1  0.000000  0.056043  0.630644  1
  Tc  Tc8  1  0.000000  0.142041  0.183556  1
  Tc  Tc9  1  0.000000  0.857959  0.816444  1
  Tc  Tc10  1  0.000000  0.642041  0.316444  1
  Tc  Tc11  1  0.000000  0.357959  0.683556  1
  B  B12  1  0.500000  0.056567  0.070577  1
  B  B13  1  0.500000  0.943433  0.929423  1
  B  B14  1  0.500000  0.556567  0.429423  1
  B  B15  1  0.500000  0.443433  0.570577  1
  B  B16  1  0.500000  0.254866  0.084695  1
  B  B17  1  0.500000  0.745134  0.915305  1
  B  B18  1  0.500000  0.754866  0.415305  1
  B  B19  1  0.500000  0.245134  0.584695  1
  B  B20  1  0.500000  0.294977  0.234751  1
  B  B21  1  0.500000  0.705023  0.765249  1
  B  B22  1  0.500000  0.794977  0.265249  1
  B  B23  1  0.500000  0.205023  0.734751  1
  B  B24  1  0.500000  0.128173  0.316680  1
  B  B25  1  0.500000  0.871827  0.683320  1
  B  B26  1  0.500000  0.628173  0.183320  1
  B  B27  1  0.500000  0.371827  0.816680  1
  B  B28  1  0.500000  0.483058  0.284967  1
  B  B29  1  0.500000  0.516942  0.715033  1
  B  B30  1  0.500000  0.983058  0.215033  1
  B  B31  1  0.500000  0.016942  0.784967  1
  B  B32  1  0.500000  0.093746  0.474958  1
  B  B33  1  0.500000  0.906254  0.525042  1
  B  B34  1  0.500000  0.593746  0.025042  1
  B  B35  1  0.500000  0.406254  0.974958  1
