# generated using pymatgen
data_EuY2Bi5F30
_symmetry_space_group_name_H-M   'P 1'
_cell_length_a   8.61667398
_cell_length_b   8.61903526
_cell_length_c   8.63687000
_cell_angle_alpha   79.55515926
_cell_angle_beta   79.76844350
_cell_angle_gamma   100.70673869
_symmetry_Int_Tables_number   1
_chemical_formula_structural   EuY2Bi5F30
_chemical_formula_sum   'Eu1 Y2 Bi5 F30'
_cell_volume   604.82641283
_cell_formula_units_Z   1
loop_
 _symmetry_equiv_pos_site_id
 _symmetry_equiv_pos_as_xyz
  1  'x, y, z'
loop_
 _atom_site_type_symbol
 _atom_site_label
 _atom_site_symmetry_multiplicity
 _atom_site_fract_x
 _atom_site_fract_y
 _atom_site_fract_z
 _atom_site_occupancy
  Eu  Eu0  1  0.672732  0.756117  0.170549  1
  Y  Y1  1  0.172225  0.825649  0.250125  1
  Y  Y2  1  0.825292  0.174005  0.749797  1
  Bi  Bi3  1  0.751148  0.250329  0.249870  1
  Bi  Bi4  1  0.248117  0.751878  0.749723  1
  Bi  Bi5  1  0.751973  0.673815  0.671466  1
  Bi  Bi6  1  0.326174  0.247061  0.828609  1
  Bi  Bi7  1  0.245719  0.327483  0.329631  1
  F  F8  1  0.308087  0.342612  0.047728  1
  F  F9  1  0.946610  0.807958  0.162848  1
  F  F10  1  0.840925  0.446642  0.693131  1
  F  F11  1  0.436382  0.840308  0.190966  1
  F  F12  1  0.808358  0.939784  0.653868  1
  F  F13  1  0.342125  0.305415  0.560368  1
  F  F14  1  0.694166  0.654346  0.936104  1
  F  F15  1  0.062165  0.192035  0.844636  1
  F  F16  1  0.154604  0.555251  0.311026  1
  F  F17  1  0.552015  0.157740  0.807376  1
  F  F18  1  0.189469  0.053907  0.339738  1
  F  F19  1  0.658352  0.691740  0.451841  1
  F  F20  1  0.775825  0.290348  0.002877  1
  F  F21  1  0.997624  0.270222  0.210794  1
  F  F22  1  0.794766  0.495716  0.228746  1
  F  F23  1  0.494208  0.790464  0.730082  1
  F  F24  1  0.271415  0.999750  0.707406  1
  F  F25  1  0.289753  0.774196  0.503749  1
  F  F26  1  0.226418  0.711138  0.995639  1
  F  F27  1  0.001379  0.731307  0.792236  1
  F  F28  1  0.208093  0.505605  0.770220  1
  F  F29  1  0.505770  0.205861  0.270576  1
  F  F30  1  0.729925  0.004215  0.291634  1
  F  F31  1  0.712032  0.227184  0.496961  1
  F  F32  1  0.476047  0.522207  0.253508  1
  F  F33  1  0.753576  0.980091  0.965778  1
  F  F34  1  0.024969  0.249756  0.530951  1
  F  F35  1  0.253698  0.028625  0.017026  1
  F  F36  1  0.973382  0.745240  0.484028  1
  F  F37  1  0.524482  0.473999  0.748390  1
