# generated using pymatgen
data_CeNp2Sb4Pd2Pt
_symmetry_space_group_name_H-M   'P 1'
_cell_length_a   8.49137861
_cell_length_b   8.49137916
_cell_length_c   8.49137964
_cell_angle_alpha   109.39497496
_cell_angle_beta   109.39496788
_cell_angle_gamma   109.62382462
_symmetry_Int_Tables_number   1
_chemical_formula_structural   CeNp2Sb4Pd2Pt
_chemical_formula_sum   'Ce2 Np4 Sb8 Pd4 Pt2'
_cell_volume   471.31418089
_cell_formula_units_Z   2
loop_
 _symmetry_equiv_pos_site_id
 _symmetry_equiv_pos_as_xyz
  1  'x, y, z'
loop_
 _atom_site_type_symbol
 _atom_site_label
 _atom_site_symmetry_multiplicity
 _atom_site_fract_x
 _atom_site_fract_y
 _atom_site_fract_z
 _atom_site_occupancy
  Ce  Ce0  1  0.125000  0.875000  0.250000  1
  Ce  Ce1  1  0.375000  0.625000  0.750000  1
  Np  Np2  1  0.872172  0.250000  0.122172  1
  Np  Np3  1  0.627828  0.750000  0.377828  1
  Np  Np4  1  0.250000  0.127828  0.877828  1
  Np  Np5  1  0.750000  0.372172  0.622172  1
  Sb  Sb6  1  0.671140  0.499386  0.998613  1
  Sb  Sb7  1  0.499227  0.000614  0.671754  1
  Sb  Sb8  1  0.000773  0.672527  0.501387  1
  Sb  Sb9  1  0.828860  0.827473  0.828246  1
  Sb  Sb10  1  0.500614  0.999227  0.171754  1
  Sb  Sb11  1  0.172527  0.500773  0.001387  1
  Sb  Sb12  1  0.999386  0.171140  0.498613  1
  Sb  Sb13  1  0.327473  0.328860  0.328246  1
  Pd  Pd14  1  0.375487  0.250000  0.625487  1
  Pd  Pd15  1  0.124513  0.750000  0.874513  1
  Pd  Pd16  1  0.250000  0.624513  0.374513  1
  Pd  Pd17  1  0.750000  0.875487  0.125487  1
  Pt  Pt18  1  0.625000  0.375000  0.250000  1
  Pt  Pt19  1  0.875000  0.125000  0.750000  1
