# generated using pymatgen
data_Cs4Lu3Sb9Se20
_symmetry_space_group_name_H-M   'P 1'
_cell_length_a   4.09548500
_cell_length_b   12.29292343
_cell_length_c   22.95656904
_cell_angle_alpha   89.91666529
_cell_angle_beta   90.00000000
_cell_angle_gamma   90.00000000
_symmetry_Int_Tables_number   1
_chemical_formula_structural   Cs4Lu3Sb9Se20
_chemical_formula_sum   'Cs4 Lu3 Sb9 Se20'
_cell_volume   1155.75834563
_cell_formula_units_Z   1
loop_
 _symmetry_equiv_pos_site_id
 _symmetry_equiv_pos_as_xyz
  1  'x, y, z'
loop_
 _atom_site_type_symbol
 _atom_site_label
 _atom_site_symmetry_multiplicity
 _atom_site_fract_x
 _atom_site_fract_y
 _atom_site_fract_z
 _atom_site_occupancy
  Cs  Cs0  1  0.250000  0.490154  0.209534  1
  Cs  Cs1  1  0.750000  0.508547  0.790860  1
  Cs  Cs2  1  0.750000  0.989618  0.288898  1
  Cs  Cs3  1  0.250000  0.008653  0.709714  1
  Lu  Lu4  1  0.250000  0.365211  0.021406  1
  Lu  Lu5  1  0.750000  0.634521  0.978569  1
  Lu  Lu6  1  0.750000  0.863275  0.477557  1
  Sb  Sb7  1  0.250000  0.131715  0.522351  1
  Sb  Sb8  1  0.250000  0.809632  0.119675  1
  Sb  Sb9  1  0.750000  0.189541  0.879961  1
  Sb  Sb10  1  0.750000  0.312060  0.379574  1
  Sb  Sb11  1  0.250000  0.688206  0.621291  1
  Sb  Sb12  1  0.250000  0.596035  0.429450  1
  Sb  Sb13  1  0.750000  0.403714  0.570022  1
  Sb  Sb14  1  0.750000  0.098132  0.070921  1
  Sb  Sb15  1  0.250000  0.901690  0.928920  1
  Se  Se16  1  0.250000  0.808216  0.395967  1
  Se  Se17  1  0.750000  0.198357  0.608502  1
  Se  Se18  1  0.750000  0.307088  0.103873  1
  Se  Se19  1  0.250000  0.692705  0.896060  1
  Se  Se20  1  0.250000  0.254736  0.306091  1
  Se  Se21  1  0.750000  0.744356  0.694652  1
  Se  Se22  1  0.750000  0.754132  0.193464  1
  Se  Se23  1  0.250000  0.244374  0.806035  1
  Se  Se24  1  0.250000  0.361839  0.481049  1
  Se  Se25  1  0.750000  0.646098  0.517321  1
  Se  Se26  1  0.750000  0.853122  0.017513  1
  Se  Se27  1  0.250000  0.146749  0.982314  1
  Se  Se28  1  0.250000  0.027051  0.151399  1
  Se  Se29  1  0.750000  0.972524  0.848317  1
  Se  Se30  1  0.750000  0.528242  0.347947  1
  Se  Se31  1  0.250000  0.473932  0.652247  1
  Se  Se32  1  0.250000  0.582368  0.057426  1
  Se  Se33  1  0.750000  0.417453  0.942612  1
  Se  Se34  1  0.750000  0.080480  0.440419  1
  Se  Se35  1  0.250000  0.915473  0.558093  1
