# generated using pymatgen
data_Tm3Ni8P6W
_symmetry_space_group_name_H-M   'P 1'
_cell_length_a   3.72834400
_cell_length_b   10.63234100
_cell_length_c   12.27581800
_cell_angle_alpha   90.00000000
_cell_angle_beta   90.00000000
_cell_angle_gamma   90.00000000
_symmetry_Int_Tables_number   1
_chemical_formula_structural   Tm3Ni8P6W
_chemical_formula_sum   'Tm6 Ni16 P12 W2'
_cell_volume   486.62600545
_cell_formula_units_Z   2
loop_
 _symmetry_equiv_pos_site_id
 _symmetry_equiv_pos_as_xyz
  1  'x, y, z'
loop_
 _atom_site_type_symbol
 _atom_site_label
 _atom_site_symmetry_multiplicity
 _atom_site_fract_x
 _atom_site_fract_y
 _atom_site_fract_z
 _atom_site_occupancy
  Tm  Tm0  1  0.000000  0.500000  0.525164  1
  Tm  Tm1  1  0.500000  0.000000  0.474836  1
  Tm  Tm2  1  0.500000  0.820177  0.207590  1
  Tm  Tm3  1  0.500000  0.179823  0.207590  1
  Tm  Tm4  1  0.000000  0.679823  0.792410  1
  Tm  Tm5  1  0.000000  0.320177  0.792410  1
  Ni  Ni6  1  0.500000  0.500000  0.699747  1
  Ni  Ni7  1  0.000000  0.000000  0.300253  1
  Ni  Ni8  1  0.000000  0.500000  0.985147  1
  Ni  Ni9  1  0.500000  0.000000  0.014853  1
  Ni  Ni10  1  0.500000  0.332811  0.988031  1
  Ni  Ni11  1  0.500000  0.667189  0.988031  1
  Ni  Ni12  1  0.000000  0.167189  0.011969  1
  Ni  Ni13  1  0.000000  0.832811  0.011969  1
  Ni  Ni14  1  0.500000  0.302532  0.428554  1
  Ni  Ni15  1  0.500000  0.697468  0.428554  1
  Ni  Ni16  1  0.000000  0.197468  0.571446  1
  Ni  Ni17  1  0.000000  0.802532  0.571446  1
  Ni  Ni18  1  0.500000  0.877994  0.709667  1
  Ni  Ni19  1  0.500000  0.122006  0.709667  1
  Ni  Ni20  1  0.000000  0.622006  0.290333  1
  Ni  Ni21  1  0.000000  0.377994  0.290333  1
  P  P22  1  0.500000  0.500000  0.877119  1
  P  P23  1  0.000000  0.000000  0.122881  1
  P  P24  1  0.500000  0.500000  0.350980  1
  P  P25  1  0.000000  0.000000  0.649020  1
  P  P26  1  0.500000  0.314998  0.614504  1
  P  P27  1  0.500000  0.685002  0.614504  1
  P  P28  1  0.000000  0.185002  0.385496  1
  P  P29  1  0.000000  0.814998  0.385496  1
  P  P30  1  0.500000  0.843529  0.891865  1
  P  P31  1  0.500000  0.156471  0.891865  1
  P  P32  1  0.000000  0.656471  0.108135  1
  P  P33  1  0.000000  0.343529  0.108135  1
  W  W34  1  0.500000  0.500000  0.154356  1
  W  W35  1  0.000000  0.000000  0.845644  1
