# generated using pymatgen
data_Rb2BaP2O7
_symmetry_space_group_name_H-M   'P 1'
_cell_length_a   6.09314312
_cell_length_b   6.09314354
_cell_length_c   14.33887973
_cell_angle_alpha   75.33204251
_cell_angle_beta   75.33204046
_cell_angle_gamma   60.03958175
_symmetry_Int_Tables_number   1
_chemical_formula_structural   Rb2BaP2O7
_chemical_formula_sum   'Rb4 Ba2 P4 O14'
_cell_volume   441.04959399
_cell_formula_units_Z   2
loop_
 _symmetry_equiv_pos_site_id
 _symmetry_equiv_pos_as_xyz
  1  'x, y, z'
loop_
 _atom_site_type_symbol
 _atom_site_label
 _atom_site_symmetry_multiplicity
 _atom_site_fract_x
 _atom_site_fract_y
 _atom_site_fract_z
 _atom_site_occupancy
  Rb  Rb0  1  0.867455  0.433869  0.330167  1
  Rb  Rb1  1  0.566131  0.132545  0.169833  1
  Rb  Rb2  1  0.132545  0.566131  0.669833  1
  Rb  Rb3  1  0.433869  0.867455  0.830167  1
  Ba  Ba4  1  0.500000  0.000000  0.500000  1
  Ba  Ba5  1  0.000000  0.500000  0.000000  1
  P  P6  1  0.796811  0.244457  0.641890  1
  P  P7  1  0.755543  0.203189  0.858110  1
  P  P8  1  0.203189  0.755543  0.358110  1
  P  P9  1  0.244457  0.796811  0.141890  1
  O  O10  1  0.658982  0.341018  0.750000  1
  O  O11  1  0.341018  0.658982  0.250000  1
  O  O12  1  0.698298  0.496658  0.571544  1
  O  O13  1  0.503342  0.301702  0.928456  1
  O  O14  1  0.301702  0.503342  0.428456  1
  O  O15  1  0.496658  0.698298  0.071544  1
  O  O16  1  0.088055  0.106338  0.640186  1
  O  O17  1  0.893662  0.911945  0.859814  1
  O  O18  1  0.911945  0.893662  0.359814  1
  O  O19  1  0.106338  0.088055  0.140186  1
  O  O20  1  0.066045  0.691778  0.135432  1
  O  O21  1  0.308222  0.933955  0.364568  1
  O  O22  1  0.933955  0.308222  0.864568  1
  O  O23  1  0.691778  0.066045  0.635432  1
