# generated using pymatgen
data_Ba2AlFe3(SeO3)8
_symmetry_space_group_name_H-M   'P 1'
_cell_length_a   10.30514434
_cell_length_b   5.26022489
_cell_length_c   10.68977453
_cell_angle_alpha   90.21396047
_cell_angle_beta   95.63135801
_cell_angle_gamma   89.88776437
_symmetry_Int_Tables_number   1
_chemical_formula_structural   Ba2AlFe3(SeO3)8
_chemical_formula_sum   'Ba2 Al1 Fe3 Se8 O24'
_cell_volume   576.66328978
_cell_formula_units_Z   1
loop_
 _symmetry_equiv_pos_site_id
 _symmetry_equiv_pos_as_xyz
  1  'x, y, z'
loop_
 _atom_site_type_symbol
 _atom_site_label
 _atom_site_symmetry_multiplicity
 _atom_site_fract_x
 _atom_site_fract_y
 _atom_site_fract_z
 _atom_site_occupancy
  Ba  Ba0  1  0.252204  0.938012  0.248293  1
  Ba  Ba1  1  0.747797  0.061988  0.751707  1
  Al  Al2  1  0.500000  0.000000  0.000000  1
  Fe  Fe3  1  0.000000  0.500000  0.000000  1
  Fe  Fe4  1  0.500000  0.500000  0.500000  1
  Fe  Fe5  1  0.000000  0.000000  0.500000  1
  Se  Se6  1  0.833595  0.988565  0.095943  1
  Se  Se7  1  0.524645  0.496339  0.176248  1
  Se  Se8  1  0.976898  0.494492  0.318339  1
  Se  Se9  1  0.659067  0.989415  0.402073  1
  Se  Se10  1  0.340933  0.010585  0.597927  1
  Se  Se11  1  0.023102  0.505508  0.681661  1
  Se  Se12  1  0.475355  0.503661  0.823752  1
  Se  Se13  1  0.166405  0.011435  0.904057  1
  O  O14  1  0.122942  0.187920  0.032635  1
  O  O15  1  0.843141  0.293798  0.037301  1
  O  O16  1  0.433794  0.707375  0.077783  1
  O  O17  1  0.667585  0.949009  0.092076  1
  O  O18  1  0.446485  0.209880  0.139312  1
  O  O19  1  0.047762  0.589820  0.184698  1
  O  O20  1  0.451997  0.578530  0.311586  1
  O  O21  1  0.055247  0.206480  0.348872  1
  O  O22  1  0.823924  0.941574  0.399105  1
  O  O23  1  0.070838  0.691115  0.421460  1
  O  O24  1  0.656572  0.293089  0.464757  1
  O  O25  1  0.379565  0.187357  0.468420  1
  O  O26  1  0.620435  0.812642  0.531581  1
  O  O27  1  0.343429  0.706910  0.535243  1
  O  O28  1  0.929163  0.308884  0.578539  1
  O  O29  1  0.176076  0.058427  0.600894  1
  O  O30  1  0.944752  0.793520  0.651128  1
  O  O31  1  0.548003  0.421469  0.688413  1
  O  O32  1  0.952238  0.410179  0.815303  1
  O  O33  1  0.553515  0.790120  0.860687  1
  O  O34  1  0.332415  0.050992  0.907923  1
  O  O35  1  0.566207  0.292624  0.922216  1
  O  O36  1  0.156860  0.706201  0.962700  1
  O  O37  1  0.877058  0.812079  0.967365  1
