# generated using pymatgen
data_La16Nd3LuPb16
_symmetry_space_group_name_H-M   'P 1'
_cell_length_a   8.57325600
_cell_length_b   8.68747304
_cell_length_c   16.56183400
_cell_angle_alpha   90.00000000
_cell_angle_beta   90.00000000
_cell_angle_gamma   89.99457214
_symmetry_Int_Tables_number   1
_chemical_formula_structural   La16Nd3LuPb16
_chemical_formula_sum   'La16 Nd3 Lu1 Pb16'
_cell_volume   1233.52423736
_cell_formula_units_Z   1
loop_
 _symmetry_equiv_pos_site_id
 _symmetry_equiv_pos_as_xyz
  1  'x, y, z'
loop_
 _atom_site_type_symbol
 _atom_site_label
 _atom_site_symmetry_multiplicity
 _atom_site_fract_x
 _atom_site_fract_y
 _atom_site_fract_z
 _atom_site_occupancy
  La  La0  1  0.626263  0.157541  0.618954  1
  La  La1  1  0.126331  0.342598  0.880790  1
  La  La2  1  0.374911  0.843244  0.119542  1
  La  La3  1  0.872894  0.658108  0.380472  1
  La  La4  1  0.374911  0.843244  0.380458  1
  La  La5  1  0.872894  0.658108  0.119528  1
  La  La6  1  0.626263  0.157541  0.881046  1
  La  La7  1  0.126331  0.342598  0.619210  1
  La  La8  1  0.469782  0.678281  0.599604  1
  La  La9  1  0.969985  0.821498  0.900611  1
  La  La10  1  0.530620  0.320640  0.099587  1
  La  La11  1  0.029427  0.177941  0.400229  1
  La  La12  1  0.530620  0.320640  0.400413  1
  La  La13  1  0.029427  0.177941  0.099771  1
  La  La14  1  0.469782  0.678281  0.900396  1
  La  La15  1  0.969985  0.821498  0.599389  1
  Nd  Nd16  1  0.794317  0.496894  0.750000  1
  Nd  Nd17  1  0.294231  0.003299  0.750000  1
  Nd  Nd18  1  0.205639  0.502727  0.250000  1
  Lu  Lu19  1  0.707438  0.995968  0.250000  1
  Pb  Pb20  1  0.716170  0.968497  0.453204  1
  Pb  Pb21  1  0.216151  0.532375  0.045679  1
  Pb  Pb22  1  0.283553  0.032270  0.954776  1
  Pb  Pb23  1  0.783602  0.468126  0.545164  1
  Pb  Pb24  1  0.283553  0.032270  0.545224  1
  Pb  Pb25  1  0.783602  0.468126  0.954836  1
  Pb  Pb26  1  0.716170  0.968497  0.046796  1
  Pb  Pb27  1  0.216151  0.532375  0.454321  1
  Pb  Pb28  1  0.430947  0.376700  0.750000  1
  Pb  Pb29  1  0.930676  0.123057  0.750000  1
  Pb  Pb30  1  0.569430  0.624115  0.250000  1
  Pb  Pb31  1  0.067299  0.877609  0.250000  1
  Pb  Pb32  1  0.661200  0.847893  0.750000  1
  Pb  Pb33  1  0.161136  0.652356  0.750000  1
  Pb  Pb34  1  0.339569  0.152149  0.250000  1
  Pb  Pb35  1  0.838741  0.344993  0.250000  1
