# generated using pymatgen
data_Tb5Y5(Tl3S)2
_symmetry_space_group_name_H-M   'P 1'
_cell_length_a   9.18118200
_cell_length_b   9.18126061
_cell_length_c   6.74185100
_cell_angle_alpha   90.00000000
_cell_angle_beta   90.00000000
_cell_angle_gamma   120.01937643
_symmetry_Int_Tables_number   1
_chemical_formula_structural   Tb5Y5(Tl3S)2
_chemical_formula_sum   'Tb5 Y5 Tl6 S2'
_cell_volume   492.06883977
_cell_formula_units_Z   1
loop_
 _symmetry_equiv_pos_site_id
 _symmetry_equiv_pos_as_xyz
  1  'x, y, z'
loop_
 _atom_site_type_symbol
 _atom_site_label
 _atom_site_symmetry_multiplicity
 _atom_site_fract_x
 _atom_site_fract_y
 _atom_site_fract_z
 _atom_site_occupancy
  Tb  Tb0  1  0.241417  0.000301  0.750000  1
  Tb  Tb1  1  0.000302  0.241420  0.750000  1
  Tb  Tb2  1  0.240973  0.240973  0.250000  1
  Tb  Tb3  1  0.758466  0.999537  0.250000  1
  Tb  Tb4  1  0.999535  0.758464  0.250000  1
  Y  Y5  1  0.759393  0.759391  0.750000  1
  Y  Y6  1  0.666688  0.333423  0.999899  1
  Y  Y7  1  0.333424  0.666688  0.999898  1
  Y  Y8  1  0.333424  0.666688  0.500102  1
  Y  Y9  1  0.666688  0.333423  0.500101  1
  Tl  Tl10  1  0.404262  0.404257  0.750000  1
  Tl  Tl11  1  0.596135  0.999711  0.750000  1
  Tl  Tl12  1  0.999703  0.596132  0.750000  1
  Tl  Tl13  1  0.595803  0.595797  0.250000  1
  Tl  Tl14  1  0.403869  0.999867  0.250000  1
  Tl  Tl15  1  0.999862  0.403865  0.250000  1
  S  S16  1  0.000032  0.000031  0.999989  1
  S  S17  1  0.000032  0.000031  0.500011  1
