# generated using pymatgen
data_K8TiSb4
_symmetry_space_group_name_H-M   'P 1'
_cell_length_a   11.55111386
_cell_length_b   11.55111411
_cell_length_c   11.55111400
_cell_angle_alpha   60.00000030
_cell_angle_beta   59.99999959
_cell_angle_gamma   59.99999713
_symmetry_Int_Tables_number   1
_chemical_formula_structural   K8TiSb4
_chemical_formula_sum   'K16 Ti2 Sb8'
_cell_volume   1089.82458547
_cell_formula_units_Z   2
loop_
 _symmetry_equiv_pos_site_id
 _symmetry_equiv_pos_as_xyz
  1  'x, y, z'
loop_
 _atom_site_type_symbol
 _atom_site_label
 _atom_site_symmetry_multiplicity
 _atom_site_fract_x
 _atom_site_fract_y
 _atom_site_fract_z
 _atom_site_occupancy
  K  K0  1  0.625000  0.125000  0.625000  1
  K  K1  1  0.625000  0.625000  0.125000  1
  K  K2  1  0.125000  0.625000  0.625000  1
  K  K3  1  0.625000  0.625000  0.625000  1
  K  K4  1  0.025107  0.025107  0.474893  1
  K  K5  1  0.775107  0.224893  0.224893  1
  K  K6  1  0.224893  0.775107  0.775107  1
  K  K7  1  0.775107  0.775107  0.224893  1
  K  K8  1  0.775107  0.224893  0.775107  1
  K  K9  1  0.224893  0.775107  0.224893  1
  K  K10  1  0.474893  0.025107  0.474893  1
  K  K11  1  0.474893  0.025107  0.025107  1
  K  K12  1  0.025107  0.474893  0.474893  1
  K  K13  1  0.025107  0.474893  0.025107  1
  K  K14  1  0.224893  0.224893  0.775107  1
  K  K15  1  0.474893  0.474893  0.025107  1
  Ti  Ti16  1  0.750000  0.750000  0.750000  1
  Ti  Ti17  1  0.500000  0.500000  0.500000  1
  Sb  Sb18  1  0.401491  0.795528  0.401491  1
  Sb  Sb19  1  0.848509  0.848509  0.454472  1
  Sb  Sb20  1  0.454472  0.848509  0.848509  1
  Sb  Sb21  1  0.848509  0.848509  0.848509  1
  Sb  Sb22  1  0.795528  0.401491  0.401491  1
  Sb  Sb23  1  0.401491  0.401491  0.401491  1
  Sb  Sb24  1  0.401491  0.401491  0.795528  1
  Sb  Sb25  1  0.848509  0.454472  0.848509  1
