# generated using pymatgen
data_Ac9Al5S21
_symmetry_space_group_name_H-M   'P 1'
_cell_length_a   12.18495725
_cell_length_b   12.18495665
_cell_length_c   12.18495700
_cell_angle_alpha   96.86974826
_cell_angle_beta   96.86974792
_cell_angle_gamma   96.86975060
_symmetry_Int_Tables_number   1
_chemical_formula_structural   Ac9Al5S21
_chemical_formula_sum   'Ac18 Al10 S42'
_cell_volume   1766.72040048
_cell_formula_units_Z   2
loop_
 _symmetry_equiv_pos_site_id
 _symmetry_equiv_pos_as_xyz
  1  'x, y, z'
loop_
 _atom_site_type_symbol
 _atom_site_label
 _atom_site_symmetry_multiplicity
 _atom_site_fract_x
 _atom_site_fract_y
 _atom_site_fract_z
 _atom_site_occupancy
  Ac  Ac0  1  0.118094  0.876054  0.746907  1
  Ac  Ac1  1  0.458010  0.216004  0.080237  1
  Ac  Ac2  1  0.777692  0.546583  0.409090  1
  Ac  Ac3  1  0.409090  0.777692  0.546583  1
  Ac  Ac4  1  0.746907  0.118094  0.876054  1
  Ac  Ac5  1  0.080237  0.458010  0.216004  1
  Ac  Ac6  1  0.216004  0.080237  0.458010  1
  Ac  Ac7  1  0.546583  0.409090  0.777692  1
  Ac  Ac8  1  0.876054  0.746907  0.118094  1
  Ac  Ac9  1  0.208411  0.446762  0.580045  1
  Ac  Ac10  1  0.546396  0.786747  0.923918  1
  Ac  Ac11  1  0.876702  0.113639  0.245607  1
  Ac  Ac12  1  0.923918  0.546396  0.786747  1
  Ac  Ac13  1  0.245607  0.876702  0.113639  1
  Ac  Ac14  1  0.580045  0.208411  0.446762  1
  Ac  Ac15  1  0.113639  0.245607  0.876702  1
  Ac  Ac16  1  0.446762  0.580045  0.208411  1
  Ac  Ac17  1  0.786747  0.923918  0.546396  1
  Al  Al18  1  0.723522  0.390229  0.051800  1
  Al  Al19  1  0.051800  0.723522  0.390229  1
  Al  Al20  1  0.390229  0.051800  0.723522  1
  Al  Al21  1  0.886850  0.226468  0.552214  1
  Al  Al22  1  0.226468  0.552214  0.886850  1
  Al  Al23  1  0.552214  0.886850  0.226468  1
  Al  Al24  1  0.847013  0.847013  0.847013  1
  Al  Al25  1  0.164470  0.164470  0.164470  1
  Al  Al26  1  0.664730  0.664730  0.664730  1
  Al  Al27  1  0.346801  0.346801  0.346801  1
  S  S28  1  0.841362  0.512132  0.175535  1
  S  S29  1  0.175535  0.841362  0.512132  1
  S  S30  1  0.512132  0.175535  0.841362  1
  S  S31  1  0.675745  0.010908  0.342341  1
  S  S32  1  0.010908  0.342341  0.675745  1
  S  S33  1  0.342341  0.675745  0.010908  1
  S  S34  1  0.539067  0.390210  0.309156  1
  S  S35  1  0.876314  0.740606  0.663135  1
  S  S36  1  0.225075  0.081964  0.999222  1
  S  S37  1  0.999222  0.225075  0.081964  1
  S  S38  1  0.309156  0.539067  0.390210  1
  S  S39  1  0.663135  0.876314  0.740606  1
  S  S40  1  0.740606  0.663135  0.876314  1
  S  S41  1  0.081964  0.999222  0.225075  1
  S  S42  1  0.390210  0.309156  0.539067  1
  S  S43  1  0.143376  0.279827  0.355728  1
  S  S44  1  0.479985  0.620425  0.706568  1
  S  S45  1  0.786470  0.936842  0.016211  1
  S  S46  1  0.706568  0.479985  0.620425  1
  S  S47  1  0.016211  0.786470  0.936842  1
  S  S48  1  0.355728  0.143376  0.279827  1
  S  S49  1  0.936842  0.016211  0.786470  1
  S  S50  1  0.279827  0.355728  0.143376  1
  S  S51  1  0.620425  0.706568  0.479985  1
  S  S52  1  0.552312  0.445666  0.024253  1
  S  S53  1  0.881959  0.779494  0.365116  1
  S  S54  1  0.217640  0.105223  0.703361  1
  S  S55  1  0.703361  0.217640  0.105223  1
  S  S56  1  0.024253  0.552312  0.445666  1
  S  S57  1  0.365116  0.881959  0.779494  1
  S  S58  1  0.779494  0.365116  0.881959  1
  S  S59  1  0.105223  0.703361  0.217640  1
  S  S60  1  0.445666  0.024253  0.552312  1
  S  S61  1  0.966526  0.080078  0.481809  1
  S  S62  1  0.300309  0.402044  0.815804  1
  S  S63  1  0.631542  0.737801  0.159592  1
  S  S64  1  0.815804  0.300309  0.402044  1
  S  S65  1  0.159592  0.631542  0.737801  1
  S  S66  1  0.481809  0.966526  0.080078  1
  S  S67  1  0.737801  0.159592  0.631542  1
  S  S68  1  0.080078  0.481809  0.966526  1
  S  S69  1  0.402044  0.815804  0.300309  1
