# generated using pymatgen
data_Nd5Gd3(Si3Ir)4
_symmetry_space_group_name_H-M   'P 1'
_cell_length_a   8.28096000
_cell_length_b   8.28096940
_cell_length_c   8.52337500
_cell_angle_alpha   90.00000000
_cell_angle_beta   90.00000000
_cell_angle_gamma   119.99997046
_symmetry_Int_Tables_number   1
_chemical_formula_structural   Nd5Gd3(Si3Ir)4
_chemical_formula_sum   'Nd5 Gd3 Si12 Ir4'
_cell_volume   506.17911695
_cell_formula_units_Z   1
loop_
 _symmetry_equiv_pos_site_id
 _symmetry_equiv_pos_as_xyz
  1  'x, y, z'
loop_
 _atom_site_type_symbol
 _atom_site_label
 _atom_site_symmetry_multiplicity
 _atom_site_fract_x
 _atom_site_fract_y
 _atom_site_fract_z
 _atom_site_occupancy
  Nd  Nd0  1  0.000045  0.000118  0.750000  1
  Nd  Nd1  1  0.999888  0.000026  0.250000  1
  Nd  Nd2  1  0.499706  0.500286  0.750000  1
  Nd  Nd3  1  0.499742  0.999521  0.750000  1
  Nd  Nd4  1  0.000508  0.500268  0.750000  1
  Gd  Gd5  1  0.500326  0.499816  0.250000  1
  Gd  Gd6  1  0.999794  0.499723  0.250000  1
  Gd  Gd7  1  0.499992  0.000010  0.250000  1
  Si  Si8  1  0.832388  0.167626  0.003150  1
  Si  Si9  1  0.832417  0.664805  0.003136  1
  Si  Si10  1  0.335214  0.167623  0.003153  1
  Si  Si11  1  0.832388  0.167626  0.496850  1
  Si  Si12  1  0.832417  0.664805  0.496864  1
  Si  Si13  1  0.335214  0.167623  0.496847  1
  Si  Si14  1  0.167580  0.832402  0.496842  1
  Si  Si15  1  0.664786  0.832394  0.496844  1
  Si  Si16  1  0.167621  0.335228  0.496823  1
  Si  Si17  1  0.167580  0.832402  0.003158  1
  Si  Si18  1  0.664786  0.832394  0.003156  1
  Si  Si19  1  0.167621  0.335228  0.003177  1
  Ir  Ir20  1  0.666678  0.333360  0.006689  1
  Ir  Ir21  1  0.666678  0.333360  0.493311  1
  Ir  Ir22  1  0.333315  0.666679  0.492629  1
  Ir  Ir23  1  0.333315  0.666679  0.007371  1
