# generated using pymatgen
data_Ac3(CuSi2)2
_symmetry_space_group_name_H-M   'P 1'
_cell_length_a   4.23913600
_cell_length_b   6.18996571
_cell_length_c   8.55543765
_cell_angle_alpha   96.06352715
_cell_angle_beta   90.00000000
_cell_angle_gamma   110.02438174
_symmetry_Int_Tables_number   1
_chemical_formula_structural   Ac3(CuSi2)2
_chemical_formula_sum   'Ac3 Cu2 Si4'
_cell_volume   209.58688283
_cell_formula_units_Z   1
loop_
 _symmetry_equiv_pos_site_id
 _symmetry_equiv_pos_as_xyz
  1  'x, y, z'
loop_
 _atom_site_type_symbol
 _atom_site_label
 _atom_site_symmetry_multiplicity
 _atom_site_fract_x
 _atom_site_fract_y
 _atom_site_fract_z
 _atom_site_occupancy
  Ac  Ac0  1  0.000000  0.000000  0.000000  1
  Ac  Ac1  1  0.337914  0.675830  0.332238  1
  Ac  Ac2  1  0.662085  0.324169  0.667760  1
  Cu  Cu3  1  0.612092  0.224185  0.281505  1
  Cu  Cu4  1  0.387907  0.775815  0.718495  1
  Si  Si5  1  0.718339  0.436680  0.057097  1
  Si  Si6  1  0.059994  0.119988  0.389365  1
  Si  Si7  1  0.940005  0.880011  0.610635  1
  Si  Si8  1  0.281662  0.563321  0.942903  1
