# generated using pymatgen
data_Lu12Tl2ZnFe2
_symmetry_space_group_name_H-M   'P 1'
_cell_length_a   8.22141926
_cell_length_b   8.22141788
_cell_length_c   8.22142000
_cell_angle_alpha   109.59617886
_cell_angle_beta   109.59618286
_cell_angle_gamma   109.22159056
_symmetry_Int_Tables_number   1
_chemical_formula_structural   Lu12Tl2ZnFe2
_chemical_formula_sum   'Lu12 Tl2 Zn1 Fe2'
_cell_volume   427.77191828
_cell_formula_units_Z   1
loop_
 _symmetry_equiv_pos_site_id
 _symmetry_equiv_pos_as_xyz
  1  'x, y, z'
loop_
 _atom_site_type_symbol
 _atom_site_label
 _atom_site_symmetry_multiplicity
 _atom_site_fract_x
 _atom_site_fract_y
 _atom_site_fract_z
 _atom_site_occupancy
  Lu  Lu0  1  0.305942  0.305937  0.611880  1
  Lu  Lu1  1  0.694058  0.694063  0.388120  1
  Lu  Lu2  1  0.305943  0.694063  0.000005  1
  Lu  Lu3  1  0.694057  0.305937  0.999995  1
  Lu  Lu4  1  0.445512  0.202842  0.242671  1
  Lu  Lu5  1  0.554488  0.797158  0.757329  1
  Lu  Lu6  1  0.960172  0.202842  0.757329  1
  Lu  Lu7  1  0.202844  0.960170  0.757325  1
  Lu  Lu8  1  0.039828  0.797158  0.242671  1
  Lu  Lu9  1  0.797156  0.039830  0.242675  1
  Lu  Lu10  1  0.202845  0.445516  0.242672  1
  Lu  Lu11  1  0.797155  0.554484  0.757328  1
  Tl  Tl12  1  0.500000  0.000000  0.500000  1
  Tl  Tl13  1  0.000000  0.500000  0.500000  1
  Zn  Zn14  1  0.000000  0.000000  0.000000  1
  Fe  Fe15  1  0.385155  0.385066  0.999911  1
  Fe  Fe16  1  0.614845  0.614934  0.000089  1
