# generated using pymatgen
data_Tb4Er3Tm(SiBr6)2
_symmetry_space_group_name_H-M   'P 1'
_cell_length_a   4.04328600
_cell_length_b   13.21060003
_cell_length_c   13.96728503
_cell_angle_alpha   90.00755569
_cell_angle_beta   90.00000000
_cell_angle_gamma   90.00000000
_symmetry_Int_Tables_number   1
_chemical_formula_structural   Tb4Er3Tm(SiBr6)2
_chemical_formula_sum   'Tb4 Er3 Tm1 Si2 Br12'
_cell_volume   746.05182653
_cell_formula_units_Z   1
loop_
 _symmetry_equiv_pos_site_id
 _symmetry_equiv_pos_as_xyz
  1  'x, y, z'
loop_
 _atom_site_type_symbol
 _atom_site_label
 _atom_site_symmetry_multiplicity
 _atom_site_fract_x
 _atom_site_fract_y
 _atom_site_fract_z
 _atom_site_occupancy
  Tb  Tb0  1  0.000000  0.119046  0.579274  1
  Tb  Tb1  1  0.000000  0.880949  0.420729  1
  Tb  Tb2  1  0.000000  0.618902  0.920847  1
  Tb  Tb3  1  0.000000  0.381111  0.079179  1
  Er  Er4  1  0.500000  0.117519  0.341812  1
  Er  Er5  1  0.500000  0.882512  0.658155  1
  Er  Er6  1  0.500000  0.617462  0.158101  1
  Tm  Tm7  1  0.500000  0.382581  0.841963  1
  Si  Si8  1  0.500000  0.000003  0.500008  1
  Si  Si9  1  0.500000  0.499772  0.999673  1
  Br  Br10  1  0.500000  0.241737  0.164905  1
  Br  Br11  1  0.500000  0.758234  0.835067  1
  Br  Br12  1  0.500000  0.741725  0.335049  1
  Br  Br13  1  0.500000  0.258532  0.665308  1
  Br  Br14  1  0.000000  0.254827  0.408851  1
  Br  Br15  1  0.000000  0.745164  0.591168  1
  Br  Br16  1  0.000000  0.754740  0.091155  1
  Br  Br17  1  0.000000  0.245724  0.908446  1
  Br  Br18  1  0.000000  0.004584  0.242382  1
  Br  Br19  1  0.000000  0.995411  0.757626  1
  Br  Br20  1  0.000000  0.504603  0.257552  1
  Br  Br21  1  0.000000  0.494864  0.742751  1
