# generated using pymatgen
data_LaNdEr(Ga2Ni3)3
_symmetry_space_group_name_H-M   'P 1'
_cell_length_a   8.86555700
_cell_length_b   8.86555635
_cell_length_c   4.12890100
_cell_angle_alpha   90.00000000
_cell_angle_beta   90.00000000
_cell_angle_gamma   119.99999371
_symmetry_Int_Tables_number   1
_chemical_formula_structural   LaNdEr(Ga2Ni3)3
_chemical_formula_sum   'La1 Nd1 Er1 Ga6 Ni9'
_cell_volume   281.04583248
_cell_formula_units_Z   1
loop_
 _symmetry_equiv_pos_site_id
 _symmetry_equiv_pos_as_xyz
  1  'x, y, z'
loop_
 _atom_site_type_symbol
 _atom_site_label
 _atom_site_symmetry_multiplicity
 _atom_site_fract_x
 _atom_site_fract_y
 _atom_site_fract_z
 _atom_site_occupancy
  La  La0  1  0.666667  0.333333  0.500000  1
  Nd  Nd1  1  0.333333  0.666667  0.500000  1
  Er  Er2  1  0.000000  0.000000  0.000000  1
  Ga  Ga3  1  0.477787  0.480598  0.000000  1
  Ga  Ga4  1  0.519402  0.997189  0.000000  1
  Ga  Ga5  1  0.002811  0.522213  0.000000  1
  Ga  Ga6  1  0.733731  0.734805  0.500000  1
  Ga  Ga7  1  0.265195  0.998927  0.500000  1
  Ga  Ga8  1  0.001073  0.266269  0.500000  1
  Ni  Ni9  1  0.830085  0.194682  0.000000  1
  Ni  Ni10  1  0.805318  0.635403  0.000000  1
  Ni  Ni11  1  0.364597  0.169915  0.000000  1
  Ni  Ni12  1  0.196551  0.829838  0.000000  1
  Ni  Ni13  1  0.633287  0.803449  0.000000  1
  Ni  Ni14  1  0.170162  0.366713  0.000000  1
  Ni  Ni15  1  0.288736  0.288530  0.500000  1
  Ni  Ni16  1  0.711470  0.000206  0.500000  1
  Ni  Ni17  1  0.999794  0.711264  0.500000  1
