# generated using pymatgen
data_Y6V2Fe(Co5P4)3
_symmetry_space_group_name_H-M   'P 1'
_cell_length_a   3.70628200
_cell_length_b   10.59509800
_cell_length_c   12.23359400
_cell_angle_alpha   90.00000000
_cell_angle_beta   90.00000000
_cell_angle_gamma   90.00000000
_symmetry_Int_Tables_number   1
_chemical_formula_structural   Y6V2Fe(Co5P4)3
_chemical_formula_sum   'Y6 V2 Fe1 Co15 P12'
_cell_volume   480.39391960
_cell_formula_units_Z   1
loop_
 _symmetry_equiv_pos_site_id
 _symmetry_equiv_pos_as_xyz
  1  'x, y, z'
loop_
 _atom_site_type_symbol
 _atom_site_label
 _atom_site_symmetry_multiplicity
 _atom_site_fract_x
 _atom_site_fract_y
 _atom_site_fract_z
 _atom_site_occupancy
  Y  Y0  1  0.000000  0.500000  0.523321  1
  Y  Y1  1  0.500000  0.000000  0.476824  1
  Y  Y2  1  0.500000  0.818178  0.203892  1
  Y  Y3  1  0.500000  0.181822  0.203892  1
  Y  Y4  1  0.000000  0.680659  0.796476  1
  Y  Y5  1  0.000000  0.319341  0.796476  1
  V  V6  1  0.500000  0.500000  0.152628  1
  V  V7  1  0.000000  0.000000  0.846289  1
  Fe  Fe8  1  0.000000  0.500000  0.987850  1
  Co  Co9  1  0.500000  0.500000  0.700797  1
  Co  Co10  1  0.000000  0.000000  0.298650  1
  Co  Co11  1  0.500000  0.000000  0.012944  1
  Co  Co12  1  0.500000  0.330441  0.993627  1
  Co  Co13  1  0.500000  0.669559  0.993627  1
  Co  Co14  1  0.000000  0.166451  0.006766  1
  Co  Co15  1  0.000000  0.833549  0.006766  1
  Co  Co16  1  0.500000  0.295814  0.431324  1
  Co  Co17  1  0.500000  0.704186  0.431324  1
  Co  Co18  1  0.000000  0.204216  0.569030  1
  Co  Co19  1  0.000000  0.795784  0.569030  1
  Co  Co20  1  0.500000  0.879385  0.707506  1
  Co  Co21  1  0.500000  0.120615  0.707506  1
  Co  Co22  1  0.000000  0.621083  0.292299  1
  Co  Co23  1  0.000000  0.378917  0.292299  1
  P  P24  1  0.500000  0.500000  0.884419  1
  P  P25  1  0.000000  0.000000  0.117645  1
  P  P26  1  0.500000  0.500000  0.346127  1
  P  P27  1  0.000000  0.000000  0.653571  1
  P  P28  1  0.500000  0.310272  0.616120  1
  P  P29  1  0.500000  0.689728  0.616120  1
  P  P30  1  0.000000  0.189696  0.384029  1
  P  P31  1  0.000000  0.810304  0.384029  1
  P  P32  1  0.500000  0.846226  0.892288  1
  P  P33  1  0.500000  0.153774  0.892288  1
  P  P34  1  0.000000  0.653172  0.106109  1
  P  P35  1  0.000000  0.346828  0.106109  1
