# generated using pymatgen
data_Sm2DyY3NiI10
_symmetry_space_group_name_H-M   'P 1'
_cell_length_a   7.74457421
_cell_length_b   9.72958821
_cell_length_c   9.80855277
_cell_angle_alpha   106.96416459
_cell_angle_beta   96.61905527
_cell_angle_gamma   104.62133209
_symmetry_Int_Tables_number   1
_chemical_formula_structural   Sm2DyY3NiI10
_chemical_formula_sum   'Sm2 Dy1 Y3 Ni1 I10'
_cell_volume   669.63348166
_cell_formula_units_Z   1
loop_
 _symmetry_equiv_pos_site_id
 _symmetry_equiv_pos_as_xyz
  1  'x, y, z'
loop_
 _atom_site_type_symbol
 _atom_site_label
 _atom_site_symmetry_multiplicity
 _atom_site_fract_x
 _atom_site_fract_y
 _atom_site_fract_z
 _atom_site_occupancy
  Sm  Sm0  1  0.883931  0.957249  0.237970  1
  Sm  Sm1  1  0.115803  0.042821  0.761977  1
  Dy  Dy2  1  0.032280  0.721916  0.916890  1
  Y  Y3  1  0.967768  0.279527  0.083415  1
  Y  Y4  1  0.660003  0.879553  0.839327  1
  Y  Y5  1  0.339926  0.120391  0.160727  1
  Ni  Ni6  1  0.999748  0.999500  0.999692  1
  I  I7  1  0.654260  0.552424  0.729779  1
  I  I8  1  0.346714  0.447579  0.270600  1
  I  I9  1  0.737928  0.911833  0.540298  1
  I  I10  1  0.261826  0.087807  0.459567  1
  I  I11  1  0.084413  0.376350  0.822225  1
  I  I12  1  0.915860  0.623540  0.177474  1
  I  I13  1  0.450624  0.813617  0.090489  1
  I  I14  1  0.549038  0.186140  0.909289  1
  I  I15  1  0.229936  0.742254  0.658188  1
  I  I16  1  0.769942  0.257500  0.342094  1
