# generated using pymatgen
data_TmSc3In2
_symmetry_space_group_name_H-M   'P 1'
_cell_length_a   5.10551200
_cell_length_b   5.10551192
_cell_length_c   6.42769400
_cell_angle_alpha   90.00000000
_cell_angle_beta   90.00000000
_cell_angle_gamma   120.00000051
_symmetry_Int_Tables_number   1
_chemical_formula_structural   TmSc3In2
_chemical_formula_sum   'Tm1 Sc3 In2'
_cell_volume   145.09899977
_cell_formula_units_Z   1
loop_
 _symmetry_equiv_pos_site_id
 _symmetry_equiv_pos_as_xyz
  1  'x, y, z'
loop_
 _atom_site_type_symbol
 _atom_site_label
 _atom_site_symmetry_multiplicity
 _atom_site_fract_x
 _atom_site_fract_y
 _atom_site_fract_z
 _atom_site_occupancy
  Tm  Tm0  1  0.000000  0.000000  0.000000  1
  Sc  Sc1  1  0.000000  0.000000  0.500000  1
  Sc  Sc2  1  0.333333  0.666667  0.744218  1
  Sc  Sc3  1  0.666667  0.333333  0.255782  1
  In  In4  1  0.333333  0.666667  0.253257  1
  In  In5  1  0.666667  0.333333  0.746743  1
