# generated using pymatgen
data_Lu4Al24PdPt8
_symmetry_space_group_name_H-M   'P 1'
_cell_length_a   7.49511997
_cell_length_b   7.52059457
_cell_length_c   13.11222600
_cell_angle_alpha   84.66493907
_cell_angle_beta   79.14580283
_cell_angle_gamma   59.90047865
_symmetry_Int_Tables_number   1
_chemical_formula_structural   Lu4Al24PdPt8
_chemical_formula_sum   'Lu4 Al24 Pd1 Pt8'
_cell_volume   628.00155657
_cell_formula_units_Z   1
loop_
 _symmetry_equiv_pos_site_id
 _symmetry_equiv_pos_as_xyz
  1  'x, y, z'
loop_
 _atom_site_type_symbol
 _atom_site_label
 _atom_site_symmetry_multiplicity
 _atom_site_fract_x
 _atom_site_fract_y
 _atom_site_fract_z
 _atom_site_occupancy
  Lu  Lu0  1  0.394051  0.168539  0.807435  1
  Lu  Lu1  1  0.605949  0.831461  0.192565  1
  Lu  Lu2  1  0.734051  0.498740  0.807414  1
  Lu  Lu3  1  0.265949  0.501260  0.192586  1
  Al  Al4  1  0.683732  0.833905  0.943792  1
  Al  Al5  1  0.316268  0.166095  0.056208  1
  Al  Al6  1  0.146498  0.832312  0.561786  1
  Al  Al7  1  0.853502  0.167688  0.438214  1
  Al  Al8  1  0.479802  0.166708  0.558725  1
  Al  Al9  1  0.520198  0.833292  0.441275  1
  Al  Al10  1  0.217794  0.165431  0.327605  1
  Al  Al11  1  0.782206  0.834569  0.672395  1
  Al  Al12  1  0.436863  0.506401  0.672466  1
  Al  Al13  1  0.563137  0.493599  0.327534  1
  Al  Al14  1  0.109137  0.160296  0.671114  1
  Al  Al15  1  0.890863  0.839704  0.328886  1
  Al  Al16  1  0.353880  0.498648  0.943858  1
  Al  Al17  1  0.646120  0.501352  0.056142  1
  Al  Al18  1  0.016076  0.168357  0.951819  1
  Al  Al19  1  0.983924  0.831643  0.048181  1
  Al  Al20  1  0.186695  0.499190  0.441088  1
  Al  Al21  1  0.813305  0.500810  0.558912  1
  Al  Al22  1  0.734018  0.164123  0.182859  1
  Al  Al23  1  0.265982  0.835877  0.817141  1
  Al  Al24  1  0.061348  0.629273  0.816179  1
  Al  Al25  1  0.938652  0.370727  0.183821  1
  Al  Al26  1  0.854993  0.041951  0.816599  1
  Al  Al27  1  0.145007  0.958049  0.183401  1
  Pd  Pd28  1  0.000000  0.500000  0.000000  1
  Pt  Pt29  1  0.120067  0.490446  0.639489  1
  Pt  Pt30  1  0.879933  0.509554  0.360511  1
  Pt  Pt31  1  0.656411  0.171957  0.999907  1
  Pt  Pt32  1  0.343589  0.828043  0.000093  1
  Pt  Pt33  1  0.536875  0.166836  0.359926  1
  Pt  Pt34  1  0.463125  0.833164  0.640074  1
  Pt  Pt35  1  0.777544  0.176082  0.638269  1
  Pt  Pt36  1  0.222456  0.823918  0.361731  1
