# generated using pymatgen
data_DyHo2SnBRh6
_symmetry_space_group_name_H-M   'P 1'
_cell_length_a   5.81383800
_cell_length_b   5.81383902
_cell_length_c   13.79871200
_cell_angle_alpha   90.00000000
_cell_angle_beta   90.00000000
_cell_angle_gamma   120.00000559
_symmetry_Int_Tables_number   1
_chemical_formula_structural   DyHo2SnBRh6
_chemical_formula_sum   'Dy2 Ho4 Sn2 B2 Rh12'
_cell_volume   403.91974735
_cell_formula_units_Z   2
loop_
 _symmetry_equiv_pos_site_id
 _symmetry_equiv_pos_as_xyz
  1  'x, y, z'
loop_
 _atom_site_type_symbol
 _atom_site_label
 _atom_site_symmetry_multiplicity
 _atom_site_fract_x
 _atom_site_fract_y
 _atom_site_fract_z
 _atom_site_occupancy
  Dy  Dy0  1  0.000000  0.000000  0.750023  1
  Dy  Dy1  1  0.333333  0.666667  0.409892  1
  Ho  Ho2  1  0.000000  0.000000  0.249979  1
  Ho  Ho3  1  0.666667  0.333333  0.911351  1
  Ho  Ho4  1  0.666667  0.333333  0.588759  1
  Ho  Ho5  1  0.333333  0.666667  0.088985  1
  Sn  Sn6  1  0.333333  0.666667  0.750288  1
  Sn  Sn7  1  0.666667  0.333333  0.249767  1
  B  B8  1  0.000000  0.000000  0.499986  1
  B  B9  1  0.000000  0.000000  0.000143  1
  Rh  Rh10  1  0.344080  0.172041  0.413015  1
  Rh  Rh11  1  0.827959  0.172041  0.413015  1
  Rh  Rh12  1  0.827959  0.655920  0.413015  1
  Rh  Rh13  1  0.172185  0.344369  0.913429  1
  Rh  Rh14  1  0.655663  0.827830  0.586802  1
  Rh  Rh15  1  0.655631  0.827815  0.913429  1
  Rh  Rh16  1  0.344099  0.172050  0.087031  1
  Rh  Rh17  1  0.172170  0.344337  0.586802  1
  Rh  Rh18  1  0.172170  0.827830  0.586802  1
  Rh  Rh19  1  0.827950  0.172050  0.087031  1
  Rh  Rh20  1  0.827950  0.655901  0.087031  1
  Rh  Rh21  1  0.172185  0.827815  0.913429  1
