# generated using pymatgen
data_Tb4VFe12P12Rh7
_symmetry_space_group_name_H-M   'P 1'
_cell_length_a   3.74838100
_cell_length_b   10.35560416
_cell_length_c   12.17649265
_cell_angle_alpha   90.18950020
_cell_angle_beta   90.00000000
_cell_angle_gamma   90.00000000
_symmetry_Int_Tables_number   1
_chemical_formula_structural   Tb4VFe12P12Rh7
_chemical_formula_sum   'Tb4 V1 Fe12 P12 Rh7'
_cell_volume   472.64928441
_cell_formula_units_Z   1
loop_
 _symmetry_equiv_pos_site_id
 _symmetry_equiv_pos_as_xyz
  1  'x, y, z'
loop_
 _atom_site_type_symbol
 _atom_site_label
 _atom_site_symmetry_multiplicity
 _atom_site_fract_x
 _atom_site_fract_y
 _atom_site_fract_z
 _atom_site_occupancy
  Tb  Tb0  1  0.250000  0.581233  0.711636  1
  Tb  Tb1  1  0.250000  0.919433  0.209819  1
  Tb  Tb2  1  0.750000  0.419689  0.289468  1
  Tb  Tb3  1  0.750000  0.078193  0.790318  1
  V  V4  1  0.250000  0.695870  0.991943  1
  Fe  Fe5  1  0.250000  0.225127  0.170323  1
  Fe  Fe6  1  0.250000  0.276026  0.671225  1
  Fe  Fe7  1  0.750000  0.777431  0.828260  1
  Fe  Fe8  1  0.750000  0.723597  0.328360  1
  Fe  Fe9  1  0.250000  0.877961  0.696514  1
  Fe  Fe10  1  0.250000  0.624395  0.196591  1
  Fe  Fe11  1  0.750000  0.122438  0.302487  1
  Fe  Fe12  1  0.750000  0.379274  0.803967  1
  Fe  Fe13  1  0.250000  0.461166  0.936196  1
  Fe  Fe14  1  0.250000  0.040718  0.434627  1
  Fe  Fe15  1  0.750000  0.537879  0.064137  1
  Fe  Fe16  1  0.750000  0.959686  0.563761  1
  P  P17  1  0.250000  0.430843  0.113521  1
  P  P18  1  0.250000  0.070703  0.612370  1
  P  P19  1  0.750000  0.575207  0.888341  1
  P  P20  1  0.750000  0.928639  0.386312  1
  P  P21  1  0.250000  0.273998  0.852892  1
  P  P22  1  0.250000  0.225907  0.352717  1
  P  P23  1  0.750000  0.725734  0.143264  1
  P  P24  1  0.750000  0.774704  0.646166  1
  P  P25  1  0.250000  0.606166  0.378305  1
  P  P26  1  0.250000  0.890488  0.879611  1
  P  P27  1  0.750000  0.393731  0.622470  1
  P  P28  1  0.750000  0.107714  0.120839  1
  Rh  Rh29  1  0.250000  0.792949  0.485124  1
  Rh  Rh30  1  0.750000  0.295158  0.013752  1
  Rh  Rh31  1  0.750000  0.206995  0.515124  1
  Rh  Rh32  1  0.250000  0.404054  0.480333  1
  Rh  Rh33  1  0.250000  0.097586  0.979085  1
  Rh  Rh34  1  0.750000  0.594942  0.520313  1
  Rh  Rh35  1  0.750000  0.904366  0.019827  1
