# generated using pymatgen
data_Ac4Al5Cl2
_symmetry_space_group_name_H-M   'P 1'
_cell_length_a   12.08583667
_cell_length_b   12.08583500
_cell_length_c   4.43816700
_cell_angle_alpha   90.00000000
_cell_angle_beta   90.00000000
_cell_angle_gamma   93.49416214
_symmetry_Int_Tables_number   1
_chemical_formula_structural   Ac4Al5Cl2
_chemical_formula_sum   'Ac8 Al10 Cl4'
_cell_volume   647.06650997
_cell_formula_units_Z   2
loop_
 _symmetry_equiv_pos_site_id
 _symmetry_equiv_pos_as_xyz
  1  'x, y, z'
loop_
 _atom_site_type_symbol
 _atom_site_label
 _atom_site_symmetry_multiplicity
 _atom_site_fract_x
 _atom_site_fract_y
 _atom_site_fract_z
 _atom_site_occupancy
  Ac  Ac0  1  0.738103  0.738103  0.000000  1
  Ac  Ac1  1  0.040592  0.682895  0.500000  1
  Ac  Ac2  1  0.362842  0.637158  0.000000  1
  Ac  Ac3  1  0.959408  0.317105  0.500000  1
  Ac  Ac4  1  0.261897  0.261897  0.000000  1
  Ac  Ac5  1  0.637158  0.362842  0.000000  1
  Ac  Ac6  1  0.682895  0.040592  0.500000  1
  Ac  Ac7  1  0.317105  0.959408  0.500000  1
  Al  Al8  1  0.579571  0.579571  0.500000  1
  Al  Al9  1  0.420429  0.420429  0.500000  1
  Al  Al10  1  0.214296  0.477121  0.500000  1
  Al  Al11  1  0.785704  0.522879  0.500000  1
  Al  Al12  1  0.526869  0.898322  0.000000  1
  Al  Al13  1  0.522879  0.785704  0.500000  1
  Al  Al14  1  0.473131  0.101678  0.000000  1
  Al  Al15  1  0.101678  0.473131  0.000000  1
  Al  Al16  1  0.477121  0.214296  0.500000  1
  Al  Al17  1  0.898322  0.526869  0.000000  1
  Cl  Cl18  1  0.875323  0.875323  0.500000  1
  Cl  Cl19  1  0.172853  0.827147  0.000000  1
  Cl  Cl20  1  0.124677  0.124677  0.500000  1
  Cl  Cl21  1  0.827147  0.172853  0.000000  1
