# generated using pymatgen
data_Tb8Ta11Si16Mo
_symmetry_space_group_name_H-M   'P 1'
_cell_length_a   7.03571465
_cell_length_b   7.03676778
_cell_length_c   13.03631610
_cell_angle_alpha   89.93924368
_cell_angle_beta   90.02970093
_cell_angle_gamma   89.97351910
_symmetry_Int_Tables_number   1
_chemical_formula_structural   Tb8Ta11Si16Mo
_chemical_formula_sum   'Tb8 Ta11 Si16 Mo1'
_cell_volume   645.41041575
_cell_formula_units_Z   1
loop_
 _symmetry_equiv_pos_site_id
 _symmetry_equiv_pos_as_xyz
  1  'x, y, z'
loop_
 _atom_site_type_symbol
 _atom_site_label
 _atom_site_symmetry_multiplicity
 _atom_site_fract_x
 _atom_site_fract_y
 _atom_site_fract_z
 _atom_site_occupancy
  Tb  Tb0  1  0.340927  0.002408  0.468555  1
  Tb  Tb1  1  0.496410  0.841266  0.719175  1
  Tb  Tb2  1  0.502208  0.158736  0.217359  1
  Tb  Tb3  1  0.840584  0.496460  0.281715  1
  Tb  Tb4  1  0.159234  0.501874  0.782297  1
  Tb  Tb5  1  0.659020  0.996940  0.967783  1
  Tb  Tb6  1  0.003486  0.340507  0.532544  1
  Tb  Tb7  1  0.997108  0.659317  0.030493  1
  Ta  Ta8  1  0.328368  0.329680  0.999751  1
  Ta  Ta9  1  0.171428  0.828571  0.249318  1
  Ta  Ta10  1  0.828730  0.170751  0.750131  1
  Ta  Ta11  1  0.671219  0.671288  0.499651  1
  Ta  Ta12  1  0.490905  0.655800  0.123858  1
  Ta  Ta13  1  0.506264  0.344987  0.625156  1
  Ta  Ta14  1  0.654018  0.492795  0.875663  1
  Ta  Ta15  1  0.345784  0.507284  0.375996  1
  Ta  Ta16  1  0.845620  0.992382  0.374770  1
  Ta  Ta17  1  0.006499  0.153665  0.126088  1
  Ta  Ta18  1  0.993441  0.846194  0.625626  1
  Si  Si19  1  0.202087  0.132693  0.684405  1
  Si  Si20  1  0.366383  0.704939  0.932005  1
  Si  Si21  1  0.633403  0.296635  0.433260  1
  Si  Si22  1  0.703375  0.367500  0.066458  1
  Si  Si23  1  0.298151  0.633766  0.567707  1
  Si  Si24  1  0.797271  0.866148  0.182538  1
  Si  Si25  1  0.133831  0.202159  0.316831  1
  Si  Si26  1  0.870723  0.799922  0.817291  1
  Si  Si27  1  0.292629  0.956773  0.061975  1
  Si  Si28  1  0.544310  0.794376  0.313668  1
  Si  Si29  1  0.453361  0.205524  0.814699  1
  Si  Si30  1  0.793324  0.545766  0.686461  1
  Si  Si31  1  0.206041  0.455009  0.185822  1
  Si  Si32  1  0.706379  0.044786  0.564236  1
  Si  Si33  1  0.956918  0.289868  0.936069  1
  Si  Si34  1  0.044917  0.705457  0.435950  1
  Mo  Mo35  1  0.155643  0.007773  0.874699  1
