# generated using pymatgen
data_Nd6Tm13ThSn16
_symmetry_space_group_name_H-M   'P 1'
_cell_length_a   8.05550471
_cell_length_b   8.19492941
_cell_length_c   15.44519541
_cell_angle_alpha   90.01623715
_cell_angle_beta   90.37231486
_cell_angle_gamma   89.74415313
_symmetry_Int_Tables_number   1
_chemical_formula_structural   Nd6Tm13ThSn16
_chemical_formula_sum   'Nd6 Tm13 Th1 Sn16'
_cell_volume   1019.57192198
_cell_formula_units_Z   1
loop_
 _symmetry_equiv_pos_site_id
 _symmetry_equiv_pos_as_xyz
  1  'x, y, z'
loop_
 _atom_site_type_symbol
 _atom_site_label
 _atom_site_symmetry_multiplicity
 _atom_site_fract_x
 _atom_site_fract_y
 _atom_site_fract_z
 _atom_site_occupancy
  Nd  Nd0  1  0.018533  0.179119  0.598152  1
  Nd  Nd1  1  0.483405  0.678310  0.403613  1
  Nd  Nd2  1  0.980968  0.821994  0.096154  1
  Nd  Nd3  1  0.481738  0.677019  0.096360  1
  Nd  Nd4  1  0.983463  0.822003  0.404052  1
  Nd  Nd5  1  0.515036  0.322312  0.595483  1
  Tm  Tm6  1  0.360303  0.836195  0.876251  1
  Tm  Tm7  1  0.859256  0.662664  0.624482  1
  Tm  Tm8  1  0.639604  0.163460  0.376097  1
  Tm  Tm9  1  0.135892  0.336736  0.122799  1
  Tm  Tm10  1  0.637123  0.163176  0.122725  1
  Tm  Tm11  1  0.140113  0.337329  0.376302  1
  Tm  Tm12  1  0.360400  0.838520  0.625507  1
  Tm  Tm13  1  0.862979  0.662128  0.876617  1
  Tm  Tm14  1  0.525819  0.324042  0.901123  1
  Tm  Tm15  1  0.193725  0.501361  0.750821  1
  Tm  Tm16  1  0.692719  0.996702  0.750632  1
  Tm  Tm17  1  0.805824  0.496964  0.249989  1
  Tm  Tm18  1  0.306531  0.002849  0.249703  1
  Th  Th19  1  0.016882  0.178471  0.903445  1
  Sn  Sn20  1  0.300233  0.040253  0.041654  1
  Sn  Sn21  1  0.803780  0.458456  0.458054  1
  Sn  Sn22  1  0.696750  0.959556  0.542814  1
  Sn  Sn23  1  0.206060  0.532698  0.955635  1
  Sn  Sn24  1  0.696454  0.962629  0.956570  1
  Sn  Sn25  1  0.195507  0.543908  0.542474  1
  Sn  Sn26  1  0.304119  0.041327  0.458505  1
  Sn  Sn27  1  0.797387  0.455891  0.039425  1
  Sn  Sn28  1  0.558179  0.623164  0.750593  1
  Sn  Sn29  1  0.057738  0.875828  0.751133  1
  Sn  Sn30  1  0.440528  0.375100  0.249372  1
  Sn  Sn31  1  0.940903  0.125249  0.249791  1
  Sn  Sn32  1  0.330579  0.148590  0.753311  1
  Sn  Sn33  1  0.823667  0.356417  0.750518  1
  Sn  Sn34  1  0.674390  0.856032  0.249980  1
  Sn  Sn35  1  0.173414  0.643548  0.249865  1
