# generated using pymatgen
data_LiTb3Mg2Si2Au
_symmetry_space_group_name_H-M   'P 1'
_cell_length_a   7.17387300
_cell_length_b   7.21611768
_cell_length_c   4.31820400
_cell_angle_alpha   90.00000000
_cell_angle_beta   90.00000000
_cell_angle_gamma   119.80652788
_symmetry_Int_Tables_number   1
_chemical_formula_structural   LiTb3Mg2Si2Au
_chemical_formula_sum   'Li1 Tb3 Mg2 Si2 Au1'
_cell_volume   193.96995336
_cell_formula_units_Z   1
loop_
 _symmetry_equiv_pos_site_id
 _symmetry_equiv_pos_as_xyz
  1  'x, y, z'
loop_
 _atom_site_type_symbol
 _atom_site_label
 _atom_site_symmetry_multiplicity
 _atom_site_fract_x
 _atom_site_fract_y
 _atom_site_fract_z
 _atom_site_occupancy
  Li  Li0  1  0.250127  0.000000  0.500000  1
  Tb  Tb1  1  0.572911  0.000000  0.000000  1
  Tb  Tb2  1  0.001784  0.581836  0.000000  1
  Tb  Tb3  1  0.419948  0.418164  0.000000  1
  Mg  Mg4  1  0.002965  0.245054  0.500000  1
  Mg  Mg5  1  0.757913  0.754946  0.500000  1
  Si  Si6  1  0.331671  0.668954  0.500000  1
  Si  Si7  1  0.662719  0.331046  0.500000  1
  Au  Au8  1  0.999963  0.000000  0.000000  1
