# generated using pymatgen
data_Er9Sc(GaSb)4
_symmetry_space_group_name_H-M   'P 1'
_cell_length_a   8.51721654
_cell_length_b   8.51721697
_cell_length_c   7.81904192
_cell_angle_alpha   90.04548908
_cell_angle_beta   90.04548736
_cell_angle_gamma   125.35306382
_symmetry_Int_Tables_number   1
_chemical_formula_structural   Er9Sc(GaSb)4
_chemical_formula_sum   'Er9 Sc1 Ga4 Sb4'
_cell_volume   462.62234726
_cell_formula_units_Z   1
loop_
 _symmetry_equiv_pos_site_id
 _symmetry_equiv_pos_as_xyz
  1  'x, y, z'
loop_
 _atom_site_type_symbol
 _atom_site_label
 _atom_site_symmetry_multiplicity
 _atom_site_fract_x
 _atom_site_fract_y
 _atom_site_fract_z
 _atom_site_occupancy
  Er  Er0  1  0.038799  0.297254  0.331361  1
  Er  Er1  1  0.961201  0.702746  0.668639  1
  Er  Er2  1  0.459080  0.200106  0.833473  1
  Er  Er3  1  0.799894  0.540920  0.166527  1
  Er  Er4  1  0.540920  0.799894  0.166527  1
  Er  Er5  1  0.200106  0.459080  0.833473  1
  Er  Er6  1  0.702746  0.961201  0.668639  1
  Er  Er7  1  0.297254  0.038799  0.331361  1
  Er  Er8  1  0.500000  0.500000  0.500000  1
  Sc  Sc9  1  0.000000  0.000000  0.000000  1
  Ga  Ga10  1  0.370976  0.370976  0.124965  1
  Ga  Ga11  1  0.629024  0.629024  0.875035  1
  Ga  Ga12  1  0.125259  0.125259  0.628836  1
  Ga  Ga13  1  0.874741  0.874741  0.371164  1
  Sb  Sb14  1  0.796118  0.203882  0.000000  1
  Sb  Sb15  1  0.203882  0.796118  0.000000  1
  Sb  Sb16  1  0.705869  0.294131  0.500000  1
  Sb  Sb17  1  0.294131  0.705869  0.500000  1
