# generated using pymatgen
data_Er18Tm2Ir7Rh5
_symmetry_space_group_name_H-M   'P 1'
_cell_length_a   10.77173808
_cell_length_b   10.77168825
_cell_length_c   6.32885702
_cell_angle_alpha   89.99127992
_cell_angle_beta   89.99156344
_cell_angle_gamma   89.92045227
_symmetry_Int_Tables_number   1
_chemical_formula_structural   Er18Tm2Ir7Rh5
_chemical_formula_sum   'Er18 Tm2 Ir7 Rh5'
_cell_volume   734.33531849
_cell_formula_units_Z   1
loop_
 _symmetry_equiv_pos_site_id
 _symmetry_equiv_pos_as_xyz
  1  'x, y, z'
loop_
 _atom_site_type_symbol
 _atom_site_label
 _atom_site_symmetry_multiplicity
 _atom_site_fract_x
 _atom_site_fract_y
 _atom_site_fract_z
 _atom_site_occupancy
  Er  Er0  1  0.290191  0.088267  0.378608  1
  Er  Er1  1  0.290484  0.911604  0.877920  1
  Er  Er2  1  0.708952  0.087996  0.877470  1
  Er  Er3  1  0.708999  0.909943  0.378786  1
  Er  Er4  1  0.588289  0.790115  0.878461  1
  Er  Er5  1  0.586919  0.209911  0.378148  1
  Er  Er6  1  0.411393  0.790242  0.378289  1
  Er  Er7  1  0.411504  0.209680  0.878130  1
  Er  Er8  1  0.209881  0.411715  0.621520  1
  Er  Er9  1  0.209759  0.588609  0.121710  1
  Er  Er10  1  0.790084  0.413077  0.121846  1
  Er  Er11  1  0.790318  0.588498  0.621863  1
  Er  Er12  1  0.911744  0.709808  0.121393  1
  Er  Er13  1  0.912001  0.291045  0.622532  1
  Er  Er14  1  0.088399  0.709516  0.622088  1
  Er  Er15  1  0.090060  0.291000  0.121225  1
  Er  Er16  1  0.999998  0.999776  0.499951  1
  Er  Er17  1  0.000219  0.999999  0.000056  1
  Tm  Tm18  1  0.499916  0.499783  0.999879  1
  Tm  Tm19  1  0.500218  0.500083  0.500124  1
  Ir  Ir20  1  0.845887  0.846707  0.750071  1
  Ir  Ir21  1  0.153293  0.154110  0.749933  1
  Ir  Ir22  1  0.154047  0.845951  0.249996  1
  Ir  Ir23  1  0.654444  0.345556  0.750000  1
  Ir  Ir24  1  0.653880  0.653479  0.249779  1
  Ir  Ir25  1  0.346524  0.346119  0.250215  1
  Ir  Ir26  1  0.346256  0.653744  0.749998  1
  Rh  Rh27  1  0.845832  0.154170  0.249999  1
  Rh  Rh28  1  0.500527  0.000222  0.123851  1
  Rh  Rh29  1  0.500427  0.000229  0.623254  1
  Rh  Rh30  1  0.999771  0.499574  0.876751  1
  Rh  Rh31  1  0.999780  0.499475  0.376155  1
