# generated using pymatgen
data_CoCuBi3Ir3O14
_symmetry_space_group_name_H-M   'P 1'
_cell_length_a   7.14588535
_cell_length_b   7.14588642
_cell_length_c   7.14588529
_cell_angle_alpha   61.16043936
_cell_angle_beta   61.16043456
_cell_angle_gamma   61.16044339
_symmetry_Int_Tables_number   1
_chemical_formula_structural   CoCuBi3Ir3O14
_chemical_formula_sum   'Co1 Cu1 Bi3 Ir3 O14'
_cell_volume   264.75685084
_cell_formula_units_Z   1
loop_
 _symmetry_equiv_pos_site_id
 _symmetry_equiv_pos_as_xyz
  1  'x, y, z'
loop_
 _atom_site_type_symbol
 _atom_site_label
 _atom_site_symmetry_multiplicity
 _atom_site_fract_x
 _atom_site_fract_y
 _atom_site_fract_z
 _atom_site_occupancy
  Co  Co0  1  0.625000  0.625000  0.625000  1
  Cu  Cu1  1  0.125000  0.125000  0.125000  1
  Bi  Bi2  1  0.625000  0.125000  0.125000  1
  Bi  Bi3  1  0.125000  0.625000  0.125000  1
  Bi  Bi4  1  0.125000  0.125000  0.625000  1
  Ir  Ir5  1  0.125000  0.625000  0.625000  1
  Ir  Ir6  1  0.625000  0.125000  0.625000  1
  Ir  Ir7  1  0.625000  0.625000  0.125000  1
  O  O8  1  0.706152  0.706152  0.298327  1
  O  O9  1  0.298050  0.298050  0.698887  1
  O  O10  1  0.706152  0.298327  0.706152  1
  O  O11  1  0.298050  0.698887  0.298050  1
  O  O12  1  0.298327  0.706152  0.706152  1
  O  O13  1  0.698887  0.298050  0.298050  1
  O  O14  1  0.543848  0.543848  0.951673  1
  O  O15  1  0.951950  0.951950  0.551113  1
  O  O16  1  0.543848  0.951673  0.543848  1
  O  O17  1  0.951950  0.551113  0.951950  1
  O  O18  1  0.951673  0.543848  0.543848  1
  O  O19  1  0.551113  0.951950  0.951950  1
  O  O20  1  0.234062  0.234062  0.234062  1
  O  O21  1  0.015938  0.015938  0.015938  1
