# generated using pymatgen
data_Ca5Ge2BiH
_symmetry_space_group_name_H-M   'P 1'
_cell_length_a   9.24324179
_cell_length_b   9.24324139
_cell_length_c   9.24324208
_cell_angle_alpha   129.39203237
_cell_angle_beta   129.39203129
_cell_angle_gamma   74.38059067
_symmetry_Int_Tables_number   1
_chemical_formula_structural   Ca5Ge2BiH
_chemical_formula_sum   'Ca10 Ge4 Bi2 H2'
_cell_volume   459.72911111
_cell_formula_units_Z   2
loop_
 _symmetry_equiv_pos_site_id
 _symmetry_equiv_pos_as_xyz
  1  'x, y, z'
loop_
 _atom_site_type_symbol
 _atom_site_label
 _atom_site_symmetry_multiplicity
 _atom_site_fract_x
 _atom_site_fract_y
 _atom_site_fract_z
 _atom_site_occupancy
  Ca  Ca0  1  0.500000  0.500000  0.000000  1
  Ca  Ca1  1  0.000000  0.000000  0.000000  1
  Ca  Ca2  1  0.519456  0.019456  0.822167  1
  Ca  Ca3  1  0.197290  0.697290  0.177833  1
  Ca  Ca4  1  0.019456  0.197290  0.500000  1
  Ca  Ca5  1  0.697290  0.519456  0.500000  1
  Ca  Ca6  1  0.480544  0.980544  0.177833  1
  Ca  Ca7  1  0.802710  0.302710  0.822167  1
  Ca  Ca8  1  0.980544  0.802710  0.500000  1
  Ca  Ca9  1  0.302710  0.480544  0.500000  1
  Ge  Ge10  1  0.877916  0.377916  0.255833  1
  Ge  Ge11  1  0.122084  0.622084  0.744167  1
  Ge  Ge12  1  0.377916  0.122084  0.500000  1
  Ge  Ge13  1  0.622084  0.877916  0.500000  1
  Bi  Bi14  1  0.250000  0.250000  0.000000  1
  Bi  Bi15  1  0.750000  0.750000  0.000000  1
  H  H16  1  0.250000  0.750000  0.500000  1
  H  H17  1  0.750000  0.250000  0.500000  1
