# generated using pymatgen
data_TbDyY4(GaCo3)2
_symmetry_space_group_name_H-M   'P 1'
_cell_length_a   5.39980065
_cell_length_b   5.39980094
_cell_length_c   12.88725600
_cell_angle_alpha   90.00000000
_cell_angle_beta   90.00000000
_cell_angle_gamma   134.85201111
_symmetry_Int_Tables_number   1
_chemical_formula_structural   TbDyY4(GaCo3)2
_chemical_formula_sum   'Tb1 Dy1 Y4 Ga2 Co6'
_cell_volume   266.39114161
_cell_formula_units_Z   1
loop_
 _symmetry_equiv_pos_site_id
 _symmetry_equiv_pos_as_xyz
  1  'x, y, z'
loop_
 _atom_site_type_symbol
 _atom_site_label
 _atom_site_symmetry_multiplicity
 _atom_site_fract_x
 _atom_site_fract_y
 _atom_site_fract_z
 _atom_site_occupancy
  Tb  Tb0  1  0.001152  0.998848  0.250000  1
  Dy  Dy1  1  0.998531  0.001469  0.750000  1
  Y  Y2  1  0.707960  0.292040  0.602841  1
  Y  Y3  1  0.291983  0.708017  0.397377  1
  Y  Y4  1  0.291983  0.708017  0.102623  1
  Y  Y5  1  0.707960  0.292040  0.897159  1
  Ga  Ga6  1  0.000004  0.999996  0.999887  1
  Ga  Ga7  1  0.000004  0.999996  0.500113  1
  Co  Co8  1  0.695810  0.304190  0.250000  1
  Co  Co9  1  0.304340  0.695660  0.750000  1
  Co  Co10  1  0.418212  0.581788  0.596309  1
  Co  Co11  1  0.581924  0.418076  0.403980  1
  Co  Co12  1  0.581924  0.418076  0.096020  1
  Co  Co13  1  0.418212  0.581788  0.903691  1
