# generated using pymatgen
data_TbY3Er4(SiPd)8
_symmetry_space_group_name_H-M   'P 1'
_cell_length_a   4.32954200
_cell_length_b   7.50001100
_cell_length_c   13.86708800
_cell_angle_alpha   90.00000000
_cell_angle_beta   90.00000000
_cell_angle_gamma   90.00000000
_symmetry_Int_Tables_number   1
_chemical_formula_structural   TbY3Er4(SiPd)8
_chemical_formula_sum   'Tb1 Y3 Er4 Si8 Pd8'
_cell_volume   450.28670977
_cell_formula_units_Z   1
loop_
 _symmetry_equiv_pos_site_id
 _symmetry_equiv_pos_as_xyz
  1  'x, y, z'
loop_
 _atom_site_type_symbol
 _atom_site_label
 _atom_site_symmetry_multiplicity
 _atom_site_fract_x
 _atom_site_fract_y
 _atom_site_fract_z
 _atom_site_occupancy
  Tb  Tb0  1  0.000000  0.289847  0.500000  1
  Y  Y1  1  0.000000  0.299027  0.000000  1
  Y  Y2  1  0.500000  0.701012  0.500000  1
  Y  Y3  1  0.500000  0.710207  0.000000  1
  Er  Er4  1  0.000000  0.210740  0.249108  1
  Er  Er5  1  0.500000  0.789255  0.250975  1
  Er  Er6  1  0.000000  0.210740  0.750892  1
  Er  Er7  1  0.500000  0.789255  0.749025  1
  Si  Si8  1  0.000000  0.908906  0.594802  1
  Si  Si9  1  0.500000  0.090892  0.905199  1
  Si  Si10  1  0.000000  0.908906  0.405198  1
  Si  Si11  1  0.500000  0.090892  0.094801  1
  Si  Si12  1  0.000000  0.591927  0.144491  1
  Si  Si13  1  0.500000  0.408144  0.355424  1
  Si  Si14  1  0.000000  0.591927  0.855509  1
  Si  Si15  1  0.500000  0.408144  0.644576  1
  Pd  Pd16  1  0.500000  0.075519  0.609884  1
  Pd  Pd17  1  0.000000  0.924378  0.890219  1
  Pd  Pd18  1  0.500000  0.075519  0.390116  1
  Pd  Pd19  1  0.000000  0.924378  0.109781  1
  Pd  Pd20  1  0.500000  0.419792  0.158048  1
  Pd  Pd21  1  0.000000  0.580400  0.341909  1
  Pd  Pd22  1  0.500000  0.419792  0.841952  1
  Pd  Pd23  1  0.000000  0.580400  0.658091  1
