# generated using pymatgen
data_YbSm(CoN3)2
_symmetry_space_group_name_H-M   'P 1'
_cell_length_a   5.76096175
_cell_length_b   5.76096240
_cell_length_c   7.43632006
_cell_angle_alpha   105.07273127
_cell_angle_beta   105.07273489
_cell_angle_gamma   38.34203934
_symmetry_Int_Tables_number   1
_chemical_formula_structural   YbSm(CoN3)2
_chemical_formula_sum   'Yb1 Sm1 Co2 N6'
_cell_volume   147.18778577
_cell_formula_units_Z   1
loop_
 _symmetry_equiv_pos_site_id
 _symmetry_equiv_pos_as_xyz
  1  'x, y, z'
loop_
 _atom_site_type_symbol
 _atom_site_label
 _atom_site_symmetry_multiplicity
 _atom_site_fract_x
 _atom_site_fract_y
 _atom_site_fract_z
 _atom_site_occupancy
  Yb  Yb0  1  0.168000  0.168000  0.796235  1
  Sm  Sm1  1  0.827645  0.827645  0.190601  1
  Co  Co2  1  0.544721  0.544721  0.157077  1
  Co  Co3  1  0.456742  0.456742  0.846561  1
  N  N4  1  0.370029  0.370029  0.027565  1
  N  N5  1  0.610629  0.610629  0.392242  1
  N  N6  1  0.352866  0.352866  0.447868  1
  N  N7  1  0.649061  0.649061  0.556105  1
  N  N8  1  0.392072  0.392072  0.612487  1
  N  N9  1  0.628234  0.628234  0.973263  1
