# generated using pymatgen
data_Eu5PdRh2
_symmetry_space_group_name_H-M   'P 1'
_cell_length_a   9.01788432
_cell_length_b   9.01788384
_cell_length_c   9.01788347
_cell_angle_alpha   128.23963173
_cell_angle_beta   128.23963592
_cell_angle_gamma   76.23715093
_symmetry_Int_Tables_number   1
_chemical_formula_structural   Eu5PdRh2
_chemical_formula_sum   'Eu10 Pd2 Rh4'
_cell_volume   439.69567839
_cell_formula_units_Z   2
loop_
 _symmetry_equiv_pos_site_id
 _symmetry_equiv_pos_as_xyz
  1  'x, y, z'
loop_
 _atom_site_type_symbol
 _atom_site_label
 _atom_site_symmetry_multiplicity
 _atom_site_fract_x
 _atom_site_fract_y
 _atom_site_fract_z
 _atom_site_occupancy
  Eu  Eu0  1  0.529939  0.029939  0.839252  1
  Eu  Eu1  1  0.190686  0.690686  0.160748  1
  Eu  Eu2  1  0.029939  0.190686  0.500000  1
  Eu  Eu3  1  0.690686  0.529939  0.500000  1
  Eu  Eu4  1  0.470061  0.970061  0.160748  1
  Eu  Eu5  1  0.809314  0.309314  0.839252  1
  Eu  Eu6  1  0.970061  0.809314  0.500000  1
  Eu  Eu7  1  0.309314  0.470061  0.500000  1
  Eu  Eu8  1  0.500000  0.500000  0.000000  1
  Eu  Eu9  1  0.000000  0.000000  0.000000  1
  Pd  Pd10  1  0.250000  0.250000  0.000000  1
  Pd  Pd11  1  0.750000  0.750000  0.000000  1
  Rh  Rh12  1  0.873117  0.373117  0.246234  1
  Rh  Rh13  1  0.126883  0.626883  0.753766  1
  Rh  Rh14  1  0.373117  0.126883  0.500000  1
  Rh  Rh15  1  0.626883  0.873117  0.500000  1
