# generated using pymatgen
data_Tb3ZrAl17SiIr6
_symmetry_space_group_name_H-M   'P 1'
_cell_length_a   7.54121559
_cell_length_b   7.53161344
_cell_length_c   9.36743600
_cell_angle_alpha   90.00000000
_cell_angle_beta   90.00000000
_cell_angle_gamma   119.69941461
_symmetry_Int_Tables_number   1
_chemical_formula_structural   Tb3ZrAl17SiIr6
_chemical_formula_sum   'Tb3 Zr1 Al17 Si1 Ir6'
_cell_volume   462.15560626
_cell_formula_units_Z   1
loop_
 _symmetry_equiv_pos_site_id
 _symmetry_equiv_pos_as_xyz
  1  'x, y, z'
loop_
 _atom_site_type_symbol
 _atom_site_label
 _atom_site_symmetry_multiplicity
 _atom_site_fract_x
 _atom_site_fract_y
 _atom_site_fract_z
 _atom_site_occupancy
  Tb  Tb0  1  0.006938  0.323649  0.750000  1
  Tb  Tb1  1  0.670758  0.995215  0.250000  1
  Tb  Tb2  1  0.326095  0.007557  0.750000  1
  Zr  Zr3  1  0.994596  0.669956  0.250000  1
  Al  Al4  1  0.124791  0.121711  0.250000  1
  Al  Al5  1  0.000656  0.337600  0.078082  1
  Al  Al6  1  0.999730  0.663721  0.929434  1
  Al  Al7  1  0.999730  0.663721  0.570566  1
  Al  Al8  1  0.331402  0.998137  0.421876  1
  Al  Al9  1  0.000656  0.337600  0.421918  1
  Al  Al10  1  0.662816  0.998476  0.575690  1
  Al  Al11  1  0.662816  0.998476  0.924310  1
  Al  Al12  1  0.331402  0.998137  0.078124  1
  Al  Al13  1  0.336396  0.336525  0.550408  1
  Al  Al14  1  0.669630  0.667195  0.439654  1
  Al  Al15  1  0.669630  0.667195  0.060346  1
  Al  Al16  1  0.336396  0.336525  0.949592  1
  Al  Al17  1  0.334780  0.548757  0.250000  1
  Al  Al18  1  0.665293  0.453482  0.750000  1
  Al  Al19  1  0.553264  0.342529  0.250000  1
  Al  Al20  1  0.450721  0.662595  0.750000  1
  Si  Si21  1  0.868075  0.865862  0.750000  1
  Ir  Ir22  1  0.673156  0.329769  0.000316  1
  Ir  Ir23  1  0.329879  0.673507  0.000922  1
  Ir  Ir24  1  0.329879  0.673507  0.499078  1
  Ir  Ir25  1  0.673156  0.329769  0.499684  1
  Ir  Ir26  1  0.998680  0.999414  0.993967  1
  Ir  Ir27  1  0.998680  0.999414  0.506033  1
