# generated using pymatgen
data_Pr4HoSn3Cl
_symmetry_space_group_name_H-M   'P 1'
_cell_length_a   9.45754000
_cell_length_b   9.45754095
_cell_length_c   6.77923700
_cell_angle_alpha   90.00000000
_cell_angle_beta   90.00000000
_cell_angle_gamma   119.99999666
_symmetry_Int_Tables_number   1
_chemical_formula_structural   Pr4HoSn3Cl
_chemical_formula_sum   'Pr8 Ho2 Sn6 Cl2'
_cell_volume   525.13127086
_cell_formula_units_Z   2
loop_
 _symmetry_equiv_pos_site_id
 _symmetry_equiv_pos_as_xyz
  1  'x, y, z'
loop_
 _atom_site_type_symbol
 _atom_site_label
 _atom_site_symmetry_multiplicity
 _atom_site_fract_x
 _atom_site_fract_y
 _atom_site_fract_z
 _atom_site_occupancy
  Pr  Pr0  1  0.260704  0.260704  0.748560  1
  Pr  Pr1  1  0.000000  0.739296  0.748560  1
  Pr  Pr2  1  0.739296  0.000000  0.748560  1
  Pr  Pr3  1  0.000000  0.260704  0.251440  1
  Pr  Pr4  1  0.739296  0.739296  0.251440  1
  Pr  Pr5  1  0.260704  0.000000  0.251440  1
  Pr  Pr6  1  0.333333  0.666667  0.000000  1
  Pr  Pr7  1  0.666667  0.333333  0.000000  1
  Ho  Ho8  1  0.333333  0.666667  0.500000  1
  Ho  Ho9  1  0.666667  0.333333  0.500000  1
  Sn  Sn10  1  0.609562  0.000000  0.256262  1
  Sn  Sn11  1  0.000000  0.390438  0.743738  1
  Sn  Sn12  1  0.390438  0.000000  0.743738  1
  Sn  Sn13  1  0.609562  0.609562  0.743738  1
  Sn  Sn14  1  0.000000  0.609562  0.256262  1
  Sn  Sn15  1  0.390438  0.390438  0.256262  1
  Cl  Cl16  1  0.000000  0.000000  0.000000  1
  Cl  Cl17  1  0.000000  0.000000  0.500000  1
