# generated using pymatgen
data_HfCo21TcB6
_symmetry_space_group_name_H-M   'P 1'
_cell_length_a   7.41122738
_cell_length_b   7.41122685
_cell_length_c   7.41122600
_cell_angle_alpha   59.99999487
_cell_angle_beta   59.99999721
_cell_angle_gamma   59.99999580
_symmetry_Int_Tables_number   1
_chemical_formula_structural   HfCo21TcB6
_chemical_formula_sum   'Hf1 Co21 Tc1 B6'
_cell_volume   287.84272916
_cell_formula_units_Z   1
loop_
 _symmetry_equiv_pos_site_id
 _symmetry_equiv_pos_as_xyz
  1  'x, y, z'
loop_
 _atom_site_type_symbol
 _atom_site_label
 _atom_site_symmetry_multiplicity
 _atom_site_fract_x
 _atom_site_fract_y
 _atom_site_fract_z
 _atom_site_occupancy
  Hf  Hf0  1  0.750000  0.750000  0.750000  1
  Co  Co1  1  0.000000  0.000000  0.000000  1
  Co  Co2  1  0.611442  0.611442  0.165674  1
  Co  Co3  1  0.611442  0.165674  0.611442  1
  Co  Co4  1  0.165674  0.611442  0.611442  1
  Co  Co5  1  0.611442  0.611442  0.611442  1
  Co  Co6  1  0.378853  0.378853  0.863442  1
  Co  Co7  1  0.378853  0.863442  0.378853  1
  Co  Co8  1  0.863442  0.378853  0.378853  1
  Co  Co9  1  0.378853  0.378853  0.378853  1
  Co  Co10  1  0.001128  0.001128  0.336944  1
  Co  Co11  1  0.660800  0.001128  0.336944  1
  Co  Co12  1  0.001128  0.660800  0.336944  1
  Co  Co13  1  0.660800  0.336944  0.001128  1
  Co  Co14  1  0.001128  0.336944  0.001128  1
  Co  Co15  1  0.001128  0.336944  0.660800  1
  Co  Co16  1  0.336944  0.660800  0.001128  1
  Co  Co17  1  0.336944  0.001128  0.660800  1
  Co  Co18  1  0.336944  0.001128  0.001128  1
  Co  Co19  1  0.001128  0.001128  0.660800  1
  Co  Co20  1  0.001128  0.660800  0.001128  1
  Co  Co21  1  0.660800  0.001128  0.001128  1
  Tc  Tc22  1  0.250000  0.250000  0.250000  1
  B  B23  1  0.726294  0.726294  0.273706  1
  B  B24  1  0.273706  0.726294  0.273706  1
  B  B25  1  0.726294  0.273706  0.273706  1
  B  B26  1  0.273706  0.273706  0.726294  1
  B  B27  1  0.726294  0.273706  0.726294  1
  B  B28  1  0.273706  0.726294  0.726294  1
