# generated using pymatgen
data_Nd5Dy6In9Rh4
_symmetry_space_group_name_H-M   'P 1'
_cell_length_a   13.25043659
_cell_length_b   13.25039968
_cell_length_c   3.78882100
_cell_angle_alpha   90.00000000
_cell_angle_beta   90.00000000
_cell_angle_gamma   112.40291987
_symmetry_Int_Tables_number   1
_chemical_formula_structural   Nd5Dy6In9Rh4
_chemical_formula_sum   'Nd5 Dy6 In9 Rh4'
_cell_volume   615.01069936
_cell_formula_units_Z   1
loop_
 _symmetry_equiv_pos_site_id
 _symmetry_equiv_pos_as_xyz
  1  'x, y, z'
loop_
 _atom_site_type_symbol
 _atom_site_label
 _atom_site_symmetry_multiplicity
 _atom_site_fract_x
 _atom_site_fract_y
 _atom_site_fract_z
 _atom_site_occupancy
  Nd  Nd0  1  0.840779  0.159214  0.000000  1
  Nd  Nd1  1  0.159221  0.840786  0.000000  1
  Nd  Nd2  1  0.000000  0.000000  0.000000  1
  Nd  Nd3  1  0.313096  0.313090  0.000000  1
  Nd  Nd4  1  0.686904  0.686910  0.000000  1
  Dy  Dy5  1  0.080791  0.419707  0.000000  1
  Dy  Dy6  1  0.919209  0.580293  0.000000  1
  Dy  Dy7  1  0.419709  0.080804  0.000000  1
  Dy  Dy8  1  0.580291  0.919196  0.000000  1
  Dy  Dy9  1  0.626216  0.373766  0.000000  1
  Dy  Dy10  1  0.373784  0.626234  0.000000  1
  In  In11  1  0.839409  0.368028  0.500000  1
  In  In12  1  0.160591  0.631972  0.500000  1
  In  In13  1  0.368029  0.839409  0.500000  1
  In  In14  1  0.631971  0.160591  0.500000  1
  In  In15  1  0.078087  0.222601  0.500000  1
  In  In16  1  0.921913  0.777399  0.500000  1
  In  In17  1  0.222598  0.078087  0.500000  1
  In  In18  1  0.777402  0.921913  0.500000  1
  In  In19  1  0.500000  0.500000  0.500000  1
  Rh  Rh20  1  0.246153  0.456289  0.500000  1
  Rh  Rh21  1  0.753847  0.543711  0.500000  1
  Rh  Rh22  1  0.456292  0.246155  0.500000  1
  Rh  Rh23  1  0.543708  0.753845  0.500000  1
