# generated using pymatgen
data_CaTm(Al5Fe)4
_symmetry_space_group_name_H-M   'P 1'
_cell_length_a   6.76662940
_cell_length_b   6.76662868
_cell_length_c   8.96208300
_cell_angle_alpha   90.00000000
_cell_angle_beta   90.00000000
_cell_angle_gamma   97.14435662
_symmetry_Int_Tables_number   1
_chemical_formula_structural   CaTm(Al5Fe)4
_chemical_formula_sum   'Ca1 Tm1 Al20 Fe4'
_cell_volume   407.16332982
_cell_formula_units_Z   1
loop_
 _symmetry_equiv_pos_site_id
 _symmetry_equiv_pos_as_xyz
  1  'x, y, z'
loop_
 _atom_site_type_symbol
 _atom_site_label
 _atom_site_symmetry_multiplicity
 _atom_site_fract_x
 _atom_site_fract_y
 _atom_site_fract_z
 _atom_site_occupancy
  Ca  Ca0  1  0.876499  0.123501  0.750000  1
  Tm  Tm1  1  0.125555  0.874445  0.250000  1
  Al  Al2  1  0.625668  0.374332  0.544590  1
  Al  Al3  1  0.374163  0.625837  0.449493  1
  Al  Al4  1  0.374163  0.625837  0.050507  1
  Al  Al5  1  0.625668  0.374332  0.955410  1
  Al  Al6  1  0.227323  0.227997  0.498816  1
  Al  Al7  1  0.772003  0.772677  0.498816  1
  Al  Al8  1  0.772003  0.772677  0.001184  1
  Al  Al9  1  0.227323  0.227997  0.001184  1
  Al  Al10  1  0.844014  0.155986  0.097043  1
  Al  Al11  1  0.159139  0.840861  0.903920  1
  Al  Al12  1  0.159139  0.840861  0.596080  1
  Al  Al13  1  0.844014  0.155986  0.402957  1
  Al  Al14  1  0.866771  0.586188  0.750000  1
  Al  Al15  1  0.134633  0.417738  0.250000  1
  Al  Al16  1  0.413812  0.133229  0.750000  1
  Al  Al17  1  0.582262  0.865367  0.250000  1
  Al  Al18  1  0.220417  0.476700  0.750000  1
  Al  Al19  1  0.779986  0.521964  0.250000  1
  Al  Al20  1  0.523300  0.779583  0.750000  1
  Al  Al21  1  0.478036  0.220014  0.250000  1
  Fe  Fe22  1  0.999795  0.502740  0.498844  1
  Fe  Fe23  1  0.999795  0.502740  0.001156  1
  Fe  Fe24  1  0.497260  0.000205  0.001156  1
  Fe  Fe25  1  0.497260  0.000205  0.498844  1
