# generated using pymatgen
data_Tm6Al5Fe18
_symmetry_space_group_name_H-M   'P 1'
_cell_length_a   8.49047624
_cell_length_b   8.49047641
_cell_length_c   8.49244321
_cell_angle_alpha   60.00766099
_cell_angle_beta   60.00765518
_cell_angle_gamma   59.99999610
_symmetry_Int_Tables_number   1
_chemical_formula_structural   Tm6Al5Fe18
_chemical_formula_sum   'Tm6 Al5 Fe18'
_cell_volume   432.94428576
_cell_formula_units_Z   1
loop_
 _symmetry_equiv_pos_site_id
 _symmetry_equiv_pos_as_xyz
  1  'x, y, z'
loop_
 _atom_site_type_symbol
 _atom_site_label
 _atom_site_symmetry_multiplicity
 _atom_site_fract_x
 _atom_site_fract_y
 _atom_site_fract_z
 _atom_site_occupancy
  Tm  Tm0  1  0.702807  0.702807  0.298098  1
  Tm  Tm1  1  0.296288  0.702807  0.298098  1
  Tm  Tm2  1  0.702807  0.296288  0.298098  1
  Tm  Tm3  1  0.297263  0.297263  0.706550  1
  Tm  Tm4  1  0.698924  0.297263  0.706550  1
  Tm  Tm5  1  0.297263  0.698924  0.706550  1
  Al  Al6  1  0.880696  0.880696  0.357914  1
  Al  Al7  1  0.877198  0.362957  0.882647  1
  Al  Al8  1  0.362957  0.877198  0.882647  1
  Al  Al9  1  0.877198  0.877198  0.882647  1
  Al  Al10  1  0.122910  0.122910  0.631271  1
  Fe  Fe11  1  0.000369  0.000369  0.998893  1
  Fe  Fe12  1  0.002110  0.002110  0.495023  1
  Fe  Fe13  1  0.500756  0.002110  0.495023  1
  Fe  Fe14  1  0.002110  0.500756  0.495023  1
  Fe  Fe15  1  0.497014  0.497014  0.003420  1
  Fe  Fe16  1  0.002553  0.497014  0.003420  1
  Fe  Fe17  1  0.497014  0.002553  0.003420  1
  Fe  Fe18  1  0.120205  0.638397  0.121193  1
  Fe  Fe19  1  0.638397  0.120205  0.121193  1
  Fe  Fe20  1  0.120205  0.120205  0.121193  1
  Fe  Fe21  1  0.674905  0.674905  0.975285  1
  Fe  Fe22  1  0.677551  0.970520  0.674380  1
  Fe  Fe23  1  0.970520  0.677551  0.674380  1
  Fe  Fe24  1  0.677551  0.677551  0.674380  1
  Fe  Fe25  1  0.325574  0.325574  0.023278  1
  Fe  Fe26  1  0.325184  0.026490  0.323142  1
  Fe  Fe27  1  0.026490  0.325184  0.323142  1
  Fe  Fe28  1  0.325184  0.325184  0.323142  1
