# generated using pymatgen
data_Na2Cr3Ni9AsP6
_symmetry_space_group_name_H-M   'P 1'
_cell_length_a   9.12662944
_cell_length_b   9.18998134
_cell_length_c   3.62804800
_cell_angle_alpha   90.00000000
_cell_angle_beta   90.00000000
_cell_angle_gamma   120.05021634
_symmetry_Int_Tables_number   1
_chemical_formula_structural   Na2Cr3Ni9AsP6
_chemical_formula_sum   'Na2 Cr3 Ni9 As1 P6'
_cell_volume   263.39572513
_cell_formula_units_Z   1
loop_
 _symmetry_equiv_pos_site_id
 _symmetry_equiv_pos_as_xyz
  1  'x, y, z'
loop_
 _atom_site_type_symbol
 _atom_site_label
 _atom_site_symmetry_multiplicity
 _atom_site_fract_x
 _atom_site_fract_y
 _atom_site_fract_z
 _atom_site_occupancy
  Na  Na0  1  0.338460  0.664815  0.000000  1
  Na  Na1  1  0.665797  0.334300  0.500000  1
  Cr  Cr2  1  0.218070  0.122812  0.500000  1
  Cr  Cr3  1  0.877517  0.097022  0.500000  1
  Cr  Cr4  1  0.897630  0.782927  0.500000  1
  Ni  Ni5  1  0.123210  0.278132  0.000000  1
  Ni  Ni6  1  0.719541  0.843478  0.000000  1
  Ni  Ni7  1  0.157316  0.884033  0.000000  1
  Ni  Ni8  1  0.434437  0.374531  0.000000  1
  Ni  Ni9  1  0.627101  0.060631  0.000000  1
  Ni  Ni10  1  0.930766  0.557956  0.000000  1
  Ni  Ni11  1  0.049890  0.425956  0.500000  1
  Ni  Ni12  1  0.561076  0.614381  0.500000  1
  Ni  Ni13  1  0.394640  0.959491  0.500000  1
  As  As14  1  0.119422  0.707082  0.500000  1
  P  P15  1  0.291436  0.402186  0.500000  1
  P  P16  1  0.595968  0.886966  0.500000  1
  P  P17  1  0.408263  0.118397  0.000000  1
  P  P18  1  0.883326  0.289855  0.000000  1
  P  P19  1  0.706528  0.593548  0.000000  1
  P  P20  1  0.999605  0.001501  0.000000  1
