# generated using pymatgen
data_Nd3Tl2InCuPd2
_symmetry_space_group_name_H-M   'P 1'
_cell_length_a   7.77482400
_cell_length_b   7.83626450
_cell_length_c   4.05326800
_cell_angle_alpha   90.00000000
_cell_angle_beta   90.00000000
_cell_angle_gamma   119.74097439
_symmetry_Int_Tables_number   1
_chemical_formula_structural   Nd3Tl2InCuPd2
_chemical_formula_sum   'Nd3 Tl2 In1 Cu1 Pd2'
_cell_volume   214.41899464
_cell_formula_units_Z   1
loop_
 _symmetry_equiv_pos_site_id
 _symmetry_equiv_pos_as_xyz
  1  'x, y, z'
loop_
 _atom_site_type_symbol
 _atom_site_label
 _atom_site_symmetry_multiplicity
 _atom_site_fract_x
 _atom_site_fract_y
 _atom_site_fract_z
 _atom_site_occupancy
  Nd  Nd0  1  0.000495  0.589655  0.000000  1
  Nd  Nd1  1  0.410840  0.410345  0.000000  1
  Nd  Nd2  1  0.589266  0.000000  0.000000  1
  Tl  Tl3  1  0.750591  0.748249  0.500000  1
  Tl  Tl4  1  0.002342  0.251751  0.500000  1
  In  In5  1  0.247838  0.000000  0.500000  1
  Cu  Cu6  1  0.007485  0.000000  0.000000  1
  Pd  Pd7  1  0.332281  0.673421  0.500000  1
  Pd  Pd8  1  0.658861  0.326579  0.500000  1
