# generated using pymatgen
data_Dy6Si12Ni13Ru5
_symmetry_space_group_name_H-M   'P 1'
_cell_length_a   3.84821500
_cell_length_b   10.71979120
_cell_length_c   12.52630500
_cell_angle_alpha   90.33950747
_cell_angle_beta   90.00000000
_cell_angle_gamma   90.00000000
_symmetry_Int_Tables_number   1
_chemical_formula_structural   Dy6Si12Ni13Ru5
_chemical_formula_sum   'Dy6 Si12 Ni13 Ru5'
_cell_volume   516.72682965
_cell_formula_units_Z   1
loop_
 _symmetry_equiv_pos_site_id
 _symmetry_equiv_pos_as_xyz
  1  'x, y, z'
loop_
 _atom_site_type_symbol
 _atom_site_label
 _atom_site_symmetry_multiplicity
 _atom_site_fract_x
 _atom_site_fract_y
 _atom_site_fract_z
 _atom_site_occupancy
  Dy  Dy0  1  0.000000  0.502023  0.523422  1
  Dy  Dy1  1  0.500000  0.997522  0.479261  1
  Dy  Dy2  1  0.500000  0.813965  0.204209  1
  Dy  Dy3  1  0.500000  0.188770  0.203679  1
  Dy  Dy4  1  0.000000  0.686616  0.795683  1
  Dy  Dy5  1  0.000000  0.311538  0.795981  1
  Si  Si6  1  0.500000  0.307727  0.618429  1
  Si  Si7  1  0.500000  0.690492  0.618411  1
  Si  Si8  1  0.000000  0.191045  0.381821  1
  Si  Si9  1  0.000000  0.813562  0.383974  1
  Si  Si10  1  0.500000  0.498924  0.879338  1
  Si  Si11  1  0.000000  0.999953  0.120787  1
  Si  Si12  1  0.500000  0.854147  0.894256  1
  Si  Si13  1  0.500000  0.144503  0.896024  1
  Si  Si14  1  0.000000  0.646710  0.104438  1
  Si  Si15  1  0.000000  0.355075  0.103877  1
  Si  Si16  1  0.500000  0.501486  0.339080  1
  Si  Si17  1  0.000000  0.997041  0.660369  1
  Ni  Ni18  1  0.000000  0.500079  0.976046  1
  Ni  Ni19  1  0.500000  0.999141  0.023993  1
  Ni  Ni20  1  0.000000  0.798885  0.572309  1
  Ni  Ni21  1  0.500000  0.878049  0.709544  1
  Ni  Ni22  1  0.500000  0.114342  0.713320  1
  Ni  Ni23  1  0.000000  0.620507  0.287628  1
  Ni  Ni24  1  0.000000  0.384596  0.285914  1
  Ni  Ni25  1  0.500000  0.330231  0.989088  1
  Ni  Ni26  1  0.500000  0.669875  0.988557  1
  Ni  Ni27  1  0.000000  0.168895  0.011083  1
  Ni  Ni28  1  0.000000  0.830408  0.009784  1
  Ni  Ni29  1  0.500000  0.498796  0.700012  1
  Ni  Ni30  1  0.000000  0.001793  0.299944  1
  Ru  Ru31  1  0.500000  0.302334  0.426756  1
  Ru  Ru32  1  0.500000  0.701757  0.429904  1
  Ru  Ru33  1  0.000000  0.196741  0.573043  1
  Ru  Ru34  1  0.500000  0.501857  0.149292  1
  Ru  Ru35  1  0.000000  0.000616  0.850741  1
