# generated using pymatgen
data_La6CeTh(ZnRh)8
_symmetry_space_group_name_H-M   'P 1'
_cell_length_a   4.00505500
_cell_length_b   7.52655808
_cell_length_c   16.61264871
_cell_angle_alpha   90.22873934
_cell_angle_beta   90.00000000
_cell_angle_gamma   90.00000000
_symmetry_Int_Tables_number   1
_chemical_formula_structural   La6CeTh(ZnRh)8
_chemical_formula_sum   'La6 Ce1 Th1 Zn8 Rh8'
_cell_volume   500.77232811
_cell_formula_units_Z   1
loop_
 _symmetry_equiv_pos_site_id
 _symmetry_equiv_pos_as_xyz
  1  'x, y, z'
loop_
 _atom_site_type_symbol
 _atom_site_label
 _atom_site_symmetry_multiplicity
 _atom_site_fract_x
 _atom_site_fract_y
 _atom_site_fract_z
 _atom_site_occupancy
  La  La0  1  0.250000  0.552540  0.782316  1
  La  La1  1  0.250000  0.673188  0.558413  1
  La  La2  1  0.750000  0.824881  0.060005  1
  La  La3  1  0.250000  0.171947  0.941698  1
  La  La4  1  0.750000  0.449551  0.217353  1
  La  La5  1  0.750000  0.947073  0.284407  1
  Ce  Ce6  1  0.750000  0.322638  0.440762  1
  Th  Th7  1  0.250000  0.052426  0.716631  1
  Zn  Zn8  1  0.250000  0.122272  0.150096  1
  Zn  Zn9  1  0.250000  0.994608  0.440465  1
  Zn  Zn10  1  0.750000  0.876684  0.850698  1
  Zn  Zn11  1  0.750000  0.003017  0.557509  1
  Zn  Zn12  1  0.250000  0.498377  0.059313  1
  Zn  Zn13  1  0.750000  0.372945  0.648404  1
  Zn  Zn14  1  0.750000  0.499911  0.940070  1
  Zn  Zn15  1  0.250000  0.616668  0.351247  1
  Rh  Rh16  1  0.750000  0.245266  0.806349  1
  Rh  Rh17  1  0.250000  0.252951  0.325480  1
  Rh  Rh18  1  0.250000  0.739283  0.933872  1
  Rh  Rh19  1  0.250000  0.247099  0.560046  1
  Rh  Rh20  1  0.250000  0.747901  0.186027  1
  Rh  Rh21  1  0.750000  0.750087  0.435265  1
  Rh  Rh22  1  0.750000  0.257872  0.066082  1
  Rh  Rh23  1  0.750000  0.780818  0.687492  1
