# generated using pymatgen
data_Tb4Zn2MoRu5
_symmetry_space_group_name_H-M   'P 1'
_cell_length_a   5.25968093
_cell_length_b   5.19453836
_cell_length_c   8.99780500
_cell_angle_alpha   90.00000000
_cell_angle_beta   90.00000000
_cell_angle_gamma   115.68319898
_symmetry_Int_Tables_number   1
_chemical_formula_structural   Tb4Zn2MoRu5
_chemical_formula_sum   'Tb4 Zn2 Mo1 Ru5'
_cell_volume   221.54712315
_cell_formula_units_Z   1
loop_
 _symmetry_equiv_pos_site_id
 _symmetry_equiv_pos_as_xyz
  1  'x, y, z'
loop_
 _atom_site_type_symbol
 _atom_site_label
 _atom_site_symmetry_multiplicity
 _atom_site_fract_x
 _atom_site_fract_y
 _atom_site_fract_z
 _atom_site_occupancy
  Tb  Tb0  1  0.324083  0.669857  0.434795  1
  Tb  Tb1  1  0.662530  0.331976  0.560140  1
  Tb  Tb2  1  0.662530  0.331976  0.939860  1
  Tb  Tb3  1  0.324083  0.669857  0.065205  1
  Zn  Zn4  1  0.183102  0.839193  0.750000  1
  Zn  Zn5  1  0.178931  0.340640  0.750000  1
  Mo  Mo6  1  0.842304  0.158118  0.250000  1
  Ru  Ru7  1  0.981059  0.003316  0.502110  1
  Ru  Ru8  1  0.981059  0.003316  0.997890  1
  Ru  Ru9  1  0.829325  0.649366  0.250000  1
  Ru  Ru10  1  0.351223  0.167907  0.250000  1
  Ru  Ru11  1  0.679773  0.834476  0.750000  1
