# generated using pymatgen
data_Dy16MgIn3Ir3Os
_symmetry_space_group_name_H-M   'P 1'
_cell_length_a   9.69311666
_cell_length_b   9.69311844
_cell_length_c   9.69311710
_cell_angle_alpha   59.74331057
_cell_angle_beta   59.74330131
_cell_angle_gamma   59.74331446
_symmetry_Int_Tables_number   1
_chemical_formula_structural   Dy16MgIn3Ir3Os
_chemical_formula_sum   'Dy16 Mg1 In3 Ir3 Os1'
_cell_volume   640.23062247
_cell_formula_units_Z   1
loop_
 _symmetry_equiv_pos_site_id
 _symmetry_equiv_pos_as_xyz
  1  'x, y, z'
loop_
 _atom_site_type_symbol
 _atom_site_label
 _atom_site_symmetry_multiplicity
 _atom_site_fract_x
 _atom_site_fract_y
 _atom_site_fract_z
 _atom_site_occupancy
  Dy  Dy0  1  0.599265  0.599265  0.599265  1
  Dy  Dy1  1  0.598448  0.598448  0.206033  1
  Dy  Dy2  1  0.598448  0.206033  0.598448  1
  Dy  Dy3  1  0.206033  0.598448  0.598448  1
  Dy  Dy4  1  0.059464  0.441211  0.441211  1
  Dy  Dy5  1  0.437368  0.059993  0.059993  1
  Dy  Dy6  1  0.441211  0.059464  0.441211  1
  Dy  Dy7  1  0.059993  0.437368  0.059993  1
  Dy  Dy8  1  0.441211  0.441211  0.059464  1
  Dy  Dy9  1  0.059993  0.059993  0.437368  1
  Dy  Dy10  1  0.188269  0.812071  0.812071  1
  Dy  Dy11  1  0.805392  0.191887  0.191887  1
  Dy  Dy12  1  0.812071  0.188269  0.812071  1
  Dy  Dy13  1  0.191887  0.805392  0.191887  1
  Dy  Dy14  1  0.812071  0.812071  0.188269  1
  Dy  Dy15  1  0.191887  0.191887  0.805392  1
  Mg  Mg16  1  0.826472  0.826472  0.826472  1
  In  In17  1  0.832326  0.832326  0.502027  1
  In  In18  1  0.832326  0.502027  0.832326  1
  In  In19  1  0.502027  0.832326  0.832326  1
  Ir  Ir20  1  0.392083  0.392083  0.827853  1
  Ir  Ir21  1  0.392083  0.827853  0.392083  1
  Ir  Ir22  1  0.827853  0.392083  0.392083  1
  Os  Os23  1  0.391819  0.391819  0.391819  1
