# generated using pymatgen
data_Sc5TiB4Ir7Rh3
_symmetry_space_group_name_H-M   'P 1'
_cell_length_a   9.46573320
_cell_length_b   9.49230220
_cell_length_c   3.11441400
_cell_angle_alpha   90.00000000
_cell_angle_beta   90.00000000
_cell_angle_gamma   90.05767666
_symmetry_Int_Tables_number   1
_chemical_formula_structural   Sc5TiB4Ir7Rh3
_chemical_formula_sum   'Sc5 Ti1 B4 Ir7 Rh3'
_cell_volume   279.83493946
_cell_formula_units_Z   1
loop_
 _symmetry_equiv_pos_site_id
 _symmetry_equiv_pos_as_xyz
  1  'x, y, z'
loop_
 _atom_site_type_symbol
 _atom_site_label
 _atom_site_symmetry_multiplicity
 _atom_site_fract_x
 _atom_site_fract_y
 _atom_site_fract_z
 _atom_site_occupancy
  Sc  Sc0  1  0.825175  0.325076  0.000000  1
  Sc  Sc1  1  0.324741  0.174628  0.000000  1
  Sc  Sc2  1  0.674739  0.824947  0.000000  1
  Sc  Sc3  1  0.174342  0.675840  0.000000  1
  Sc  Sc4  1  0.497241  0.499213  0.000000  1
  Ti  Ti5  1  0.000232  0.000274  0.000000  1
  B  B6  1  0.621864  0.121849  0.000000  1
  B  B7  1  0.121093  0.377490  0.000000  1
  B  B8  1  0.878501  0.621488  0.000000  1
  B  B9  1  0.378663  0.878559  0.000000  1
  Ir  Ir10  1  0.068047  0.217360  0.500000  1
  Ir  Ir11  1  0.216826  0.933004  0.500000  1
  Ir  Ir12  1  0.783831  0.066543  0.500000  1
  Ir  Ir13  1  0.933045  0.782875  0.500000  1
  Ir  Ir14  1  0.426140  0.723824  0.500000  1
  Ir  Ir15  1  0.575060  0.276894  0.500000  1
  Ir  Ir16  1  0.722928  0.573803  0.500000  1
  Rh  Rh17  1  0.276619  0.425485  0.500000  1
  Rh  Rh18  1  0.500051  0.000712  0.500000  1
  Rh  Rh19  1  0.000862  0.500137  0.500000  1
