# generated using pymatgen
data_DyHo15(In3Os)2
_symmetry_space_group_name_H-M   'P 1'
_cell_length_a   10.36933700
_cell_length_b   10.36543108
_cell_length_c   7.06735608
_cell_angle_alpha   89.98542781
_cell_angle_beta   90.00000000
_cell_angle_gamma   120.01246276
_symmetry_Int_Tables_number   1
_chemical_formula_structural   DyHo15(In3Os)2
_chemical_formula_sum   'Dy1 Ho15 In6 Os2'
_cell_volume   657.76595247
_cell_formula_units_Z   1
loop_
 _symmetry_equiv_pos_site_id
 _symmetry_equiv_pos_as_xyz
  1  'x, y, z'
loop_
 _atom_site_type_symbol
 _atom_site_label
 _atom_site_symmetry_multiplicity
 _atom_site_fract_x
 _atom_site_fract_y
 _atom_site_fract_z
 _atom_site_occupancy
  Dy  Dy0  1  0.533231  0.066462  0.507158  1
  Ho  Ho1  1  0.933349  0.466712  0.507483  1
  Ho  Ho2  1  0.533363  0.466712  0.507483  1
  Ho  Ho3  1  0.466469  0.932937  0.007345  1
  Ho  Ho4  1  0.066813  0.533455  0.007557  1
  Ho  Ho5  1  0.466643  0.533455  0.007557  1
  Ho  Ho6  1  0.177235  0.354469  0.712391  1
  Ho  Ho7  1  0.645787  0.822731  0.712502  1
  Ho  Ho8  1  0.176944  0.822731  0.712502  1
  Ho  Ho9  1  0.822787  0.645575  0.212298  1
  Ho  Ho10  1  0.354237  0.177236  0.212114  1
  Ho  Ho11  1  0.822998  0.177236  0.212114  1
  Ho  Ho12  1  0.666804  0.333607  0.885080  1
  Ho  Ho13  1  0.333177  0.666354  0.384956  1
  Ho  Ho14  1  0.999977  0.999953  0.491815  1
  Ho  Ho15  1  0.999970  0.999940  0.991815  1
  In  In16  1  0.836922  0.673844  0.753207  1
  In  In17  1  0.326011  0.163183  0.753108  1
  In  In18  1  0.837172  0.163183  0.753108  1
  In  In19  1  0.163074  0.326149  0.253063  1
  In  In20  1  0.673793  0.836857  0.253230  1
  In  In21  1  0.163063  0.836857  0.253230  1
  Os  Os22  1  0.666857  0.333714  0.283409  1
  Os  Os23  1  0.333323  0.666648  0.783518  1
