# generated using pymatgen
data_Lu8Hf11Si16Hg
_symmetry_space_group_name_H-M   'P 1'
_cell_length_a   7.23426274
_cell_length_b   7.23426344
_cell_length_c   13.15069304
_cell_angle_alpha   89.77531667
_cell_angle_beta   90.22468282
_cell_angle_gamma   89.97113348
_symmetry_Int_Tables_number   1
_chemical_formula_structural   Lu8Hf11Si16Hg
_chemical_formula_sum   'Lu8 Hf11 Si16 Hg1'
_cell_volume   688.22509032
_cell_formula_units_Z   1
loop_
 _symmetry_equiv_pos_site_id
 _symmetry_equiv_pos_as_xyz
  1  'x, y, z'
loop_
 _atom_site_type_symbol
 _atom_site_label
 _atom_site_symmetry_multiplicity
 _atom_site_fract_x
 _atom_site_fract_y
 _atom_site_fract_z
 _atom_site_occupancy
  Lu  Lu0  1  0.996939  0.347281  0.212380  1
  Lu  Lu1  1  0.004195  0.656087  0.716217  1
  Lu  Lu2  1  0.154805  0.496379  0.465197  1
  Lu  Lu3  1  0.499518  0.846602  0.032932  1
  Lu  Lu4  1  0.846602  0.499518  0.967068  1
  Lu  Lu5  1  0.496379  0.154805  0.534803  1
  Lu  Lu6  1  0.347281  0.996939  0.787620  1
  Lu  Lu7  1  0.656087  0.004195  0.283783  1
  Hf  Hf8  1  0.824692  0.824692  0.500000  1
  Hf  Hf9  1  0.323136  0.676962  0.249909  1
  Hf  Hf10  1  0.676962  0.323136  0.750091  1
  Hf  Hf11  1  0.143702  0.998593  0.375370  1
  Hf  Hf12  1  0.856724  0.001648  0.878511  1
  Hf  Hf13  1  0.503826  0.645515  0.626334  1
  Hf  Hf14  1  0.357258  0.492369  0.877129  1
  Hf  Hf15  1  0.492369  0.357258  0.122871  1
  Hf  Hf16  1  0.645515  0.503826  0.373666  1
  Hf  Hf17  1  0.998593  0.143702  0.624630  1
  Hf  Hf18  1  0.001648  0.856724  0.121489  1
  Si  Si19  1  0.357062  0.296225  0.318068  1
  Si  Si20  1  0.643095  0.703640  0.820174  1
  Si  Si21  1  0.206990  0.857910  0.569795  1
  Si  Si22  1  0.132721  0.772795  0.924416  1
  Si  Si23  1  0.772795  0.132721  0.075584  1
  Si  Si24  1  0.857910  0.206990  0.430205  1
  Si  Si25  1  0.296225  0.357062  0.681932  1
  Si  Si26  1  0.703640  0.643095  0.179826  1
  Si  Si27  1  0.300790  0.048440  0.192038  1
  Si  Si28  1  0.702862  0.951120  0.686427  1
  Si  Si29  1  0.450640  0.797917  0.436124  1
  Si  Si30  1  0.208718  0.568334  0.064676  1
  Si  Si31  1  0.568334  0.208718  0.935324  1
  Si  Si32  1  0.797917  0.450640  0.563876  1
  Si  Si33  1  0.048440  0.300790  0.807962  1
  Si  Si34  1  0.951120  0.702862  0.313573  1
  Hg  Hg35  1  0.174505  0.174505  0.000000  1
