# generated using pymatgen
data_Dy2Lu5Sn23Ru6
_symmetry_space_group_name_H-M   'P 1'
_cell_length_a   9.81147520
_cell_length_b   9.87156110
_cell_length_c   10.00171886
_cell_angle_alpha   90.00000105
_cell_angle_beta   89.91364338
_cell_angle_gamma   120.20278171
_symmetry_Int_Tables_number   1
_chemical_formula_structural   Dy2Lu5Sn23Ru6
_chemical_formula_sum   'Dy2 Lu5 Sn23 Ru6'
_cell_volume   837.20865495
_cell_formula_units_Z   1
loop_
 _symmetry_equiv_pos_site_id
 _symmetry_equiv_pos_as_xyz
  1  'x, y, z'
loop_
 _atom_site_type_symbol
 _atom_site_label
 _atom_site_symmetry_multiplicity
 _atom_site_fract_x
 _atom_site_fract_y
 _atom_site_fract_z
 _atom_site_occupancy
  Dy  Dy0  1  0.000797  0.000398  0.000371  1
  Dy  Dy1  1  0.970184  0.485092  0.694441  1
  Lu  Lu2  1  0.487354  0.512145  0.303255  1
  Lu  Lu3  1  0.513142  0.488124  0.696668  1
  Lu  Lu4  1  0.487354  0.975209  0.303255  1
  Lu  Lu5  1  0.513142  0.025017  0.696668  1
  Lu  Lu6  1  0.025915  0.512957  0.304355  1
  Sn  Sn7  1  0.349695  0.000610  0.000623  1
  Sn  Sn8  1  0.650412  0.999055  0.999672  1
  Sn  Sn9  1  0.000487  0.348901  0.999642  1
  Sn  Sn10  1  0.000487  0.651586  0.999642  1
  Sn  Sn11  1  0.650412  0.651357  0.999672  1
  Sn  Sn12  1  0.349695  0.349085  0.000623  1
  Sn  Sn13  1  0.332743  0.666372  0.823297  1
  Sn  Sn14  1  0.667262  0.333631  0.177025  1
  Sn  Sn15  1  0.000413  0.000206  0.499748  1
  Sn  Sn16  1  0.777808  0.221736  0.465086  1
  Sn  Sn17  1  0.222487  0.778197  0.533761  1
  Sn  Sn18  1  0.777808  0.556073  0.465086  1
  Sn  Sn19  1  0.222487  0.444289  0.533761  1
  Sn  Sn20  1  0.444675  0.222338  0.466517  1
  Sn  Sn21  1  0.555716  0.777857  0.533530  1
  Sn  Sn22  1  0.333745  0.666873  0.134589  1
  Sn  Sn23  1  0.662841  0.331420  0.867298  1
  Sn  Sn24  1  0.118181  0.880184  0.277006  1
  Sn  Sn25  1  0.882003  0.118641  0.723503  1
  Sn  Sn26  1  0.118181  0.237996  0.277006  1
  Sn  Sn27  1  0.882003  0.763363  0.723503  1
  Sn  Sn28  1  0.760602  0.880301  0.274270  1
  Sn  Sn29  1  0.240222  0.120112  0.725638  1
  Ru  Ru30  1  0.828349  0.170253  0.203623  1
  Ru  Ru31  1  0.172725  0.831344  0.796519  1
  Ru  Ru32  1  0.828349  0.658096  0.203623  1
  Ru  Ru33  1  0.172725  0.341381  0.796519  1
  Ru  Ru34  1  0.340935  0.170468  0.204234  1
  Ru  Ru35  1  0.658663  0.829332  0.795971  1
