# generated using pymatgen
data_Li(DyIr)2
_symmetry_space_group_name_H-M   'P 1'
_cell_length_a   4.16362358
_cell_length_b   5.87253551
_cell_length_c   5.43207847
_cell_angle_alpha   122.72056609
_cell_angle_beta   112.53478024
_cell_angle_gamma   90.00000434
_symmetry_Int_Tables_number   1
_chemical_formula_structural   Li(DyIr)2
_chemical_formula_sum   'Li1 Dy2 Ir2'
_cell_volume   99.47650414
_cell_formula_units_Z   1
loop_
 _symmetry_equiv_pos_site_id
 _symmetry_equiv_pos_as_xyz
  1  'x, y, z'
loop_
 _atom_site_type_symbol
 _atom_site_label
 _atom_site_symmetry_multiplicity
 _atom_site_fract_x
 _atom_site_fract_y
 _atom_site_fract_z
 _atom_site_occupancy
  Li  Li0  1  0.000000  0.000000  0.000000  1
  Dy  Dy1  1  0.795300  0.295300  0.590601  1
  Dy  Dy2  1  0.204700  0.704700  0.409399  1
  Ir  Ir3  1  0.500000  0.269882  0.000000  1
  Ir  Ir4  1  0.500000  0.730118  0.000000  1
