# generated using pymatgen
data_Tl3Ru3PtPbO13
_symmetry_space_group_name_H-M   'P 1'
_cell_length_a   7.34118947
_cell_length_b   7.31755671
_cell_length_c   7.34119000
_cell_angle_alpha   59.89311483
_cell_angle_beta   60.00000663
_cell_angle_gamma   59.89311261
_symmetry_Int_Tables_number   1
_chemical_formula_structural   Tl3Ru3PtPbO13
_chemical_formula_sum   'Tl3 Ru3 Pt1 Pb1 O13'
_cell_volume   278.40721495
_cell_formula_units_Z   1
loop_
 _symmetry_equiv_pos_site_id
 _symmetry_equiv_pos_as_xyz
  1  'x, y, z'
loop_
 _atom_site_type_symbol
 _atom_site_label
 _atom_site_symmetry_multiplicity
 _atom_site_fract_x
 _atom_site_fract_y
 _atom_site_fract_z
 _atom_site_occupancy
  Tl  Tl0  1  0.880481  0.373227  0.373147  1
  Tl  Tl1  1  0.373147  0.373227  0.373147  1
  Tl  Tl2  1  0.373147  0.373227  0.880481  1
  Ru  Ru3  1  0.875565  0.875468  0.373401  1
  Ru  Ru4  1  0.875565  0.875468  0.875565  1
  Ru  Ru5  1  0.373401  0.875468  0.875565  1
  Pt  Pt6  1  0.875664  0.373007  0.875664  1
  Pb  Pb7  1  0.374047  0.877861  0.374047  1
  O  O8  1  0.193668  0.810740  0.801924  1
  O  O9  1  0.193668  0.810740  0.193668  1
  O  O10  1  0.556325  0.938482  0.948867  1
  O  O11  1  0.556325  0.938482  0.556325  1
  O  O12  1  0.948867  0.938482  0.556325  1
  O  O13  1  0.801924  0.810740  0.193668  1
  O  O14  1  0.544089  0.550037  0.952937  1
  O  O15  1  0.797755  0.198308  0.797755  1
  O  O16  1  0.797755  0.198308  0.206181  1
  O  O17  1  0.952937  0.550037  0.952937  1
  O  O18  1  0.952937  0.550037  0.544089  1
  O  O19  1  0.206181  0.198308  0.797755  1
  O  O20  1  0.496551  0.510346  0.496551  1
