# generated using pymatgen
data_Nd7ThSe12
_symmetry_space_group_name_H-M   'P 1'
_cell_length_a   11.51636609
_cell_length_b   4.16098900
_cell_length_c   11.27305710
_cell_angle_alpha   90.00000000
_cell_angle_beta   89.98530863
_cell_angle_gamma   90.00000000
_symmetry_Int_Tables_number   1
_chemical_formula_structural   Nd7ThSe12
_chemical_formula_sum   'Nd7 Th1 Se12'
_cell_volume   540.19893316
_cell_formula_units_Z   1
loop_
 _symmetry_equiv_pos_site_id
 _symmetry_equiv_pos_as_xyz
  1  'x, y, z'
loop_
 _atom_site_type_symbol
 _atom_site_label
 _atom_site_symmetry_multiplicity
 _atom_site_fract_x
 _atom_site_fract_y
 _atom_site_fract_z
 _atom_site_occupancy
  Nd  Nd0  1  0.485233  0.250000  0.188831  1
  Nd  Nd1  1  0.988505  0.250000  0.315682  1
  Nd  Nd2  1  0.510747  0.750000  0.810381  1
  Nd  Nd3  1  0.013053  0.750000  0.684869  1
  Nd  Nd4  1  0.691947  0.750000  0.492039  1
  Nd  Nd5  1  0.195159  0.750000  0.001806  1
  Nd  Nd6  1  0.307209  0.250000  0.503758  1
  Th  Th7  1  0.808030  0.250000  0.001629  1
  Se  Se8  1  0.548572  0.250000  0.625744  1
  Se  Se9  1  0.042675  0.250000  0.875287  1
  Se  Se10  1  0.453615  0.750000  0.373946  1
  Se  Se11  1  0.952184  0.750000  0.125180  1
  Se  Se12  1  0.621005  0.750000  0.053189  1
  Se  Se13  1  0.122305  0.750000  0.445240  1
  Se  Se14  1  0.380731  0.250000  0.946922  1
  Se  Se15  1  0.876712  0.250000  0.555105  1
  Se  Se16  1  0.729416  0.250000  0.292972  1
  Se  Se17  1  0.224659  0.250000  0.197854  1
  Se  Se18  1  0.271314  0.750000  0.701584  1
  Se  Se19  1  0.776929  0.750000  0.807983  1
