# generated using pymatgen
data_Rb2Th(NO3)6
_symmetry_space_group_name_H-M   'P 1'
_cell_length_a   7.12728800
_cell_length_b   8.60744404
_cell_length_c   13.65273500
_cell_angle_alpha   91.55039042
_cell_angle_beta   90.00000000
_cell_angle_gamma   90.00000000
_symmetry_Int_Tables_number   1
_chemical_formula_structural   Rb2Th(NO3)6
_chemical_formula_sum   'Rb4 Th2 N12 O36'
_cell_volume   837.25771810
_cell_formula_units_Z   2
loop_
 _symmetry_equiv_pos_site_id
 _symmetry_equiv_pos_as_xyz
  1  'x, y, z'
loop_
 _atom_site_type_symbol
 _atom_site_label
 _atom_site_symmetry_multiplicity
 _atom_site_fract_x
 _atom_site_fract_y
 _atom_site_fract_z
 _atom_site_occupancy
  Rb  Rb0  1  0.230390  0.026858  0.660987  1
  Rb  Rb1  1  0.269610  0.526858  0.160987  1
  Rb  Rb2  1  0.730390  0.473142  0.839013  1
  Rb  Rb3  1  0.769610  0.973142  0.339013  1
  Th  Th4  1  0.500000  0.500000  0.500000  1
  Th  Th5  1  0.000000  0.000000  0.000000  1
  N  N6  1  0.253146  0.774042  0.446436  1
  N  N7  1  0.757645  0.536080  0.323429  1
  N  N8  1  0.242355  0.463920  0.676571  1
  N  N9  1  0.753146  0.725958  0.053564  1
  N  N10  1  0.746854  0.225958  0.553564  1
  N  N11  1  0.268997  0.783686  0.890176  1
  N  N12  1  0.231003  0.283686  0.390176  1
  N  N13  1  0.257645  0.963920  0.176571  1
  N  N14  1  0.768997  0.716314  0.609824  1
  N  N15  1  0.246854  0.274042  0.946436  1
  N  N16  1  0.742355  0.036080  0.823429  1
  N  N17  1  0.731003  0.216314  0.109824  1
  O  O18  1  0.628150  0.060197  0.758155  1
  O  O19  1  0.371850  0.939803  0.241845  1
  O  O20  1  0.596435  0.208592  0.500927  1
  O  O21  1  0.096435  0.291408  0.999073  1
  O  O22  1  0.880359  0.798489  0.655682  1
  O  O23  1  0.856680  0.117850  0.564914  1
  O  O24  1  0.119641  0.201511  0.344318  1
  O  O25  1  0.225969  0.574931  0.616636  1
  O  O26  1  0.227870  0.637552  0.408819  1
  O  O27  1  0.281804  0.811279  0.983077  1
  O  O28  1  0.403565  0.791408  0.499073  1
  O  O29  1  0.718196  0.188721  0.016923  1
  O  O30  1  0.388868  0.375908  0.663162  1
  O  O31  1  0.111132  0.875908  0.163162  1
  O  O32  1  0.274031  0.074931  0.116636  1
  O  O33  1  0.725969  0.925069  0.883364  1
  O  O34  1  0.619641  0.298489  0.155682  1
  O  O35  1  0.128150  0.439803  0.741845  1
  O  O36  1  0.727870  0.862448  0.091181  1
  O  O37  1  0.143320  0.882150  0.435086  1
  O  O38  1  0.643320  0.617850  0.064914  1
  O  O39  1  0.628367  0.649550  0.652022  1
  O  O40  1  0.380359  0.701511  0.844318  1
  O  O41  1  0.871850  0.560197  0.258155  1
  O  O42  1  0.774031  0.425069  0.383364  1
  O  O43  1  0.772130  0.362448  0.591181  1
  O  O44  1  0.356680  0.382150  0.935086  1
  O  O45  1  0.903565  0.708592  0.000927  1
  O  O46  1  0.128367  0.850450  0.847978  1
  O  O47  1  0.611132  0.624092  0.336838  1
  O  O48  1  0.871633  0.149550  0.152022  1
  O  O49  1  0.272130  0.137552  0.908819  1
  O  O50  1  0.888868  0.124092  0.836838  1
  O  O51  1  0.218196  0.311279  0.483077  1
  O  O52  1  0.371633  0.350450  0.347978  1
  O  O53  1  0.781804  0.688721  0.516923  1
