# generated using pymatgen
data_ErZr2Fe2Co7
_symmetry_space_group_name_H-M   'P 1'
_cell_length_a   8.34529857
_cell_length_b   8.34529914
_cell_length_c   8.34529774
_cell_angle_alpha   34.56796042
_cell_angle_beta   34.56795747
_cell_angle_gamma   34.56795724
_symmetry_Int_Tables_number   1
_chemical_formula_structural   ErZr2Fe2Co7
_chemical_formula_sum   'Er1 Zr2 Fe2 Co7'
_cell_volume   166.93730467
_cell_formula_units_Z   1
loop_
 _symmetry_equiv_pos_site_id
 _symmetry_equiv_pos_as_xyz
  1  'x, y, z'
loop_
 _atom_site_type_symbol
 _atom_site_label
 _atom_site_symmetry_multiplicity
 _atom_site_fract_x
 _atom_site_fract_y
 _atom_site_fract_z
 _atom_site_occupancy
  Er  Er0  1  0.000018  0.000018  0.000018  1
  Zr  Zr1  1  0.140122  0.140122  0.140122  1
  Zr  Zr2  1  0.860193  0.860193  0.860193  1
  Fe  Fe3  1  0.665320  0.665320  0.665320  1
  Fe  Fe4  1  0.500422  0.500422  0.500422  1
  Co  Co5  1  0.412093  0.412093  0.922346  1
  Co  Co6  1  0.922346  0.412093  0.412093  1
  Co  Co7  1  0.585793  0.081494  0.585793  1
  Co  Co8  1  0.585793  0.585793  0.081494  1
  Co  Co9  1  0.412093  0.922346  0.412093  1
  Co  Co10  1  0.081494  0.585793  0.585793  1
  Co  Co11  1  0.334312  0.334312  0.334312  1
