# generated using pymatgen
data_Ce4Si3Ag
_symmetry_space_group_name_H-M   'P 1'
_cell_length_a   5.65195556
_cell_length_b   8.44780923
_cell_length_c   8.44780951
_cell_angle_alpha   83.57109519
_cell_angle_beta   70.46622679
_cell_angle_gamma   70.46623667
_symmetry_Int_Tables_number   1
_chemical_formula_structural   Ce4Si3Ag
_chemical_formula_sum   'Ce8 Si6 Ag2'
_cell_volume   358.26022529
_cell_formula_units_Z   2
loop_
 _symmetry_equiv_pos_site_id
 _symmetry_equiv_pos_as_xyz
  1  'x, y, z'
loop_
 _atom_site_type_symbol
 _atom_site_label
 _atom_site_symmetry_multiplicity
 _atom_site_fract_x
 _atom_site_fract_y
 _atom_site_fract_z
 _atom_site_occupancy
  Ce  Ce0  1  0.095163  0.132368  0.677559  1
  Ce  Ce1  1  0.904837  0.867632  0.322441  1
  Ce  Ce2  1  0.772724  0.322127  0.132578  1
  Ce  Ce3  1  0.404837  0.322441  0.867632  1
  Ce  Ce4  1  0.227276  0.677873  0.867422  1
  Ce  Ce5  1  0.595163  0.677559  0.132368  1
  Ce  Ce6  1  0.727276  0.867422  0.677873  1
  Ce  Ce7  1  0.272724  0.132578  0.322127  1
  Si  Si8  1  0.148541  0.499945  0.203082  1
  Si  Si9  1  0.851459  0.500055  0.796918  1
  Si  Si10  1  0.351459  0.796918  0.500055  1
  Si  Si11  1  0.648541  0.203082  0.499945  1
  Si  Si12  1  0.250000  0.000095  0.999905  1
  Si  Si13  1  0.750000  0.999905  0.000095  1
  Ag  Ag14  1  0.250000  0.500038  0.499962  1
  Ag  Ag15  1  0.750000  0.499962  0.500038  1
