# generated using pymatgen
data_Tb7Y3(TlSb)4
_symmetry_space_group_name_H-M   'P 1'
_cell_length_a   8.12393900
_cell_length_b   8.17883948
_cell_length_c   15.50718300
_cell_angle_alpha   89.98044802
_cell_angle_beta   90.00000000
_cell_angle_gamma   90.00000000
_symmetry_Int_Tables_number   1
_chemical_formula_structural   Tb7Y3(TlSb)4
_chemical_formula_sum   'Tb14 Y6 Tl8 Sb8'
_cell_volume   1030.36530151
_cell_formula_units_Z   2
loop_
 _symmetry_equiv_pos_site_id
 _symmetry_equiv_pos_as_xyz
  1  'x, y, z'
loop_
 _atom_site_type_symbol
 _atom_site_label
 _atom_site_symmetry_multiplicity
 _atom_site_fract_x
 _atom_site_fract_y
 _atom_site_fract_z
 _atom_site_occupancy
  Tb  Tb0  1  0.393696  0.837408  0.883755  1
  Tb  Tb1  1  0.893696  0.662592  0.616245  1
  Tb  Tb2  1  0.606261  0.162574  0.383763  1
  Tb  Tb3  1  0.106261  0.337426  0.116237  1
  Tb  Tb4  1  0.606371  0.162716  0.116208  1
  Tb  Tb5  1  0.106371  0.337284  0.383792  1
  Tb  Tb6  1  0.393592  0.837246  0.616192  1
  Tb  Tb7  1  0.893592  0.662754  0.883808  1
  Tb  Tb8  1  0.554522  0.329556  0.895190  1
  Tb  Tb9  1  0.054522  0.170444  0.604810  1
  Tb  Tb10  1  0.445311  0.670386  0.395114  1
  Tb  Tb11  1  0.945311  0.829614  0.104886  1
  Tb  Tb12  1  0.445248  0.670291  0.104861  1
  Tb  Tb13  1  0.945248  0.829709  0.395139  1
  Y  Y14  1  0.555178  0.330080  0.605115  1
  Y  Y15  1  0.055178  0.169920  0.894885  1
  Y  Y16  1  0.225499  0.499571  0.749960  1
  Y  Y17  1  0.725499  0.000429  0.750040  1
  Y  Y18  1  0.774476  0.500400  0.250030  1
  Y  Y19  1  0.274476  0.999600  0.249970  1
  Tl  Tl20  1  0.592330  0.623896  0.750110  1
  Tl  Tl21  1  0.092330  0.876104  0.749890  1
  Tl  Tl22  1  0.407759  0.376037  0.250009  1
  Tl  Tl23  1  0.907759  0.123963  0.249991  1
  Tl  Tl24  1  0.356881  0.137949  0.749950  1
  Tl  Tl25  1  0.856881  0.362051  0.750050  1
  Tl  Tl26  1  0.643199  0.861933  0.249978  1
  Tl  Tl27  1  0.143199  0.638067  0.250022  1
  Sb  Sb28  1  0.266885  0.017047  0.047125  1
  Sb  Sb29  1  0.766885  0.482953  0.452875  1
  Sb  Sb30  1  0.732662  0.983422  0.547255  1
  Sb  Sb31  1  0.232662  0.516578  0.952745  1
  Sb  Sb32  1  0.733293  0.983562  0.952761  1
  Sb  Sb33  1  0.233293  0.516438  0.547239  1
  Sb  Sb34  1  0.266836  0.016498  0.452568  1
  Sb  Sb35  1  0.766836  0.483502  0.047432  1
