# generated using pymatgen
data_Ce7Hf(Si4W3)4
_symmetry_space_group_name_H-M   'P 1'
_cell_length_a   6.88422232
_cell_length_b   6.93430723
_cell_length_c   12.98010843
_cell_angle_alpha   90.26977653
_cell_angle_beta   89.96823730
_cell_angle_gamma   90.16299930
_symmetry_Int_Tables_number   1
_chemical_formula_structural   Ce7Hf(Si4W3)4
_chemical_formula_sum   'Ce7 Hf1 Si16 W12'
_cell_volume   619.62602750
_cell_formula_units_Z   1
loop_
 _symmetry_equiv_pos_site_id
 _symmetry_equiv_pos_as_xyz
  1  'x, y, z'
loop_
 _atom_site_type_symbol
 _atom_site_label
 _atom_site_symmetry_multiplicity
 _atom_site_fract_x
 _atom_site_fract_y
 _atom_site_fract_z
 _atom_site_occupancy
  Ce  Ce0  1  0.491797  0.661496  0.592283  1
  Ce  Ce1  1  0.994549  0.838061  0.907596  1
  Ce  Ce2  1  0.505747  0.338235  0.091881  1
  Ce  Ce3  1  0.003570  0.166173  0.407711  1
  Ce  Ce4  1  0.505375  0.338111  0.410901  1
  Ce  Ce5  1  0.006450  0.162836  0.091583  1
  Ce  Ce6  1  0.493423  0.663211  0.905442  1
  Hf  Hf7  1  0.990691  0.828746  0.597122  1
  Si  Si8  1  0.662408  0.953652  0.456616  1
  Si  Si9  1  0.156839  0.546573  0.045862  1
  Si  Si10  1  0.344684  0.047890  0.950753  1
  Si  Si11  1  0.843869  0.459890  0.546649  1
  Si  Si12  1  0.331319  0.040170  0.548130  1
  Si  Si13  1  0.841485  0.454846  0.952824  1
  Si  Si14  1  0.658062  0.954026  0.046329  1
  Si  Si15  1  0.155241  0.551686  0.457367  1
  Si  Si16  1  0.462438  0.361870  0.750751  1
  Si  Si17  1  0.963876  0.124326  0.746231  1
  Si  Si18  1  0.539052  0.635831  0.252068  1
  Si  Si19  1  0.038724  0.869183  0.249742  1
  Si  Si20  1  0.699291  0.864891  0.747124  1
  Si  Si21  1  0.189824  0.634130  0.747503  1
  Si  Si22  1  0.307514  0.133005  0.250310  1
  Si  Si23  1  0.808299  0.371023  0.250140  1
  W  W24  1  0.670493  0.160018  0.624172  1
  W  W25  1  0.162704  0.337537  0.871595  1
  W  W26  1  0.333916  0.838468  0.126304  1
  W  W27  1  0.835047  0.665473  0.376194  1
  W  W28  1  0.329573  0.839156  0.375174  1
  W  W29  1  0.831896  0.664619  0.126702  1
  W  W30  1  0.676109  0.158894  0.872085  1
  W  W31  1  0.164318  0.336117  0.626300  1
  W  W32  1  0.832123  0.498322  0.748645  1
  W  W33  1  0.332609  0.996155  0.748252  1
  W  W34  1  0.169031  0.504991  0.250200  1
  W  W35  1  0.667656  0.000390  0.251459  1
