# generated using pymatgen
data_PmYCu4
_symmetry_space_group_name_H-M   'P 1'
_cell_length_a   5.59030258
_cell_length_b   5.59030341
_cell_length_c   5.59030341
_cell_angle_alpha   134.48975148
_cell_angle_beta   97.38891577
_cell_angle_gamma   99.82354272
_symmetry_Int_Tables_number   1
_chemical_formula_structural   PmYCu4
_chemical_formula_sum   'Pm1 Y1 Cu4'
_cell_volume   114.89503427
_cell_formula_units_Z   1
loop_
 _symmetry_equiv_pos_site_id
 _symmetry_equiv_pos_as_xyz
  1  'x, y, z'
loop_
 _atom_site_type_symbol
 _atom_site_label
 _atom_site_symmetry_multiplicity
 _atom_site_fract_x
 _atom_site_fract_y
 _atom_site_fract_z
 _atom_site_occupancy
  Pm  Pm0  1  0.500000  0.500000  0.000000  1
  Y  Y1  1  0.000000  0.000000  0.000000  1
  Cu  Cu2  1  0.583842  0.251688  0.332156  1
  Cu  Cu3  1  0.080469  0.748313  0.332157  1
  Cu  Cu4  1  0.919532  0.251688  0.667845  1
  Cu  Cu5  1  0.416158  0.748313  0.667844  1
