# generated using pymatgen
data_KTi(NbSe2)6
_symmetry_space_group_name_H-M   'P 1'
_cell_length_a   6.05818500
_cell_length_b   6.05818379
_cell_length_c   14.73472000
_cell_angle_alpha   90.00000000
_cell_angle_beta   90.00000000
_cell_angle_gamma   120.00000116
_symmetry_Int_Tables_number   1
_chemical_formula_structural   KTi(NbSe2)6
_chemical_formula_sum   'K1 Ti1 Nb6 Se12'
_cell_volume   468.33594342
_cell_formula_units_Z   1
loop_
 _symmetry_equiv_pos_site_id
 _symmetry_equiv_pos_as_xyz
  1  'x, y, z'
loop_
 _atom_site_type_symbol
 _atom_site_label
 _atom_site_symmetry_multiplicity
 _atom_site_fract_x
 _atom_site_fract_y
 _atom_site_fract_z
 _atom_site_occupancy
  K  K0  1  0.333333  0.666667  0.250000  1
  Ti  Ti1  1  0.666667  0.333333  0.750000  1
  Nb  Nb2  1  0.000000  0.000000  0.533969  1
  Nb  Nb3  1  0.000000  0.000000  0.966031  1
  Nb  Nb4  1  0.333333  0.666667  0.966817  1
  Nb  Nb5  1  0.666667  0.333333  0.964264  1
  Nb  Nb6  1  0.666667  0.333333  0.535736  1
  Nb  Nb7  1  0.333333  0.666667  0.533183  1
  Se  Se8  1  0.335295  0.329742  0.420743  1
  Se  Se9  1  0.670258  0.005551  0.420743  1
  Se  Se10  1  0.994449  0.664705  0.420743  1
  Se  Se11  1  0.326743  0.333901  0.647959  1
  Se  Se12  1  0.007159  0.673257  0.647959  1
  Se  Se13  1  0.666099  0.992841  0.647959  1
  Se  Se14  1  0.666099  0.673257  0.852041  1
  Se  Se15  1  0.326743  0.992841  0.852041  1
  Se  Se16  1  0.007159  0.333901  0.852041  1
  Se  Se17  1  0.670258  0.664705  0.079257  1
  Se  Se18  1  0.994449  0.329742  0.079257  1
  Se  Se19  1  0.335295  0.005551  0.079257  1
