# generated using pymatgen
data_K2GePRh2
_symmetry_space_group_name_H-M   'P 1'
_cell_length_a   4.05505800
_cell_length_b   4.05505800
_cell_length_c   10.43888800
_cell_angle_alpha   90.00000000
_cell_angle_beta   90.00000000
_cell_angle_gamma   90.00000000
_symmetry_Int_Tables_number   1
_chemical_formula_structural   K2GePRh2
_chemical_formula_sum   'K2 Ge1 P1 Rh2'
_cell_volume   171.65180664
_cell_formula_units_Z   1
loop_
 _symmetry_equiv_pos_site_id
 _symmetry_equiv_pos_as_xyz
  1  'x, y, z'
loop_
 _atom_site_type_symbol
 _atom_site_label
 _atom_site_symmetry_multiplicity
 _atom_site_fract_x
 _atom_site_fract_y
 _atom_site_fract_z
 _atom_site_occupancy
  K  K0  1  0.000000  0.500001  0.300464  1
  K  K1  1  0.500001  0.000000  0.708778  1
  Ge  Ge2  1  0.500001  0.000000  0.129223  1
  P  P3  1  0.000000  0.500001  0.880528  1
  Rh  Rh4  1  0.000000  0.000000  0.990503  1
  Rh  Rh5  1  0.500001  0.500001  0.990503  1
