# generated using pymatgen
data_Dy2Ho3Er3Tl3Co
_symmetry_space_group_name_H-M   'P 1'
_cell_length_a   10.28175400
_cell_length_b   10.28191054
_cell_length_c   7.12499500
_cell_angle_alpha   89.99703079
_cell_angle_beta   89.99983403
_cell_angle_gamma   119.99412848
_symmetry_Int_Tables_number   1
_chemical_formula_structural   Dy2Ho3Er3Tl3Co
_chemical_formula_sum   'Dy4 Ho6 Er6 Tl6 Co2'
_cell_volume   652.35187787
_cell_formula_units_Z   2
loop_
 _symmetry_equiv_pos_site_id
 _symmetry_equiv_pos_as_xyz
  1  'x, y, z'
loop_
 _atom_site_type_symbol
 _atom_site_label
 _atom_site_symmetry_multiplicity
 _atom_site_fract_x
 _atom_site_fract_y
 _atom_site_fract_z
 _atom_site_occupancy
  Dy  Dy0  1  0.924918  0.462516  0.712557  1
  Dy  Dy1  1  0.537481  0.075077  0.712564  1
  Dy  Dy2  1  0.999972  0.000028  0.228655  1
  Dy  Dy3  1  0.000026  0.999984  0.728744  1
  Ho  Ho4  1  0.333418  0.666579  0.819560  1
  Ho  Ho5  1  0.666566  0.333412  0.319365  1
  Ho  Ho6  1  0.462144  0.537861  0.212266  1
  Ho  Ho7  1  0.075886  0.537922  0.212384  1
  Ho  Ho8  1  0.462083  0.924125  0.212374  1
  Ho  Ho9  1  0.537684  0.462311  0.712319  1
  Er  Er10  1  0.177966  0.822039  0.509676  1
  Er  Er11  1  0.643937  0.821759  0.509853  1
  Er  Er12  1  0.178250  0.356102  0.509889  1
  Er  Er13  1  0.821953  0.178046  0.010467  1
  Er  Er14  1  0.356178  0.178242  0.010278  1
  Er  Er15  1  0.821750  0.643801  0.010287  1
  Tl  Tl16  1  0.163471  0.836526  0.960120  1
  Tl  Tl17  1  0.673035  0.836515  0.959922  1
  Tl  Tl18  1  0.163470  0.326964  0.959955  1
  Tl  Tl19  1  0.836700  0.163319  0.459661  1
  Tl  Tl20  1  0.326860  0.163525  0.459891  1
  Tl  Tl21  1  0.836470  0.673132  0.459884  1
  Co  Co22  1  0.333343  0.666665  0.441888  1
  Co  Co23  1  0.666439  0.333552  0.942277  1
