# generated using pymatgen
data_Rb4CrO4
_symmetry_space_group_name_H-M   'P 1'
_cell_length_a   6.93862900
_cell_length_b   11.08660639
_cell_length_c   11.12859600
_cell_angle_alpha   68.19077682
_cell_angle_beta   90.00000000
_cell_angle_gamma   90.00000000
_symmetry_Int_Tables_number   1
_chemical_formula_structural   Rb4CrO4
_chemical_formula_sum   'Rb16 Cr4 O16'
_cell_volume   794.80388705
_cell_formula_units_Z   4
loop_
 _symmetry_equiv_pos_site_id
 _symmetry_equiv_pos_as_xyz
  1  'x, y, z'
loop_
 _atom_site_type_symbol
 _atom_site_label
 _atom_site_symmetry_multiplicity
 _atom_site_fract_x
 _atom_site_fract_y
 _atom_site_fract_z
 _atom_site_occupancy
  Rb  Rb0  1  0.684556  0.295108  0.075430  1
  Rb  Rb1  1  0.184556  0.204892  0.924570  1
  Rb  Rb2  1  0.315444  0.704892  0.924570  1
  Rb  Rb3  1  0.815444  0.795108  0.075430  1
  Rb  Rb4  1  0.908689  0.195642  0.439444  1
  Rb  Rb5  1  0.408689  0.304358  0.560556  1
  Rb  Rb6  1  0.091311  0.804358  0.560556  1
  Rb  Rb7  1  0.591311  0.695642  0.439444  1
  Rb  Rb8  1  0.164736  0.391078  0.132556  1
  Rb  Rb9  1  0.664736  0.108922  0.867444  1
  Rb  Rb10  1  0.835264  0.608922  0.867444  1
  Rb  Rb11  1  0.335264  0.891078  0.132556  1
  Rb  Rb12  1  0.889778  0.414954  0.658543  1
  Rb  Rb13  1  0.389778  0.085046  0.341457  1
  Rb  Rb14  1  0.110222  0.585046  0.341457  1
  Rb  Rb15  1  0.610222  0.914954  0.658543  1
  Cr  Cr16  1  0.869382  0.991038  0.258145  1
  Cr  Cr17  1  0.369382  0.508962  0.741855  1
  Cr  Cr18  1  0.130618  0.008962  0.741855  1
  Cr  Cr19  1  0.630618  0.491038  0.258145  1
  O  O20  1  0.004169  0.843734  0.279017  1
  O  O21  1  0.504169  0.656266  0.720983  1
  O  O22  1  0.995831  0.156266  0.720983  1
  O  O23  1  0.495831  0.343734  0.279017  1
  O  O24  1  0.739228  0.469293  0.413155  1
  O  O25  1  0.239228  0.030707  0.586845  1
  O  O26  1  0.260772  0.530707  0.586845  1
  O  O27  1  0.760772  0.969293  0.413155  1
  O  O28  1  0.024002  0.134999  0.201330  1
  O  O29  1  0.524002  0.365001  0.798670  1
  O  O30  1  0.975998  0.865001  0.798670  1
  O  O31  1  0.475998  0.634999  0.201330  1
  O  O32  1  0.676039  0.014671  0.140016  1
  O  O33  1  0.176039  0.485329  0.859984  1
  O  O34  1  0.323961  0.985329  0.859984  1
  O  O35  1  0.823961  0.514671  0.140016  1
