# generated using pymatgen
data_NpIn6IrCl12
_symmetry_space_group_name_H-M   'P 1'
_cell_length_a   8.90170920
_cell_length_b   8.90170772
_cell_length_c   8.90170894
_cell_angle_alpha   104.00344459
_cell_angle_beta   104.00344411
_cell_angle_gamma   104.00345225
_symmetry_Int_Tables_number   1
_chemical_formula_structural   NpIn6IrCl12
_chemical_formula_sum   'Np1 In6 Ir1 Cl12'
_cell_volume   629.32687125
_cell_formula_units_Z   1
loop_
 _symmetry_equiv_pos_site_id
 _symmetry_equiv_pos_as_xyz
  1  'x, y, z'
loop_
 _atom_site_type_symbol
 _atom_site_label
 _atom_site_symmetry_multiplicity
 _atom_site_fract_x
 _atom_site_fract_y
 _atom_site_fract_z
 _atom_site_occupancy
  Np  Np0  1  0.500000  0.500000  0.500000  1
  In  In1  1  0.047833  0.059717  0.314661  1
  In  In2  1  0.314661  0.047833  0.059717  1
  In  In3  1  0.059717  0.314661  0.047833  1
  In  In4  1  0.952167  0.940283  0.685339  1
  In  In5  1  0.685339  0.952167  0.940283  1
  In  In6  1  0.940283  0.685339  0.952167  1
  Ir  Ir7  1  0.000000  0.000000  0.000000  1
  Cl  Cl8  1  0.983326  0.558120  0.189372  1
  Cl  Cl9  1  0.189372  0.983326  0.558120  1
  Cl  Cl10  1  0.558120  0.189372  0.983326  1
  Cl  Cl11  1  0.016674  0.441880  0.810628  1
  Cl  Cl12  1  0.810628  0.016674  0.441880  1
  Cl  Cl13  1  0.441880  0.810628  0.016674  1
  Cl  Cl14  1  0.482143  0.180380  0.372564  1
  Cl  Cl15  1  0.372564  0.482143  0.180380  1
  Cl  Cl16  1  0.180380  0.372564  0.482143  1
  Cl  Cl17  1  0.517857  0.819620  0.627436  1
  Cl  Cl18  1  0.627436  0.517857  0.819620  1
  Cl  Cl19  1  0.819620  0.627436  0.517857  1
