# generated using pymatgen
data_Tm12Si12OsRu3
_symmetry_space_group_name_H-M   'P 1'
_cell_length_a   4.14064900
_cell_length_b   10.63284380
_cell_length_c   12.21206010
_cell_angle_alpha   90.02955336
_cell_angle_beta   90.00000000
_cell_angle_gamma   90.00000000
_symmetry_Int_Tables_number   1
_chemical_formula_structural   Tm12Si12OsRu3
_chemical_formula_sum   'Tm12 Si12 Os1 Ru3'
_cell_volume   537.65876022
_cell_formula_units_Z   1
loop_
 _symmetry_equiv_pos_site_id
 _symmetry_equiv_pos_as_xyz
  1  'x, y, z'
loop_
 _atom_site_type_symbol
 _atom_site_label
 _atom_site_symmetry_multiplicity
 _atom_site_fract_x
 _atom_site_fract_y
 _atom_site_fract_z
 _atom_site_occupancy
  Tm  Tm0  1  0.250000  0.879670  0.020116  1
  Tm  Tm1  1  0.250000  0.619874  0.520327  1
  Tm  Tm2  1  0.750000  0.120250  0.979856  1
  Tm  Tm3  1  0.750000  0.379807  0.480247  1
  Tm  Tm4  1  0.250000  0.921782  0.605182  1
  Tm  Tm5  1  0.250000  0.578263  0.104973  1
  Tm  Tm6  1  0.750000  0.078483  0.394993  1
  Tm  Tm7  1  0.750000  0.421732  0.894259  1
  Tm  Tm8  1  0.250000  0.662621  0.799644  1
  Tm  Tm9  1  0.250000  0.837695  0.299898  1
  Tm  Tm10  1  0.750000  0.337428  0.200028  1
  Tm  Tm11  1  0.750000  0.161788  0.700344  1
  Si  Si12  1  0.250000  0.013363  0.822045  1
  Si  Si13  1  0.250000  0.486746  0.321634  1
  Si  Si14  1  0.750000  0.986539  0.178058  1
  Si  Si15  1  0.750000  0.512212  0.678402  1
  Si  Si16  1  0.250000  0.250177  0.841637  1
  Si  Si17  1  0.250000  0.250116  0.342641  1
  Si  Si18  1  0.750000  0.749643  0.157848  1
  Si  Si19  1  0.750000  0.750123  0.657489  1
  Si  Si20  1  0.250000  0.200787  0.544545  1
  Si  Si21  1  0.250000  0.301169  0.042803  1
  Si  Si22  1  0.750000  0.800665  0.456737  1
  Si  Si23  1  0.750000  0.698995  0.956693  1
  Os  Os24  1  0.250000  0.390175  0.680113  1
  Ru  Ru25  1  0.250000  0.110036  0.180785  1
  Ru  Ru26  1  0.750000  0.609867  0.319509  1
  Ru  Ru27  1  0.750000  0.889991  0.819197  1
