# generated using pymatgen
data_Er8Al2PdRu
_symmetry_space_group_name_H-M   'P 1'
_cell_length_a   9.43404922
_cell_length_b   9.46506738
_cell_length_c   9.46506837
_cell_angle_alpha   60.34245708
_cell_angle_beta   60.10834648
_cell_angle_gamma   60.10834112
_symmetry_Int_Tables_number   1
_chemical_formula_structural   Er8Al2PdRu
_chemical_formula_sum   'Er16 Al4 Pd2 Ru2'
_cell_volume   600.14332332
_cell_formula_units_Z   2
loop_
 _symmetry_equiv_pos_site_id
 _symmetry_equiv_pos_as_xyz
  1  'x, y, z'
loop_
 _atom_site_type_symbol
 _atom_site_label
 _atom_site_symmetry_multiplicity
 _atom_site_fract_x
 _atom_site_fract_y
 _atom_site_fract_z
 _atom_site_occupancy
  Er  Er0  1  0.063619  0.061046  0.433509  1
  Er  Er1  1  0.647270  0.067591  0.637870  1
  Er  Er2  1  0.187376  0.805615  0.199355  1
  Er  Er3  1  0.441825  0.061046  0.433509  1
  Er  Er4  1  0.187376  0.199355  0.805615  1
  Er  Er5  1  0.652722  0.645633  0.645633  1
  Er  Er6  1  0.056013  0.645633  0.645633  1
  Er  Er7  1  0.436135  0.063865  0.063865  1
  Er  Er8  1  0.647270  0.637870  0.067591  1
  Er  Er9  1  0.194076  0.805924  0.805924  1
  Er  Er10  1  0.807654  0.199355  0.805615  1
  Er  Er11  1  0.808236  0.191764  0.191764  1
  Er  Er12  1  0.807654  0.805615  0.199355  1
  Er  Er13  1  0.063163  0.436837  0.436837  1
  Er  Er14  1  0.441825  0.433509  0.061046  1
  Er  Er15  1  0.063619  0.433509  0.061046  1
  Al  Al16  1  0.734684  0.422362  0.422362  1
  Al  Al17  1  0.421921  0.423464  0.732696  1
  Al  Al18  1  0.421921  0.732696  0.423464  1
  Al  Al19  1  0.420592  0.422362  0.422362  1
  Pd  Pd20  1  0.852816  0.858076  0.858076  1
  Pd  Pd21  1  0.431033  0.858076  0.858076  1
  Ru  Ru22  1  0.855601  0.860641  0.428159  1
  Ru  Ru23  1  0.855601  0.428159  0.860641  1
