# generated using pymatgen
data_RbYUS4
_symmetry_space_group_name_H-M   'P 1'
_cell_length_a   4.05277200
_cell_length_b   8.27290038
_cell_length_c   6.99060300
_cell_angle_alpha   71.52295079
_cell_angle_beta   90.00000000
_cell_angle_gamma   90.00000693
_symmetry_Int_Tables_number   1
_chemical_formula_structural   RbYUS4
_chemical_formula_sum   'Rb1 Y1 U1 S4'
_cell_volume   222.29994663
_cell_formula_units_Z   1
loop_
 _symmetry_equiv_pos_site_id
 _symmetry_equiv_pos_as_xyz
  1  'x, y, z'
loop_
 _atom_site_type_symbol
 _atom_site_label
 _atom_site_symmetry_multiplicity
 _atom_site_fract_x
 _atom_site_fract_y
 _atom_site_fract_z
 _atom_site_occupancy
  Rb  Rb0  1  0.500000  0.490769  0.667798  1
  Y  Y1  1  0.000000  0.990349  0.003879  1
  U  U2  1  0.500000  0.010637  0.496895  1
  S  S3  1  0.000000  0.821293  0.413071  1
  S  S4  1  0.500000  0.818579  0.885534  1
  S  S5  1  0.000000  0.189149  0.597908  1
  S  S6  1  0.500000  0.178344  0.101874  1
