# generated using pymatgen
data_Cu6GeMoSe8
_symmetry_space_group_name_H-M   'P 1'
_cell_length_a   7.92224000
_cell_length_b   7.92223957
_cell_length_c   13.01026300
_cell_angle_alpha   90.00000000
_cell_angle_beta   90.00000000
_cell_angle_gamma   120.00089280
_symmetry_Int_Tables_number   1
_chemical_formula_structural   Cu6GeMoSe8
_chemical_formula_sum   'Cu12 Ge2 Mo2 Se16'
_cell_volume   707.14547524
_cell_formula_units_Z   2
loop_
 _symmetry_equiv_pos_site_id
 _symmetry_equiv_pos_as_xyz
  1  'x, y, z'
loop_
 _atom_site_type_symbol
 _atom_site_label
 _atom_site_symmetry_multiplicity
 _atom_site_fract_x
 _atom_site_fract_y
 _atom_site_fract_z
 _atom_site_occupancy
  Cu  Cu0  1  0.835001  0.670004  0.101867  1
  Cu  Cu1  1  0.499901  0.500099  0.356389  1
  Cu  Cu2  1  0.999803  0.499901  0.856388  1
  Cu  Cu3  1  0.835005  0.164995  0.101867  1
  Cu  Cu4  1  0.500099  0.499901  0.856389  1
  Cu  Cu5  1  0.164999  0.329996  0.601867  1
  Cu  Cu6  1  0.499901  0.999803  0.356388  1
  Cu  Cu7  1  0.000197  0.500099  0.356388  1
  Cu  Cu8  1  0.164995  0.835005  0.601867  1
  Cu  Cu9  1  0.500099  0.000197  0.856388  1
  Cu  Cu10  1  0.670004  0.835001  0.601867  1
  Cu  Cu11  1  0.329996  0.164999  0.101867  1
  Ge  Ge12  1  0.000001  0.999999  0.851808  1
  Ge  Ge13  1  0.999999  0.000001  0.351808  1
  Mo  Mo14  1  0.333334  0.666666  0.481468  1
  Mo  Mo15  1  0.666666  0.333334  0.981468  1
  Se  Se16  1  0.000000  0.000000  0.038294  1
  Se  Se17  1  0.335920  0.167960  0.289045  1
  Se  Se18  1  0.832040  0.167960  0.289045  1
  Se  Se19  1  0.000854  0.500425  0.542133  1
  Se  Se20  1  0.832040  0.664080  0.289045  1
  Se  Se21  1  0.666666  0.333334  0.796130  1
  Se  Se22  1  0.167960  0.335920  0.789045  1
  Se  Se23  1  0.499570  0.500430  0.542130  1
  Se  Se24  1  0.000000  0.000000  0.538294  1
  Se  Se25  1  0.333334  0.666666  0.296130  1
  Se  Se26  1  0.999146  0.499575  0.042133  1
  Se  Se27  1  0.499575  0.999146  0.542133  1
  Se  Se28  1  0.167960  0.832040  0.789045  1
  Se  Se29  1  0.664080  0.832040  0.789045  1
  Se  Se30  1  0.500425  0.000854  0.042133  1
  Se  Se31  1  0.500430  0.499570  0.042130  1
