# generated using pymatgen
data_U(BrCl)3
_symmetry_space_group_name_H-M   'P 1'
_cell_length_a   12.22187900
_cell_length_b   12.22187865
_cell_length_c   6.69259200
_cell_angle_alpha   90.00000000
_cell_angle_beta   90.00000000
_cell_angle_gamma   120.00000366
_symmetry_Int_Tables_number   1
_chemical_formula_structural   U(BrCl)3
_chemical_formula_sum   'U3 Br9 Cl9'
_cell_volume   865.76676998
_cell_formula_units_Z   3
loop_
 _symmetry_equiv_pos_site_id
 _symmetry_equiv_pos_as_xyz
  1  'x, y, z'
loop_
 _atom_site_type_symbol
 _atom_site_label
 _atom_site_symmetry_multiplicity
 _atom_site_fract_x
 _atom_site_fract_y
 _atom_site_fract_z
 _atom_site_occupancy
  U  U0  1  0.666667  0.333333  0.514492  1
  U  U1  1  0.333333  0.666667  0.478234  1
  U  U2  1  0.000000  0.000000  0.000123  1
  Br  Br3  1  0.231878  0.768122  0.707559  1
  Br  Br4  1  0.231878  0.463755  0.707559  1
  Br  Br5  1  0.536245  0.768122  0.707559  1
  Br  Br6  1  0.101596  0.898404  0.227540  1
  Br  Br7  1  0.101596  0.203194  0.227540  1
  Br  Br8  1  0.796806  0.898404  0.227540  1
  Br  Br9  1  0.203221  0.101610  0.772472  1
  Br  Br10  1  0.898390  0.796779  0.772472  1
  Br  Br11  1  0.898390  0.101610  0.772472  1
  Cl  Cl12  1  0.428750  0.571250  0.265276  1
  Cl  Cl13  1  0.428750  0.857499  0.265276  1
  Cl  Cl14  1  0.142501  0.571250  0.265276  1
  Cl  Cl15  1  0.856836  0.428418  0.728373  1
  Cl  Cl16  1  0.571582  0.143164  0.728373  1
  Cl  Cl17  1  0.571582  0.428418  0.728373  1
  Cl  Cl18  1  0.761849  0.238151  0.301165  1
  Cl  Cl19  1  0.761849  0.523700  0.301165  1
  Cl  Cl20  1  0.476300  0.238151  0.301165  1
