# generated using pymatgen
data_Tm5HgRh2
_symmetry_space_group_name_H-M   'P 1'
_cell_length_a   8.56284050
_cell_length_b   8.56284046
_cell_length_c   8.56284115
_cell_angle_alpha   126.93505543
_cell_angle_beta   126.93506163
_cell_angle_gamma   78.35666417
_symmetry_Int_Tables_number   1
_chemical_formula_structural   Tm5HgRh2
_chemical_formula_sum   'Tm10 Hg2 Rh4'
_cell_volume   388.47184654
_cell_formula_units_Z   2
loop_
 _symmetry_equiv_pos_site_id
 _symmetry_equiv_pos_as_xyz
  1  'x, y, z'
loop_
 _atom_site_type_symbol
 _atom_site_label
 _atom_site_symmetry_multiplicity
 _atom_site_fract_x
 _atom_site_fract_y
 _atom_site_fract_z
 _atom_site_occupancy
  Tm  Tm0  1  0.000000  0.000000  0.000000  1
  Tm  Tm1  1  0.500000  0.500000  0.000000  1
  Tm  Tm2  1  0.795126  0.295126  0.818229  1
  Tm  Tm3  1  0.204874  0.704874  0.181771  1
  Tm  Tm4  1  0.476896  0.976896  0.181771  1
  Tm  Tm5  1  0.295126  0.476896  0.500000  1
  Tm  Tm6  1  0.023104  0.204874  0.500000  1
  Tm  Tm7  1  0.523104  0.023104  0.818229  1
  Tm  Tm8  1  0.704874  0.523104  0.500000  1
  Tm  Tm9  1  0.976896  0.795126  0.500000  1
  Hg  Hg10  1  0.250000  0.250000  0.000000  1
  Hg  Hg11  1  0.750000  0.750000  0.000000  1
  Rh  Rh12  1  0.140701  0.640701  0.781402  1
  Rh  Rh13  1  0.859299  0.359299  0.218598  1
  Rh  Rh14  1  0.640701  0.859299  0.500000  1
  Rh  Rh15  1  0.359299  0.140701  0.500000  1
