# generated using pymatgen
data_Sc3Ti(AsRh5)2
_symmetry_space_group_name_H-M   'P 1'
_cell_length_a   4.03663600
_cell_length_b   5.51922452
_cell_length_c   10.82836753
_cell_angle_alpha   90.16095383
_cell_angle_beta   90.00000000
_cell_angle_gamma   90.00000000
_symmetry_Int_Tables_number   1
_chemical_formula_structural   Sc3Ti(AsRh5)2
_chemical_formula_sum   'Sc3 Ti1 As2 Rh10'
_cell_volume   241.24533546
_cell_formula_units_Z   1
loop_
 _symmetry_equiv_pos_site_id
 _symmetry_equiv_pos_as_xyz
  1  'x, y, z'
loop_
 _atom_site_type_symbol
 _atom_site_label
 _atom_site_symmetry_multiplicity
 _atom_site_fract_x
 _atom_site_fract_y
 _atom_site_fract_z
 _atom_site_occupancy
  Sc  Sc0  1  0.500000  0.319852  0.141248  1
  Sc  Sc1  1  0.500000  0.674788  0.860250  1
  Sc  Sc2  1  0.500000  0.822577  0.359424  1
  Ti  Ti3  1  0.500000  0.170517  0.643706  1
  As  As4  1  0.000000  0.000934  0.999348  1
  As  As5  1  0.000000  0.504940  0.499654  1
  Rh  Rh6  1  0.000000  0.015114  0.506337  1
  Rh  Rh7  1  0.000000  0.496310  0.998344  1
  Rh  Rh8  1  0.000000  0.064179  0.247122  1
  Rh  Rh9  1  0.000000  0.935259  0.752777  1
  Rh  Rh10  1  0.000000  0.563326  0.255776  1
  Rh  Rh11  1  0.000000  0.425517  0.737017  1
  Rh  Rh12  1  0.500000  0.315147  0.399308  1
  Rh  Rh13  1  0.500000  0.692929  0.607189  1
  Rh  Rh14  1  0.500000  0.814202  0.106320  1
  Rh  Rh15  1  0.500000  0.184410  0.886181  1
