# generated using pymatgen
data_Sr2Ga2GeO7
_symmetry_space_group_name_H-M   'P 1'
_cell_length_a   8.14359000
_cell_length_b   5.46331487
_cell_length_c   8.16051646
_cell_angle_alpha   89.60700611
_cell_angle_beta   90.00000000
_cell_angle_gamma   90.00000000
_symmetry_Int_Tables_number   1
_chemical_formula_structural   Sr2Ga2GeO7
_chemical_formula_sum   'Sr4 Ga4 Ge2 O14'
_cell_volume   363.06096735
_cell_formula_units_Z   2
loop_
 _symmetry_equiv_pos_site_id
 _symmetry_equiv_pos_as_xyz
  1  'x, y, z'
loop_
 _atom_site_type_symbol
 _atom_site_label
 _atom_site_symmetry_multiplicity
 _atom_site_fract_x
 _atom_site_fract_y
 _atom_site_fract_z
 _atom_site_occupancy
  Sr  Sr0  1  0.657076  0.485292  0.576020  1
  Sr  Sr1  1  0.157076  0.514708  0.423980  1
  Sr  Sr2  1  0.333509  0.492554  0.899787  1
  Sr  Sr3  1  0.833509  0.507446  0.100213  1
  Ga  Ga4  1  0.501083  0.999876  0.251201  1
  Ga  Ga5  1  0.001083  0.000124  0.748799  1
  Ga  Ga6  1  0.856725  0.028725  0.394232  1
  Ga  Ga7  1  0.356725  0.971275  0.605768  1
  Ge  Ge8  1  0.142813  0.037815  0.107435  1
  Ge  Ge9  1  0.642813  0.962185  0.892565  1
  O  O10  1  0.508898  0.816894  0.749978  1
  O  O11  1  0.008898  0.183106  0.250022  1
  O  O12  1  0.859545  0.699024  0.387973  1
  O  O13  1  0.359545  0.300976  0.612027  1
  O  O14  1  0.140456  0.719700  0.106488  1
  O  O15  1  0.640456  0.280300  0.893512  1
  O  O16  1  0.585719  0.806301  0.079777  1
  O  O17  1  0.085719  0.193699  0.920223  1
  O  O18  1  0.413165  0.802799  0.413502  1
  O  O19  1  0.913165  0.197201  0.586498  1
  O  O20  1  0.667142  0.201063  0.326188  1
  O  O21  1  0.167142  0.798937  0.673812  1
  O  O22  1  0.333868  0.188367  0.152502  1
  O  O23  1  0.833868  0.811633  0.847498  1
