# generated using pymatgen
data_NaTm(Cu2P)4
_symmetry_space_group_name_H-M   'P 1'
_cell_length_a   7.21929250
_cell_length_b   7.21929259
_cell_length_c   3.75970000
_cell_angle_alpha   90.00000000
_cell_angle_beta   90.00000000
_cell_angle_gamma   88.76057494
_symmetry_Int_Tables_number   1
_chemical_formula_structural   NaTm(Cu2P)4
_chemical_formula_sum   'Na1 Tm1 Cu8 P4'
_cell_volume   195.90289479
_cell_formula_units_Z   1
loop_
 _symmetry_equiv_pos_site_id
 _symmetry_equiv_pos_as_xyz
  1  'x, y, z'
loop_
 _atom_site_type_symbol
 _atom_site_label
 _atom_site_symmetry_multiplicity
 _atom_site_fract_x
 _atom_site_fract_y
 _atom_site_fract_z
 _atom_site_occupancy
  Na  Na0  1  0.500000  0.500000  0.500000  1
  Tm  Tm1  1  0.000000  0.000000  0.000000  1
  Cu  Cu2  1  0.665588  0.915889  0.500000  1
  Cu  Cu3  1  0.164428  0.584821  0.000000  1
  Cu  Cu4  1  0.415179  0.835572  0.000000  1
  Cu  Cu5  1  0.915889  0.665588  0.500000  1
  Cu  Cu6  1  0.835572  0.415179  0.000000  1
  Cu  Cu7  1  0.584821  0.164428  0.000000  1
  Cu  Cu8  1  0.084111  0.334412  0.500000  1
  Cu  Cu9  1  0.334412  0.084111  0.500000  1
  P  P10  1  0.276678  0.276678  0.000000  1
  P  P11  1  0.723322  0.723322  0.000000  1
  P  P12  1  0.786801  0.213199  0.500000  1
  P  P13  1  0.213199  0.786801  0.500000  1
