# generated using pymatgen
data_Nd2Ga9Co2Pt
_symmetry_space_group_name_H-M   'P 1'
_cell_length_a   7.54706033
_cell_length_b   7.54705948
_cell_length_c   9.57222052
_cell_angle_alpha   90.17114997
_cell_angle_beta   90.17115109
_cell_angle_gamma   119.68464133
_symmetry_Int_Tables_number   1
_chemical_formula_structural   Nd2Ga9Co2Pt
_chemical_formula_sum   'Nd4 Ga18 Co4 Pt2'
_cell_volume   473.65549125
_cell_formula_units_Z   2
loop_
 _symmetry_equiv_pos_site_id
 _symmetry_equiv_pos_as_xyz
  1  'x, y, z'
loop_
 _atom_site_type_symbol
 _atom_site_label
 _atom_site_symmetry_multiplicity
 _atom_site_fract_x
 _atom_site_fract_y
 _atom_site_fract_z
 _atom_site_occupancy
  Nd  Nd0  1  0.327992  0.000184  0.250427  1
  Nd  Nd1  1  0.999816  0.672008  0.749573  1
  Nd  Nd2  1  0.668018  0.993519  0.749005  1
  Nd  Nd3  1  0.006481  0.331982  0.250995  1
  Ga  Ga4  1  0.345140  0.015145  0.922164  1
  Ga  Ga5  1  0.984855  0.654860  0.077836  1
  Ga  Ga6  1  0.334980  0.000415  0.569919  1
  Ga  Ga7  1  0.999585  0.665020  0.430081  1
  Ga  Ga8  1  0.665997  0.010519  0.077188  1
  Ga  Ga9  1  0.989481  0.334003  0.922812  1
  Ga  Ga10  1  0.665823  0.002063  0.430339  1
  Ga  Ga11  1  0.997937  0.334177  0.569661  1
  Ga  Ga12  1  0.662916  0.653623  0.936917  1
  Ga  Ga13  1  0.346377  0.337084  0.063083  1
  Ga  Ga14  1  0.667520  0.666208  0.553789  1
  Ga  Ga15  1  0.333792  0.332480  0.446211  1
  Ga  Ga16  1  0.128790  0.130336  0.740465  1
  Ga  Ga17  1  0.869664  0.871210  0.259535  1
  Ga  Ga18  1  0.457601  0.663358  0.260192  1
  Ga  Ga19  1  0.336642  0.542399  0.739808  1
  Ga  Ga20  1  0.551758  0.337671  0.746523  1
  Ga  Ga21  1  0.662329  0.448242  0.253477  1
  Co  Co22  1  0.999734  0.000266  0.500000  1
  Co  Co23  1  0.329078  0.670922  0.500000  1
  Co  Co24  1  0.668956  0.331044  0.000000  1
  Co  Co25  1  0.670060  0.329940  0.500000  1
  Pt  Pt26  1  0.999745  0.000255  0.000000  1
  Pt  Pt27  1  0.328933  0.671067  0.000000  1
