# generated using pymatgen
data_Pr3(AlBr)2
_symmetry_space_group_name_H-M   'P 1'
_cell_length_a   9.86116217
_cell_length_b   9.86116185
_cell_length_c   11.79588875
_cell_angle_alpha   58.76969519
_cell_angle_beta   58.76969549
_cell_angle_gamma   25.15560118
_symmetry_Int_Tables_number   1
_chemical_formula_structural   Pr3(AlBr)2
_chemical_formula_sum   'Pr6 Al4 Br4'
_cell_volume   413.10095124
_cell_formula_units_Z   2
loop_
 _symmetry_equiv_pos_site_id
 _symmetry_equiv_pos_as_xyz
  1  'x, y, z'
loop_
 _atom_site_type_symbol
 _atom_site_label
 _atom_site_symmetry_multiplicity
 _atom_site_fract_x
 _atom_site_fract_y
 _atom_site_fract_z
 _atom_site_occupancy
  Pr  Pr0  1  0.836734  0.836734  0.376545  1
  Pr  Pr1  1  0.163266  0.163266  0.623455  1
  Pr  Pr2  1  0.750810  0.750810  0.813261  1
  Pr  Pr3  1  0.249190  0.249190  0.186739  1
  Pr  Pr4  1  0.537028  0.537028  0.302552  1
  Pr  Pr5  1  0.462972  0.462972  0.697448  1
  Al  Al6  1  0.925666  0.925666  0.534693  1
  Al  Al7  1  0.074334  0.074334  0.465307  1
  Al  Al8  1  0.337122  0.337122  0.587292  1
  Al  Al9  1  0.662878  0.662878  0.412708  1
  Br  Br10  1  0.421773  0.421773  0.167130  1
  Br  Br11  1  0.578227  0.578227  0.832870  1
  Br  Br12  1  0.855674  0.855674  0.940460  1
  Br  Br13  1  0.144326  0.144326  0.059540  1
