# generated using pymatgen
data_TbDyTm2(ReB6)2
_symmetry_space_group_name_H-M   'P 1'
_cell_length_a   3.66344500
_cell_length_b   9.13907100
_cell_length_c   11.53194200
_cell_angle_alpha   89.99800452
_cell_angle_beta   90.00000000
_cell_angle_gamma   90.00000000
_symmetry_Int_Tables_number   1
_chemical_formula_structural   TbDyTm2(ReB6)2
_chemical_formula_sum   'Tb2 Dy2 Tm4 Re4 B24'
_cell_volume   386.09499904
_cell_formula_units_Z   2
loop_
 _symmetry_equiv_pos_site_id
 _symmetry_equiv_pos_as_xyz
  1  'x, y, z'
loop_
 _atom_site_type_symbol
 _atom_site_label
 _atom_site_symmetry_multiplicity
 _atom_site_fract_x
 _atom_site_fract_y
 _atom_site_fract_z
 _atom_site_occupancy
  Tb  Tb0  1  0.000000  0.323266  0.413898  1
  Tb  Tb1  1  0.000000  0.676734  0.586102  1
  Dy  Dy2  1  0.000000  0.823353  0.086048  1
  Dy  Dy3  1  0.000000  0.176647  0.913952  1
  Tm  Tm4  1  0.000000  0.943341  0.370067  1
  Tm  Tm5  1  0.000000  0.056659  0.629933  1
  Tm  Tm6  1  0.000000  0.443354  0.129772  1
  Tm  Tm7  1  0.000000  0.556646  0.870228  1
  Re  Re8  1  0.000000  0.639295  0.320053  1
  Re  Re9  1  0.000000  0.360705  0.679947  1
  Re  Re10  1  0.000000  0.139059  0.179651  1
  Re  Re11  1  0.000000  0.860941  0.820349  1
  B  B12  1  0.500000  0.553753  0.432442  1
  B  B13  1  0.500000  0.446247  0.567558  1
  B  B14  1  0.500000  0.053604  0.067364  1
  B  B15  1  0.500000  0.946396  0.932636  1
  B  B16  1  0.500000  0.750289  0.418225  1
  B  B17  1  0.500000  0.249711  0.581775  1
  B  B18  1  0.500000  0.250214  0.081566  1
  B  B19  1  0.500000  0.749786  0.918434  1
  B  B20  1  0.500000  0.792761  0.265520  1
  B  B21  1  0.500000  0.207239  0.734480  1
  B  B22  1  0.500000  0.292662  0.234283  1
  B  B23  1  0.500000  0.707338  0.765717  1
  B  B24  1  0.500000  0.630534  0.185237  1
  B  B25  1  0.500000  0.369466  0.814763  1
  B  B26  1  0.500000  0.130389  0.314580  1
  B  B27  1  0.500000  0.869611  0.685420  1
  B  B28  1  0.500000  0.982119  0.212436  1
  B  B29  1  0.500000  0.017881  0.787564  1
  B  B30  1  0.500000  0.482289  0.287394  1
  B  B31  1  0.500000  0.517711  0.712606  1
  B  B32  1  0.500000  0.598789  0.027512  1
  B  B33  1  0.500000  0.401211  0.972488  1
  B  B34  1  0.500000  0.098554  0.472552  1
  B  B35  1  0.500000  0.901446  0.527448  1
