# generated using pymatgen
data_Sr2Tb2Cu3Sb8
_symmetry_space_group_name_H-M   'P 1'
_cell_length_a   10.99991512
_cell_length_b   10.99991425
_cell_length_c   11.00409283
_cell_angle_alpha   147.07397361
_cell_angle_beta   147.07396362
_cell_angle_gamma   47.20450363
_symmetry_Int_Tables_number   1
_chemical_formula_structural   Sr2Tb2Cu3Sb8
_chemical_formula_sum   'Sr2 Tb2 Cu3 Sb8'
_cell_volume   391.95876086
_cell_formula_units_Z   1
loop_
 _symmetry_equiv_pos_site_id
 _symmetry_equiv_pos_as_xyz
  1  'x, y, z'
loop_
 _atom_site_type_symbol
 _atom_site_label
 _atom_site_symmetry_multiplicity
 _atom_site_fract_x
 _atom_site_fract_y
 _atom_site_fract_z
 _atom_site_occupancy
  Sr  Sr0  1  0.631153  0.631153  0.505383  1
  Sr  Sr1  1  0.125769  0.125769  0.494617  1
  Tb  Tb2  1  0.363678  0.866758  0.000000  1
  Tb  Tb3  1  0.866758  0.363678  0.000000  1
  Cu  Cu4  1  0.003909  0.003909  0.000000  1
  Cu  Cu5  1  0.006220  0.506220  0.500000  1
  Cu  Cu6  1  0.506220  0.006220  0.500000  1
  Sb  Sb7  1  0.331021  0.331021  0.508104  1
  Sb  Sb8  1  0.822917  0.822917  0.491896  1
  Sb  Sb9  1  0.683142  0.198498  0.000000  1
  Sb  Sb10  1  0.198498  0.683142  0.000000  1
  Sb  Sb11  1  0.240954  0.240954  0.000000  1
  Sb  Sb12  1  0.740607  0.740607  0.000000  1
  Sb  Sb13  1  0.739576  0.239576  0.500000  1
  Sb  Sb14  1  0.239576  0.739576  0.500000  1
