# generated using pymatgen
data_YThZn14Co3
_symmetry_space_group_name_H-M   'P 1'
_cell_length_a   6.70362827
_cell_length_b   6.70362911
_cell_length_c   6.70362759
_cell_angle_alpha   82.81930121
_cell_angle_beta   82.81930216
_cell_angle_gamma   82.81928767
_symmetry_Int_Tables_number   1
_chemical_formula_structural   YThZn14Co3
_chemical_formula_sum   'Y1 Th1 Zn14 Co3'
_cell_volume   294.70871398
_cell_formula_units_Z   1
loop_
 _symmetry_equiv_pos_site_id
 _symmetry_equiv_pos_as_xyz
  1  'x, y, z'
loop_
 _atom_site_type_symbol
 _atom_site_label
 _atom_site_symmetry_multiplicity
 _atom_site_fract_x
 _atom_site_fract_y
 _atom_site_fract_z
 _atom_site_occupancy
  Y  Y0  1  0.334983  0.334983  0.334983  1
  Th  Th1  1  0.665723  0.665723  0.665723  1
  Zn  Zn2  1  0.344822  0.344822  0.855865  1
  Zn  Zn3  1  0.855865  0.344822  0.344822  1
  Zn  Zn4  1  0.106520  0.106520  0.106520  1
  Zn  Zn5  1  0.897858  0.897858  0.897858  1
  Zn  Zn6  1  0.289524  0.707985  0.001383  1
  Zn  Zn7  1  0.707985  0.001383  0.289524  1
  Zn  Zn8  1  0.001383  0.289524  0.707985  1
  Zn  Zn9  1  0.707985  0.289524  0.001383  1
  Zn  Zn10  1  0.289524  0.001383  0.707985  1
  Zn  Zn11  1  0.001383  0.707985  0.289524  1
  Zn  Zn12  1  0.151115  0.652582  0.652582  1
  Zn  Zn13  1  0.652582  0.652582  0.151115  1
  Zn  Zn14  1  0.652582  0.151115  0.652582  1
  Zn  Zn15  1  0.344822  0.855865  0.344822  1
  Co  Co16  1  0.996821  0.996821  0.501703  1
  Co  Co17  1  0.996821  0.501703  0.996821  1
  Co  Co18  1  0.501703  0.996821  0.996821  1
