# generated using pymatgen
data_Tm12Mn2In2Ir
_symmetry_space_group_name_H-M   'P 1'
_cell_length_a   8.28451407
_cell_length_b   8.28451399
_cell_length_c   8.28451406
_cell_angle_alpha   108.65348011
_cell_angle_beta   108.65347643
_cell_angle_gamma   111.11939023
_symmetry_Int_Tables_number   1
_chemical_formula_structural   Tm12Mn2In2Ir
_chemical_formula_sum   'Tm12 Mn2 In2 Ir1'
_cell_volume   437.43014155
_cell_formula_units_Z   1
loop_
 _symmetry_equiv_pos_site_id
 _symmetry_equiv_pos_as_xyz
  1  'x, y, z'
loop_
 _atom_site_type_symbol
 _atom_site_label
 _atom_site_symmetry_multiplicity
 _atom_site_fract_x
 _atom_site_fract_y
 _atom_site_fract_z
 _atom_site_occupancy
  Tm  Tm0  1  0.193247  0.431789  0.238541  1
  Tm  Tm1  1  0.806753  0.568211  0.761459  1
  Tm  Tm2  1  0.193247  0.954707  0.761459  1
  Tm  Tm3  1  0.954707  0.193247  0.761459  1
  Tm  Tm4  1  0.806753  0.045293  0.238541  1
  Tm  Tm5  1  0.045293  0.806753  0.238541  1
  Tm  Tm6  1  0.431789  0.193247  0.238541  1
  Tm  Tm7  1  0.568211  0.806753  0.761459  1
  Tm  Tm8  1  0.308111  0.308111  0.616224  1
  Tm  Tm9  1  0.691889  0.691889  0.383776  1
  Tm  Tm10  1  0.691889  0.308111  0.000000  1
  Tm  Tm11  1  0.308111  0.691889  0.000000  1
  Mn  Mn12  1  0.386378  0.386378  0.000000  1
  Mn  Mn13  1  0.613622  0.613622  0.000000  1
  In  In14  1  0.000000  0.500000  0.500000  1
  In  In15  1  0.500000  0.000000  0.500000  1
  Ir  Ir16  1  0.000000  0.000000  0.000000  1
