# generated using pymatgen
data_Dy2Tm2BOs2C3
_symmetry_space_group_name_H-M   'P 1'
_cell_length_a   5.09836000
_cell_length_b   6.54652765
_cell_length_c   9.73760916
_cell_angle_alpha   90.30259415
_cell_angle_beta   90.00000000
_cell_angle_gamma   90.00000000
_symmetry_Int_Tables_number   1
_chemical_formula_structural   Dy2Tm2BOs2C3
_chemical_formula_sum   'Dy4 Tm4 B2 Os4 C6'
_cell_volume   325.00331247
_cell_formula_units_Z   2
loop_
 _symmetry_equiv_pos_site_id
 _symmetry_equiv_pos_as_xyz
  1  'x, y, z'
loop_
 _atom_site_type_symbol
 _atom_site_label
 _atom_site_symmetry_multiplicity
 _atom_site_fract_x
 _atom_site_fract_y
 _atom_site_fract_z
 _atom_site_occupancy
  Dy  Dy0  1  0.250000  0.524019  0.210682  1
  Dy  Dy1  1  0.750000  0.475981  0.789318  1
  Dy  Dy2  1  0.750000  0.972907  0.715010  1
  Dy  Dy3  1  0.250000  0.027093  0.284990  1
  Tm  Tm4  1  0.250000  0.676708  0.550869  1
  Tm  Tm5  1  0.750000  0.323292  0.449131  1
  Tm  Tm6  1  0.750000  0.829098  0.053616  1
  Tm  Tm7  1  0.250000  0.170902  0.946384  1
  B  B8  1  0.250000  0.451620  0.758410  1
  B  B9  1  0.750000  0.548380  0.241590  1
  Os  Os10  1  0.250000  0.727566  0.863996  1
  Os  Os11  1  0.750000  0.272434  0.136004  1
  Os  Os12  1  0.750000  0.786369  0.371492  1
  Os  Os13  1  0.250000  0.213631  0.628508  1
  C  C14  1  0.750000  0.044317  0.261372  1
  C  C15  1  0.250000  0.955683  0.738628  1
  C  C16  1  0.250000  0.826985  0.052147  1
  C  C17  1  0.750000  0.173015  0.947853  1
  C  C18  1  0.750000  0.670777  0.554001  1
  C  C19  1  0.250000  0.329223  0.445999  1
