# generated using pymatgen
data_Pr14Y2Cd4CuRu3
_symmetry_space_group_name_H-M   'P 1'
_cell_length_a   10.01817637
_cell_length_b   9.97445493
_cell_length_c   10.01817690
_cell_angle_alpha   59.63939392
_cell_angle_beta   59.81743465
_cell_angle_gamma   59.63938901
_symmetry_Int_Tables_number   1
_chemical_formula_structural   Pr14Y2Cd4CuRu3
_chemical_formula_sum   'Pr14 Y2 Cd4 Cu1 Ru3'
_cell_volume   703.01818136
_cell_formula_units_Z   1
loop_
 _symmetry_equiv_pos_site_id
 _symmetry_equiv_pos_as_xyz
  1  'x, y, z'
loop_
 _atom_site_type_symbol
 _atom_site_label
 _atom_site_symmetry_multiplicity
 _atom_site_fract_x
 _atom_site_fract_y
 _atom_site_fract_z
 _atom_site_occupancy
  Pr  Pr0  1  0.440280  0.438395  0.059507  1
  Pr  Pr1  1  0.066496  0.055971  0.438769  1
  Pr  Pr2  1  0.438769  0.055971  0.066496  1
  Pr  Pr3  1  0.850504  0.846498  0.850504  1
  Pr  Pr4  1  0.688938  0.318035  0.304087  1
  Pr  Pr5  1  0.059507  0.438395  0.440280  1
  Pr  Pr6  1  0.312743  0.686786  0.687985  1
  Pr  Pr7  1  0.304087  0.318035  0.688938  1
  Pr  Pr8  1  0.853595  0.844243  0.453082  1
  Pr  Pr9  1  0.687985  0.686786  0.312743  1
  Pr  Pr10  1  0.453082  0.844243  0.853595  1
  Pr  Pr11  1  0.060928  0.437734  0.060928  1
  Pr  Pr12  1  0.844236  0.458452  0.844236  1
  Pr  Pr13  1  0.440888  0.055116  0.440888  1
  Y  Y14  1  0.309898  0.688538  0.309898  1
  Y  Y15  1  0.691664  0.314910  0.691664  1
  Cd  Cd16  1  0.080496  0.760036  0.080496  1
  Cd  Cd17  1  0.077222  0.080883  0.760771  1
  Cd  Cd18  1  0.760771  0.080883  0.077222  1
  Cd  Cd19  1  0.080576  0.077304  0.080576  1
  Cu  Cu20  1  0.643044  0.076075  0.643044  1
  Ru  Ru21  1  0.637660  0.643912  0.637660  1
  Ru  Ru22  1  0.637412  0.646400  0.079216  1
  Ru  Ru23  1  0.079216  0.646400  0.637412  1
