# generated using pymatgen
data_Ac8Tb12Sn15Bi
_symmetry_space_group_name_H-M   'P 1'
_cell_length_a   8.34743747
_cell_length_b   8.48477394
_cell_length_c   16.01511900
_cell_angle_alpha   90.01756397
_cell_angle_beta   90.27402758
_cell_angle_gamma   90.03450332
_symmetry_Int_Tables_number   1
_chemical_formula_structural   Ac8Tb12Sn15Bi
_chemical_formula_sum   'Ac8 Tb12 Sn15 Bi1'
_cell_volume   1134.27550643
_cell_formula_units_Z   1
loop_
 _symmetry_equiv_pos_site_id
 _symmetry_equiv_pos_as_xyz
  1  'x, y, z'
loop_
 _atom_site_type_symbol
 _atom_site_label
 _atom_site_symmetry_multiplicity
 _atom_site_fract_x
 _atom_site_fract_y
 _atom_site_fract_z
 _atom_site_occupancy
  Ac  Ac0  1  0.518934  0.323657  0.902624  1
  Ac  Ac1  1  0.015612  0.177411  0.595891  1
  Ac  Ac2  1  0.484796  0.677012  0.404303  1
  Ac  Ac3  1  0.977482  0.820494  0.097539  1
  Ac  Ac4  1  0.483081  0.674977  0.096746  1
  Ac  Ac5  1  0.983832  0.822592  0.404384  1
  Ac  Ac6  1  0.514864  0.321337  0.595578  1
  Ac  Ac7  1  0.014778  0.180934  0.901674  1
  Tb  Tb8  1  0.364723  0.835437  0.876116  1
  Tb  Tb9  1  0.861336  0.663065  0.623222  1
  Tb  Tb10  1  0.639329  0.161853  0.376703  1
  Tb  Tb11  1  0.134596  0.342328  0.124161  1
  Tb  Tb12  1  0.642680  0.162144  0.122486  1
  Tb  Tb13  1  0.139474  0.337700  0.376278  1
  Tb  Tb14  1  0.361146  0.838092  0.623106  1
  Tb  Tb15  1  0.863041  0.662442  0.876819  1
  Tb  Tb16  1  0.197675  0.504248  0.749770  1
  Tb  Tb17  1  0.697477  0.994814  0.750197  1
  Tb  Tb18  1  0.801483  0.495640  0.250658  1
  Tb  Tb19  1  0.302804  0.004380  0.254082  1
  Sn  Sn20  1  0.807220  0.455844  0.456206  1
  Sn  Sn21  1  0.693951  0.956152  0.543987  1
  Sn  Sn22  1  0.196197  0.542922  0.955774  1
  Sn  Sn23  1  0.699898  0.956888  0.954583  1
  Sn  Sn24  1  0.192840  0.543751  0.543717  1
  Sn  Sn25  1  0.306206  0.043635  0.456192  1
  Sn  Sn26  1  0.804062  0.456999  0.044597  1
  Sn  Sn27  1  0.562190  0.630461  0.749355  1
  Sn  Sn28  1  0.063121  0.869674  0.750396  1
  Sn  Sn29  1  0.438310  0.367494  0.248774  1
  Sn  Sn30  1  0.938650  0.130209  0.249395  1
  Sn  Sn31  1  0.323011  0.133563  0.749989  1
  Sn  Sn32  1  0.823452  0.366472  0.748713  1
  Sn  Sn33  1  0.674149  0.865784  0.250382  1
  Sn  Sn34  1  0.176063  0.635604  0.250405  1
  Bi  Bi35  1  0.301535  0.043991  0.045198  1
