# generated using pymatgen
data_Ho7Co4Tc2Sn23
_symmetry_space_group_name_H-M   'P 1'
_cell_length_a   9.76321696
_cell_length_b   9.79519277
_cell_length_c   10.01953234
_cell_angle_alpha   90.00000128
_cell_angle_beta   89.91866139
_cell_angle_gamma   120.10840435
_symmetry_Int_Tables_number   1
_chemical_formula_structural   Ho7Co4Tc2Sn23
_chemical_formula_sum   'Ho7 Co4 Tc2 Sn23'
_cell_volume   828.91115807
_cell_formula_units_Z   1
loop_
 _symmetry_equiv_pos_site_id
 _symmetry_equiv_pos_as_xyz
  1  'x, y, z'
loop_
 _atom_site_type_symbol
 _atom_site_label
 _atom_site_symmetry_multiplicity
 _atom_site_fract_x
 _atom_site_fract_y
 _atom_site_fract_z
 _atom_site_occupancy
  Ho  Ho0  1  0.005317  0.002658  0.993837  1
  Ho  Ho1  1  0.517214  0.479897  0.693275  1
  Ho  Ho2  1  0.517214  0.037316  0.693275  1
  Ho  Ho3  1  0.962068  0.481034  0.693835  1
  Ho  Ho4  1  0.039718  0.519859  0.305203  1
  Ho  Ho5  1  0.481067  0.961070  0.306052  1
  Ho  Ho6  1  0.481067  0.519998  0.306052  1
  Co  Co7  1  0.661985  0.830993  0.803133  1
  Co  Co8  1  0.338780  0.169390  0.199847  1
  Co  Co9  1  0.830001  0.662935  0.199722  1
  Co  Co10  1  0.830001  0.167066  0.199722  1
  Tc  Tc11  1  0.168204  0.831308  0.800217  1
  Tc  Tc12  1  0.168204  0.336896  0.800217  1
  Sn  Sn13  1  0.666886  0.333442  0.183365  1
  Sn  Sn14  1  0.666518  0.333259  0.879435  1
  Sn  Sn15  1  0.334310  0.667156  0.120963  1
  Sn  Sn16  1  0.349608  0.346331  0.005053  1
  Sn  Sn17  1  0.996467  0.651746  0.005183  1
  Sn  Sn18  1  0.654476  0.000055  0.000525  1
  Sn  Sn19  1  0.654476  0.654421  0.000525  1
  Sn  Sn20  1  0.336691  0.668346  0.818169  1
  Sn  Sn21  1  0.436762  0.218381  0.452585  1
  Sn  Sn22  1  0.219957  0.780344  0.540021  1
  Sn  Sn23  1  0.219957  0.439613  0.540021  1
  Sn  Sn24  1  0.563833  0.781916  0.546817  1
  Sn  Sn25  1  0.117392  0.883370  0.272636  1
  Sn  Sn26  1  0.781749  0.563949  0.453250  1
  Sn  Sn27  1  0.781749  0.217801  0.453250  1
  Sn  Sn28  1  0.349608  0.003277  0.005053  1
  Sn  Sn29  1  0.117392  0.234022  0.272636  1
  Sn  Sn30  1  0.764708  0.882354  0.270373  1
  Sn  Sn31  1  0.238085  0.119042  0.728561  1
  Sn  Sn32  1  0.876434  0.765199  0.727381  1
  Sn  Sn33  1  0.876434  0.111235  0.727381  1
  Sn  Sn34  1  0.999203  0.999602  0.497244  1
  Sn  Sn35  1  0.996467  0.344721  0.005183  1
