# generated using pymatgen
data_Ho3Mg3NiSn2
_symmetry_space_group_name_H-M   'P 1'
_cell_length_a   7.38128900
_cell_length_b   7.38128993
_cell_length_c   4.46555700
_cell_angle_alpha   90.00000000
_cell_angle_beta   90.00000000
_cell_angle_gamma   120.00000926
_symmetry_Int_Tables_number   1
_chemical_formula_structural   Ho3Mg3NiSn2
_chemical_formula_sum   'Ho3 Mg3 Ni1 Sn2'
_cell_volume   210.70299199
_cell_formula_units_Z   1
loop_
 _symmetry_equiv_pos_site_id
 _symmetry_equiv_pos_as_xyz
  1  'x, y, z'
loop_
 _atom_site_type_symbol
 _atom_site_label
 _atom_site_symmetry_multiplicity
 _atom_site_fract_x
 _atom_site_fract_y
 _atom_site_fract_z
 _atom_site_occupancy
  Ho  Ho0  1  0.602449  0.000000  0.000000  1
  Ho  Ho1  1  0.000000  0.602449  0.000000  1
  Ho  Ho2  1  0.397551  0.397551  0.000000  1
  Mg  Mg3  1  0.227663  0.000000  0.500000  1
  Mg  Mg4  1  0.000000  0.227663  0.500000  1
  Mg  Mg5  1  0.772337  0.772337  0.500000  1
  Ni  Ni6  1  0.000000  0.000000  0.000000  1
  Sn  Sn7  1  0.333333  0.666667  0.500000  1
  Sn  Sn8  1  0.666667  0.333333  0.500000  1
