# generated using pymatgen
data_Nd2Y4Ga17Pd5
_symmetry_space_group_name_H-M   'P 1'
_cell_length_a   8.21981775
_cell_length_b   8.21981777
_cell_length_c   15.86499085
_cell_angle_alpha   76.22338133
_cell_angle_beta   76.22338129
_cell_angle_gamma   30.38369917
_symmetry_Int_Tables_number   1
_chemical_formula_structural   Nd2Y4Ga17Pd5
_chemical_formula_sum   'Nd2 Y4 Ga17 Pd5'
_cell_volume   525.40123988
_cell_formula_units_Z   1
loop_
 _symmetry_equiv_pos_site_id
 _symmetry_equiv_pos_as_xyz
  1  'x, y, z'
loop_
 _atom_site_type_symbol
 _atom_site_label
 _atom_site_symmetry_multiplicity
 _atom_site_fract_x
 _atom_site_fract_y
 _atom_site_fract_z
 _atom_site_occupancy
  Nd  Nd0  1  0.745601  0.745601  0.749777  1
  Nd  Nd1  1  0.254399  0.254399  0.250223  1
  Y  Y2  1  0.590757  0.590757  0.593351  1
  Y  Y3  1  0.099908  0.099908  0.096504  1
  Y  Y4  1  0.900092  0.900092  0.903496  1
  Y  Y5  1  0.409243  0.409243  0.406649  1
  Ga  Ga6  1  0.827662  0.827662  0.543415  1
  Ga  Ga7  1  0.322116  0.322116  0.039616  1
  Ga  Ga8  1  0.677884  0.677884  0.960384  1
  Ga  Ga9  1  0.172338  0.172338  0.456585  1
  Ga  Ga10  1  0.537838  0.537838  0.823285  1
  Ga  Ga11  1  0.046413  0.046413  0.326744  1
  Ga  Ga12  1  0.953587  0.953587  0.673256  1
  Ga  Ga13  1  0.462162  0.462162  0.176715  1
  Ga  Ga14  1  0.261630  0.261630  0.896183  1
  Ga  Ga15  1  0.769588  0.769588  0.399515  1
  Ga  Ga16  1  0.230412  0.230412  0.600485  1
  Ga  Ga17  1  0.738370  0.738370  0.103817  1
  Ga  Ga18  1  0.393451  0.393451  0.766755  1
  Ga  Ga19  1  0.902095  0.902095  0.265509  1
  Ga  Ga20  1  0.097905  0.097905  0.734491  1
  Ga  Ga21  1  0.606549  0.606549  0.233245  1
  Ga  Ga22  1  0.500000  0.500000  0.000000  1
  Pd  Pd23  1  0.094811  0.094811  0.902731  1
  Pd  Pd24  1  0.606679  0.606679  0.395592  1
  Pd  Pd25  1  0.393321  0.393321  0.604408  1
  Pd  Pd26  1  0.905189  0.905189  0.097269  1
  Pd  Pd27  1  0.000000  0.000000  0.500000  1
