# generated using pymatgen
data_Sm2PaIn2GaRh3
_symmetry_space_group_name_H-M   'P 1'
_cell_length_a   7.54115427
_cell_length_b   7.72309179
_cell_length_c   3.85738400
_cell_angle_alpha   90.00000000
_cell_angle_beta   90.00000000
_cell_angle_gamma   120.90148560
_symmetry_Int_Tables_number   1
_chemical_formula_structural   Sm2PaIn2GaRh3
_chemical_formula_sum   'Sm2 Pa1 In2 Ga1 Rh3'
_cell_volume   192.76815796
_cell_formula_units_Z   1
loop_
 _symmetry_equiv_pos_site_id
 _symmetry_equiv_pos_as_xyz
  1  'x, y, z'
loop_
 _atom_site_type_symbol
 _atom_site_label
 _atom_site_symmetry_multiplicity
 _atom_site_fract_x
 _atom_site_fract_y
 _atom_site_fract_z
 _atom_site_occupancy
  Sm  Sm0  1  0.576824  0.569738  0.500000  1
  Sm  Sm1  1  0.406337  0.008338  0.500000  1
  Pa  Pa2  1  0.003903  0.410910  0.500000  1
  In  In3  1  0.994164  0.760873  0.000000  1
  In  In4  1  0.731462  0.977288  0.000000  1
  Ga  Ga5  1  0.262825  0.260104  0.000000  1
  Rh  Rh6  1  0.289839  0.627814  0.000000  1
  Rh  Rh7  1  0.030194  0.052303  0.500000  1
  Rh  Rh8  1  0.704451  0.332633  0.000000  1
