# generated using pymatgen
data_La3In3Pd2Pt
_symmetry_space_group_name_H-M   'P 1'
_cell_length_a   7.87784900
_cell_length_b   7.87784844
_cell_length_c   4.10995000
_cell_angle_alpha   90.00000000
_cell_angle_beta   90.00000000
_cell_angle_gamma   119.99999816
_symmetry_Int_Tables_number   1
_chemical_formula_structural   La3In3Pd2Pt
_chemical_formula_sum   'La3 In3 Pd2 Pt1'
_cell_volume   220.89325327
_cell_formula_units_Z   1
loop_
 _symmetry_equiv_pos_site_id
 _symmetry_equiv_pos_as_xyz
  1  'x, y, z'
loop_
 _atom_site_type_symbol
 _atom_site_label
 _atom_site_symmetry_multiplicity
 _atom_site_fract_x
 _atom_site_fract_y
 _atom_site_fract_z
 _atom_site_occupancy
  La  La0  1  0.411942  0.417029  0.500000  1
  La  La1  1  0.005086  0.588058  0.500000  1
  La  La2  1  0.582971  0.994914  0.500000  1
  In  In3  1  0.753481  0.751287  0.000000  1
  In  In4  1  0.248713  0.002193  0.000000  1
  In  In5  1  0.997807  0.246519  0.000000  1
  Pd  Pd6  1  0.666667  0.333333  0.000000  1
  Pd  Pd7  1  0.000000  0.000000  0.500000  1
  Pt  Pt8  1  0.333333  0.666667  0.000000  1
