# generated using pymatgen
data_Tb(NbBr3)6
_symmetry_space_group_name_H-M   'P 1'
_cell_length_a   10.74816332
_cell_length_b   10.74643551
_cell_length_c   10.74741516
_cell_angle_alpha   56.05368407
_cell_angle_beta   56.03927075
_cell_angle_gamma   56.05922282
_symmetry_Int_Tables_number   1
_chemical_formula_structural   Tb(NbBr3)6
_chemical_formula_sum   'Tb1 Nb6 Br18'
_cell_volume   797.49132619
_cell_formula_units_Z   1
loop_
 _symmetry_equiv_pos_site_id
 _symmetry_equiv_pos_as_xyz
  1  'x, y, z'
loop_
 _atom_site_type_symbol
 _atom_site_label
 _atom_site_symmetry_multiplicity
 _atom_site_fract_x
 _atom_site_fract_y
 _atom_site_fract_z
 _atom_site_occupancy
  Tb  Tb0  1  0.000000  0.000000  0.000000  1
  Nb  Nb1  1  0.411634  0.307604  0.644202  1
  Nb  Nb2  1  0.355770  0.588381  0.692436  1
  Nb  Nb3  1  0.692360  0.355834  0.588343  1
  Nb  Nb4  1  0.307640  0.644166  0.411657  1
  Nb  Nb5  1  0.644230  0.411619  0.307564  1
  Nb  Nb6  1  0.588366  0.692396  0.355798  1
  Br  Br7  1  0.568651  0.162584  0.441211  1
  Br  Br8  1  0.223959  0.371194  0.906719  1
  Br  Br9  1  0.906660  0.223989  0.371165  1
  Br  Br10  1  0.371220  0.906627  0.223992  1
  Br  Br11  1  0.776041  0.628806  0.093281  1
  Br  Br12  1  0.093340  0.776011  0.628835  1
  Br  Br13  1  0.700241  0.959410  0.161028  1
  Br  Br14  1  0.959383  0.161058  0.700230  1
  Br  Br15  1  0.161056  0.700209  0.959428  1
  Br  Br16  1  0.299759  0.040590  0.838972  1
  Br  Br17  1  0.040617  0.838942  0.299770  1
  Br  Br18  1  0.838944  0.299791  0.040572  1
  Br  Br19  1  0.558744  0.431378  0.837393  1
  Br  Br20  1  0.162642  0.441195  0.568679  1
  Br  Br21  1  0.441256  0.568622  0.162607  1
  Br  Br22  1  0.431349  0.837416  0.558789  1
  Br  Br23  1  0.837358  0.558805  0.431321  1
  Br  Br24  1  0.628780  0.093373  0.776008  1
