# generated using pymatgen
data_Nd2Y2Er2NiBr10
_symmetry_space_group_name_H-M   'P 1'
_cell_length_a   7.37073918
_cell_length_b   9.20939583
_cell_length_c   9.41339042
_cell_angle_alpha   107.84364331
_cell_angle_beta   96.22056719
_cell_angle_gamma   106.23518570
_symmetry_Int_Tables_number   1
_chemical_formula_structural   Nd2Y2Er2NiBr10
_chemical_formula_sum   'Nd2 Y2 Er2 Ni1 Br10'
_cell_volume   570.67677492
_cell_formula_units_Z   1
loop_
 _symmetry_equiv_pos_site_id
 _symmetry_equiv_pos_as_xyz
  1  'x, y, z'
loop_
 _atom_site_type_symbol
 _atom_site_label
 _atom_site_symmetry_multiplicity
 _atom_site_fract_x
 _atom_site_fract_y
 _atom_site_fract_z
 _atom_site_occupancy
  Nd  Nd0  1  0.872089  0.951725  0.245263  1
  Nd  Nd1  1  0.127911  0.048275  0.754737  1
  Y  Y2  1  0.644692  0.866430  0.828927  1
  Y  Y3  1  0.355308  0.133570  0.171073  1
  Er  Er4  1  0.026725  0.708340  0.909230  1
  Er  Er5  1  0.973275  0.291660  0.090770  1
  Ni  Ni6  1  0.000000  0.000000  0.000000  1
  Br  Br7  1  0.652599  0.546499  0.731071  1
  Br  Br8  1  0.347401  0.453501  0.268929  1
  Br  Br9  1  0.737213  0.914923  0.550261  1
  Br  Br10  1  0.262787  0.085077  0.449739  1
  Br  Br11  1  0.918815  0.621512  0.164262  1
  Br  Br12  1  0.081185  0.378488  0.835738  1
  Br  Br13  1  0.557137  0.179720  0.919447  1
  Br  Br14  1  0.442863  0.820280  0.080553  1
  Br  Br15  1  0.219321  0.736202  0.662136  1
  Br  Br16  1  0.780679  0.263798  0.337864  1
