# generated using pymatgen
data_YbEr3(Ga2Ag)4
_symmetry_space_group_name_H-M   'P 1'
_cell_length_a   4.34850500
_cell_length_b   6.97783134
_cell_length_c   10.29191441
_cell_angle_alpha   90.41008355
_cell_angle_beta   90.00000000
_cell_angle_gamma   90.00000000
_symmetry_Int_Tables_number   1
_chemical_formula_structural   YbEr3(Ga2Ag)4
_chemical_formula_sum   'Yb1 Er3 Ga8 Ag4'
_cell_volume   312.28094409
_cell_formula_units_Z   1
loop_
 _symmetry_equiv_pos_site_id
 _symmetry_equiv_pos_as_xyz
  1  'x, y, z'
loop_
 _atom_site_type_symbol
 _atom_site_label
 _atom_site_symmetry_multiplicity
 _atom_site_fract_x
 _atom_site_fract_y
 _atom_site_fract_z
 _atom_site_occupancy
  Yb  Yb0  1  0.250000  0.275470  0.672000  1
  Er  Er1  1  0.250000  0.778531  0.827016  1
  Er  Er2  1  0.750000  0.223650  0.173053  1
  Er  Er3  1  0.750000  0.722057  0.327702  1
  Ga  Ga4  1  0.250000  0.704777  0.536376  1
  Ga  Ga5  1  0.750000  0.297395  0.463904  1
  Ga  Ga6  1  0.750000  0.794961  0.036905  1
  Ga  Ga7  1  0.250000  0.201585  0.964351  1
  Ga  Ga8  1  0.250000  0.927392  0.153945  1
  Ga  Ga9  1  0.750000  0.071408  0.848311  1
  Ga  Ga10  1  0.750000  0.572349  0.651377  1
  Ga  Ga11  1  0.250000  0.428386  0.345579  1
  Ag  Ag12  1  0.250000  0.542394  0.098352  1
  Ag  Ag13  1  0.750000  0.457773  0.901448  1
  Ag  Ag14  1  0.750000  0.958978  0.598356  1
  Ag  Ag15  1  0.250000  0.042892  0.401326  1
