# generated using pymatgen
data_Tm5Zr3Fe11Ni5P12
_symmetry_space_group_name_H-M   'P 1'
_cell_length_a   12.26252492
_cell_length_b   12.28401068
_cell_length_c   3.75098600
_cell_angle_alpha   90.00000000
_cell_angle_beta   90.00000000
_cell_angle_gamma   119.74674803
_symmetry_Int_Tables_number   1
_chemical_formula_structural   Tm5Zr3Fe11Ni5P12
_chemical_formula_sum   'Tm5 Zr3 Fe11 Ni5 P12'
_cell_volume   490.56753907
_cell_formula_units_Z   1
loop_
 _symmetry_equiv_pos_site_id
 _symmetry_equiv_pos_as_xyz
  1  'x, y, z'
loop_
 _atom_site_type_symbol
 _atom_site_label
 _atom_site_symmetry_multiplicity
 _atom_site_fract_x
 _atom_site_fract_y
 _atom_site_fract_z
 _atom_site_occupancy
  Tm  Tm0  1  0.182302  0.181276  0.500000  1
  Tm  Tm1  1  0.820994  0.002800  0.500000  1
  Tm  Tm2  1  0.000423  0.818441  0.500000  1
  Tm  Tm3  1  0.330349  0.664781  0.000000  1
  Tm  Tm4  1  0.667077  0.333741  0.000000  1
  Zr  Zr5  1  0.557988  0.556603  0.000000  1
  Zr  Zr6  1  0.442300  0.000181  0.000000  1
  Zr  Zr7  1  0.999007  0.441937  0.000000  1
  Fe  Fe8  1  0.721176  0.723686  0.500000  1
  Fe  Fe9  1  0.277343  0.000398  0.500000  1
  Fe  Fe10  1  0.999624  0.277491  0.500000  1
  Fe  Fe11  1  0.180643  0.375994  0.000000  1
  Fe  Fe12  1  0.620493  0.804744  0.000000  1
  Fe  Fe13  1  0.194350  0.818718  0.000000  1
  Fe  Fe14  1  0.807551  0.625426  0.000000  1
  Fe  Fe15  1  0.818115  0.194465  0.000000  1
  Fe  Fe16  1  0.375682  0.182666  0.000000  1
  Fe  Fe17  1  0.352414  0.474867  0.500000  1
  Fe  Fe18  1  0.527634  0.876346  0.500000  1
  Ni  Ni19  1  0.124104  0.643737  0.500000  1
  Ni  Ni20  1  0.875538  0.517792  0.500000  1
  Ni  Ni21  1  0.642537  0.127322  0.500000  1
  Ni  Ni22  1  0.485926  0.358492  0.500000  1
  Ni  Ni23  1  0.999385  0.999671  0.000000  1
  P  P24  1  0.817724  0.816841  0.000000  1
  P  P25  1  0.182979  0.000347  0.000000  1
  P  P26  1  0.000212  0.182842  0.000000  1
  P  P27  1  0.169994  0.473485  0.500000  1
  P  P28  1  0.518392  0.686129  0.500000  1
  P  P29  1  0.303362  0.830656  0.500000  1
  P  P30  1  0.700348  0.529833  0.500000  1
  P  P31  1  0.830184  0.301887  0.500000  1
  P  P32  1  0.471312  0.170667  0.500000  1
  P  P33  1  0.346460  0.347557  0.000000  1
  P  P34  1  0.654817  0.003084  0.000000  1
  P  P35  1  0.001261  0.655097  0.000000  1
