# generated using pymatgen
data_Nb5Fe16Si7W
_symmetry_space_group_name_H-M   'P 1'
_cell_length_a   7.93571759
_cell_length_b   7.93543660
_cell_length_c   7.91939901
_cell_angle_alpha   60.07027750
_cell_angle_beta   60.07159467
_cell_angle_gamma   59.88463550
_symmetry_Int_Tables_number   1
_chemical_formula_structural   Nb5Fe16Si7W
_chemical_formula_sum   'Nb5 Fe16 Si7 W1'
_cell_volume   352.71033845
_cell_formula_units_Z   1
loop_
 _symmetry_equiv_pos_site_id
 _symmetry_equiv_pos_as_xyz
  1  'x, y, z'
loop_
 _atom_site_type_symbol
 _atom_site_label
 _atom_site_symmetry_multiplicity
 _atom_site_fract_x
 _atom_site_fract_y
 _atom_site_fract_z
 _atom_site_occupancy
  Nb  Nb0  1  0.798648  0.199812  0.800151  1
  Nb  Nb1  1  0.205084  0.205108  0.794978  1
  Nb  Nb2  1  0.199864  0.798736  0.201371  1
  Nb  Nb3  1  0.199755  0.798679  0.800182  1
  Nb  Nb4  1  0.798698  0.199913  0.201384  1
  Fe  Fe5  1  0.520478  0.825594  0.826868  1
  Fe  Fe6  1  0.825625  0.520388  0.826886  1
  Fe  Fe7  1  0.826459  0.826471  0.517319  1
  Fe  Fe8  1  0.826583  0.826569  0.829685  1
  Fe  Fe9  1  0.170400  0.482639  0.173289  1
  Fe  Fe10  1  0.482519  0.170415  0.173360  1
  Fe  Fe11  1  0.172916  0.172872  0.479795  1
  Fe  Fe12  1  0.172984  0.172919  0.174095  1
  Fe  Fe13  1  0.620662  0.620748  0.613695  1
  Fe  Fe14  1  0.386170  0.855217  0.379374  1
  Fe  Fe15  1  0.855328  0.386167  0.379319  1
  Fe  Fe16  1  0.380931  0.380972  0.859527  1
  Fe  Fe17  1  0.380892  0.380944  0.378588  1
  Fe  Fe18  1  0.140635  0.621485  0.619061  1
  Fe  Fe19  1  0.621478  0.140545  0.619112  1
  Fe  Fe20  1  0.620727  0.620810  0.144909  1
  Si  Si21  1  0.496393  0.496256  0.503587  1
  Si  Si22  1  0.499770  0.499767  0.000230  1
  Si  Si23  1  0.499076  0.000078  0.501049  1
  Si  Si24  1  0.999695  0.999724  0.500308  1
  Si  Si25  1  0.000098  0.499008  0.999930  1
  Si  Si26  1  0.000076  0.499073  0.501022  1
  Si  Si27  1  0.499039  0.000119  0.999903  1
  W  W28  1  0.799010  0.798967  0.201016  1
