# generated using pymatgen
data_Li2Pr4Pt3
_symmetry_space_group_name_H-M   'P 1'
_cell_length_a   7.81273600
_cell_length_b   7.69370564
_cell_length_c   4.18500700
_cell_angle_alpha   90.00000000
_cell_angle_beta   90.00000000
_cell_angle_gamma   120.51313169
_symmetry_Int_Tables_number   1
_chemical_formula_structural   Li2Pr4Pt3
_chemical_formula_sum   'Li2 Pr4 Pt3'
_cell_volume   216.71882932
_cell_formula_units_Z   1
loop_
 _symmetry_equiv_pos_site_id
 _symmetry_equiv_pos_as_xyz
  1  'x, y, z'
loop_
 _atom_site_type_symbol
 _atom_site_label
 _atom_site_symmetry_multiplicity
 _atom_site_fract_x
 _atom_site_fract_y
 _atom_site_fract_z
 _atom_site_occupancy
  Li  Li0  1  0.003208  0.242607  0.500000  1
  Li  Li1  1  0.760600  0.757393  0.500000  1
  Pr  Pr2  1  0.425267  0.450161  0.000000  1
  Pr  Pr3  1  0.616372  0.000000  0.000000  1
  Pr  Pr4  1  0.975106  0.549839  0.000000  1
  Pr  Pr5  1  0.237802  0.000000  0.500000  1
  Pt  Pt6  1  0.987496  0.000000  0.000000  1
  Pt  Pt7  1  0.662143  0.330135  0.500000  1
  Pt  Pt8  1  0.332006  0.669865  0.500000  1
