# generated using pymatgen
data_Nd2SmEr(SeO3)6
_symmetry_space_group_name_H-M   'P 1'
_cell_length_a   7.26522009
_cell_length_b   8.30852431
_cell_length_c   9.24486797
_cell_angle_alpha   70.84954133
_cell_angle_beta   70.06060125
_cell_angle_gamma   66.03768731
_symmetry_Int_Tables_number   1
_chemical_formula_structural   Nd2SmEr(SeO3)6
_chemical_formula_sum   'Nd2 Sm1 Er1 Se6 O18'
_cell_volume   467.56826775
_cell_formula_units_Z   1
loop_
 _symmetry_equiv_pos_site_id
 _symmetry_equiv_pos_as_xyz
  1  'x, y, z'
loop_
 _atom_site_type_symbol
 _atom_site_label
 _atom_site_symmetry_multiplicity
 _atom_site_fract_x
 _atom_site_fract_y
 _atom_site_fract_z
 _atom_site_occupancy
  Nd  Nd0  1  0.331758  0.732867  0.590510  1
  Nd  Nd1  1  0.665599  0.271143  0.408579  1
  Sm  Sm2  1  0.740307  0.734157  0.802582  1
  Er  Er3  1  0.259805  0.262694  0.197810  1
  Se  Se4  1  0.422988  0.783058  0.196821  1
  Se  Se5  1  0.573543  0.223770  0.804500  1
  Se  Se6  1  0.150711  0.743720  0.970563  1
  Se  Se7  1  0.851453  0.245787  0.035872  1
  Se  Se8  1  0.888423  0.757077  0.417585  1
  Se  Se9  1  0.113006  0.245383  0.576059  1
  O  O10  1  0.643023  0.794538  0.055168  1
  O  O11  1  0.357420  0.210000  0.951513  1
  O  O12  1  0.358991  0.950555  0.297656  1
  O  O13  1  0.633448  0.059012  0.701977  1
  O  O14  1  0.509697  0.602569  0.347657  1
  O  O15  1  0.484323  0.403799  0.654134  1
  O  O16  1  0.174312  0.557526  0.120553  1
  O  O17  1  0.832809  0.427202  0.881440  1
  O  O18  1  0.403109  0.711257  0.853993  1
  O  O19  1  0.596004  0.286299  0.149628  1
  O  O20  1  0.341539  0.247296  0.430176  1
  O  O21  1  0.659133  0.752354  0.561467  1
  O  O22  1  0.975570  0.291313  0.436171  1
  O  O23  1  0.028490  0.708156  0.556757  1
  O  O24  1  0.150120  0.023908  0.656581  1
  O  O25  1  0.849456  0.979183  0.342278  1
  O  O26  1  0.941293  0.298861  0.161413  1
  O  O27  1  0.063670  0.696514  0.840556  1
