# generated using pymatgen
data_TbPr6SBr12
_symmetry_space_group_name_H-M   'P 1'
_cell_length_a   9.42162882
_cell_length_b   9.42162804
_cell_length_c   9.42162804
_cell_angle_alpha   107.84663408
_cell_angle_beta   107.84662794
_cell_angle_gamma   107.84661632
_symmetry_Int_Tables_number   1
_chemical_formula_structural   TbPr6SBr12
_chemical_formula_sum   'Tb1 Pr6 S1 Br12'
_cell_volume   679.77699927
_cell_formula_units_Z   1
loop_
 _symmetry_equiv_pos_site_id
 _symmetry_equiv_pos_as_xyz
  1  'x, y, z'
loop_
 _atom_site_type_symbol
 _atom_site_label
 _atom_site_symmetry_multiplicity
 _atom_site_fract_x
 _atom_site_fract_y
 _atom_site_fract_z
 _atom_site_occupancy
  Tb  Tb0  1  0.500000  0.500000  0.500000  1
  Pr  Pr1  1  0.111380  0.318682  0.036003  1
  Pr  Pr2  1  0.318682  0.036004  0.111379  1
  Pr  Pr3  1  0.036004  0.111379  0.318683  1
  Pr  Pr4  1  0.963997  0.888621  0.681318  1
  Pr  Pr5  1  0.681318  0.963997  0.888621  1
  Pr  Pr6  1  0.888620  0.681318  0.963997  1
  S  S7  1  0.000000  0.000000  0.000000  1
  Br  Br8  1  0.224583  0.686913  0.075692  1
  Br  Br9  1  0.477885  0.395622  0.169254  1
  Br  Br10  1  0.686914  0.075692  0.224583  1
  Br  Br11  1  0.924309  0.775417  0.313087  1
  Br  Br12  1  0.169254  0.477885  0.395622  1
  Br  Br13  1  0.395622  0.169254  0.477885  1
  Br  Br14  1  0.604378  0.830746  0.522116  1
  Br  Br15  1  0.830747  0.522115  0.604378  1
  Br  Br16  1  0.075692  0.224583  0.686914  1
  Br  Br17  1  0.313087  0.924309  0.775417  1
  Br  Br18  1  0.522115  0.604378  0.830747  1
  Br  Br19  1  0.775417  0.313087  0.924308  1
