# generated using pymatgen
data_BaHf4(PO4)6
_symmetry_space_group_name_H-M   'P 1'
_cell_length_a   8.69649954
_cell_length_b   8.69650038
_cell_length_c   9.48427295
_cell_angle_alpha   62.71160867
_cell_angle_beta   117.28838397
_cell_angle_gamma   120.00000011
_symmetry_Int_Tables_number   1
_chemical_formula_structural   BaHf4(PO4)6
_chemical_formula_sum   'Ba1 Hf4 P6 O24'
_cell_volume   527.00144055
_cell_formula_units_Z   1
loop_
 _symmetry_equiv_pos_site_id
 _symmetry_equiv_pos_as_xyz
  1  'x, y, z'
loop_
 _atom_site_type_symbol
 _atom_site_label
 _atom_site_symmetry_multiplicity
 _atom_site_fract_x
 _atom_site_fract_y
 _atom_site_fract_z
 _atom_site_occupancy
  Ba  Ba0  1  0.000000  0.000000  0.000000  1
  Hf  Hf1  1  0.351929  0.648072  0.055785  1
  Hf  Hf2  1  0.150826  0.849174  0.452478  1
  Hf  Hf3  1  0.849174  0.150826  0.547521  1
  Hf  Hf4  1  0.648072  0.351929  0.944216  1
  P  P5  1  0.751894  0.538680  0.246165  1
  P  P6  1  0.032950  0.248106  0.246165  1
  P  P7  1  0.461321  0.967051  0.246165  1
  P  P8  1  0.538681  0.032948  0.753837  1
  P  P9  1  0.967051  0.751894  0.753837  1
  P  P10  1  0.248106  0.461320  0.753837  1
  O  O11  1  0.850552  0.229748  0.100152  1
  O  O12  1  0.479347  0.149446  0.100152  1
  O  O13  1  0.770251  0.520651  0.100152  1
  O  O14  1  0.560972  0.546878  0.197146  1
  O  O15  1  0.183049  0.439027  0.197146  1
  O  O16  1  0.453123  0.816950  0.197146  1
  O  O17  1  0.908613  0.722801  0.280957  1
  O  O18  1  0.095145  0.091388  0.280957  1
  O  O19  1  0.277200  0.904856  0.280957  1
  O  O20  1  0.777025  0.376574  0.405383  1
  O  O21  1  0.004932  0.222975  0.405383  1
  O  O22  1  0.623427  0.995068  0.405383  1
  O  O23  1  0.376575  0.004933  0.594618  1
  O  O24  1  0.995066  0.777024  0.594618  1
  O  O25  1  0.222975  0.623425  0.594618  1
  O  O26  1  0.722800  0.095145  0.719043  1
  O  O27  1  0.904855  0.908612  0.719043  1
  O  O28  1  0.091387  0.277200  0.719043  1
  O  O29  1  0.546877  0.183050  0.802855  1
  O  O30  1  0.816950  0.560973  0.802855  1
  O  O31  1  0.439028  0.453123  0.802855  1
  O  O32  1  0.229749  0.479349  0.899848  1
  O  O33  1  0.520651  0.850553  0.899848  1
  O  O34  1  0.149447  0.770252  0.899848  1
