# generated using pymatgen
data_Tc4MoWS8
_symmetry_space_group_name_H-M   'P 1'
_cell_length_a   6.52000832
_cell_length_b   6.50038228
_cell_length_c   6.51308315
_cell_angle_alpha   93.14959491
_cell_angle_beta   93.41984209
_cell_angle_gamma   92.65312620
_symmetry_Int_Tables_number   1
_chemical_formula_structural   Tc4MoWS8
_chemical_formula_sum   'Tc4 Mo1 W1 S8'
_cell_volume   274.79283618
_cell_formula_units_Z   1
loop_
 _symmetry_equiv_pos_site_id
 _symmetry_equiv_pos_as_xyz
  1  'x, y, z'
loop_
 _atom_site_type_symbol
 _atom_site_label
 _atom_site_symmetry_multiplicity
 _atom_site_fract_x
 _atom_site_fract_y
 _atom_site_fract_z
 _atom_site_occupancy
  Tc  Tc0  1  0.229821  0.408670  0.550553  1
  Tc  Tc1  1  0.552216  0.229953  0.411043  1
  Tc  Tc2  1  0.408966  0.549010  0.230688  1
  Tc  Tc3  1  0.767948  0.588416  0.448114  1
  Mo  Mo4  1  0.591690  0.450373  0.771775  1
  W  W5  1  0.447401  0.770264  0.590174  1
  S  S6  1  0.381206  0.129226  0.719720  1
  S  S7  1  0.721441  0.378704  0.133709  1
  S  S8  1  0.125845  0.720179  0.378510  1
  S  S9  1  0.621660  0.868825  0.272260  1
  S  S10  1  0.272232  0.623309  0.871331  1
  S  S11  1  0.873413  0.278025  0.621181  1
  S  S12  1  0.225532  0.224447  0.225517  1
  S  S13  1  0.780629  0.780599  0.775426  1
