# generated using pymatgen
data_Lu19Sc(Cd3Ni)2
_symmetry_space_group_name_H-M   'P 1'
_cell_length_a   9.39802500
_cell_length_b   9.39802527
_cell_length_c   9.45179300
_cell_angle_alpha   90.00000000
_cell_angle_beta   90.00000000
_cell_angle_gamma   119.99999552
_symmetry_Int_Tables_number   1
_chemical_formula_structural   Lu19Sc(Cd3Ni)2
_chemical_formula_sum   'Lu19 Sc1 Cd6 Ni2'
_cell_volume   722.96630645
_cell_formula_units_Z   1
loop_
 _symmetry_equiv_pos_site_id
 _symmetry_equiv_pos_as_xyz
  1  'x, y, z'
loop_
 _atom_site_type_symbol
 _atom_site_label
 _atom_site_symmetry_multiplicity
 _atom_site_fract_x
 _atom_site_fract_y
 _atom_site_fract_z
 _atom_site_occupancy
  Lu  Lu0  1  0.000000  0.000000  0.000000  1
  Lu  Lu1  1  0.542854  0.457146  0.250202  1
  Lu  Lu2  1  0.542854  0.085708  0.250202  1
  Lu  Lu3  1  0.914292  0.457146  0.250202  1
  Lu  Lu4  1  0.457146  0.542854  0.749798  1
  Lu  Lu5  1  0.457146  0.914292  0.749798  1
  Lu  Lu6  1  0.085708  0.542854  0.749798  1
  Lu  Lu7  1  0.210193  0.789807  0.437682  1
  Lu  Lu8  1  0.210193  0.420387  0.437682  1
  Lu  Lu9  1  0.579613  0.789807  0.437682  1
  Lu  Lu10  1  0.789807  0.210193  0.562318  1
  Lu  Lu11  1  0.789807  0.579613  0.562318  1
  Lu  Lu12  1  0.420387  0.210193  0.562318  1
  Lu  Lu13  1  0.788913  0.211087  0.939209  1
  Lu  Lu14  1  0.788913  0.577825  0.939209  1
  Lu  Lu15  1  0.422175  0.211087  0.939209  1
  Lu  Lu16  1  0.211087  0.788913  0.060791  1
  Lu  Lu17  1  0.211087  0.422175  0.060791  1
  Lu  Lu18  1  0.577825  0.788913  0.060791  1
  Sc  Sc19  1  0.000000  0.000000  0.500000  1
  Cd  Cd20  1  0.886291  0.113709  0.254177  1
  Cd  Cd21  1  0.886291  0.772582  0.254177  1
  Cd  Cd22  1  0.227418  0.113709  0.254177  1
  Cd  Cd23  1  0.113709  0.886291  0.745823  1
  Cd  Cd24  1  0.113709  0.227418  0.745823  1
  Cd  Cd25  1  0.772582  0.886291  0.745823  1
  Ni  Ni26  1  0.333333  0.666667  0.249867  1
  Ni  Ni27  1  0.666667  0.333333  0.750133  1
