# generated using pymatgen
data_LaThBeSi4Ni
_symmetry_space_group_name_H-M   'P 1'
_cell_length_a   8.49586132
_cell_length_b   8.49586255
_cell_length_c   4.08881700
_cell_angle_alpha   90.00000000
_cell_angle_beta   90.00000000
_cell_angle_gamma   151.24944166
_symmetry_Int_Tables_number   1
_chemical_formula_structural   LaThBeSi4Ni
_chemical_formula_sum   'La1 Th1 Be1 Si4 Ni1'
_cell_volume   141.95647802
_cell_formula_units_Z   1
loop_
 _symmetry_equiv_pos_site_id
 _symmetry_equiv_pos_as_xyz
  1  'x, y, z'
loop_
 _atom_site_type_symbol
 _atom_site_label
 _atom_site_symmetry_multiplicity
 _atom_site_fract_x
 _atom_site_fract_y
 _atom_site_fract_z
 _atom_site_occupancy
  La  La0  1  0.602892  0.397108  0.250000  1
  Th  Th1  1  0.391208  0.608792  0.750000  1
  Be  Be2  1  0.823898  0.176102  0.250000  1
  Si  Si3  1  0.960286  0.039714  0.250000  1
  Si  Si4  1  0.038127  0.961873  0.750000  1
  Si  Si5  1  0.250983  0.749017  0.250000  1
  Si  Si6  1  0.749382  0.250618  0.750000  1
  Ni  Ni7  1  0.183225  0.816775  0.750000  1
