# generated using pymatgen
data_Y4Tm8Tc3Ir
_symmetry_space_group_name_H-M   'P 1'
_cell_length_a   6.24619099
_cell_length_b   7.40299462
_cell_length_c   8.98216300
_cell_angle_alpha   90.00000000
_cell_angle_beta   90.00000000
_cell_angle_gamma   90.00877708
_symmetry_Int_Tables_number   1
_chemical_formula_structural   Y4Tm8Tc3Ir
_chemical_formula_sum   'Y4 Tm8 Tc3 Ir1'
_cell_volume   415.33986731
_cell_formula_units_Z   1
loop_
 _symmetry_equiv_pos_site_id
 _symmetry_equiv_pos_as_xyz
  1  'x, y, z'
loop_
 _atom_site_type_symbol
 _atom_site_label
 _atom_site_symmetry_multiplicity
 _atom_site_fract_x
 _atom_site_fract_y
 _atom_site_fract_z
 _atom_site_occupancy
  Y  Y0  1  0.626711  0.041160  0.250000  1
  Y  Y1  1  0.377931  0.960443  0.750000  1
  Y  Y2  1  0.121546  0.462515  0.750000  1
  Y  Y3  1  0.875225  0.538942  0.250000  1
  Tm  Tm4  1  0.161064  0.176925  0.061502  1
  Tm  Tm5  1  0.835911  0.823936  0.936229  1
  Tm  Tm6  1  0.659650  0.324413  0.936997  1
  Tm  Tm7  1  0.835911  0.823936  0.563771  1
  Tm  Tm8  1  0.339446  0.674786  0.061835  1
  Tm  Tm9  1  0.161064  0.176925  0.438498  1
  Tm  Tm10  1  0.339446  0.674786  0.438165  1
  Tm  Tm11  1  0.659650  0.324413  0.563003  1
  Tc  Tc12  1  0.453740  0.384106  0.250000  1
  Tc  Tc13  1  0.546460  0.615378  0.750000  1
  Tc  Tc14  1  0.956283  0.112945  0.750000  1
  Ir  Ir15  1  0.049961  0.884390  0.250000  1
