# generated using pymatgen
data_RbBa2(H6Pt)2
_symmetry_space_group_name_H-M   'P 1'
_cell_length_a   5.51218600
_cell_length_b   5.51218727
_cell_length_c   9.21193800
_cell_angle_alpha   90.00000000
_cell_angle_beta   90.00000000
_cell_angle_gamma   120.00000436
_symmetry_Int_Tables_number   1
_chemical_formula_structural   RbBa2(H6Pt)2
_chemical_formula_sum   'Rb1 Ba2 H12 Pt2'
_cell_volume   242.39823140
_cell_formula_units_Z   1
loop_
 _symmetry_equiv_pos_site_id
 _symmetry_equiv_pos_as_xyz
  1  'x, y, z'
loop_
 _atom_site_type_symbol
 _atom_site_label
 _atom_site_symmetry_multiplicity
 _atom_site_fract_x
 _atom_site_fract_y
 _atom_site_fract_z
 _atom_site_occupancy
  Rb  Rb0  1  0.666667  0.333333  0.367818  1
  Ba  Ba1  1  0.000000  0.000000  0.001191  1
  Ba  Ba2  1  0.333333  0.666667  0.626379  1
  H  H3  1  0.190393  0.809607  0.334864  1
  H  H4  1  0.619215  0.809607  0.334864  1
  H  H5  1  0.190393  0.380785  0.334864  1
  H  H6  1  0.813685  0.186315  0.667584  1
  H  H7  1  0.372630  0.186315  0.667584  1
  H  H8  1  0.813685  0.627370  0.667584  1
  H  H9  1  0.521575  0.043149  0.873386  1
  H  H10  1  0.521575  0.478425  0.873386  1
  H  H11  1  0.956851  0.478425  0.873386  1
  H  H12  1  0.473490  0.946980  0.125260  1
  H  H13  1  0.473490  0.526510  0.125260  1
  H  H14  1  0.053020  0.526510  0.125260  1
  Pt  Pt15  1  0.666667  0.333333  0.769833  1
  Pt  Pt16  1  0.333333  0.666667  0.231495  1
