# generated using pymatgen
data_Sr5Bi2PbCl
_symmetry_space_group_name_H-M   'P 1'
_cell_length_a   9.84129300
_cell_length_b   9.95285292
_cell_length_c   7.46673200
_cell_angle_alpha   90.00000000
_cell_angle_beta   90.00000000
_cell_angle_gamma   119.62990546
_symmetry_Int_Tables_number   1
_chemical_formula_structural   Sr5Bi2PbCl
_chemical_formula_sum   'Sr10 Bi4 Pb2 Cl2'
_cell_volume   635.72386563
_cell_formula_units_Z   2
loop_
 _symmetry_equiv_pos_site_id
 _symmetry_equiv_pos_as_xyz
  1  'x, y, z'
loop_
 _atom_site_type_symbol
 _atom_site_label
 _atom_site_symmetry_multiplicity
 _atom_site_fract_x
 _atom_site_fract_y
 _atom_site_fract_z
 _atom_site_occupancy
  Sr  Sr0  1  0.241776  0.000000  0.250000  1
  Sr  Sr1  1  0.758224  0.000000  0.750000  1
  Sr  Sr2  1  0.995981  0.257989  0.250000  1
  Sr  Sr3  1  0.004019  0.742011  0.750000  1
  Sr  Sr4  1  0.737992  0.742011  0.250000  1
  Sr  Sr5  1  0.262008  0.257989  0.750000  1
  Sr  Sr6  1  0.330189  0.660379  0.000000  1
  Sr  Sr7  1  0.669811  0.339621  0.000000  1
  Sr  Sr8  1  0.669811  0.339621  0.500000  1
  Sr  Sr9  1  0.330189  0.660379  0.500000  1
  Bi  Bi10  1  0.998010  0.610322  0.250000  1
  Bi  Bi11  1  0.001990  0.389678  0.750000  1
  Bi  Bi12  1  0.387688  0.389678  0.250000  1
  Bi  Bi13  1  0.612312  0.610322  0.750000  1
  Pb  Pb14  1  0.580263  0.000000  0.250000  1
  Pb  Pb15  1  0.419737  0.000000  0.750000  1
  Cl  Cl16  1  0.000000  0.000000  0.000000  1
  Cl  Cl17  1  0.000000  0.000000  0.500000  1
