# generated using pymatgen
data_YbY3(B6Ru)2
_symmetry_space_group_name_H-M   'P 1'
_cell_length_a   3.66375000
_cell_length_b   9.15682194
_cell_length_c   11.54490773
_cell_angle_alpha   89.82306596
_cell_angle_beta   90.00000000
_cell_angle_gamma   90.00000000
_symmetry_Int_Tables_number   1
_chemical_formula_structural   YbY3(B6Ru)2
_chemical_formula_sum   'Yb2 Y6 B24 Ru4'
_cell_volume   387.31025496
_cell_formula_units_Z   2
loop_
 _symmetry_equiv_pos_site_id
 _symmetry_equiv_pos_as_xyz
  1  'x, y, z'
loop_
 _atom_site_type_symbol
 _atom_site_label
 _atom_site_symmetry_multiplicity
 _atom_site_fract_x
 _atom_site_fract_y
 _atom_site_fract_z
 _atom_site_occupancy
  Yb  Yb0  1  0.000000  0.325563  0.414865  1
  Yb  Yb1  1  0.000000  0.674437  0.585135  1
  Y  Y2  1  0.000000  0.822597  0.086232  1
  Y  Y3  1  0.000000  0.177403  0.913768  1
  Y  Y4  1  0.000000  0.941566  0.369887  1
  Y  Y5  1  0.000000  0.058434  0.630113  1
  Y  Y6  1  0.000000  0.442470  0.131145  1
  Y  Y7  1  0.000000  0.557530  0.868855  1
  B  B8  1  0.500000  0.554180  0.432559  1
  B  B9  1  0.500000  0.445820  0.567441  1
  B  B10  1  0.500000  0.053820  0.067174  1
  B  B11  1  0.500000  0.946180  0.932826  1
  B  B12  1  0.500000  0.747214  0.418252  1
  B  B13  1  0.500000  0.252786  0.581748  1
  B  B14  1  0.500000  0.247659  0.081439  1
  B  B15  1  0.500000  0.752341  0.918561  1
  B  B16  1  0.500000  0.790385  0.265131  1
  B  B17  1  0.500000  0.209615  0.734869  1
  B  B18  1  0.500000  0.289505  0.234660  1
  B  B19  1  0.500000  0.710495  0.765340  1
  B  B20  1  0.500000  0.631499  0.185893  1
  B  B21  1  0.500000  0.368501  0.814107  1
  B  B22  1  0.500000  0.130981  0.313867  1
  B  B23  1  0.500000  0.869019  0.686133  1
  B  B24  1  0.500000  0.983492  0.211533  1
  B  B25  1  0.500000  0.016508  0.788467  1
  B  B26  1  0.500000  0.484074  0.288787  1
  B  B27  1  0.500000  0.515926  0.711213  1
  B  B28  1  0.500000  0.604602  0.028893  1
  B  B29  1  0.500000  0.395398  0.971107  1
  B  B30  1  0.500000  0.100357  0.472084  1
  B  B31  1  0.500000  0.899643  0.527916  1
  Ru  Ru32  1  0.000000  0.639383  0.319583  1
  Ru  Ru33  1  0.000000  0.360617  0.680417  1
  Ru  Ru34  1  0.000000  0.136922  0.178093  1
  Ru  Ru35  1  0.000000  0.863078  0.821907  1
