# generated using pymatgen
data_Np3Ta(ClO2)3
_symmetry_space_group_name_H-M   'P 1'
_cell_length_a   9.27460504
_cell_length_b   9.28223049
_cell_length_c   5.38638600
_cell_angle_alpha   90.00000000
_cell_angle_beta   90.00000000
_cell_angle_gamma   119.83754633
_symmetry_Int_Tables_number   1
_chemical_formula_structural   Np3Ta(ClO2)3
_chemical_formula_sum   'Np6 Ta2 Cl6 O12'
_cell_volume   402.23928863
_cell_formula_units_Z   2
loop_
 _symmetry_equiv_pos_site_id
 _symmetry_equiv_pos_as_xyz
  1  'x, y, z'
loop_
 _atom_site_type_symbol
 _atom_site_label
 _atom_site_symmetry_multiplicity
 _atom_site_fract_x
 _atom_site_fract_y
 _atom_site_fract_z
 _atom_site_occupancy
  Np  Np0  1  0.319140  0.907297  0.750000  1
  Np  Np1  1  0.680861  0.092703  0.250000  1
  Np  Np2  1  0.093286  0.412246  0.750000  1
  Np  Np3  1  0.588970  0.681320  0.750000  1
  Np  Np4  1  0.411030  0.318680  0.250000  1
  Np  Np5  1  0.906714  0.587754  0.250000  1
  Ta  Ta6  1  0.333593  0.666698  0.250000  1
  Ta  Ta7  1  0.666407  0.333302  0.750000  1
  Cl  Cl8  1  0.244683  0.190237  0.750000  1
  Cl  Cl9  1  0.755317  0.809763  0.250000  1
  Cl  Cl10  1  0.810376  0.054349  0.750000  1
  Cl  Cl11  1  0.944910  0.755697  0.750000  1
  Cl  Cl12  1  0.055091  0.244304  0.250000  1
  Cl  Cl13  1  0.189624  0.945651  0.250000  1
  O  O14  1  0.520408  0.154443  0.509897  1
  O  O15  1  0.479593  0.845557  0.009897  1
  O  O16  1  0.845629  0.366113  0.510041  1
  O  O17  1  0.633688  0.479379  0.509935  1
  O  O18  1  0.366312  0.520620  0.009935  1
  O  O19  1  0.154373  0.633889  0.010039  1
  O  O20  1  0.479593  0.845557  0.490103  1
  O  O21  1  0.520408  0.154443  0.990102  1
  O  O22  1  0.154373  0.633889  0.489961  1
  O  O23  1  0.366312  0.520620  0.490065  1
  O  O24  1  0.633688  0.479379  0.990065  1
  O  O25  1  0.845629  0.366113  0.989962  1
