# generated using pymatgen
data_Yb(Sb3Ru)4
_symmetry_space_group_name_H-M   'P 1'
_cell_length_a   8.14206558
_cell_length_b   8.14206609
_cell_length_c   8.14206600
_cell_angle_alpha   109.47122041
_cell_angle_beta   109.47122167
_cell_angle_gamma   109.47122186
_symmetry_Int_Tables_number   1
_chemical_formula_structural   Yb(Sb3Ru)4
_chemical_formula_sum   'Yb1 Sb12 Ru4'
_cell_volume   415.51043629
_cell_formula_units_Z   1
loop_
 _symmetry_equiv_pos_site_id
 _symmetry_equiv_pos_as_xyz
  1  'x, y, z'
loop_
 _atom_site_type_symbol
 _atom_site_label
 _atom_site_symmetry_multiplicity
 _atom_site_fract_x
 _atom_site_fract_y
 _atom_site_fract_z
 _atom_site_occupancy
  Yb  Yb0  1  0.000000  0.000000  0.000000  1
  Sb  Sb1  1  0.340036  0.182917  0.842880  1
  Sb  Sb2  1  0.659963  0.817083  0.157120  1
  Sb  Sb3  1  0.659963  0.502844  0.842880  1
  Sb  Sb4  1  0.340037  0.497156  0.157120  1
  Sb  Sb5  1  0.182917  0.842880  0.340037  1
  Sb  Sb6  1  0.817083  0.157120  0.659964  1
  Sb  Sb7  1  0.502844  0.842880  0.659964  1
  Sb  Sb8  1  0.497156  0.157120  0.340037  1
  Sb  Sb9  1  0.842880  0.340036  0.182917  1
  Sb  Sb10  1  0.157120  0.659963  0.817083  1
  Sb  Sb11  1  0.842880  0.659963  0.502844  1
  Sb  Sb12  1  0.157120  0.340037  0.497156  1
  Ru  Ru13  1  0.000000  0.000000  0.500000  1
  Ru  Ru14  1  0.500000  0.000000  0.000000  1
  Ru  Ru15  1  0.000000  0.500000  0.000000  1
  Ru  Ru16  1  0.500000  0.500000  0.500000  1
