# generated using pymatgen
data_CaGaSiN3
_symmetry_space_group_name_H-M   'P 1'
_cell_length_a   5.12401800
_cell_length_b   5.78346252
_cell_length_c   5.78607380
_cell_angle_alpha   120.23839081
_cell_angle_beta   90.00000000
_cell_angle_gamma   90.00000000
_symmetry_Int_Tables_number   1
_chemical_formula_structural   CaGaSiN3
_chemical_formula_sum   'Ca2 Ga2 Si2 N6'
_cell_volume   148.13746125
_cell_formula_units_Z   2
loop_
 _symmetry_equiv_pos_site_id
 _symmetry_equiv_pos_as_xyz
  1  'x, y, z'
loop_
 _atom_site_type_symbol
 _atom_site_label
 _atom_site_symmetry_multiplicity
 _atom_site_fract_x
 _atom_site_fract_y
 _atom_site_fract_z
 _atom_site_occupancy
  Ca  Ca0  1  0.996857  0.682800  0.688682  1
  Ca  Ca1  1  0.496857  0.317200  0.311318  1
  Ga  Ga2  1  0.528438  0.013488  0.671961  1
  Ga  Ga3  1  0.028438  0.986512  0.328039  1
  Si  Si4  1  0.524929  0.664086  0.013777  1
  Si  Si5  1  0.024929  0.335914  0.986223  1
  N  N6  1  0.482468  0.724181  0.749801  1
  N  N7  1  0.982468  0.275819  0.250199  1
  N  N8  1  0.901717  0.084388  0.681356  1
  N  N9  1  0.863790  0.639109  0.067663  1
  N  N10  1  0.401717  0.915612  0.318644  1
  N  N11  1  0.363790  0.360891  0.932337  1
