# generated using pymatgen
data_La17Hg3Os4
_symmetry_space_group_name_H-M   'P 1'
_cell_length_a   10.08645280
_cell_length_b   10.15614826
_cell_length_c   10.15607292
_cell_angle_alpha   60.07118308
_cell_angle_beta   59.88618527
_cell_angle_gamma   59.88013384
_symmetry_Int_Tables_number   1
_chemical_formula_structural   La17Hg3Os4
_chemical_formula_sum   'La17 Hg3 Os4'
_cell_volume   734.75291800
_cell_formula_units_Z   1
loop_
 _symmetry_equiv_pos_site_id
 _symmetry_equiv_pos_as_xyz
  1  'x, y, z'
loop_
 _atom_site_type_symbol
 _atom_site_label
 _atom_site_symmetry_multiplicity
 _atom_site_fract_x
 _atom_site_fract_y
 _atom_site_fract_z
 _atom_site_occupancy
  La  La0  1  0.342168  0.343945  0.343768  1
  La  La1  1  0.344355  0.344857  0.967982  1
  La  La2  1  0.344358  0.968048  0.344964  1
  La  La3  1  0.956823  0.346462  0.346585  1
  La  La4  1  0.803268  0.194444  0.194507  1
  La  La5  1  0.181446  0.818220  0.818051  1
  La  La6  1  0.182652  0.815017  0.185507  1
  La  La7  1  0.802774  0.195786  0.806675  1
  La  La8  1  0.182638  0.185474  0.815125  1
  La  La9  1  0.802887  0.806548  0.195864  1
  La  La10  1  0.948808  0.559200  0.559313  1
  La  La11  1  0.550788  0.945045  0.945192  1
  La  La12  1  0.554809  0.944655  0.558953  1
  La  La13  1  0.950278  0.557682  0.931776  1
  La  La14  1  0.554822  0.559034  0.944471  1
  La  La15  1  0.950197  0.931746  0.557599  1
  La  La16  1  0.282765  0.572123  0.571807  1
  Hg  Hg17  1  0.590466  0.586447  0.586450  1
  Hg  Hg18  1  0.592053  0.584696  0.236387  1
  Hg  Hg19  1  0.591991  0.236395  0.584851  1
  Os  Os20  1  0.135558  0.137454  0.137715  1
  Os  Os21  1  0.136023  0.137642  0.588178  1
  Os  Os22  1  0.135852  0.588198  0.137416  1
  Os  Os23  1  0.582222  0.140883  0.140863  1
