# generated using pymatgen
data_Sr6Pr2Si12AgPd3
_symmetry_space_group_name_H-M   'P 1'
_cell_length_a   8.45448800
_cell_length_b   8.45448903
_cell_length_c   8.84002500
_cell_angle_alpha   90.00000000
_cell_angle_beta   90.00000000
_cell_angle_gamma   120.00000378
_symmetry_Int_Tables_number   1
_chemical_formula_structural   Sr6Pr2Si12AgPd3
_chemical_formula_sum   'Sr6 Pr2 Si12 Ag1 Pd3'
_cell_volume   547.21599793
_cell_formula_units_Z   1
loop_
 _symmetry_equiv_pos_site_id
 _symmetry_equiv_pos_as_xyz
  1  'x, y, z'
loop_
 _atom_site_type_symbol
 _atom_site_label
 _atom_site_symmetry_multiplicity
 _atom_site_fract_x
 _atom_site_fract_y
 _atom_site_fract_z
 _atom_site_occupancy
  Sr  Sr0  1  0.497743  0.502257  0.746407  1
  Sr  Sr1  1  0.498581  0.501419  0.253566  1
  Sr  Sr2  1  0.004513  0.502257  0.746407  1
  Sr  Sr3  1  0.002838  0.501419  0.253566  1
  Sr  Sr4  1  0.497743  0.995487  0.746407  1
  Sr  Sr5  1  0.498581  0.997162  0.253566  1
  Pr  Pr6  1  0.000000  0.000000  0.748555  1
  Pr  Pr7  1  0.000000  0.000000  0.251512  1
  Si  Si8  1  0.841600  0.158400  0.000011  1
  Si  Si9  1  0.164736  0.835264  0.000052  1
  Si  Si10  1  0.316798  0.158400  0.000011  1
  Si  Si11  1  0.162584  0.837416  0.499918  1
  Si  Si12  1  0.670528  0.835264  0.000052  1
  Si  Si13  1  0.836685  0.163315  0.500197  1
  Si  Si14  1  0.841600  0.683202  0.000011  1
  Si  Si15  1  0.674832  0.837416  0.499918  1
  Si  Si16  1  0.164736  0.329472  0.000052  1
  Si  Si17  1  0.326629  0.163315  0.500197  1
  Si  Si18  1  0.162584  0.325168  0.499918  1
  Si  Si19  1  0.836685  0.673371  0.500197  1
  Ag  Ag20  1  0.666667  0.333333  0.998269  1
  Pd  Pd21  1  0.333333  0.666667  0.001038  1
  Pd  Pd22  1  0.333333  0.666667  0.499121  1
  Pd  Pd23  1  0.666667  0.333333  0.501054  1
