# generated using pymatgen
data_HfZr5In4CBr18
_symmetry_space_group_name_H-M   'P 1'
_cell_length_a   10.36066785
_cell_length_b   10.54722471
_cell_length_c   10.62969700
_cell_angle_alpha   118.38333403
_cell_angle_beta   100.01070506
_cell_angle_gamma   103.96896234
_symmetry_Int_Tables_number   1
_chemical_formula_structural   HfZr5In4CBr18
_chemical_formula_sum   'Hf1 Zr5 In4 C1 Br18'
_cell_volume   933.34464043
_cell_formula_units_Z   1
loop_
 _symmetry_equiv_pos_site_id
 _symmetry_equiv_pos_as_xyz
  1  'x, y, z'
loop_
 _atom_site_type_symbol
 _atom_site_label
 _atom_site_symmetry_multiplicity
 _atom_site_fract_x
 _atom_site_fract_y
 _atom_site_fract_z
 _atom_site_occupancy
  Hf  Hf0  1  0.353123  0.445537  0.775514  1
  Zr  Zr1  1  0.365743  0.624277  0.131936  1
  Zr  Zr2  1  0.643181  0.733553  0.044827  1
  Zr  Zr3  1  0.646081  0.554196  0.223238  1
  Zr  Zr4  1  0.358312  0.267004  0.957471  1
  Zr  Zr5  1  0.635881  0.376369  0.870517  1
  In  In6  1  0.179987  0.723028  0.559296  1
  In  In7  1  0.851283  0.962691  0.774996  1
  In  In8  1  0.148464  0.036769  0.224477  1
  In  In9  1  0.819528  0.277127  0.440453  1
  C  C10  1  0.497202  0.498938  0.995803  1
  Br  Br11  1  0.823105  0.421240  0.109829  1
  Br  Br12  1  0.515163  0.705186  0.410892  1
  Br  Br13  1  0.173636  0.976208  0.898905  1
  Br  Br14  1  0.179098  0.576524  0.887896  1
  Br  Br15  1  0.831615  0.835049  0.312623  1
  Br  Br16  1  0.503962  0.294543  0.210758  1
  Br  Br17  1  0.798537  0.222561  0.707852  1
  Br  Br18  1  0.170899  0.169143  0.688350  1
  Br  Br19  1  0.507879  0.911537  0.197548  1
  Br  Br20  1  0.819526  0.627828  0.901632  1
  Br  Br21  1  0.200867  0.777460  0.291231  1
  Br  Br22  1  0.165299  0.377975  0.499144  1
  Br  Br23  1  0.493546  0.701445  0.788559  1
  Br  Br24  1  0.826005  0.023660  0.100314  1
  Br  Br25  1  0.482463  0.296983  0.591409  1
  Br  Br26  1  0.180352  0.372147  0.098140  1
  Br  Br27  1  0.837330  0.622676  0.504186  1
  Br  Br28  1  0.491933  0.088349  0.802203  1
