# generated using pymatgen
data_Hf3Mn2Nb(B2Ru5)2
_symmetry_space_group_name_H-M   'P 1'
_cell_length_a   9.31344100
_cell_length_b   9.31344150
_cell_length_c   3.04974000
_cell_angle_alpha   90.00000000
_cell_angle_beta   90.00000000
_cell_angle_gamma   89.96837285
_symmetry_Int_Tables_number   1
_chemical_formula_structural   Hf3Mn2Nb(B2Ru5)2
_chemical_formula_sum   'Hf3 Mn2 Nb1 B4 Ru10'
_cell_volume   264.53498050
_cell_formula_units_Z   1
loop_
 _symmetry_equiv_pos_site_id
 _symmetry_equiv_pos_as_xyz
  1  'x, y, z'
loop_
 _atom_site_type_symbol
 _atom_site_label
 _atom_site_symmetry_multiplicity
 _atom_site_fract_x
 _atom_site_fract_y
 _atom_site_fract_z
 _atom_site_occupancy
  Hf  Hf0  1  0.823615  0.677547  0.000000  1
  Hf  Hf1  1  0.177547  0.323615  0.000000  1
  Hf  Hf2  1  0.322896  0.822896  0.000000  1
  Mn  Mn3  1  0.499505  0.500779  0.000000  1
  Mn  Mn4  1  0.000779  0.999505  0.000000  1
  Nb  Nb5  1  0.677601  0.177601  0.000000  1
  B  B6  1  0.623470  0.876150  0.000000  1
  B  B7  1  0.376150  0.123470  0.000000  1
  B  B8  1  0.123128  0.623128  0.000000  1
  B  B9  1  0.876263  0.376263  0.000000  1
  Ru  Ru10  1  0.570472  0.714122  0.500000  1
  Ru  Ru11  1  0.433596  0.285202  0.500000  1
  Ru  Ru12  1  0.069286  0.785956  0.500000  1
  Ru  Ru13  1  0.925993  0.212413  0.500000  1
  Ru  Ru14  1  0.285956  0.569286  0.500000  1
  Ru  Ru15  1  0.712413  0.425993  0.500000  1
  Ru  Ru16  1  0.214122  0.070472  0.500000  1
  Ru  Ru17  1  0.785202  0.933596  0.500000  1
  Ru  Ru18  1  0.502735  0.002735  0.500000  1
  Ru  Ru19  1  0.999270  0.499270  0.500000  1
