# generated using pymatgen
data_Pr2AlZnIrRh
_symmetry_space_group_name_H-M   'P 1'
_cell_length_a   4.19228600
_cell_length_b   7.19236591
_cell_length_c   8.31686677
_cell_angle_alpha   90.70629982
_cell_angle_beta   90.00000000
_cell_angle_gamma   90.00000000
_symmetry_Int_Tables_number   1
_chemical_formula_structural   Pr2AlZnIrRh
_chemical_formula_sum   'Pr4 Al2 Zn2 Ir2 Rh2'
_cell_volume   250.75489653
_cell_formula_units_Z   2
loop_
 _symmetry_equiv_pos_site_id
 _symmetry_equiv_pos_as_xyz
  1  'x, y, z'
loop_
 _atom_site_type_symbol
 _atom_site_label
 _atom_site_symmetry_multiplicity
 _atom_site_fract_x
 _atom_site_fract_y
 _atom_site_fract_z
 _atom_site_occupancy
  Pr  Pr0  1  0.250000  0.533094  0.190758  1
  Pr  Pr1  1  0.750000  0.466906  0.809242  1
  Pr  Pr2  1  0.750000  0.961692  0.681332  1
  Pr  Pr3  1  0.250000  0.038308  0.318668  1
  Al  Al4  1  0.750000  0.862547  0.061174  1
  Al  Al5  1  0.250000  0.137453  0.938826  1
  Zn  Zn6  1  0.250000  0.640605  0.563947  1
  Zn  Zn7  1  0.750000  0.359395  0.436053  1
  Ir  Ir8  1  0.250000  0.775643  0.895858  1
  Ir  Ir9  1  0.750000  0.224357  0.104142  1
  Rh  Rh10  1  0.750000  0.739448  0.373985  1
  Rh  Rh11  1  0.250000  0.260552  0.626015  1
