# generated using pymatgen
data_K5YbTaP4
_symmetry_space_group_name_H-M   'P 1'
_cell_length_a   9.94433919
_cell_length_b   9.94433881
_cell_length_c   7.59930900
_cell_angle_alpha   88.66328589
_cell_angle_beta   88.66328594
_cell_angle_gamma   120.64516572
_symmetry_Int_Tables_number   1
_chemical_formula_structural   K5YbTaP4
_chemical_formula_sum   'K10 Yb2 Ta2 P8'
_cell_volume   645.82331554
_cell_formula_units_Z   2
loop_
 _symmetry_equiv_pos_site_id
 _symmetry_equiv_pos_as_xyz
  1  'x, y, z'
loop_
 _atom_site_type_symbol
 _atom_site_label
 _atom_site_symmetry_multiplicity
 _atom_site_fract_x
 _atom_site_fract_y
 _atom_site_fract_z
 _atom_site_occupancy
  K  K0  1  0.464141  0.525329  0.495630  1
  K  K1  1  0.061798  0.530006  0.499195  1
  K  K2  1  0.525329  0.464141  0.995630  1
  K  K3  1  0.530006  0.061798  0.999195  1
  K  K4  1  0.864581  0.138739  0.678994  1
  K  K5  1  0.290441  0.152820  0.722923  1
  K  K6  1  0.857005  0.722304  0.656867  1
  K  K7  1  0.138739  0.864581  0.178994  1
  K  K8  1  0.722304  0.857005  0.156867  1
  K  K9  1  0.152820  0.290441  0.222923  1
  Yb  Yb10  1  0.460484  0.932968  0.492336  1
  Yb  Yb11  1  0.932968  0.460484  0.992336  1
  Ta  Ta12  1  0.672064  0.328038  0.394224  1
  Ta  Ta13  1  0.328038  0.672064  0.894224  1
  P  P14  1  0.696633  0.345858  0.708990  1
  P  P15  1  0.345858  0.696633  0.208990  1
  P  P16  1  0.796632  0.193194  0.281441  1
  P  P17  1  0.399109  0.179805  0.328174  1
  P  P18  1  0.802959  0.585091  0.255516  1
  P  P19  1  0.193194  0.796632  0.781441  1
  P  P20  1  0.585091  0.802959  0.755516  1
  P  P21  1  0.179805  0.399109  0.828174  1
