# generated using pymatgen
data_SrCaGeO4
_symmetry_space_group_name_H-M   'P 1'
_cell_length_a   5.32626400
_cell_length_b   7.07666100
_cell_length_c   12.10771400
_cell_angle_alpha   90.00000000
_cell_angle_beta   90.00000000
_cell_angle_gamma   90.00000000
_symmetry_Int_Tables_number   1
_chemical_formula_structural   SrCaGeO4
_chemical_formula_sum   'Sr4 Ca4 Ge4 O16'
_cell_volume   456.36595053
_cell_formula_units_Z   4
loop_
 _symmetry_equiv_pos_site_id
 _symmetry_equiv_pos_as_xyz
  1  'x, y, z'
loop_
 _atom_site_type_symbol
 _atom_site_label
 _atom_site_symmetry_multiplicity
 _atom_site_fract_x
 _atom_site_fract_y
 _atom_site_fract_z
 _atom_site_occupancy
  Sr  Sr0  1  0.014324  0.750000  0.720401  1
  Sr  Sr1  1  0.985676  0.250000  0.279599  1
  Sr  Sr2  1  0.514324  0.250000  0.779599  1
  Sr  Sr3  1  0.485676  0.750000  0.220401  1
  Ca  Ca4  1  0.500000  0.500000  0.500000  1
  Ca  Ca5  1  0.000000  0.000000  0.000000  1
  Ca  Ca6  1  0.000000  0.500000  0.000000  1
  Ca  Ca7  1  0.500000  0.000000  0.500000  1
  Ge  Ge8  1  0.422849  0.250000  0.087894  1
  Ge  Ge9  1  0.922849  0.750000  0.412106  1
  Ge  Ge10  1  0.577151  0.750000  0.912106  1
  Ge  Ge11  1  0.077151  0.250000  0.587894  1
  O  O12  1  0.772024  0.750000  0.546131  1
  O  O13  1  0.782100  0.549484  0.345866  1
  O  O14  1  0.717900  0.549484  0.845866  1
  O  O15  1  0.744877  0.250000  0.583828  1
  O  O16  1  0.727976  0.750000  0.046131  1
  O  O17  1  0.282100  0.450516  0.154134  1
  O  O18  1  0.217900  0.450516  0.654134  1
  O  O19  1  0.255123  0.750000  0.416172  1
  O  O20  1  0.782100  0.950516  0.345866  1
  O  O21  1  0.244877  0.750000  0.916172  1
  O  O22  1  0.227976  0.250000  0.453869  1
  O  O23  1  0.717900  0.950516  0.845866  1
  O  O24  1  0.217900  0.049484  0.654134  1
  O  O25  1  0.272024  0.250000  0.953869  1
  O  O26  1  0.282100  0.049484  0.154134  1
  O  O27  1  0.755123  0.250000  0.083828  1
