# generated using pymatgen
data_CeGd5BiO12
_symmetry_space_group_name_H-M   'P 1'
_cell_length_a   6.63929640
_cell_length_b   6.63009253
_cell_length_c   6.60712500
_cell_angle_alpha   99.10895666
_cell_angle_beta   99.10272432
_cell_angle_gamma   99.27934444
_symmetry_Int_Tables_number   1
_chemical_formula_structural   CeGd5BiO12
_chemical_formula_sum   'Ce1 Gd5 Bi1 O12'
_cell_volume   278.33105140
_cell_formula_units_Z   1
loop_
 _symmetry_equiv_pos_site_id
 _symmetry_equiv_pos_as_xyz
  1  'x, y, z'
loop_
 _atom_site_type_symbol
 _atom_site_label
 _atom_site_symmetry_multiplicity
 _atom_site_fract_x
 _atom_site_fract_y
 _atom_site_fract_z
 _atom_site_occupancy
  Ce  Ce0  1  0.395912  0.687626  0.857749  1
  Gd  Gd1  1  0.856744  0.390798  0.688507  1
  Gd  Gd2  1  0.694523  0.859635  0.392494  1
  Gd  Gd3  1  0.609126  0.308746  0.144318  1
  Gd  Gd4  1  0.136690  0.607473  0.308413  1
  Gd  Gd5  1  0.309503  0.141937  0.606452  1
  Bi  Bi6  1  0.002337  0.001537  0.999245  1
  O  O7  1  0.180205  0.435429  0.592205  1
  O  O8  1  0.584233  0.174992  0.432787  1
  O  O9  1  0.428617  0.590179  0.170014  1
  O  O10  1  0.820327  0.566942  0.412286  1
  O  O11  1  0.414320  0.817026  0.575099  1
  O  O12  1  0.566906  0.420007  0.822701  1
  O  O13  1  0.928219  0.049066  0.686634  1
  O  O14  1  0.950037  0.312298  0.073269  1
  O  O15  1  0.314885  0.072356  0.949354  1
  O  O16  1  0.071069  0.951143  0.313317  1
  O  O17  1  0.049854  0.687192  0.928017  1
  O  O18  1  0.686493  0.925618  0.047140  1
