# generated using pymatgen
data_Yb4MnCoIr6
_symmetry_space_group_name_H-M   'P 1'
_cell_length_a   5.39147300
_cell_length_b   5.39147225
_cell_length_c   8.35883400
_cell_angle_alpha   90.00000000
_cell_angle_beta   90.00000000
_cell_angle_gamma   119.99999849
_symmetry_Int_Tables_number   1
_chemical_formula_structural   Yb4MnCoIr6
_chemical_formula_sum   'Yb4 Mn1 Co1 Ir6'
_cell_volume   210.42200160
_cell_formula_units_Z   1
loop_
 _symmetry_equiv_pos_site_id
 _symmetry_equiv_pos_as_xyz
  1  'x, y, z'
loop_
 _atom_site_type_symbol
 _atom_site_label
 _atom_site_symmetry_multiplicity
 _atom_site_fract_x
 _atom_site_fract_y
 _atom_site_fract_z
 _atom_site_occupancy
  Yb  Yb0  1  0.333333  0.666667  0.429290  1
  Yb  Yb1  1  0.666667  0.333333  0.570710  1
  Yb  Yb2  1  0.666667  0.333333  0.931003  1
  Yb  Yb3  1  0.333333  0.666667  0.068997  1
  Mn  Mn4  1  0.000000  0.000000  0.500000  1
  Co  Co5  1  0.000000  0.000000  0.000000  1
  Ir  Ir6  1  0.829889  0.170111  0.248393  1
  Ir  Ir7  1  0.829889  0.659776  0.248393  1
  Ir  Ir8  1  0.340224  0.170111  0.248393  1
  Ir  Ir9  1  0.170111  0.829889  0.751607  1
  Ir  Ir10  1  0.170111  0.340224  0.751607  1
  Ir  Ir11  1  0.659776  0.829889  0.751607  1
