# generated using pymatgen
data_Tb6ErScO12
_symmetry_space_group_name_H-M   'P 1'
_cell_length_a   6.69882152
_cell_length_b   6.69882052
_cell_length_c   6.69882176
_cell_angle_alpha   92.56083231
_cell_angle_beta   92.56081611
_cell_angle_gamma   92.56082388
_symmetry_Int_Tables_number   1
_chemical_formula_structural   Tb6ErScO12
_chemical_formula_sum   'Tb6 Er1 Sc1 O12'
_cell_volume   299.67589949
_cell_formula_units_Z   1
loop_
 _symmetry_equiv_pos_site_id
 _symmetry_equiv_pos_as_xyz
  1  'x, y, z'
loop_
 _atom_site_type_symbol
 _atom_site_label
 _atom_site_symmetry_multiplicity
 _atom_site_fract_x
 _atom_site_fract_y
 _atom_site_fract_z
 _atom_site_occupancy
  Tb  Tb0  1  0.743102  0.929905  0.439154  1
  Tb  Tb1  1  0.929905  0.439154  0.743102  1
  Tb  Tb2  1  0.439154  0.743102  0.929905  1
  Tb  Tb3  1  0.256898  0.070095  0.560846  1
  Tb  Tb4  1  0.070095  0.560846  0.256898  1
  Tb  Tb5  1  0.560846  0.256898  0.070095  1
  Er  Er6  1  0.000000  0.000000  0.000000  1
  Sc  Sc7  1  0.500000  0.500000  0.500000  1
  O  O8  1  0.592351  0.464239  0.804708  1
  O  O9  1  0.464239  0.804708  0.592351  1
  O  O10  1  0.804708  0.592351  0.464239  1
  O  O11  1  0.407649  0.535761  0.195292  1
  O  O12  1  0.535761  0.195292  0.407649  1
  O  O13  1  0.195292  0.407649  0.535761  1
  O  O14  1  0.068351  0.907540  0.315037  1
  O  O15  1  0.907540  0.315037  0.068351  1
  O  O16  1  0.684963  0.931649  0.092460  1
  O  O17  1  0.092460  0.684963  0.931649  1
  O  O18  1  0.931649  0.092460  0.684963  1
  O  O19  1  0.315037  0.068351  0.907540  1
