# generated using pymatgen
data_Y3Er7Cd3Co
_symmetry_space_group_name_H-M   'P 1'
_cell_length_a   9.56589000
_cell_length_b   9.56599429
_cell_length_c   9.61839800
_cell_angle_alpha   90.00000000
_cell_angle_beta   90.00000000
_cell_angle_gamma   120.00039016
_symmetry_Int_Tables_number   1
_chemical_formula_structural   Y3Er7Cd3Co
_chemical_formula_sum   'Y6 Er14 Cd6 Co2'
_cell_volume   762.23198358
_cell_formula_units_Z   2
loop_
 _symmetry_equiv_pos_site_id
 _symmetry_equiv_pos_as_xyz
  1  'x, y, z'
loop_
 _atom_site_type_symbol
 _atom_site_label
 _atom_site_symmetry_multiplicity
 _atom_site_fract_x
 _atom_site_fract_y
 _atom_site_fract_z
 _atom_site_occupancy
  Y  Y0  1  0.541813  0.458185  0.250000  1
  Y  Y1  1  0.541814  0.083624  0.250000  1
  Y  Y2  1  0.916375  0.458191  0.250000  1
  Y  Y3  1  0.458187  0.541815  0.750000  1
  Y  Y4  1  0.458186  0.916376  0.750000  1
  Y  Y5  1  0.083625  0.541809  0.750000  1
  Er  Er6  1  0.000000  0.000000  0.500000  1
  Er  Er7  1  0.000000  0.000000  0.000000  1
  Er  Er8  1  0.211752  0.788248  0.436644  1
  Er  Er9  1  0.211752  0.423499  0.436639  1
  Er  Er10  1  0.576497  0.788245  0.436640  1
  Er  Er11  1  0.788248  0.211752  0.563356  1
  Er  Er12  1  0.788248  0.576501  0.563361  1
  Er  Er13  1  0.423503  0.211755  0.563360  1
  Er  Er14  1  0.788248  0.211752  0.936644  1
  Er  Er15  1  0.788248  0.576501  0.936639  1
  Er  Er16  1  0.423503  0.211755  0.936640  1
  Er  Er17  1  0.211752  0.788248  0.063356  1
  Er  Er18  1  0.211752  0.423499  0.063361  1
  Er  Er19  1  0.576497  0.788245  0.063360  1
  Cd  Cd20  1  0.885256  0.114739  0.250000  1
  Cd  Cd21  1  0.885264  0.770522  0.250000  1
  Cd  Cd22  1  0.229477  0.114735  0.250000  1
  Cd  Cd23  1  0.114744  0.885261  0.750000  1
  Cd  Cd24  1  0.114736  0.229478  0.750000  1
  Cd  Cd25  1  0.770523  0.885265  0.750000  1
  Co  Co26  1  0.333332  0.666666  0.250000  1
  Co  Co27  1  0.666668  0.333334  0.750000  1
