# generated using pymatgen
data_Rb4BaAu6
_symmetry_space_group_name_H-M   'P 1'
_cell_length_a   16.59435149
_cell_length_b   16.59434974
_cell_length_c   4.90491500
_cell_angle_alpha   90.00000000
_cell_angle_beta   90.00000000
_cell_angle_gamma   162.90698285
_symmetry_Int_Tables_number   1
_chemical_formula_structural   Rb4BaAu6
_chemical_formula_sum   'Rb4 Ba1 Au6'
_cell_volume   396.99662809
_cell_formula_units_Z   1
loop_
 _symmetry_equiv_pos_site_id
 _symmetry_equiv_pos_as_xyz
  1  'x, y, z'
loop_
 _atom_site_type_symbol
 _atom_site_label
 _atom_site_symmetry_multiplicity
 _atom_site_fract_x
 _atom_site_fract_y
 _atom_site_fract_z
 _atom_site_occupancy
  Rb  Rb0  1  0.619197  0.380803  0.000000  1
  Rb  Rb1  1  0.380803  0.619197  0.000000  1
  Rb  Rb2  1  0.803535  0.196464  0.500000  1
  Rb  Rb3  1  0.196464  0.803535  0.500000  1
  Ba  Ba4  1  0.000000  0.000000  0.000000  1
  Au  Au5  1  0.729937  0.270063  0.000000  1
  Au  Au6  1  0.270063  0.729937  0.000000  1
  Au  Au7  1  0.923990  0.076010  0.500000  1
  Au  Au8  1  0.542437  0.457562  0.500000  1
  Au  Au9  1  0.457562  0.542437  0.500000  1
  Au  Au10  1  0.076010  0.923990  0.500000  1
