# generated using pymatgen
data_Ba3Cr4(NiP3)2
_symmetry_space_group_name_H-M   'P 1'
_cell_length_a   8.91135946
_cell_length_b   8.91078375
_cell_length_c   8.91078436
_cell_angle_alpha   154.81322520
_cell_angle_beta   87.54414852
_cell_angle_gamma   97.92739976
_symmetry_Int_Tables_number   1
_chemical_formula_structural   Ba3Cr4(NiP3)2
_chemical_formula_sum   'Ba3 Cr4 Ni2 P6'
_cell_volume   292.55554329
_cell_formula_units_Z   1
loop_
 _symmetry_equiv_pos_site_id
 _symmetry_equiv_pos_as_xyz
  1  'x, y, z'
loop_
 _atom_site_type_symbol
 _atom_site_label
 _atom_site_symmetry_multiplicity
 _atom_site_fract_x
 _atom_site_fract_y
 _atom_site_fract_z
 _atom_site_occupancy
  Ba  Ba0  1  0.333147  0.333224  0.999923  1
  Ba  Ba1  1  0.666709  0.666611  0.000099  1
  Ba  Ba2  1  0.000103  0.000063  0.000040  1
  Cr  Cr3  1  0.581561  0.831612  0.749949  1
  Cr  Cr4  1  0.251590  0.501705  0.749885  1
  Cr  Cr5  1  0.751791  0.501667  0.250124  1
  Cr  Cr6  1  0.081871  0.831749  0.250121  1
  Ni  Ni7  1  0.415849  0.166726  0.249125  1
  Ni  Ni8  1  0.917439  0.166680  0.750758  1
  P  P9  1  0.320696  0.666635  0.654062  1
  P  P10  1  0.678884  0.332475  0.346409  1
  P  P11  1  0.986247  0.332525  0.653722  1
  P  P12  1  0.347151  0.000870  0.346281  1
  P  P13  1  0.012501  0.666709  0.345793  1
  P  P14  1  0.654460  0.000751  0.653708  1
