# generated using pymatgen
data_YbLuCo17
_symmetry_space_group_name_H-M   'P 1'
_cell_length_a   8.06541700
_cell_length_b   8.24722946
_cell_length_c   8.24722882
_cell_angle_alpha   120.13627314
_cell_angle_beta   90.00000000
_cell_angle_gamma   90.00000000
_symmetry_Int_Tables_number   1
_chemical_formula_structural   YbLuCo17
_chemical_formula_sum   'Yb2 Lu2 Co34'
_cell_volume   474.43375118
_cell_formula_units_Z   2
loop_
 _symmetry_equiv_pos_site_id
 _symmetry_equiv_pos_as_xyz
  1  'x, y, z'
loop_
 _atom_site_type_symbol
 _atom_site_label
 _atom_site_symmetry_multiplicity
 _atom_site_fract_x
 _atom_site_fract_y
 _atom_site_fract_z
 _atom_site_occupancy
  Yb  Yb0  1  0.750000  0.999806  0.000194  1
  Yb  Yb1  1  0.250000  0.000194  0.999806  1
  Lu  Lu2  1  0.250000  0.666560  0.333440  1
  Lu  Lu3  1  0.750000  0.333440  0.666560  1
  Co  Co4  1  0.606287  0.666663  0.333337  1
  Co  Co5  1  0.393713  0.333337  0.666663  1
  Co  Co6  1  0.106287  0.333337  0.666663  1
  Co  Co7  1  0.893713  0.666663  0.333337  1
  Co  Co8  1  0.476333  0.832518  0.664924  1
  Co  Co9  1  0.476682  0.832476  0.167524  1
  Co  Co10  1  0.476333  0.335076  0.167482  1
  Co  Co11  1  0.523667  0.167482  0.335076  1
  Co  Co12  1  0.523318  0.167524  0.832476  1
  Co  Co13  1  0.523667  0.664924  0.832518  1
  Co  Co14  1  0.976333  0.167482  0.335076  1
  Co  Co15  1  0.976682  0.167524  0.832476  1
  Co  Co16  1  0.976333  0.664924  0.832518  1
  Co  Co17  1  0.023667  0.832518  0.664924  1
  Co  Co18  1  0.023318  0.832476  0.167524  1
  Co  Co19  1  0.023667  0.335076  0.167482  1
  Co  Co20  1  0.500000  0.500000  0.000000  1
  Co  Co21  1  0.500000  0.500000  0.500000  1
  Co  Co22  1  0.500000  0.000000  0.500000  1
  Co  Co23  1  0.000000  0.500000  0.000000  1
  Co  Co24  1  0.000000  0.500000  0.500000  1
  Co  Co25  1  0.000000  0.000000  0.500000  1
  Co  Co26  1  0.750000  0.671117  0.044772  1
  Co  Co27  1  0.750000  0.373550  0.328702  1
  Co  Co28  1  0.750000  0.955123  0.626286  1
  Co  Co29  1  0.750000  0.373714  0.044877  1
  Co  Co30  1  0.750000  0.955228  0.328883  1
  Co  Co31  1  0.750000  0.671298  0.626450  1
  Co  Co32  1  0.250000  0.328883  0.955228  1
  Co  Co33  1  0.250000  0.626450  0.671298  1
  Co  Co34  1  0.250000  0.044877  0.373714  1
  Co  Co35  1  0.250000  0.626286  0.955123  1
  Co  Co36  1  0.250000  0.044772  0.671117  1
  Co  Co37  1  0.250000  0.328702  0.373550  1
