# generated using pymatgen
data_Hf2Mg2Sb4PdPt3
_symmetry_space_group_name_H-M   'P 1'
_cell_length_a   7.84029863
_cell_length_b   7.83069048
_cell_length_c   6.37678200
_cell_angle_alpha   114.02693187
_cell_angle_beta   113.99563442
_cell_angle_gamma   47.99419357
_symmetry_Int_Tables_number   1
_chemical_formula_structural   Hf2Mg2Sb4PdPt3
_chemical_formula_sum   'Hf2 Mg2 Sb4 Pd1 Pt3'
_cell_volume   260.46427527
_cell_formula_units_Z   1
loop_
 _symmetry_equiv_pos_site_id
 _symmetry_equiv_pos_as_xyz
  1  'x, y, z'
loop_
 _atom_site_type_symbol
 _atom_site_label
 _atom_site_symmetry_multiplicity
 _atom_site_fract_x
 _atom_site_fract_y
 _atom_site_fract_z
 _atom_site_occupancy
  Hf  Hf0  1  0.749687  0.499975  0.374422  1
  Hf  Hf1  1  0.500312  0.250026  0.624760  1
  Mg  Mg2  1  0.999641  0.751926  0.127072  1
  Mg  Mg3  1  0.250359  0.998074  0.875504  1
  Sb  Sb4  1  0.494143  0.245676  0.118087  1
  Sb  Sb5  1  0.244492  0.998245  0.372023  1
  Sb  Sb6  1  0.005508  0.751757  0.629288  1
  Sb  Sb7  1  0.755856  0.504325  0.878266  1
  Pd  Pd8  1  0.125000  0.374999  0.738917  1
  Pt  Pt9  1  0.861162  0.138441  0.999178  1
  Pt  Pt10  1  0.625001  0.875000  0.262910  1
  Pt  Pt11  1  0.388838  0.611561  0.499578  1
