# generated using pymatgen
data_TbEr2(FeCo2)3
_symmetry_space_group_name_H-M   'P 1'
_cell_length_a   8.42296345
_cell_length_b   8.42296343
_cell_length_c   8.42296141
_cell_angle_alpha   35.09118718
_cell_angle_beta   35.09118809
_cell_angle_gamma   35.09118108
_symmetry_Int_Tables_number   1
_chemical_formula_structural   TbEr2(FeCo2)3
_chemical_formula_sum   'Tb1 Er2 Fe3 Co6'
_cell_volume   176.36372835
_cell_formula_units_Z   1
loop_
 _symmetry_equiv_pos_site_id
 _symmetry_equiv_pos_as_xyz
  1  'x, y, z'
loop_
 _atom_site_type_symbol
 _atom_site_label
 _atom_site_symmetry_multiplicity
 _atom_site_fract_x
 _atom_site_fract_y
 _atom_site_fract_z
 _atom_site_occupancy
  Tb  Tb0  1  0.000000  0.000000  0.000000  1
  Er  Er1  1  0.141111  0.141111  0.141111  1
  Er  Er2  1  0.858889  0.858889  0.858889  1
  Fe  Fe3  1  0.333764  0.333764  0.333764  1
  Fe  Fe4  1  0.666236  0.666236  0.666236  1
  Fe  Fe5  1  0.500000  0.500000  0.500000  1
  Co  Co6  1  0.416612  0.416612  0.919682  1
  Co  Co7  1  0.919682  0.416612  0.416612  1
  Co  Co8  1  0.583388  0.080318  0.583388  1
  Co  Co9  1  0.583388  0.583388  0.080318  1
  Co  Co10  1  0.416612  0.919682  0.416612  1
  Co  Co11  1  0.080318  0.583388  0.583388  1
