# generated using pymatgen
data_Ta4MnNb4NiTe8
_symmetry_space_group_name_H-M   'P 1'
_cell_length_a   4.84704900
_cell_length_b   10.92553400
_cell_length_c   19.17319300
_cell_angle_alpha   90.00000000
_cell_angle_beta   90.00000000
_cell_angle_gamma   90.00000000
_symmetry_Int_Tables_number   1
_chemical_formula_structural   Ta4MnNb4NiTe8
_chemical_formula_sum   'Ta8 Mn2 Nb8 Ni2 Te16'
_cell_volume   1015.34708652
_cell_formula_units_Z   2
loop_
 _symmetry_equiv_pos_site_id
 _symmetry_equiv_pos_as_xyz
  1  'x, y, z'
loop_
 _atom_site_type_symbol
 _atom_site_label
 _atom_site_symmetry_multiplicity
 _atom_site_fract_x
 _atom_site_fract_y
 _atom_site_fract_z
 _atom_site_occupancy
  Ta  Ta0  1  0.997073  0.688664  0.443810  1
  Ta  Ta1  1  0.997073  0.311336  0.556190  1
  Ta  Ta2  1  0.002927  0.188664  0.056190  1
  Ta  Ta3  1  0.002927  0.811336  0.943810  1
  Ta  Ta4  1  0.997594  0.401761  0.392822  1
  Ta  Ta5  1  0.997594  0.598239  0.607178  1
  Ta  Ta6  1  0.002406  0.901761  0.107178  1
  Ta  Ta7  1  0.002406  0.098239  0.892822  1
  Mn  Mn8  1  0.254304  0.500000  0.500000  1
  Mn  Mn9  1  0.745696  0.000000  0.000000  1
  Nb  Nb10  1  0.501084  0.564065  0.384293  1
  Nb  Nb11  1  0.501084  0.435935  0.615707  1
  Nb  Nb12  1  0.498916  0.064065  0.115707  1
  Nb  Nb13  1  0.498916  0.935935  0.884293  1
  Nb  Nb14  1  0.501370  0.703576  0.536318  1
  Nb  Nb15  1  0.501370  0.296424  0.463682  1
  Nb  Nb16  1  0.498630  0.203576  0.963682  1
  Nb  Nb17  1  0.498630  0.796424  0.036318  1
  Ni  Ni18  1  0.756299  0.500000  0.500000  1
  Ni  Ni19  1  0.243701  0.000000  0.000000  1
  Te  Te20  1  0.997921  0.847567  0.562315  1
  Te  Te21  1  0.997921  0.152433  0.437685  1
  Te  Te22  1  0.002079  0.347567  0.937685  1
  Te  Te23  1  0.002079  0.652433  0.062315  1
  Te  Te24  1  0.500272  0.331483  0.315972  1
  Te  Te25  1  0.500272  0.668517  0.684028  1
  Te  Te26  1  0.499728  0.831483  0.184028  1
  Te  Te27  1  0.499728  0.168517  0.815972  1
  Te  Te28  1  0.499867  0.824204  0.403792  1
  Te  Te29  1  0.499867  0.175796  0.596208  1
  Te  Te30  1  0.500133  0.324204  0.096208  1
  Te  Te31  1  0.500133  0.675796  0.903792  1
  Te  Te32  1  0.997682  0.608926  0.302066  1
  Te  Te33  1  0.997682  0.391074  0.697934  1
  Te  Te34  1  0.002318  0.108926  0.197934  1
  Te  Te35  1  0.002318  0.891074  0.802066  1
