# generated using pymatgen
data_Nd5Cd2(HgPt)2
_symmetry_space_group_name_H-M   'P 1'
_cell_length_a   3.80782000
_cell_length_b   8.19645200
_cell_length_c   18.75636500
_cell_angle_alpha   90.00000000
_cell_angle_beta   90.00000000
_cell_angle_gamma   90.00000000
_symmetry_Int_Tables_number   1
_chemical_formula_structural   Nd5Cd2(HgPt)2
_chemical_formula_sum   'Nd10 Cd4 Hg4 Pt4'
_cell_volume   585.39766533
_cell_formula_units_Z   2
loop_
 _symmetry_equiv_pos_site_id
 _symmetry_equiv_pos_as_xyz
  1  'x, y, z'
loop_
 _atom_site_type_symbol
 _atom_site_label
 _atom_site_symmetry_multiplicity
 _atom_site_fract_x
 _atom_site_fract_y
 _atom_site_fract_z
 _atom_site_occupancy
  Nd  Nd0  1  0.000000  0.110432  0.413700  1
  Nd  Nd1  1  0.000000  0.889568  0.586300  1
  Nd  Nd2  1  0.000000  0.389568  0.913700  1
  Nd  Nd3  1  0.000000  0.610432  0.086300  1
  Nd  Nd4  1  0.000000  0.238761  0.216079  1
  Nd  Nd5  1  0.000000  0.761239  0.783921  1
  Nd  Nd6  1  0.000000  0.261239  0.716079  1
  Nd  Nd7  1  0.000000  0.738761  0.283921  1
  Nd  Nd8  1  0.000000  0.000000  0.000000  1
  Nd  Nd9  1  0.000000  0.500000  0.500000  1
  Cd  Cd10  1  0.500000  0.422484  0.351356  1
  Cd  Cd11  1  0.500000  0.577516  0.648644  1
  Cd  Cd12  1  0.500000  0.077516  0.851356  1
  Cd  Cd13  1  0.500000  0.922484  0.148644  1
  Hg  Hg14  1  0.500000  0.283302  0.064719  1
  Hg  Hg15  1  0.500000  0.716698  0.935281  1
  Hg  Hg16  1  0.500000  0.216698  0.564719  1
  Hg  Hg17  1  0.500000  0.783302  0.435281  1
  Pt  Pt18  1  0.500000  0.026104  0.301683  1
  Pt  Pt19  1  0.500000  0.973896  0.698317  1
  Pt  Pt20  1  0.500000  0.473896  0.801683  1
  Pt  Pt21  1  0.500000  0.526104  0.198317  1
