# generated using pymatgen
data_Y4Sn10PdRh5
_symmetry_space_group_name_H-M   'P 1'
_cell_length_a   13.50061326
_cell_length_b   13.50061332
_cell_length_c   7.29571711
_cell_angle_alpha   90.13452663
_cell_angle_beta   89.86547333
_cell_angle_gamma   161.07501734
_symmetry_Int_Tables_number   1
_chemical_formula_structural   Y4Sn10PdRh5
_chemical_formula_sum   'Y4 Sn10 Pd1 Rh5'
_cell_volume   431.28142189
_cell_formula_units_Z   1
loop_
 _symmetry_equiv_pos_site_id
 _symmetry_equiv_pos_as_xyz
  1  'x, y, z'
loop_
 _atom_site_type_symbol
 _atom_site_label
 _atom_site_symmetry_multiplicity
 _atom_site_fract_x
 _atom_site_fract_y
 _atom_site_fract_z
 _atom_site_occupancy
  Y  Y0  1  0.477822  0.522178  0.242078  1
  Y  Y1  1  0.171567  0.828433  0.255807  1
  Y  Y2  1  0.524716  0.475284  0.739367  1
  Y  Y3  1  0.827502  0.172498  0.752916  1
  Sn  Sn4  1  0.704201  0.295799  0.547006  1
  Sn  Sn5  1  0.596740  0.403260  0.114430  1
  Sn  Sn6  1  0.047319  0.952681  0.401093  1
  Sn  Sn7  1  0.954349  0.045651  0.902192  1
  Sn  Sn8  1  0.708742  0.291258  0.976078  1
  Sn  Sn9  1  0.289925  0.710075  0.474719  1
  Sn  Sn10  1  0.293512  0.706488  0.044699  1
  Sn  Sn11  1  0.880959  0.119041  0.239748  1
  Sn  Sn12  1  0.119067  0.880933  0.729756  1
  Sn  Sn13  1  0.402992  0.597008  0.610778  1
  Pd  Pd14  1  0.393679  0.606321  0.984293  1
  Rh  Rh15  1  0.777831  0.222169  0.261039  1
  Rh  Rh16  1  0.222953  0.777047  0.761366  1
  Rh  Rh17  1  0.051138  0.948862  0.020942  1
  Rh  Rh18  1  0.605940  0.394060  0.482529  1
  Rh  Rh19  1  0.949045  0.050955  0.522964  1
