# generated using pymatgen
data_Sm2ZnCd2Ga5Ni2
_symmetry_space_group_name_H-M   'P 1'
_cell_length_a   4.20213235
_cell_length_b   6.57773400
_cell_length_c   8.23214941
_cell_angle_alpha   90.00000000
_cell_angle_beta   104.78703607
_cell_angle_gamma   90.00000000
_symmetry_Int_Tables_number   1
_chemical_formula_structural   Sm2ZnCd2Ga5Ni2
_chemical_formula_sum   'Sm2 Zn1 Cd2 Ga5 Ni2'
_cell_volume   220.00491174
_cell_formula_units_Z   1
loop_
 _symmetry_equiv_pos_site_id
 _symmetry_equiv_pos_as_xyz
  1  'x, y, z'
loop_
 _atom_site_type_symbol
 _atom_site_label
 _atom_site_symmetry_multiplicity
 _atom_site_fract_x
 _atom_site_fract_y
 _atom_site_fract_z
 _atom_site_occupancy
  Sm  Sm0  1  0.871972  0.750000  0.743943  1
  Sm  Sm1  1  0.125432  0.250000  0.250864  1
  Zn  Zn2  1  0.072997  0.750000  0.145996  1
  Cd  Cd3  1  0.500879  0.505639  0.001758  1
  Cd  Cd4  1  0.500879  0.994361  0.001758  1
  Ga  Ga5  1  0.927985  0.250000  0.855969  1
  Ga  Ga6  1  0.687640  0.552184  0.375280  1
  Ga  Ga7  1  0.310860  0.447444  0.621719  1
  Ga  Ga8  1  0.687640  0.947816  0.375280  1
  Ga  Ga9  1  0.310860  0.052556  0.621719  1
  Ni  Ni10  1  0.224207  0.750000  0.448415  1
  Ni  Ni11  1  0.778650  0.250000  0.557300  1
