# generated using pymatgen
data_YbCe(UH4)6
_symmetry_space_group_name_H-M   'P 1'
_cell_length_a   6.65492400
_cell_length_b   6.64686100
_cell_length_c   6.64686100
_cell_angle_alpha   90.00000000
_cell_angle_beta   90.00000000
_cell_angle_gamma   90.00000000
_symmetry_Int_Tables_number   1
_chemical_formula_structural   YbCe(UH4)6
_chemical_formula_sum   'Yb1 Ce1 U6 H24'
_cell_volume   294.01960774
_cell_formula_units_Z   1
loop_
 _symmetry_equiv_pos_site_id
 _symmetry_equiv_pos_as_xyz
  1  'x, y, z'
loop_
 _atom_site_type_symbol
 _atom_site_label
 _atom_site_symmetry_multiplicity
 _atom_site_fract_x
 _atom_site_fract_y
 _atom_site_fract_z
 _atom_site_occupancy
  Yb  Yb0  1  0.750000  0.000000  0.500000  1
  Ce  Ce1  1  0.250000  0.000000  0.500000  1
  U  U2  1  0.999450  0.000000  0.000000  1
  U  U3  1  0.500550  0.500000  0.500000  1
  U  U4  1  0.998514  0.500000  0.251323  1
  U  U5  1  0.998514  0.500000  0.748677  1
  U  U6  1  0.501486  0.751323  0.000000  1
  U  U7  1  0.501486  0.248677  0.000000  1
  H  H8  1  0.000966  0.159459  0.294161  1
  H  H9  1  0.499034  0.205839  0.659459  1
  H  H10  1  0.499034  0.794161  0.340541  1
  H  H11  1  0.808815  0.648410  0.500000  1
  H  H12  1  0.191126  0.649546  0.500000  1
  H  H13  1  0.345192  0.500000  0.804281  1
  H  H14  1  0.655265  0.500000  0.803971  1
  H  H15  1  0.308874  0.000000  0.149546  1
  H  H16  1  0.154808  0.304281  0.000000  1
  H  H17  1  0.844735  0.696029  0.000000  1
  H  H18  1  0.308874  0.000000  0.850454  1
  H  H19  1  0.844735  0.303971  0.000000  1
  H  H20  1  0.691185  0.000000  0.148410  1
  H  H21  1  0.691185  0.000000  0.851590  1
  H  H22  1  0.154808  0.695719  0.000000  1
  H  H23  1  0.000966  0.840541  0.705839  1
  H  H24  1  0.000966  0.159459  0.705839  1
  H  H25  1  0.000966  0.840541  0.294161  1
  H  H26  1  0.655265  0.500000  0.196029  1
  H  H27  1  0.345192  0.500000  0.195719  1
  H  H28  1  0.808815  0.351590  0.500000  1
  H  H29  1  0.191126  0.350454  0.500000  1
  H  H30  1  0.499034  0.794161  0.659459  1
  H  H31  1  0.499034  0.205839  0.340541  1
