# generated using pymatgen
data_SrNdCu18Si7Ge
_symmetry_space_group_name_H-M   'P 1'
_cell_length_a   8.16956247
_cell_length_b   8.16470931
_cell_length_c   8.18091794
_cell_angle_alpha   120.51967129
_cell_angle_beta   120.53805335
_cell_angle_gamma   89.15976269
_symmetry_Int_Tables_number   1
_chemical_formula_structural   SrNdCu18Si7Ge
_chemical_formula_sum   'Sr1 Nd1 Cu18 Si7 Ge1'
_cell_volume   382.47808080
_cell_formula_units_Z   1
loop_
 _symmetry_equiv_pos_site_id
 _symmetry_equiv_pos_as_xyz
  1  'x, y, z'
loop_
 _atom_site_type_symbol
 _atom_site_label
 _atom_site_symmetry_multiplicity
 _atom_site_fract_x
 _atom_site_fract_y
 _atom_site_fract_z
 _atom_site_occupancy
  Sr  Sr0  1  0.750055  0.749884  0.999820  1
  Nd  Nd1  1  0.250428  0.249995  0.999908  1
  Cu  Cu2  1  0.935583  0.200448  0.139255  1
  Cu  Cu3  1  0.203593  0.065176  0.267423  1
  Cu  Cu4  1  0.797393  0.932938  0.731632  1
  Cu  Cu5  1  0.430925  0.295371  0.731679  1
  Cu  Cu6  1  0.067244  0.799812  0.863517  1
  Cu  Cu7  1  0.806477  0.054308  0.494500  1
  Cu  Cu8  1  0.553764  0.306011  0.493352  1
  Cu  Cu9  1  0.192752  0.943394  0.501790  1
  Cu  Cu10  1  0.442932  0.692275  0.500826  1
  Cu  Cu11  1  0.942257  0.441976  0.739637  1
  Cu  Cu12  1  0.692393  0.192847  0.251041  1
  Cu  Cu13  1  0.065147  0.564671  0.264627  1
  Cu  Cu14  1  0.698232  0.433453  0.139004  1
  Cu  Cu15  1  0.563213  0.701680  0.267454  1
  Cu  Cu16  1  0.498019  0.998101  0.498448  1
  Cu  Cu17  1  0.000434  0.500484  0.499237  1
  Cu  Cu18  1  0.307082  0.807591  0.749412  1
  Cu  Cu19  1  0.297757  0.565249  0.863509  1
  Si  Si20  1  0.554842  0.058308  0.850329  1
  Si  Si21  1  0.059545  0.208915  0.502530  1
  Si  Si22  1  0.291248  0.440214  0.497806  1
  Si  Si23  1  0.943704  0.794796  0.504666  1
  Si  Si24  1  0.440488  0.943735  0.149665  1
  Si  Si25  1  0.206935  0.703327  0.147614  1
  Si  Si26  1  0.705690  0.556355  0.495921  1
  Ge  Ge27  1  0.801866  0.298683  0.855401  1
