# generated using pymatgen
data_Ba8TaNb3O18
_symmetry_space_group_name_H-M   'P 1'
_cell_length_a   6.17385300
_cell_length_b   6.17385402
_cell_length_c   16.75764900
_cell_angle_alpha   90.00000000
_cell_angle_beta   90.00000000
_cell_angle_gamma   119.99998919
_symmetry_Int_Tables_number   1
_chemical_formula_structural   Ba8TaNb3O18
_chemical_formula_sum   'Ba8 Ta1 Nb3 O18'
_cell_volume   553.16718563
_cell_formula_units_Z   1
loop_
 _symmetry_equiv_pos_site_id
 _symmetry_equiv_pos_as_xyz
  1  'x, y, z'
loop_
 _atom_site_type_symbol
 _atom_site_label
 _atom_site_symmetry_multiplicity
 _atom_site_fract_x
 _atom_site_fract_y
 _atom_site_fract_z
 _atom_site_occupancy
  Ba  Ba0  1  0.000000  0.000000  0.750325  1
  Ba  Ba1  1  0.000000  0.000000  0.249711  1
  Ba  Ba2  1  0.666667  0.333333  0.636203  1
  Ba  Ba3  1  0.333333  0.666667  0.135391  1
  Ba  Ba4  1  0.333333  0.666667  0.364243  1
  Ba  Ba5  1  0.666667  0.333333  0.864058  1
  Ba  Ba6  1  0.000000  0.000000  0.498963  1
  Ba  Ba7  1  0.000000  0.000000  0.999341  1
  Ta  Ta8  1  0.666667  0.333333  0.339900  1
  Nb  Nb9  1  0.333333  0.666667  0.841020  1
  Nb  Nb10  1  0.333333  0.666667  0.659086  1
  Nb  Nb11  1  0.666667  0.333333  0.158479  1
  O  O12  1  0.530028  0.957060  0.750423  1
  O  O13  1  0.042940  0.572968  0.750423  1
  O  O14  1  0.427032  0.469972  0.750423  1
  O  O15  1  0.471343  0.044690  0.250150  1
  O  O16  1  0.955310  0.426653  0.250150  1
  O  O17  1  0.573347  0.528657  0.250150  1
  O  O18  1  0.106865  0.356303  0.608376  1
  O  O19  1  0.643697  0.750562  0.608376  1
  O  O20  1  0.249438  0.893135  0.608376  1
  O  O21  1  0.892963  0.644420  0.108152  1
  O  O22  1  0.355580  0.248543  0.108152  1
  O  O23  1  0.751457  0.107037  0.108152  1
  O  O24  1  0.891690  0.641584  0.391762  1
  O  O25  1  0.358416  0.250107  0.391762  1
  O  O26  1  0.749893  0.108310  0.391762  1
  O  O27  1  0.107433  0.356476  0.892230  1
  O  O28  1  0.643524  0.750957  0.892230  1
  O  O29  1  0.249043  0.892567  0.892230  1
