# generated using pymatgen
data_Tb5NpU4O20
_symmetry_space_group_name_H-M   'P 1'
_cell_length_a   6.66332660
_cell_length_b   7.52490950
_cell_length_c   8.43625600
_cell_angle_alpha   100.98305667
_cell_angle_beta   97.66711826
_cell_angle_gamma   107.24797536
_symmetry_Int_Tables_number   1
_chemical_formula_structural   Tb5NpU4O20
_chemical_formula_sum   'Tb5 Np1 U4 O20'
_cell_volume   388.35887507
_cell_formula_units_Z   1
loop_
 _symmetry_equiv_pos_site_id
 _symmetry_equiv_pos_as_xyz
  1  'x, y, z'
loop_
 _atom_site_type_symbol
 _atom_site_label
 _atom_site_symmetry_multiplicity
 _atom_site_fract_x
 _atom_site_fract_y
 _atom_site_fract_z
 _atom_site_occupancy
  Tb  Tb0  1  0.602999  0.700880  0.700063  1
  Tb  Tb1  1  0.397001  0.299120  0.299937  1
  Tb  Tb2  1  0.200348  0.899942  0.898366  1
  Tb  Tb3  1  0.000000  0.500000  0.500000  1
  Tb  Tb4  1  0.799652  0.100058  0.101634  1
  Np  Np5  1  0.000000  0.000000  0.500000  1
  U  U6  1  0.399873  0.801194  0.300602  1
  U  U7  1  0.200229  0.400790  0.900588  1
  U  U8  1  0.799771  0.599210  0.099412  1
  U  U9  1  0.600127  0.198806  0.699398  1
  O  O10  1  0.447306  0.533459  0.141123  1
  O  O11  1  0.553565  0.987278  0.842222  1
  O  O12  1  0.259649  0.140232  0.744363  1
  O  O13  1  0.354570  0.588382  0.441660  1
  O  O14  1  0.054296  0.731735  0.338177  1
  O  O15  1  0.446435  0.012722  0.157778  1
  O  O16  1  0.151773  0.185999  0.039882  1
  O  O17  1  0.552694  0.466541  0.858877  1
  O  O18  1  0.852204  0.335355  0.946736  1
  O  O19  1  0.250921  0.611622  0.757725  1
  O  O20  1  0.954080  0.784996  0.642966  1
  O  O21  1  0.351285  0.064059  0.454915  1
  O  O22  1  0.648715  0.935941  0.545085  1
  O  O23  1  0.045920  0.215004  0.357034  1
  O  O24  1  0.749079  0.388378  0.242275  1
  O  O25  1  0.147796  0.664645  0.053264  1
  O  O26  1  0.848227  0.814001  0.960118  1
  O  O27  1  0.945704  0.268265  0.661823  1
  O  O28  1  0.645430  0.411618  0.558340  1
  O  O29  1  0.740351  0.859768  0.255637  1
