# generated using pymatgen
data_LiSm6RhBr12
_symmetry_space_group_name_H-M   'P 1'
_cell_length_a   9.42025583
_cell_length_b   9.42025659
_cell_length_c   9.42025605
_cell_angle_alpha   107.84477386
_cell_angle_beta   107.84476669
_cell_angle_gamma   107.84477480
_symmetry_Int_Tables_number   1
_chemical_formula_structural   LiSm6RhBr12
_chemical_formula_sum   'Li1 Sm6 Rh1 Br12'
_cell_volume   679.51809555
_cell_formula_units_Z   1
loop_
 _symmetry_equiv_pos_site_id
 _symmetry_equiv_pos_as_xyz
  1  'x, y, z'
loop_
 _atom_site_type_symbol
 _atom_site_label
 _atom_site_symmetry_multiplicity
 _atom_site_fract_x
 _atom_site_fract_y
 _atom_site_fract_z
 _atom_site_occupancy
  Li  Li0  1  0.500000  0.500000  0.500000  1
  Sm  Sm1  1  0.323603  0.114256  0.035284  1
  Sm  Sm2  1  0.035284  0.323603  0.114256  1
  Sm  Sm3  1  0.114256  0.035284  0.323603  1
  Sm  Sm4  1  0.676397  0.885744  0.964716  1
  Sm  Sm5  1  0.964716  0.676397  0.885744  1
  Sm  Sm6  1  0.885744  0.964716  0.676397  1
  Rh  Rh7  1  0.000000  0.000000  0.000000  1
  Br  Br8  1  0.685856  0.220567  0.072514  1
  Br  Br9  1  0.072514  0.685856  0.220567  1
  Br  Br10  1  0.220567  0.072514  0.685856  1
  Br  Br11  1  0.314144  0.779433  0.927486  1
  Br  Br12  1  0.927486  0.314144  0.779433  1
  Br  Br13  1  0.779433  0.927486  0.314144  1
  Br  Br14  1  0.460836  0.169844  0.382797  1
  Br  Br15  1  0.382797  0.460836  0.169844  1
  Br  Br16  1  0.169844  0.382797  0.460836  1
  Br  Br17  1  0.539164  0.830156  0.617203  1
  Br  Br18  1  0.617203  0.539164  0.830156  1
  Br  Br19  1  0.830156  0.617203  0.539164  1
