# generated using pymatgen
data_CeGd(Cu2P)4
_symmetry_space_group_name_H-M   'P 1'
_cell_length_a   7.27070800
_cell_length_b   7.27070753
_cell_length_c   3.80664500
_cell_angle_alpha   90.00000000
_cell_angle_beta   90.00000000
_cell_angle_gamma   89.60186534
_symmetry_Int_Tables_number   1
_chemical_formula_structural   CeGd(Cu2P)4
_chemical_formula_sum   'Ce1 Gd1 Cu8 P4'
_cell_volume   201.22654510
_cell_formula_units_Z   1
loop_
 _symmetry_equiv_pos_site_id
 _symmetry_equiv_pos_as_xyz
  1  'x, y, z'
loop_
 _atom_site_type_symbol
 _atom_site_label
 _atom_site_symmetry_multiplicity
 _atom_site_fract_x
 _atom_site_fract_y
 _atom_site_fract_z
 _atom_site_occupancy
  Ce  Ce0  1  0.500000  0.500000  0.500000  1
  Gd  Gd1  1  0.000000  0.000000  0.000000  1
  Cu  Cu2  1  0.663133  0.915504  0.500000  1
  Cu  Cu3  1  0.163258  0.584115  0.000000  1
  Cu  Cu4  1  0.415885  0.836742  0.000000  1
  Cu  Cu5  1  0.915504  0.663133  0.500000  1
  Cu  Cu6  1  0.836742  0.415885  0.000000  1
  Cu  Cu7  1  0.584115  0.163258  0.000000  1
  Cu  Cu8  1  0.084496  0.336867  0.500000  1
  Cu  Cu9  1  0.336867  0.084496  0.500000  1
  P  P10  1  0.281626  0.281626  0.000000  1
  P  P11  1  0.718374  0.718374  0.000000  1
  P  P12  1  0.785024  0.214976  0.500000  1
  P  P13  1  0.214976  0.785024  0.500000  1
