# generated using pymatgen
data_CeGdSbO2
_symmetry_space_group_name_H-M   'P 1'
_cell_length_a   6.99571886
_cell_length_b   6.99571995
_cell_length_c   6.99572100
_cell_angle_alpha   147.41836737
_cell_angle_beta   147.41838139
_cell_angle_gamma   46.74470211
_symmetry_Int_Tables_number   1
_chemical_formula_structural   CeGdSbO2
_chemical_formula_sum   'Ce1 Gd1 Sb1 O2'
_cell_volume   98.91902500
_cell_formula_units_Z   1
loop_
 _symmetry_equiv_pos_site_id
 _symmetry_equiv_pos_as_xyz
  1  'x, y, z'
loop_
 _atom_site_type_symbol
 _atom_site_label
 _atom_site_symmetry_multiplicity
 _atom_site_fract_x
 _atom_site_fract_y
 _atom_site_fract_z
 _atom_site_occupancy
  Ce  Ce0  1  0.342935  0.342935  0.000000  1
  Gd  Gd1  1  0.657214  0.657214  0.000000  1
  Sb  Sb2  1  0.998511  0.998511  0.000000  1
  O  O3  1  0.750671  0.250671  0.500000  1
  O  O4  1  0.250671  0.750671  0.500000  1
