# generated using pymatgen
data_PrNp3Ga12Ag
_symmetry_space_group_name_H-M   'P 1'
_cell_length_a   7.59260014
_cell_length_b   7.59259905
_cell_length_c   7.59377900
_cell_angle_alpha   109.47437145
_cell_angle_beta   109.47436854
_cell_angle_gamma   109.46807922
_symmetry_Int_Tables_number   1
_chemical_formula_structural   PrNp3Ga12Ag
_chemical_formula_sum   'Pr1 Np3 Ga12 Ag1'
_cell_volume   336.97690163
_cell_formula_units_Z   1
loop_
 _symmetry_equiv_pos_site_id
 _symmetry_equiv_pos_as_xyz
  1  'x, y, z'
loop_
 _atom_site_type_symbol
 _atom_site_label
 _atom_site_symmetry_multiplicity
 _atom_site_fract_x
 _atom_site_fract_y
 _atom_site_fract_z
 _atom_site_occupancy
  Pr  Pr0  1  0.000000  0.000000  0.500000  1
  Np  Np1  1  0.500000  0.500000  0.500000  1
  Np  Np2  1  0.000000  0.500000  0.000000  1
  Np  Np3  1  0.500000  0.000000  0.000000  1
  Ga  Ga4  1  0.494248  0.747125  0.247125  1
  Ga  Ga5  1  0.505752  0.252875  0.752875  1
  Ga  Ga6  1  0.252875  0.505752  0.752875  1
  Ga  Ga7  1  0.747125  0.494248  0.247125  1
  Ga  Ga8  1  0.747125  0.252875  0.500000  1
  Ga  Ga9  1  0.252875  0.747125  0.500000  1
  Ga  Ga10  1  0.000000  0.305761  0.299403  1
  Ga  Ga11  1  0.000000  0.694239  0.700597  1
  Ga  Ga12  1  0.305761  0.000000  0.299403  1
  Ga  Ga13  1  0.694239  0.000000  0.700597  1
  Ga  Ga14  1  0.305761  0.305761  0.006357  1
  Ga  Ga15  1  0.694239  0.694239  0.993643  1
  Ag  Ag16  1  0.000000  0.000000  0.000000  1
