# generated using pymatgen
data_Nd11Y(SiI3)4
_symmetry_space_group_name_H-M   'P 1'
_cell_length_a   10.79343362
_cell_length_b   10.79343434
_cell_length_c   10.80599270
_cell_angle_alpha   109.49293991
_cell_angle_beta   109.49293938
_cell_angle_gamma   109.40051165
_symmetry_Int_Tables_number   1
_chemical_formula_structural   Nd11Y(SiI3)4
_chemical_formula_sum   'Nd11 Y1 Si4 I12'
_cell_volume   969.41080439
_cell_formula_units_Z   1
loop_
 _symmetry_equiv_pos_site_id
 _symmetry_equiv_pos_as_xyz
  1  'x, y, z'
loop_
 _atom_site_type_symbol
 _atom_site_label
 _atom_site_symmetry_multiplicity
 _atom_site_fract_x
 _atom_site_fract_y
 _atom_site_fract_z
 _atom_site_occupancy
  Nd  Nd0  1  0.465402  0.482274  0.232824  1
  Nd  Nd1  1  0.750990  0.232286  0.268165  1
  Nd  Nd2  1  0.749230  0.017044  0.481849  1
  Nd  Nd3  1  0.232496  0.464565  0.482132  1
  Nd  Nd4  1  0.267714  0.749010  0.231835  1
  Nd  Nd5  1  0.035435  0.267504  0.017868  1
  Nd  Nd6  1  0.017726  0.034598  0.267176  1
  Nd  Nd7  1  0.482956  0.750770  0.018151  1
  Nd  Nd8  1  0.483035  0.232558  0.465238  1
  Nd  Nd9  1  0.017964  0.482036  0.750000  1
  Nd  Nd10  1  0.267442  0.016965  0.034762  1
  Y  Y11  1  0.229363  0.270637  0.750000  1
  Si  Si12  1  0.250257  0.249743  0.250000  1
  Si  Si13  1  0.499988  0.000012  0.250000  1
  Si  Si14  1  0.002612  0.249557  0.502432  1
  Si  Si15  1  0.250443  0.497388  0.997568  1
  I  I16  1  0.250062  0.757285  0.742100  1
  I  I17  1  0.509256  0.500920  0.758182  1
  I  I18  1  0.984566  0.741715  0.991922  1
  I  I19  1  0.742715  0.249938  0.757900  1
  I  I20  1  0.999080  0.990744  0.741818  1
  I  I21  1  0.250572  0.997737  0.512362  1
  I  I22  1  0.758285  0.515434  0.508078  1
  I  I23  1  0.502263  0.249428  0.987638  1
  I  I24  1  0.757925  0.742075  0.250000  1
  I  I25  1  0.742110  0.991915  0.983983  1
  I  I26  1  0.992030  0.507970  0.250000  1
  I  I27  1  0.508085  0.757890  0.516017  1
