# generated using pymatgen
data_Tb4Co2Sn5
_symmetry_space_group_name_H-M   'P 1'
_cell_length_a   7.27596853
_cell_length_b   7.27596847
_cell_length_c   10.68797909
_cell_angle_alpha   54.32041989
_cell_angle_beta   54.32041881
_cell_angle_gamma   35.61403354
_symmetry_Int_Tables_number   1
_chemical_formula_structural   Tb4Co2Sn5
_chemical_formula_sum   'Tb4 Co2 Sn5'
_cell_volume   260.42551102
_cell_formula_units_Z   1
loop_
 _symmetry_equiv_pos_site_id
 _symmetry_equiv_pos_as_xyz
  1  'x, y, z'
loop_
 _atom_site_type_symbol
 _atom_site_label
 _atom_site_symmetry_multiplicity
 _atom_site_fract_x
 _atom_site_fract_y
 _atom_site_fract_z
 _atom_site_occupancy
  Tb  Tb0  1  0.066579  0.066579  0.781520  1
  Tb  Tb1  1  0.933421  0.933421  0.218480  1
  Tb  Tb2  1  0.329153  0.329153  0.784656  1
  Tb  Tb3  1  0.670847  0.670847  0.215344  1
  Co  Co4  1  0.770971  0.770971  0.646827  1
  Co  Co5  1  0.229029  0.229029  0.353173  1
  Sn  Sn6  1  0.373872  0.373872  0.046859  1
  Sn  Sn7  1  0.626128  0.626128  0.953141  1
  Sn  Sn8  1  0.000000  0.000000  0.500000  1
  Sn  Sn9  1  0.349176  0.349176  0.474041  1
  Sn  Sn10  1  0.650824  0.650824  0.525959  1
