# generated using pymatgen
data_LaPr15(YSi4)4
_symmetry_space_group_name_H-M   'P 1'
_cell_length_a   7.84305063
_cell_length_b   7.84442057
_cell_length_c   15.36419130
_cell_angle_alpha   90.01393411
_cell_angle_beta   89.93889880
_cell_angle_gamma   89.95852789
_symmetry_Int_Tables_number   1
_chemical_formula_structural   LaPr15(YSi4)4
_chemical_formula_sum   'La1 Pr15 Y4 Si16'
_cell_volume   945.26857601
_cell_formula_units_Z   1
loop_
 _symmetry_equiv_pos_site_id
 _symmetry_equiv_pos_as_xyz
  1  'x, y, z'
loop_
 _atom_site_type_symbol
 _atom_site_label
 _atom_site_symmetry_multiplicity
 _atom_site_fract_x
 _atom_site_fract_y
 _atom_site_fract_z
 _atom_site_occupancy
  La  La0  1  0.376461  0.014824  0.445799  1
  Pr  Pr1  1  0.487134  0.878167  0.695658  1
  Pr  Pr2  1  0.513297  0.121756  0.194970  1
  Pr  Pr3  1  0.878639  0.486390  0.304729  1
  Pr  Pr4  1  0.121577  0.513220  0.804853  1
  Pr  Pr5  1  0.621762  0.986783  0.945211  1
  Pr  Pr6  1  0.012713  0.378916  0.555016  1
  Pr  Pr7  1  0.986719  0.621641  0.054702  1
  Pr  Pr8  1  0.125021  0.975622  0.878569  1
  Pr  Pr9  1  0.524398  0.624903  0.128502  1
  Pr  Pr10  1  0.476275  0.375319  0.628893  1
  Pr  Pr11  1  0.625113  0.524551  0.871392  1
  Pr  Pr12  1  0.375246  0.476066  0.371177  1
  Pr  Pr13  1  0.874634  0.024297  0.378332  1
  Pr  Pr14  1  0.975495  0.125003  0.121290  1
  Pr  Pr15  1  0.024232  0.874487  0.621609  1
  Y  Y16  1  0.309510  0.309394  0.000117  1
  Y  Y17  1  0.190056  0.809239  0.249856  1
  Y  Y18  1  0.809444  0.190617  0.750041  1
  Y  Y19  1  0.691179  0.689889  0.500101  1
  Si  Si20  1  0.188312  0.171885  0.708541  1
  Si  Si21  1  0.327907  0.687798  0.958773  1
  Si  Si22  1  0.672959  0.312624  0.458956  1
  Si  Si23  1  0.687885  0.327991  0.041261  1
  Si  Si24  1  0.311601  0.670840  0.541515  1
  Si  Si25  1  0.812320  0.827572  0.208678  1
  Si  Si26  1  0.171730  0.188595  0.290548  1
  Si  Si27  1  0.827909  0.812199  0.791259  1
  Si  Si28  1  0.286658  0.921073  0.063490  1
  Si  Si29  1  0.579830  0.786442  0.313109  1
  Si  Si30  1  0.420788  0.213077  0.813481  1
  Si  Si31  1  0.786672  0.579019  0.686511  1
  Si  Si32  1  0.212939  0.421015  0.186300  1
  Si  Si33  1  0.713974  0.079388  0.563779  1
  Si  Si34  1  0.921072  0.286863  0.936528  1
  Si  Si35  1  0.078540  0.712538  0.436454  1
