# generated using pymatgen
data_YPa5(Ni3Sb4)2
_symmetry_space_group_name_H-M   'P 1'
_cell_length_a   8.16559626
_cell_length_b   8.16559586
_cell_length_c   8.16559494
_cell_angle_alpha   109.50379160
_cell_angle_beta   109.40609795
_cell_angle_gamma   109.50378968
_symmetry_Int_Tables_number   1
_chemical_formula_structural   YPa5(Ni3Sb4)2
_chemical_formula_sum   'Y1 Pa5 Ni6 Sb8'
_cell_volume   419.12283010
_cell_formula_units_Z   1
loop_
 _symmetry_equiv_pos_site_id
 _symmetry_equiv_pos_as_xyz
  1  'x, y, z'
loop_
 _atom_site_type_symbol
 _atom_site_label
 _atom_site_symmetry_multiplicity
 _atom_site_fract_x
 _atom_site_fract_y
 _atom_site_fract_z
 _atom_site_occupancy
  Y  Y0  1  0.875000  0.250000  0.125000  1
  Pa  Pa1  1  0.625000  0.750000  0.375000  1
  Pa  Pa2  1  0.249439  0.124227  0.876681  1
  Pa  Pa3  1  0.752455  0.375773  0.625211  1
  Pa  Pa4  1  0.123319  0.872758  0.247545  1
  Pa  Pa5  1  0.374789  0.627242  0.750561  1
  Ni  Ni6  1  0.375000  0.250000  0.625000  1
  Ni  Ni7  1  0.125000  0.750000  0.875000  1
  Ni  Ni8  1  0.260203  0.632190  0.380753  1
  Ni  Ni9  1  0.748563  0.867810  0.128013  1
  Ni  Ni10  1  0.619247  0.379450  0.251437  1
  Ni  Ni11  1  0.871987  0.120550  0.739797  1
  Sb  Sb12  1  0.664739  0.498462  0.998688  1
  Sb  Sb13  1  0.500226  0.001538  0.666277  1
  Sb  Sb14  1  0.998191  0.663528  0.496389  1
  Sb  Sb15  1  0.832862  0.836472  0.834662  1
  Sb  Sb16  1  0.503611  0.001801  0.167138  1
  Sb  Sb17  1  0.165338  0.498199  0.001809  1
  Sb  Sb18  1  0.001312  0.166051  0.499774  1
  Sb  Sb19  1  0.333723  0.333949  0.335261  1
