# generated using pymatgen
data_Y(S8F)3
_symmetry_space_group_name_H-M   'P 1'
_cell_length_a   14.67434342
_cell_length_b   14.67434277
_cell_length_c   14.67434369
_cell_angle_alpha   118.64039309
_cell_angle_beta   118.64038846
_cell_angle_gamma   118.64038320
_symmetry_Int_Tables_number   1
_chemical_formula_structural   Y(S8F)3
_chemical_formula_sum   'Y1 S24 F3'
_cell_volume   950.87618480
_cell_formula_units_Z   1
loop_
 _symmetry_equiv_pos_site_id
 _symmetry_equiv_pos_as_xyz
  1  'x, y, z'
loop_
 _atom_site_type_symbol
 _atom_site_label
 _atom_site_symmetry_multiplicity
 _atom_site_fract_x
 _atom_site_fract_y
 _atom_site_fract_z
 _atom_site_occupancy
  Y  Y0  1  0.807907  0.807907  0.807907  1
  S  S1  1  0.801819  0.525760  0.525760  1
  S  S2  1  0.525760  0.525760  0.801819  1
  S  S3  1  0.525760  0.801819  0.525760  1
  S  S4  1  0.247041  0.380471  0.633265  1
  S  S5  1  0.347503  0.951251  0.347503  1
  S  S6  1  0.347503  0.347503  0.951251  1
  S  S7  1  0.951251  0.347503  0.347503  1
  S  S8  1  0.123262  0.739196  0.255654  1
  S  S9  1  0.255654  0.123262  0.739196  1
  S  S10  1  0.739196  0.255654  0.123262  1
  S  S11  1  0.739196  0.123262  0.255654  1
  S  S12  1  0.255654  0.739196  0.123262  1
  S  S13  1  0.123262  0.255654  0.739196  1
  S  S14  1  0.346141  0.879129  0.532989  1
  S  S15  1  0.532989  0.346141  0.879129  1
  S  S16  1  0.879129  0.532989  0.346141  1
  S  S17  1  0.879129  0.346141  0.532989  1
  S  S18  1  0.532989  0.879129  0.346141  1
  S  S19  1  0.346141  0.532989  0.879129  1
  S  S20  1  0.247041  0.633265  0.380471  1
  S  S21  1  0.380471  0.247041  0.633265  1
  S  S22  1  0.633265  0.380471  0.247041  1
  S  S23  1  0.633265  0.247041  0.380471  1
  S  S24  1  0.380471  0.633265  0.247041  1
  F  F25  1  0.898618  0.022440  0.022440  1
  F  F26  1  0.022440  0.022440  0.898618  1
  F  F27  1  0.022440  0.898618  0.022440  1
