# generated using pymatgen
data_Er3ZnSiAg3Ge
_symmetry_space_group_name_H-M   'P 1'
_cell_length_a   7.14795600
_cell_length_b   7.14795372
_cell_length_c   4.13492200
_cell_angle_alpha   90.00000000
_cell_angle_beta   90.00000000
_cell_angle_gamma   119.99999205
_symmetry_Int_Tables_number   1
_chemical_formula_structural   Er3ZnSiAg3Ge
_chemical_formula_sum   'Er3 Zn1 Si1 Ag3 Ge1'
_cell_volume   182.96229125
_cell_formula_units_Z   1
loop_
 _symmetry_equiv_pos_site_id
 _symmetry_equiv_pos_as_xyz
  1  'x, y, z'
loop_
 _atom_site_type_symbol
 _atom_site_label
 _atom_site_symmetry_multiplicity
 _atom_site_fract_x
 _atom_site_fract_y
 _atom_site_fract_z
 _atom_site_occupancy
  Er  Er0  1  0.420663  0.001896  0.500000  1
  Er  Er1  1  0.998104  0.418767  0.500000  1
  Er  Er2  1  0.581233  0.579337  0.500000  1
  Zn  Zn3  1  0.000000  0.000000  0.500000  1
  Si  Si4  1  0.666667  0.333333  0.000000  1
  Ag  Ag5  1  0.751934  0.004907  0.000000  1
  Ag  Ag6  1  0.995093  0.747027  0.000000  1
  Ag  Ag7  1  0.252973  0.248066  0.000000  1
  Ge  Ge8  1  0.333333  0.666667  0.000000  1
