# generated using pymatgen
data_La3Yb(AlPt)4
_symmetry_space_group_name_H-M   'P 1'
_cell_length_a   4.50820900
_cell_length_b   7.16461617
_cell_length_c   7.94285471
_cell_angle_alpha   90.97170008
_cell_angle_beta   90.00000000
_cell_angle_gamma   90.00000000
_symmetry_Int_Tables_number   1
_chemical_formula_structural   La3Yb(AlPt)4
_chemical_formula_sum   'La3 Yb1 Al4 Pt4'
_cell_volume   256.51403386
_cell_formula_units_Z   1
loop_
 _symmetry_equiv_pos_site_id
 _symmetry_equiv_pos_as_xyz
  1  'x, y, z'
loop_
 _atom_site_type_symbol
 _atom_site_label
 _atom_site_symmetry_multiplicity
 _atom_site_fract_x
 _atom_site_fract_y
 _atom_site_fract_z
 _atom_site_occupancy
  La  La0  1  0.250000  0.035771  0.321813  1
  La  La1  1  0.250000  0.531127  0.171356  1
  La  La2  1  0.750000  0.964584  0.679808  1
  Yb  Yb3  1  0.750000  0.467719  0.820574  1
  Al  Al4  1  0.250000  0.142524  0.935491  1
  Al  Al5  1  0.250000  0.634893  0.566010  1
  Al  Al6  1  0.750000  0.858444  0.060483  1
  Al  Al7  1  0.750000  0.364289  0.442894  1
  Pt  Pt8  1  0.250000  0.283731  0.625385  1
  Pt  Pt9  1  0.250000  0.780358  0.880911  1
  Pt  Pt10  1  0.750000  0.717938  0.377473  1
  Pt  Pt11  1  0.750000  0.218624  0.117802  1
