# generated using pymatgen
data_Er2Al9CoNi2
_symmetry_space_group_name_H-M   'P 1'
_cell_length_a   7.39884335
_cell_length_b   7.39884278
_cell_length_c   9.24958400
_cell_angle_alpha   90.00000000
_cell_angle_beta   90.00000000
_cell_angle_gamma   119.29757536
_symmetry_Int_Tables_number   1
_chemical_formula_structural   Er2Al9CoNi2
_chemical_formula_sum   'Er4 Al18 Co2 Ni4'
_cell_volume   441.58176380
_cell_formula_units_Z   2
loop_
 _symmetry_equiv_pos_site_id
 _symmetry_equiv_pos_as_xyz
  1  'x, y, z'
loop_
 _atom_site_type_symbol
 _atom_site_label
 _atom_site_symmetry_multiplicity
 _atom_site_fract_x
 _atom_site_fract_y
 _atom_site_fract_z
 _atom_site_occupancy
  Er  Er0  1  0.992840  0.670054  0.250000  1
  Er  Er1  1  0.007160  0.329946  0.750000  1
  Er  Er2  1  0.670054  0.992840  0.250000  1
  Er  Er3  1  0.329946  0.007160  0.750000  1
  Al  Al4  1  0.122268  0.122268  0.250000  1
  Al  Al5  1  0.877732  0.877732  0.750000  1
  Al  Al6  1  0.329637  0.329637  0.547415  1
  Al  Al7  1  0.670363  0.670363  0.047415  1
  Al  Al8  1  0.329637  0.329637  0.952585  1
  Al  Al9  1  0.670363  0.670363  0.452585  1
  Al  Al10  1  0.340199  0.553199  0.250000  1
  Al  Al11  1  0.659801  0.446801  0.750000  1
  Al  Al12  1  0.553199  0.340199  0.250000  1
  Al  Al13  1  0.446801  0.659801  0.750000  1
  Al  Al14  1  0.996719  0.331971  0.072807  1
  Al  Al15  1  0.003281  0.668029  0.572807  1
  Al  Al16  1  0.331971  0.996719  0.427193  1
  Al  Al17  1  0.668029  0.003281  0.927193  1
  Al  Al18  1  0.003281  0.668029  0.927193  1
  Al  Al19  1  0.996719  0.331971  0.427193  1
  Al  Al20  1  0.668029  0.003281  0.572807  1
  Al  Al21  1  0.331971  0.996719  0.072807  1
  Co  Co22  1  0.000000  0.000000  0.000000  1
  Co  Co23  1  0.000000  0.000000  0.500000  1
  Ni  Ni24  1  0.670758  0.329242  0.000000  1
  Ni  Ni25  1  0.329242  0.670758  0.500000  1
  Ni  Ni26  1  0.329242  0.670758  0.000000  1
  Ni  Ni27  1  0.670758  0.329242  0.500000  1
