# generated using pymatgen
data_Y3B6IrOsRh6
_symmetry_space_group_name_H-M   'P 1'
_cell_length_a   9.98131130
_cell_length_b   9.15960381
_cell_length_c   5.55771281
_cell_angle_alpha   81.43681154
_cell_angle_beta   65.15467384
_cell_angle_gamma   33.42051440
_symmetry_Int_Tables_number   1
_chemical_formula_structural   Y3B6IrOsRh6
_chemical_formula_sum   'Y3 B6 Ir1 Os1 Rh6'
_cell_volume   232.33670580
_cell_formula_units_Z   1
loop_
 _symmetry_equiv_pos_site_id
 _symmetry_equiv_pos_as_xyz
  1  'x, y, z'
loop_
 _atom_site_type_symbol
 _atom_site_label
 _atom_site_symmetry_multiplicity
 _atom_site_fract_x
 _atom_site_fract_y
 _atom_site_fract_z
 _atom_site_occupancy
  Y  Y0  1  0.999848  0.999848  0.000152  1
  Y  Y1  1  0.180620  0.180620  0.819380  1
  Y  Y2  1  0.819831  0.819831  0.180169  1
  B  B3  1  0.818776  0.530932  0.485872  1
  B  B4  1  0.164761  0.485521  0.532027  1
  B  B5  1  0.485521  0.164761  0.817692  1
  B  B6  1  0.669153  0.330939  0.669451  1
  B  B7  1  0.530932  0.818776  0.164420  1
  B  B8  1  0.330939  0.669153  0.330457  1
  Ir  Ir9  1  0.414387  0.414387  0.585613  1
  Os  Os10  1  0.749855  0.749855  0.750145  1
  Rh  Rh11  1  0.584940  0.584940  0.915060  1
  Rh  Rh12  1  0.085871  0.085871  0.414129  1
  Rh  Rh13  1  0.915144  0.915144  0.584856  1
  Rh  Rh14  1  0.585298  0.585298  0.414702  1
  Rh  Rh15  1  0.249854  0.249854  0.250146  1
  Rh  Rh16  1  0.414270  0.414270  0.085730  1
