# generated using pymatgen
data_Lu2P7(Ru5Rh)2
_symmetry_space_group_name_H-M   'P 1'
_cell_length_a   9.38528322
_cell_length_b   9.45294253
_cell_length_c   3.92366300
_cell_angle_alpha   90.00000000
_cell_angle_beta   90.00000000
_cell_angle_gamma   120.23586296
_symmetry_Int_Tables_number   1
_chemical_formula_structural   Lu2P7(Ru5Rh)2
_chemical_formula_sum   'Lu2 P7 Ru10 Rh2'
_cell_volume   300.74583694
_cell_formula_units_Z   1
loop_
 _symmetry_equiv_pos_site_id
 _symmetry_equiv_pos_as_xyz
  1  'x, y, z'
loop_
 _atom_site_type_symbol
 _atom_site_label
 _atom_site_symmetry_multiplicity
 _atom_site_fract_x
 _atom_site_fract_y
 _atom_site_fract_z
 _atom_site_occupancy
  Lu  Lu0  1  0.668280  0.332905  0.500000  1
  Lu  Lu1  1  0.329187  0.665000  0.000000  1
  P  P2  1  0.599944  0.715740  0.500000  1
  P  P3  1  0.000157  0.002241  0.000000  1
  P  P4  1  0.279027  0.879610  0.500000  1
  P  P5  1  0.115307  0.403357  0.500000  1
  P  P6  1  0.883539  0.576446  0.000000  1
  P  P7  1  0.424295  0.300945  0.000000  1
  P  P8  1  0.699214  0.120264  0.000000  1
  Ru  Ru9  1  0.913346  0.126309  0.500000  1
  Ru  Ru10  1  0.215659  0.088480  0.500000  1
  Ru  Ru11  1  0.875330  0.791259  0.500000  1
  Ru  Ru12  1  0.724471  0.889738  0.000000  1
  Ru  Ru13  1  0.109091  0.838825  0.000000  1
  Ru  Ru14  1  0.166239  0.274717  0.000000  1
  Ru  Ru15  1  0.432401  0.064710  0.000000  1
  Ru  Ru16  1  0.935802  0.363674  0.000000  1
  Ru  Ru17  1  0.636561  0.568948  0.000000  1
  Ru  Ru18  1  0.051772  0.609494  0.500000  1
  Rh  Rh19  1  0.549763  0.940063  0.500000  1
  Rh  Rh20  1  0.390617  0.447274  0.500000  1
