# generated using pymatgen
data_Hf2Zr3Sn2GeSb
_symmetry_space_group_name_H-M   'P 1'
_cell_length_a   8.68912143
_cell_length_b   8.69209301
_cell_length_c   5.87589900
_cell_angle_alpha   90.00000000
_cell_angle_beta   90.00000000
_cell_angle_gamma   120.01131377
_symmetry_Int_Tables_number   1
_chemical_formula_structural   Hf2Zr3Sn2GeSb
_chemical_formula_sum   'Hf4 Zr6 Sn4 Ge2 Sb2'
_cell_volume   384.28697285
_cell_formula_units_Z   2
loop_
 _symmetry_equiv_pos_site_id
 _symmetry_equiv_pos_as_xyz
  1  'x, y, z'
loop_
 _atom_site_type_symbol
 _atom_site_label
 _atom_site_symmetry_multiplicity
 _atom_site_fract_x
 _atom_site_fract_y
 _atom_site_fract_z
 _atom_site_occupancy
  Hf  Hf0  1  0.333981  0.666991  0.000000  1
  Hf  Hf1  1  0.665121  0.332560  0.500000  1
  Hf  Hf2  1  0.665121  0.332560  0.000000  1
  Hf  Hf3  1  0.333981  0.666991  0.500000  1
  Zr  Zr4  1  0.263543  0.999825  0.250000  1
  Zr  Zr5  1  0.263543  0.263719  0.750000  1
  Zr  Zr6  1  0.000601  0.737357  0.750000  1
  Zr  Zr7  1  0.000601  0.263243  0.250000  1
  Zr  Zr8  1  0.735975  0.735649  0.250000  1
  Zr  Zr9  1  0.735975  0.000326  0.750000  1
  Sn  Sn10  1  0.607547  0.999914  0.250000  1
  Sn  Sn11  1  0.607547  0.607633  0.750000  1
  Sn  Sn12  1  0.999304  0.394268  0.750000  1
  Sn  Sn13  1  0.999304  0.605035  0.250000  1
  Ge  Ge14  1  0.998926  0.999463  0.000000  1
  Ge  Ge15  1  0.998926  0.999463  0.500000  1
  Sb  Sb16  1  0.395003  0.395581  0.250000  1
  Sb  Sb17  1  0.395003  0.999421  0.750000  1
