# generated using pymatgen
data_CeYErSiPd5
_symmetry_space_group_name_H-M   'P 1'
_cell_length_a   8.28189530
_cell_length_b   8.28059581
_cell_length_c   8.28052943
_cell_angle_alpha   128.51512257
_cell_angle_beta   125.83724685
_cell_angle_gamma   77.97880903
_symmetry_Int_Tables_number   1
_chemical_formula_structural   CeYErSiPd5
_chemical_formula_sum   'Ce2 Y2 Er2 Si2 Pd10'
_cell_volume   349.09889971
_cell_formula_units_Z   2
loop_
 _symmetry_equiv_pos_site_id
 _symmetry_equiv_pos_as_xyz
  1  'x, y, z'
loop_
 _atom_site_type_symbol
 _atom_site_label
 _atom_site_symmetry_multiplicity
 _atom_site_fract_x
 _atom_site_fract_y
 _atom_site_fract_z
 _atom_site_occupancy
  Ce  Ce0  1  0.380342  0.249762  0.130568  1
  Ce  Ce1  1  0.619658  0.750238  0.869432  1
  Y  Y2  1  0.223207  0.448930  0.774286  1
  Y  Y3  1  0.776793  0.551070  0.225714  1
  Er  Er4  1  0.824546  0.050783  0.773748  1
  Er  Er5  1  0.175454  0.949217  0.226252  1
  Si  Si6  1  0.781799  0.250022  0.531778  1
  Si  Si7  1  0.218201  0.749978  0.468222  1
  Pd  Pd8  1  0.166102  0.395916  0.352549  1
  Pd  Pd9  1  0.833899  0.186446  0.229814  1
  Pd  Pd10  1  0.457041  0.102099  0.768171  1
  Pd  Pd11  1  0.542964  0.311134  0.645068  1
  Pd  Pd12  1  0.000000  0.500000  0.000000  1
  Pd  Pd13  1  0.000000  0.000000  0.500000  1
  Pd  Pd14  1  0.457036  0.688866  0.354932  1
  Pd  Pd15  1  0.542959  0.897901  0.231829  1
  Pd  Pd16  1  0.166101  0.813554  0.770186  1
  Pd  Pd17  1  0.833898  0.604084  0.647451  1
