# generated using pymatgen
data_La(BiS2)3
_symmetry_space_group_name_H-M   'P 1'
_cell_length_a   4.06488200
_cell_length_b   11.61343759
_cell_length_c   11.75010220
_cell_angle_alpha   72.67507385
_cell_angle_beta   90.00000000
_cell_angle_gamma   90.00000000
_symmetry_Int_Tables_number   1
_chemical_formula_structural   La(BiS2)3
_chemical_formula_sum   'La2 Bi6 S12'
_cell_volume   529.52450686
_cell_formula_units_Z   2
loop_
 _symmetry_equiv_pos_site_id
 _symmetry_equiv_pos_as_xyz
  1  'x, y, z'
loop_
 _atom_site_type_symbol
 _atom_site_label
 _atom_site_symmetry_multiplicity
 _atom_site_fract_x
 _atom_site_fract_y
 _atom_site_fract_z
 _atom_site_occupancy
  La  La0  1  0.750000  0.544130  0.810347  1
  La  La1  1  0.250000  0.455870  0.189653  1
  Bi  Bi2  1  0.750000  0.189095  0.017874  1
  Bi  Bi3  1  0.250000  0.810905  0.982126  1
  Bi  Bi4  1  0.750000  0.941014  0.664971  1
  Bi  Bi5  1  0.250000  0.058986  0.335029  1
  Bi  Bi6  1  0.750000  0.651609  0.406104  1
  Bi  Bi7  1  0.250000  0.348391  0.593896  1
  S  S8  1  0.750000  0.973156  0.885443  1
  S  S9  1  0.250000  0.026844  0.114557  1
  S  S10  1  0.750000  0.307835  0.749736  1
  S  S11  1  0.250000  0.692165  0.250264  1
  S  S12  1  0.750000  0.901166  0.424694  1
  S  S13  1  0.250000  0.098834  0.575306  1
  S  S14  1  0.750000  0.424233  0.390462  1
  S  S15  1  0.250000  0.575767  0.609538  1
  S  S16  1  0.750000  0.250514  0.221457  1
  S  S17  1  0.250000  0.749486  0.778543  1
  S  S18  1  0.750000  0.610580  0.037687  1
  S  S19  1  0.250000  0.389420  0.962313  1
