# generated using pymatgen
data_Tb7DyHf11Si16Mo
_symmetry_space_group_name_H-M   'P 1'
_cell_length_a   7.25864583
_cell_length_b   7.25840669
_cell_length_c   13.32089104
_cell_angle_alpha   89.95059606
_cell_angle_beta   90.06073690
_cell_angle_gamma   90.05400807
_symmetry_Int_Tables_number   1
_chemical_formula_structural   Tb7DyHf11Si16Mo
_chemical_formula_sum   'Tb7 Dy1 Hf11 Si16 Mo1'
_cell_volume   701.82620892
_cell_formula_units_Z   1
loop_
 _symmetry_equiv_pos_site_id
 _symmetry_equiv_pos_as_xyz
  1  'x, y, z'
loop_
 _atom_site_type_symbol
 _atom_site_label
 _atom_site_symmetry_multiplicity
 _atom_site_fract_x
 _atom_site_fract_y
 _atom_site_fract_z
 _atom_site_occupancy
  Tb  Tb0  1  0.004155  0.656684  0.716479  1
  Tb  Tb1  1  0.156683  0.495379  0.465451  1
  Tb  Tb2  1  0.501252  0.845550  0.034264  1
  Tb  Tb3  1  0.845557  0.501211  0.965767  1
  Tb  Tb4  1  0.495398  0.156733  0.534510  1
  Tb  Tb5  1  0.342997  0.998573  0.787444  1
  Tb  Tb6  1  0.656738  0.004201  0.283521  1
  Dy  Dy7  1  0.998732  0.343070  0.212472  1
  Hf  Hf8  1  0.825611  0.825577  0.499984  1
  Hf  Hf9  1  0.324304  0.674352  0.248993  1
  Hf  Hf10  1  0.674438  0.324409  0.750997  1
  Hf  Hf11  1  0.148554  0.996990  0.373632  1
  Hf  Hf12  1  0.853216  0.005053  0.877420  1
  Hf  Hf13  1  0.504105  0.648692  0.624669  1
  Hf  Hf14  1  0.349089  0.492976  0.877281  1
  Hf  Hf15  1  0.493002  0.349099  0.122757  1
  Hf  Hf16  1  0.648762  0.504033  0.375296  1
  Hf  Hf17  1  0.996947  0.148626  0.626315  1
  Hf  Hf18  1  0.005026  0.853297  0.122613  1
  Si  Si19  1  0.362638  0.295217  0.316225  1
  Si  Si20  1  0.636296  0.704915  0.817494  1
  Si  Si21  1  0.204980  0.863031  0.567145  1
  Si  Si22  1  0.137335  0.796455  0.933151  1
  Si  Si23  1  0.796617  0.137514  0.066971  1
  Si  Si24  1  0.863033  0.205015  0.432813  1
  Si  Si25  1  0.295169  0.362827  0.683728  1
  Si  Si26  1  0.705032  0.636176  0.182502  1
  Si  Si27  1  0.293893  0.051330  0.182907  1
  Si  Si28  1  0.704336  0.951928  0.685937  1
  Si  Si29  1  0.450772  0.795541  0.435110  1
  Si  Si30  1  0.204154  0.547061  0.064293  1
  Si  Si31  1  0.547222  0.204304  0.935804  1
  Si  Si32  1  0.795543  0.450779  0.564883  1
  Si  Si33  1  0.051218  0.294005  0.817091  1
  Si  Si34  1  0.951970  0.704131  0.314004  1
  Mo  Mo35  1  0.175229  0.175268  0.000075  1
