# generated using pymatgen
data_La2Nd2CoI5
_symmetry_space_group_name_H-M   'P 1'
_cell_length_a   9.87700181
_cell_length_b   9.87700173
_cell_length_c   9.37582401
_cell_angle_alpha   76.71845412
_cell_angle_beta   76.71845463
_cell_angle_gamma   25.50231605
_symmetry_Int_Tables_number   1
_chemical_formula_structural   La2Nd2CoI5
_chemical_formula_sum   'La2 Nd2 Co1 I5'
_cell_volume   382.72433313
_cell_formula_units_Z   1
loop_
 _symmetry_equiv_pos_site_id
 _symmetry_equiv_pos_as_xyz
  1  'x, y, z'
loop_
 _atom_site_type_symbol
 _atom_site_label
 _atom_site_symmetry_multiplicity
 _atom_site_fract_x
 _atom_site_fract_y
 _atom_site_fract_z
 _atom_site_occupancy
  La  La0  1  0.867478  0.867478  0.068422  1
  La  La1  1  0.132522  0.132522  0.931578  1
  Nd  Nd2  1  0.500782  0.500782  0.215395  1
  Nd  Nd3  1  0.499218  0.499218  0.784605  1
  Co  Co4  1  0.000000  0.000000  0.000000  1
  I  I5  1  0.673432  0.673432  0.170768  1
  I  I6  1  0.326568  0.326568  0.829232  1
  I  I7  1  0.667807  0.667807  0.659063  1
  I  I8  1  0.332193  0.332193  0.340937  1
  I  I9  1  0.000000  0.000000  0.500000  1
