# generated using pymatgen
data_LaPr3In2(BiO7)2
_symmetry_space_group_name_H-M   'P 1'
_cell_length_a   7.75456953
_cell_length_b   7.75456917
_cell_length_c   7.85665819
_cell_angle_alpha   59.63363529
_cell_angle_beta   59.63363258
_cell_angle_gamma   59.44253681
_symmetry_Int_Tables_number   1
_chemical_formula_structural   LaPr3In2(BiO7)2
_chemical_formula_sum   'La1 Pr3 In2 Bi2 O14'
_cell_volume   330.80199767
_cell_formula_units_Z   1
loop_
 _symmetry_equiv_pos_site_id
 _symmetry_equiv_pos_as_xyz
  1  'x, y, z'
loop_
 _atom_site_type_symbol
 _atom_site_label
 _atom_site_symmetry_multiplicity
 _atom_site_fract_x
 _atom_site_fract_y
 _atom_site_fract_z
 _atom_site_occupancy
  La  La0  1  0.125000  0.125000  0.125000  1
  Pr  Pr1  1  0.625000  0.125000  0.125000  1
  Pr  Pr2  1  0.125000  0.625000  0.125000  1
  Pr  Pr3  1  0.125000  0.125000  0.625000  1
  In  In4  1  0.625000  0.125000  0.625000  1
  In  In5  1  0.125000  0.625000  0.625000  1
  Bi  Bi6  1  0.625000  0.625000  0.125000  1
  Bi  Bi7  1  0.625000  0.625000  0.625000  1
  O  O8  1  0.706366  0.290365  0.281950  1
  O  O9  1  0.709404  0.709404  0.290756  1
  O  O10  1  0.290365  0.706366  0.281950  1
  O  O11  1  0.998829  0.998829  0.000637  1
  O  O12  1  0.708711  0.289746  0.720375  1
  O  O13  1  0.960254  0.541289  0.529625  1
  O  O14  1  0.289746  0.708711  0.720375  1
  O  O15  1  0.541289  0.960254  0.529625  1
  O  O16  1  0.251171  0.251171  0.249363  1
  O  O17  1  0.959635  0.543634  0.968050  1
  O  O18  1  0.540596  0.540596  0.959244  1
  O  O19  1  0.969170  0.969170  0.532119  1
  O  O20  1  0.543634  0.959635  0.968050  1
  O  O21  1  0.280830  0.280830  0.717881  1
