# generated using pymatgen
data_Eu4Al18NiIr5
_symmetry_space_group_name_H-M   'P 1'
_cell_length_a   7.59197121
_cell_length_b   7.59197228
_cell_length_c   9.63241087
_cell_angle_alpha   90.12352451
_cell_angle_beta   90.12350958
_cell_angle_gamma   119.46987089
_symmetry_Int_Tables_number   1
_chemical_formula_structural   Eu4Al18NiIr5
_chemical_formula_sum   'Eu4 Al18 Ni1 Ir5'
_cell_volume   483.35486835
_cell_formula_units_Z   1
loop_
 _symmetry_equiv_pos_site_id
 _symmetry_equiv_pos_as_xyz
  1  'x, y, z'
loop_
 _atom_site_type_symbol
 _atom_site_label
 _atom_site_symmetry_multiplicity
 _atom_site_fract_x
 _atom_site_fract_y
 _atom_site_fract_z
 _atom_site_occupancy
  Eu  Eu0  1  0.994727  0.669150  0.249786  1
  Eu  Eu1  1  0.005273  0.330850  0.750214  1
  Eu  Eu2  1  0.669150  0.994727  0.249786  1
  Eu  Eu3  1  0.330850  0.005273  0.750214  1
  Al  Al4  1  0.127774  0.127774  0.247533  1
  Al  Al5  1  0.872226  0.872226  0.752467  1
  Al  Al6  1  0.001692  0.332802  0.071546  1
  Al  Al7  1  0.998308  0.667198  0.928454  1
  Al  Al8  1  0.998073  0.665562  0.571638  1
  Al  Al9  1  0.334438  0.001927  0.428362  1
  Al  Al10  1  0.001927  0.334438  0.428362  1
  Al  Al11  1  0.665562  0.998073  0.571638  1
  Al  Al12  1  0.667198  0.998308  0.928454  1
  Al  Al13  1  0.332802  0.001692  0.071546  1
  Al  Al14  1  0.334211  0.334211  0.547356  1
  Al  Al15  1  0.665789  0.665789  0.452644  1
  Al  Al16  1  0.667670  0.667670  0.045938  1
  Al  Al17  1  0.332330  0.332330  0.954062  1
  Al  Al18  1  0.337816  0.545472  0.249361  1
  Al  Al19  1  0.662184  0.454528  0.750639  1
  Al  Al20  1  0.545472  0.337816  0.249361  1
  Al  Al21  1  0.454528  0.662184  0.750639  1
  Ni  Ni22  1  0.000000  0.000000  0.000000  1
  Ir  Ir23  1  0.670894  0.329106  0.000000  1
  Ir  Ir24  1  0.329106  0.670894  0.000000  1
  Ir  Ir25  1  0.329414  0.670586  0.500000  1
  Ir  Ir26  1  0.670586  0.329414  0.500000  1
  Ir  Ir27  1  0.000000  0.000000  0.500000  1
