# generated using pymatgen
data_La10(SeO8)3
_symmetry_space_group_name_H-M   'P 1'
_cell_length_a   12.35150551
_cell_length_b   12.35150600
_cell_length_c   8.63681600
_cell_angle_alpha   82.99405479
_cell_angle_beta   82.99405452
_cell_angle_gamma   27.09000533
_symmetry_Int_Tables_number   1
_chemical_formula_structural   La10(SeO8)3
_chemical_formula_sum   'La10 Se3 O24'
_cell_volume   595.29380502
_cell_formula_units_Z   1
loop_
 _symmetry_equiv_pos_site_id
 _symmetry_equiv_pos_as_xyz
  1  'x, y, z'
loop_
 _atom_site_type_symbol
 _atom_site_label
 _atom_site_symmetry_multiplicity
 _atom_site_fract_x
 _atom_site_fract_y
 _atom_site_fract_z
 _atom_site_occupancy
  La  La0  1  0.453555  0.469329  0.320721  1
  La  La1  1  0.640032  0.746713  0.465275  1
  La  La2  1  0.530671  0.546445  0.679279  1
  La  La3  1  0.210279  0.262818  0.174732  1
  La  La4  1  0.070757  0.080289  0.398445  1
  La  La5  1  0.253287  0.359968  0.534725  1
  La  La6  1  0.124376  0.174981  0.746961  1
  La  La7  1  0.919711  0.929243  0.601555  1
  La  La8  1  0.825019  0.875624  0.253039  1
  La  La9  1  0.737182  0.789721  0.825268  1
  Se  Se10  1  0.320419  0.423848  0.933754  1
  Se  Se11  1  0.985473  0.014527  0.000000  1
  Se  Se12  1  0.576152  0.679581  0.066246  1
  O  O13  1  0.954936  0.714378  0.686807  1
  O  O14  1  0.397981  0.941272  0.988248  1
  O  O15  1  0.285622  0.045064  0.313193  1
  O  O16  1  0.199849  0.903234  0.907704  1
  O  O17  1  0.731012  0.268988  0.500000  1
  O  O18  1  0.985690  0.553182  0.343284  1
  O  O19  1  0.242142  0.757858  0.500000  1
  O  O20  1  0.847427  0.197903  0.141607  1
  O  O21  1  0.706847  0.512047  0.914758  1
  O  O22  1  0.487953  0.293153  0.085242  1
  O  O23  1  0.443326  0.211122  0.847495  1
  O  O24  1  0.297951  0.553747  0.803073  1
  O  O25  1  0.616601  0.156853  0.433743  1
  O  O26  1  0.788878  0.556674  0.152505  1
  O  O27  1  0.446253  0.702049  0.196927  1
  O  O28  1  0.843147  0.383399  0.566257  1
  O  O29  1  0.096766  0.800151  0.092296  1
  O  O30  1  0.346201  0.873307  0.597211  1
  O  O31  1  0.944825  0.500074  0.682473  1
  O  O32  1  0.126693  0.653799  0.402789  1
  O  O33  1  0.499926  0.055175  0.317527  1
  O  O34  1  0.802097  0.152573  0.858393  1
  O  O35  1  0.058728  0.602019  0.011752  1
  O  O36  1  0.446818  0.014310  0.656716  1
