# generated using pymatgen
data_TbPr8HoIr4
_symmetry_space_group_name_H-M   'P 1'
_cell_length_a   6.70047918
_cell_length_b   7.29813535
_cell_length_c   8.98043536
_cell_angle_alpha   96.35561479
_cell_angle_beta   111.90444642
_cell_angle_gamma   89.99999772
_symmetry_Int_Tables_number   1
_chemical_formula_structural   TbPr8HoIr4
_chemical_formula_sum   'Tb1 Pr8 Ho1 Ir4'
_cell_volume   404.53820754
_cell_formula_units_Z   1
loop_
 _symmetry_equiv_pos_site_id
 _symmetry_equiv_pos_as_xyz
  1  'x, y, z'
loop_
 _atom_site_type_symbol
 _atom_site_label
 _atom_site_symmetry_multiplicity
 _atom_site_fract_x
 _atom_site_fract_y
 _atom_site_fract_z
 _atom_site_occupancy
  Tb  Tb0  1  0.563197  0.250000  0.000000  1
  Pr  Pr1  1  0.976176  0.922008  0.181469  1
  Pr  Pr2  1  0.794706  0.577992  0.818531  1
  Pr  Pr3  1  0.024022  0.077502  0.818200  1
  Pr  Pr4  1  0.205823  0.422498  0.181800  1
  Pr  Pr5  1  0.646635  0.813241  0.431405  1
  Pr  Pr6  1  0.215230  0.686759  0.568595  1
  Pr  Pr7  1  0.352659  0.186540  0.568026  1
  Pr  Pr8  1  0.784633  0.313460  0.431974  1
  Ho  Ho9  1  0.437500  0.750000  0.000000  1
  Ir  Ir10  1  0.808949  0.571139  0.210479  1
  Ir  Ir11  1  0.598469  0.928861  0.789521  1
  Ir  Ir12  1  0.190834  0.430050  0.789671  1
  Ir  Ir13  1  0.401165  0.069950  0.210329  1
