# generated using pymatgen
data_Tb12AlIn(CoTc)2
_symmetry_space_group_name_H-M   'P 1'
_cell_length_a   8.43996417
_cell_length_b   8.43996343
_cell_length_c   8.43996413
_cell_angle_alpha   112.64917760
_cell_angle_beta   111.68205867
_cell_angle_gamma   104.20882347
_symmetry_Int_Tables_number   1
_chemical_formula_structural   Tb12AlIn(CoTc)2
_chemical_formula_sum   'Tb12 Al1 In1 Co2 Tc2'
_cell_volume   459.87866026
_cell_formula_units_Z   1
loop_
 _symmetry_equiv_pos_site_id
 _symmetry_equiv_pos_as_xyz
  1  'x, y, z'
loop_
 _atom_site_type_symbol
 _atom_site_label
 _atom_site_symmetry_multiplicity
 _atom_site_fract_x
 _atom_site_fract_y
 _atom_site_fract_z
 _atom_site_occupancy
  Tb  Tb0  1  0.436356  0.242343  0.194013  1
  Tb  Tb1  1  0.563644  0.757657  0.805987  1
  Tb  Tb2  1  0.048329  0.242343  0.805987  1
  Tb  Tb3  1  0.951671  0.757657  0.194013  1
  Tb  Tb4  1  0.182233  0.282693  0.464927  1
  Tb  Tb5  1  0.817767  0.717307  0.535073  1
  Tb  Tb6  1  0.182233  0.717307  0.899541  1
  Tb  Tb7  1  0.817767  0.282693  0.100459  1
  Tb  Tb8  1  0.325124  0.643359  0.318235  1
  Tb  Tb9  1  0.674876  0.356641  0.681765  1
  Tb  Tb10  1  0.325124  0.006889  0.681765  1
  Tb  Tb11  1  0.674876  0.993111  0.318235  1
  Al  Al12  1  0.000000  0.000000  0.000000  1
  In  In13  1  0.500000  0.500000  0.000000  1
  Co  Co14  1  0.109910  0.609910  0.500000  1
  Co  Co15  1  0.890090  0.390090  0.500000  1
  Tc  Tc16  1  0.315741  0.000000  0.315741  1
  Tc  Tc17  1  0.684259  0.000000  0.684259  1
