# generated using pymatgen
data_CeSmTh(SnRh)3
_symmetry_space_group_name_H-M   'P 1'
_cell_length_a   7.57825443
_cell_length_b   7.49540404
_cell_length_c   4.06163400
_cell_angle_alpha   90.00000000
_cell_angle_beta   90.00000000
_cell_angle_gamma   119.41717473
_symmetry_Int_Tables_number   1
_chemical_formula_structural   CeSmTh(SnRh)3
_chemical_formula_sum   'Ce1 Sm1 Th1 Sn3 Rh3'
_cell_volume   200.96313103
_cell_formula_units_Z   1
loop_
 _symmetry_equiv_pos_site_id
 _symmetry_equiv_pos_as_xyz
  1  'x, y, z'
loop_
 _atom_site_type_symbol
 _atom_site_label
 _atom_site_symmetry_multiplicity
 _atom_site_fract_x
 _atom_site_fract_y
 _atom_site_fract_z
 _atom_site_occupancy
  Ce  Ce0  1  0.586431  0.999603  0.500000  1
  Sm  Sm1  1  0.999009  0.590134  0.500000  1
  Th  Th2  1  0.414119  0.414512  0.500000  1
  Sn  Sn3  1  0.756650  0.753159  0.000000  1
  Sn  Sn4  1  0.248838  0.990491  0.000000  1
  Sn  Sn5  1  0.994522  0.255848  0.000000  1
  Rh  Rh6  1  0.649218  0.322254  0.000000  1
  Rh  Rh7  1  0.345082  0.663703  0.000000  1
  Rh  Rh8  1  0.006131  0.010297  0.500000  1
