# generated using pymatgen
data_Dy3HoTmTa3(P3Ir4)4
_symmetry_space_group_name_H-M   'P 1'
_cell_length_a   12.76241300
_cell_length_b   12.76241336
_cell_length_c   3.99026200
_cell_angle_alpha   90.00000000
_cell_angle_beta   90.00000000
_cell_angle_gamma   120.00000166
_symmetry_Int_Tables_number   1
_chemical_formula_structural   Dy3HoTmTa3(P3Ir4)4
_chemical_formula_sum   'Dy3 Ho1 Tm1 Ta3 P12 Ir16'
_cell_volume   562.85643833
_cell_formula_units_Z   1
loop_
 _symmetry_equiv_pos_site_id
 _symmetry_equiv_pos_as_xyz
  1  'x, y, z'
loop_
 _atom_site_type_symbol
 _atom_site_label
 _atom_site_symmetry_multiplicity
 _atom_site_fract_x
 _atom_site_fract_y
 _atom_site_fract_z
 _atom_site_occupancy
  Dy  Dy0  1  0.999992  0.813800  0.000000  1
  Dy  Dy1  1  0.186200  0.186192  0.000000  1
  Dy  Dy2  1  0.813808  0.000008  0.000000  1
  Ho  Ho3  1  0.666667  0.333333  0.500000  1
  Tm  Tm4  1  0.333333  0.666667  0.500000  1
  Ta  Ta5  1  0.999996  0.453020  0.500000  1
  Ta  Ta6  1  0.546980  0.546977  0.500000  1
  Ta  Ta7  1  0.453023  0.000004  0.500000  1
  P  P8  1  0.999944  0.643103  0.500000  1
  P  P9  1  0.356897  0.356841  0.500000  1
  P  P10  1  0.643159  0.000056  0.500000  1
  P  P11  1  0.516947  0.684756  0.000000  1
  P  P12  1  0.315244  0.832190  0.000000  1
  P  P13  1  0.167810  0.483053  0.000000  1
  P  P14  1  0.482976  0.167726  0.000000  1
  P  P15  1  0.684750  0.517024  0.000000  1
  P  P16  1  0.832274  0.315250  0.000000  1
  P  P17  1  0.000023  0.176270  0.500000  1
  P  P18  1  0.823730  0.823753  0.500000  1
  P  P19  1  0.176247  0.999977  0.500000  1
  Ir  Ir20  1  0.506139  0.862792  0.000000  1
  Ir  Ir21  1  0.137208  0.643349  0.000000  1
  Ir  Ir22  1  0.356651  0.493861  0.000000  1
  Ir  Ir23  1  0.493191  0.356723  0.000000  1
  Ir  Ir24  1  0.863534  0.506809  0.000000  1
  Ir  Ir25  1  0.643277  0.136466  0.000000  1
  Ir  Ir26  1  0.000027  0.283813  0.000000  1
  Ir  Ir27  1  0.716187  0.716214  0.000000  1
  Ir  Ir28  1  0.283786  0.999973  0.000000  1
  Ir  Ir29  1  0.626671  0.804495  0.500000  1
  Ir  Ir30  1  0.195505  0.822177  0.500000  1
  Ir  Ir31  1  0.177823  0.373329  0.500000  1
  Ir  Ir32  1  0.373158  0.177687  0.500000  1
  Ir  Ir33  1  0.804529  0.626842  0.500000  1
  Ir  Ir34  1  0.822313  0.195471  0.500000  1
  Ir  Ir35  1  0.000000  0.000000  0.500000  1
