# generated using pymatgen
data_Dy4ReB12Ru
_symmetry_space_group_name_H-M   'P 1'
_cell_length_a   3.67488700
_cell_length_b   9.16245796
_cell_length_c   11.54725442
_cell_angle_alpha   90.22062388
_cell_angle_beta   90.00000000
_cell_angle_gamma   90.00000000
_symmetry_Int_Tables_number   1
_chemical_formula_structural   Dy4ReB12Ru
_chemical_formula_sum   'Dy8 Re2 B24 Ru2'
_cell_volume   388.80469423
_cell_formula_units_Z   2
loop_
 _symmetry_equiv_pos_site_id
 _symmetry_equiv_pos_as_xyz
  1  'x, y, z'
loop_
 _atom_site_type_symbol
 _atom_site_label
 _atom_site_symmetry_multiplicity
 _atom_site_fract_x
 _atom_site_fract_y
 _atom_site_fract_z
 _atom_site_occupancy
  Dy  Dy0  1  0.000000  0.321541  0.412516  1
  Dy  Dy1  1  0.000000  0.678459  0.587484  1
  Dy  Dy2  1  0.000000  0.825054  0.084603  1
  Dy  Dy3  1  0.000000  0.174946  0.915397  1
  Dy  Dy4  1  0.000000  0.942992  0.370332  1
  Dy  Dy5  1  0.000000  0.057008  0.629668  1
  Dy  Dy6  1  0.000000  0.443081  0.129497  1
  Dy  Dy7  1  0.000000  0.556919  0.870503  1
  Re  Re8  1  0.000000  0.138785  0.179540  1
  Re  Re9  1  0.000000  0.861215  0.820460  1
  B  B10  1  0.500000  0.554099  0.432917  1
  B  B11  1  0.500000  0.445901  0.567083  1
  B  B12  1  0.500000  0.053413  0.066827  1
  B  B13  1  0.500000  0.946587  0.933173  1
  B  B14  1  0.500000  0.748586  0.418864  1
  B  B15  1  0.500000  0.251414  0.581136  1
  B  B16  1  0.500000  0.248956  0.080989  1
  B  B17  1  0.500000  0.751044  0.919011  1
  B  B18  1  0.500000  0.790791  0.266044  1
  B  B19  1  0.500000  0.209209  0.733956  1
  B  B20  1  0.500000  0.291878  0.234576  1
  B  B21  1  0.500000  0.708122  0.765424  1
  B  B22  1  0.500000  0.631440  0.186290  1
  B  B23  1  0.500000  0.368560  0.813710  1
  B  B24  1  0.500000  0.131791  0.314620  1
  B  B25  1  0.500000  0.868209  0.685380  1
  B  B26  1  0.500000  0.983382  0.212227  1
  B  B27  1  0.500000  0.016618  0.787773  1
  B  B28  1  0.500000  0.483959  0.288255  1
  B  B29  1  0.500000  0.516041  0.711745  1
  B  B30  1  0.500000  0.603502  0.028825  1
  B  B31  1  0.500000  0.396498  0.971175  1
  B  B32  1  0.500000  0.104247  0.471250  1
  B  B33  1  0.500000  0.895753  0.528750  1
  Ru  Ru34  1  0.000000  0.638104  0.321675  1
  Ru  Ru35  1  0.000000  0.361896  0.678325  1
