# generated using pymatgen
data_NaHo5(Si3Pt2)4
_symmetry_space_group_name_H-M   'P 1'
_cell_length_a   4.27011700
_cell_length_b   8.51930258
_cell_length_c   12.81976440
_cell_angle_alpha   80.00726302
_cell_angle_beta   90.00000000
_cell_angle_gamma   90.00000000
_symmetry_Int_Tables_number   1
_chemical_formula_structural   NaHo5(Si3Pt2)4
_chemical_formula_sum   'Na1 Ho5 Si12 Pt8'
_cell_volume   459.28792208
_cell_formula_units_Z   1
loop_
 _symmetry_equiv_pos_site_id
 _symmetry_equiv_pos_as_xyz
  1  'x, y, z'
loop_
 _atom_site_type_symbol
 _atom_site_label
 _atom_site_symmetry_multiplicity
 _atom_site_fract_x
 _atom_site_fract_y
 _atom_site_fract_z
 _atom_site_occupancy
  Na  Na0  1  0.250000  0.767647  0.434811  1
  Ho  Ho1  1  0.250000  0.586030  0.185948  1
  Ho  Ho2  1  0.750000  0.234342  0.559417  1
  Ho  Ho3  1  0.750000  0.413625  0.813436  1
  Ho  Ho4  1  0.750000  0.928708  0.815319  1
  Ho  Ho5  1  0.250000  0.071269  0.185480  1
  Si  Si6  1  0.750000  0.589923  0.567934  1
  Si  Si7  1  0.750000  0.127915  0.004827  1
  Si  Si8  1  0.750000  0.869968  0.572034  1
  Si  Si9  1  0.250000  0.697064  0.711903  1
  Si  Si10  1  0.750000  0.303559  0.288567  1
  Si  Si11  1  0.750000  0.807109  0.277354  1
  Si  Si12  1  0.250000  0.872127  0.994676  1
  Si  Si13  1  0.250000  0.192591  0.722757  1
  Si  Si14  1  0.250000  0.378961  0.003444  1
  Si  Si15  1  0.250000  0.122776  0.429718  1
  Si  Si16  1  0.750000  0.620450  0.998443  1
  Si  Si17  1  0.250000  0.416586  0.432474  1
  Pt  Pt18  1  0.750000  0.350333  0.101521  1
  Pt  Pt19  1  0.250000  0.970236  0.623765  1
  Pt  Pt20  1  0.750000  0.849521  0.087500  1
  Pt  Pt21  1  0.750000  0.028961  0.375793  1
  Pt  Pt22  1  0.250000  0.647993  0.900117  1
  Pt  Pt23  1  0.250000  0.150988  0.912356  1
  Pt  Pt24  1  0.750000  0.533529  0.375302  1
  Pt  Pt25  1  0.250000  0.467790  0.625103  1
