# generated using pymatgen
data_YHo4In3HgIrPd
_symmetry_space_group_name_H-M   'P 1'
_cell_length_a   3.62116400
_cell_length_b   8.12165171
_cell_length_c   18.24648700
_cell_angle_alpha   90.14132686
_cell_angle_beta   90.00000000
_cell_angle_gamma   90.00000000
_symmetry_Int_Tables_number   1
_chemical_formula_structural   YHo4In3HgIrPd
_chemical_formula_sum   'Y2 Ho8 In6 Hg2 Ir2 Pd2'
_cell_volume   536.62449905
_cell_formula_units_Z   2
loop_
 _symmetry_equiv_pos_site_id
 _symmetry_equiv_pos_as_xyz
  1  'x, y, z'
loop_
 _atom_site_type_symbol
 _atom_site_label
 _atom_site_symmetry_multiplicity
 _atom_site_fract_x
 _atom_site_fract_y
 _atom_site_fract_z
 _atom_site_occupancy
  Y  Y0  1  0.000000  0.500000  0.500000  1
  Y  Y1  1  0.000000  0.000000  0.000000  1
  Ho  Ho2  1  0.000000  0.728960  0.277765  1
  Ho  Ho3  1  0.000000  0.271040  0.722235  1
  Ho  Ho4  1  0.000000  0.745827  0.782390  1
  Ho  Ho5  1  0.000000  0.254173  0.217610  1
  Ho  Ho6  1  0.000000  0.608619  0.087175  1
  Ho  Ho7  1  0.000000  0.391381  0.912825  1
  Ho  Ho8  1  0.000000  0.883896  0.585346  1
  Ho  Ho9  1  0.000000  0.116104  0.414654  1
  In  In10  1  0.500000  0.791797  0.432178  1
  In  In11  1  0.500000  0.208203  0.567822  1
  In  In12  1  0.500000  0.577624  0.648775  1
  In  In13  1  0.500000  0.422376  0.351225  1
  In  In14  1  0.500000  0.923402  0.149896  1
  In  In15  1  0.500000  0.076598  0.850104  1
  Hg  Hg16  1  0.500000  0.713480  0.934168  1
  Hg  Hg17  1  0.500000  0.286520  0.065832  1
  Ir  Ir18  1  0.500000  0.523923  0.197461  1
  Ir  Ir19  1  0.500000  0.476077  0.802539  1
  Pd  Pd20  1  0.500000  0.979056  0.696020  1
  Pd  Pd21  1  0.500000  0.020944  0.303980  1
