# generated using pymatgen
data_Li4Ca2TbYSi8
_symmetry_space_group_name_H-M   'P 1'
_cell_length_a   3.79298400
_cell_length_b   7.79502961
_cell_length_c   10.43202714
_cell_angle_alpha   89.41272301
_cell_angle_beta   90.00000000
_cell_angle_gamma   90.00000000
_symmetry_Int_Tables_number   1
_chemical_formula_structural   Li4Ca2TbYSi8
_chemical_formula_sum   'Li4 Ca2 Tb1 Y1 Si8'
_cell_volume   308.42152074
_cell_formula_units_Z   1
loop_
 _symmetry_equiv_pos_site_id
 _symmetry_equiv_pos_as_xyz
  1  'x, y, z'
loop_
 _atom_site_type_symbol
 _atom_site_label
 _atom_site_symmetry_multiplicity
 _atom_site_fract_x
 _atom_site_fract_y
 _atom_site_fract_z
 _atom_site_occupancy
  Li  Li0  1  0.250000  0.997793  0.389336  1
  Li  Li1  1  0.750000  0.000903  0.609540  1
  Li  Li2  1  0.250000  0.493292  0.109783  1
  Li  Li3  1  0.750000  0.509572  0.889676  1
  Ca  Ca4  1  0.250000  0.635484  0.635009  1
  Ca  Ca5  1  0.750000  0.362123  0.365757  1
  Tb  Tb6  1  0.250000  0.130984  0.865011  1
  Y  Y7  1  0.750000  0.869670  0.135379  1
  Si  Si8  1  0.750000  0.263979  0.062966  1
  Si  Si9  1  0.250000  0.738310  0.936850  1
  Si  Si10  1  0.750000  0.771720  0.427359  1
  Si  Si11  1  0.250000  0.226782  0.573252  1
  Si  Si12  1  0.750000  0.842931  0.826063  1
  Si  Si13  1  0.250000  0.158336  0.173379  1
  Si  Si14  1  0.750000  0.331199  0.683188  1
  Si  Si15  1  0.250000  0.666921  0.317450  1
