# generated using pymatgen
data_Ho12InCo4Rh
_symmetry_space_group_name_H-M   'P 1'
_cell_length_a   8.26150272
_cell_length_b   8.26150272
_cell_length_c   8.26150300
_cell_angle_alpha   110.89671346
_cell_angle_beta   110.78858932
_cell_angle_gamma   106.76187494
_symmetry_Int_Tables_number   1
_chemical_formula_structural   Ho12InCo4Rh
_chemical_formula_sum   'Ho12 In1 Co4 Rh1'
_cell_volume   433.34152299
_cell_formula_units_Z   1
loop_
 _symmetry_equiv_pos_site_id
 _symmetry_equiv_pos_as_xyz
  1  'x, y, z'
loop_
 _atom_site_type_symbol
 _atom_site_label
 _atom_site_symmetry_multiplicity
 _atom_site_fract_x
 _atom_site_fract_y
 _atom_site_fract_z
 _atom_site_occupancy
  Ho  Ho0  1  0.314456  0.619766  0.305309  1
  Ho  Ho1  1  0.685544  0.380234  0.694691  1
  Ho  Ho2  1  0.314456  0.009146  0.694691  1
  Ho  Ho3  1  0.685544  0.990854  0.305309  1
  Ho  Ho4  1  0.185399  0.289247  0.474646  1
  Ho  Ho5  1  0.814601  0.710753  0.525354  1
  Ho  Ho6  1  0.185399  0.710753  0.896153  1
  Ho  Ho7  1  0.814601  0.289247  0.103847  1
  Ho  Ho8  1  0.409915  0.215153  0.194761  1
  Ho  Ho9  1  0.590085  0.784847  0.805239  1
  Ho  Ho10  1  0.020392  0.215153  0.805239  1
  Ho  Ho11  1  0.979608  0.784847  0.194761  1
  In  In12  1  0.500000  0.500000  0.000000  1
  Co  Co13  1  0.111998  0.611998  0.500000  1
  Co  Co14  1  0.888002  0.388002  0.500000  1
  Co  Co15  1  0.378516  0.000000  0.378516  1
  Co  Co16  1  0.621484  0.000000  0.621484  1
  Rh  Rh17  1  0.000000  0.000000  0.000000  1
