# generated using pymatgen
data_La4HgOs
_symmetry_space_group_name_H-M   'P 1'
_cell_length_a   10.06501726
_cell_length_b   10.06501837
_cell_length_c   10.06501900
_cell_angle_alpha   60.00000779
_cell_angle_beta   60.00000414
_cell_angle_gamma   60.00000831
_symmetry_Int_Tables_number   1
_chemical_formula_structural   La4HgOs
_chemical_formula_sum   'La16 Hg4 Os4'
_cell_volume   720.98920694
_cell_formula_units_Z   4
loop_
 _symmetry_equiv_pos_site_id
 _symmetry_equiv_pos_as_xyz
  1  'x, y, z'
loop_
 _atom_site_type_symbol
 _atom_site_label
 _atom_site_symmetry_multiplicity
 _atom_site_fract_x
 _atom_site_fract_y
 _atom_site_fract_z
 _atom_site_occupancy
  La  La0  1  0.596724  0.596724  0.596724  1
  La  La1  1  0.596724  0.596724  0.209828  1
  La  La2  1  0.596724  0.209828  0.596724  1
  La  La3  1  0.209828  0.596724  0.596724  1
  La  La4  1  0.060248  0.439752  0.439752  1
  La  La5  1  0.439752  0.060248  0.060248  1
  La  La6  1  0.439752  0.060248  0.439752  1
  La  La7  1  0.060248  0.439752  0.060248  1
  La  La8  1  0.439752  0.439752  0.060248  1
  La  La9  1  0.060248  0.060248  0.439752  1
  La  La10  1  0.192393  0.807607  0.807607  1
  La  La11  1  0.807607  0.192393  0.192393  1
  La  La12  1  0.807607  0.192393  0.807607  1
  La  La13  1  0.192393  0.807607  0.192393  1
  La  La14  1  0.807607  0.807607  0.192393  1
  La  La15  1  0.192393  0.192393  0.807607  1
  Hg  Hg16  1  0.832735  0.832735  0.832735  1
  Hg  Hg17  1  0.832735  0.832735  0.501793  1
  Hg  Hg18  1  0.832735  0.501793  0.832735  1
  Hg  Hg19  1  0.501793  0.832735  0.832735  1
  Os  Os20  1  0.387680  0.387680  0.387680  1
  Os  Os21  1  0.387680  0.387680  0.836960  1
  Os  Os22  1  0.387680  0.836960  0.387680  1
  Os  Os23  1  0.836960  0.387680  0.387680  1
