# generated using pymatgen
data_Y5Mg(P2Ru3)6
_symmetry_space_group_name_H-M   'P 1'
_cell_length_a   12.65030380
_cell_length_b   12.49467478
_cell_length_c   3.98237300
_cell_angle_alpha   90.00000000
_cell_angle_beta   90.00000000
_cell_angle_gamma   119.59386552
_symmetry_Int_Tables_number   1
_chemical_formula_structural   Y5Mg(P2Ru3)6
_chemical_formula_sum   'Y5 Mg1 P12 Ru18'
_cell_volume   547.34519785
_cell_formula_units_Z   1
loop_
 _symmetry_equiv_pos_site_id
 _symmetry_equiv_pos_as_xyz
  1  'x, y, z'
loop_
 _atom_site_type_symbol
 _atom_site_label
 _atom_site_symmetry_multiplicity
 _atom_site_fract_x
 _atom_site_fract_y
 _atom_site_fract_z
 _atom_site_occupancy
  Y  Y0  1  0.000000  0.181230  0.500000  1
  Y  Y1  1  0.815981  0.817190  0.500000  1
  Y  Y2  1  0.184019  0.001209  0.500000  1
  Y  Y3  1  0.660222  0.328890  0.000000  1
  Y  Y4  1  0.339778  0.668669  0.000000  1
  Mg  Mg5  1  0.000000  0.561483  0.000000  1
  P  P6  1  0.000000  0.811614  0.000000  1
  P  P7  1  0.183008  0.183781  0.000000  1
  P  P8  1  0.816992  0.000773  0.000000  1
  P  P9  1  0.691225  0.171818  0.500000  1
  P  P10  1  0.818651  0.518775  0.500000  1
  P  P11  1  0.474507  0.306887  0.500000  1
  P  P12  1  0.181349  0.700124  0.500000  1
  P  P13  1  0.525493  0.832379  0.500000  1
  P  P14  1  0.308775  0.480593  0.500000  1
  P  P15  1  0.000000  0.360348  0.000000  1
  P  P16  1  0.625102  0.625275  0.000000  1
  P  P17  1  0.374898  0.000173  0.000000  1
  Ru  Ru18  1  0.444381  0.444683  0.000000  1
  Ru  Ru19  1  0.555619  0.000302  0.000000  1
  Ru  Ru20  1  0.000000  0.716240  0.500000  1
  Ru  Ru21  1  0.281711  0.283493  0.500000  1
  Ru  Ru22  1  0.718289  0.001782  0.500000  1
  Ru  Ru23  1  0.805130  0.184424  0.000000  1
  Ru  Ru24  1  0.813269  0.619659  0.000000  1
  Ru  Ru25  1  0.373472  0.189614  0.000000  1
  Ru  Ru26  1  0.186731  0.806389  0.000000  1
  Ru  Ru27  1  0.626528  0.816141  0.000000  1
  Ru  Ru28  1  0.194870  0.379293  0.000000  1
  Ru  Ru29  1  0.874884  0.365574  0.500000  1
  Ru  Ru30  1  0.630725  0.509407  0.500000  1
  Ru  Ru31  1  0.492184  0.128444  0.500000  1
  Ru  Ru32  1  0.369275  0.878682  0.500000  1
  Ru  Ru33  1  0.507816  0.636260  0.500000  1
  Ru  Ru34  1  0.125116  0.490690  0.500000  1
  Ru  Ru35  1  0.000000  0.997710  0.000000  1
