# generated using pymatgen
data_Y8Nb11Si16Pt
_symmetry_space_group_name_H-M   'P 1'
_cell_length_a   7.07079556
_cell_length_b   7.07079620
_cell_length_c   13.03005612
_cell_angle_alpha   89.77020734
_cell_angle_beta   90.22979098
_cell_angle_gamma   89.70283460
_symmetry_Int_Tables_number   1
_chemical_formula_structural   Y8Nb11Si16Pt
_chemical_formula_sum   'Y8 Nb11 Si16 Pt1'
_cell_volume   651.43340218
_cell_formula_units_Z   1
loop_
 _symmetry_equiv_pos_site_id
 _symmetry_equiv_pos_as_xyz
  1  'x, y, z'
loop_
 _atom_site_type_symbol
 _atom_site_label
 _atom_site_symmetry_multiplicity
 _atom_site_fract_x
 _atom_site_fract_y
 _atom_site_fract_z
 _atom_site_occupancy
  Y  Y0  1  0.998828  0.340786  0.215865  1
  Y  Y1  1  0.003833  0.658757  0.718162  1
  Y  Y2  1  0.159579  0.498688  0.467069  1
  Y  Y3  1  0.498471  0.842477  0.032304  1
  Y  Y4  1  0.842477  0.498471  0.967696  1
  Y  Y5  1  0.498688  0.159579  0.532931  1
  Y  Y6  1  0.340786  0.998828  0.784135  1
  Y  Y7  1  0.658757  0.003833  0.281838  1
  Nb  Nb8  1  0.829900  0.829900  0.500000  1
  Nb  Nb9  1  0.326280  0.672595  0.247747  1
  Nb  Nb10  1  0.672595  0.326280  0.752253  1
  Nb  Nb11  1  0.152269  0.995483  0.375305  1
  Nb  Nb12  1  0.843171  0.005068  0.877336  1
  Nb  Nb13  1  0.508417  0.652789  0.626194  1
  Nb  Nb14  1  0.348571  0.494186  0.875577  1
  Nb  Nb15  1  0.494186  0.348571  0.124423  1
  Nb  Nb16  1  0.652789  0.508417  0.373806  1
  Nb  Nb17  1  0.995483  0.152269  0.624695  1
  Nb  Nb18  1  0.005068  0.843171  0.122664  1
  Si  Si19  1  0.291443  0.048447  0.186061  1
  Si  Si20  1  0.706740  0.955389  0.687626  1
  Si  Si21  1  0.454755  0.794822  0.436359  1
  Si  Si22  1  0.210217  0.549550  0.061344  1
  Si  Si23  1  0.549550  0.210217  0.938656  1
  Si  Si24  1  0.794822  0.454755  0.563641  1
  Si  Si25  1  0.048447  0.291443  0.813939  1
  Si  Si26  1  0.955389  0.706740  0.312374  1
  Si  Si27  1  0.365668  0.297451  0.316255  1
  Si  Si28  1  0.633146  0.704088  0.817256  1
  Si  Si29  1  0.206251  0.866415  0.567672  1
  Si  Si30  1  0.127993  0.788327  0.931391  1
  Si  Si31  1  0.788327  0.127993  0.068609  1
  Si  Si32  1  0.866415  0.206251  0.432328  1
  Si  Si33  1  0.297451  0.365668  0.683745  1
  Si  Si34  1  0.704088  0.633146  0.182744  1
  Pt  Pt35  1  0.169150  0.169150  0.000000  1
