# generated using pymatgen
data_Na2MnCd(H6Ir)2
_symmetry_space_group_name_H-M   'P 1'
_cell_length_a   7.00686300
_cell_length_b   7.00686300
_cell_length_c   6.97079100
_cell_angle_alpha   90.00000000
_cell_angle_beta   90.00000000
_cell_angle_gamma   90.00000000
_symmetry_Int_Tables_number   1
_chemical_formula_structural   Na2MnCd(H6Ir)2
_chemical_formula_sum   'Na4 Mn2 Cd2 H24 Ir4'
_cell_volume   342.23885487
_cell_formula_units_Z   2
loop_
 _symmetry_equiv_pos_site_id
 _symmetry_equiv_pos_as_xyz
  1  'x, y, z'
loop_
 _atom_site_type_symbol
 _atom_site_label
 _atom_site_symmetry_multiplicity
 _atom_site_fract_x
 _atom_site_fract_y
 _atom_site_fract_z
 _atom_site_occupancy
  Na  Na0  1  0.000000  0.000000  0.500000  1
  Na  Na1  1  0.000000  0.500000  0.000000  1
  Na  Na2  1  0.500000  0.000000  0.000000  1
  Na  Na3  1  0.000000  0.000000  0.000000  1
  Mn  Mn4  1  0.500000  0.500000  0.500000  1
  Mn  Mn5  1  0.500000  0.500000  0.000000  1
  Cd  Cd6  1  0.000000  0.500000  0.500000  1
  Cd  Cd7  1  0.500000  0.000000  0.500000  1
  H  H8  1  0.738539  0.738539  0.501787  1
  H  H9  1  0.261461  0.261461  0.501787  1
  H  H10  1  0.029220  0.743400  0.745662  1
  H  H11  1  0.256600  0.970780  0.745662  1
  H  H12  1  0.743400  0.029220  0.745662  1
  H  H13  1  0.970780  0.256600  0.745662  1
  H  H14  1  0.732035  0.506296  0.751406  1
  H  H15  1  0.506296  0.732035  0.751406  1
  H  H16  1  0.493704  0.267965  0.751406  1
  H  H17  1  0.267965  0.493704  0.751406  1
  H  H18  1  0.264176  0.735824  0.978657  1
  H  H19  1  0.735824  0.264176  0.978657  1
  H  H20  1  0.735824  0.735824  0.021343  1
  H  H21  1  0.264176  0.264176  0.021343  1
  H  H22  1  0.267965  0.506296  0.248594  1
  H  H23  1  0.493704  0.732035  0.248594  1
  H  H24  1  0.506296  0.267965  0.248594  1
  H  H25  1  0.732035  0.493704  0.248594  1
  H  H26  1  0.970780  0.743400  0.254338  1
  H  H27  1  0.743400  0.970780  0.254338  1
  H  H28  1  0.256600  0.029220  0.254338  1
  H  H29  1  0.029220  0.256600  0.254338  1
  H  H30  1  0.261461  0.738539  0.498213  1
  H  H31  1  0.738539  0.261461  0.498213  1
  Ir  Ir32  1  0.268845  0.731155  0.737548  1
  Ir  Ir33  1  0.731155  0.268845  0.737548  1
  Ir  Ir34  1  0.731155  0.731155  0.262452  1
  Ir  Ir35  1  0.268845  0.268845  0.262452  1
