# generated using pymatgen
data_NdTmTh2(Al3Rh)6
_symmetry_space_group_name_H-M   'P 1'
_cell_length_a   7.62439602
_cell_length_b   7.63597492
_cell_length_c   9.51505900
_cell_angle_alpha   90.00000000
_cell_angle_beta   90.00000000
_cell_angle_gamma   119.42025963
_symmetry_Int_Tables_number   1
_chemical_formula_structural   NdTmTh2(Al3Rh)6
_chemical_formula_sum   'Nd1 Tm1 Th2 Al18 Rh6'
_cell_volume   482.52476848
_cell_formula_units_Z   1
loop_
 _symmetry_equiv_pos_site_id
 _symmetry_equiv_pos_as_xyz
  1  'x, y, z'
loop_
 _atom_site_type_symbol
 _atom_site_label
 _atom_site_symmetry_multiplicity
 _atom_site_fract_x
 _atom_site_fract_y
 _atom_site_fract_z
 _atom_site_occupancy
  Nd  Nd0  1  0.004481  0.328713  0.750000  1
  Tm  Tm1  1  0.327854  0.005737  0.750000  1
  Th  Th2  1  0.995212  0.671356  0.250000  1
  Th  Th3  1  0.671459  0.994300  0.250000  1
  Al  Al4  1  0.135821  0.133807  0.250000  1
  Al  Al5  1  0.873685  0.873021  0.750000  1
  Al  Al6  1  0.005957  0.335556  0.071742  1
  Al  Al7  1  0.001079  0.667198  0.919206  1
  Al  Al8  1  0.001079  0.667198  0.580794  1
  Al  Al9  1  0.335491  0.004852  0.431774  1
  Al  Al10  1  0.005957  0.335556  0.428258  1
  Al  Al11  1  0.661687  0.998721  0.580705  1
  Al  Al12  1  0.661687  0.998721  0.919295  1
  Al  Al13  1  0.335491  0.004852  0.068226  1
  Al  Al14  1  0.333499  0.331912  0.554995  1
  Al  Al15  1  0.663128  0.662905  0.458379  1
  Al  Al16  1  0.663128  0.662905  0.041621  1
  Al  Al17  1  0.333499  0.331912  0.945005  1
  Al  Al18  1  0.341190  0.543443  0.250000  1
  Al  Al19  1  0.656750  0.447565  0.750000  1
  Al  Al20  1  0.543590  0.338208  0.250000  1
  Al  Al21  1  0.448670  0.661337  0.750000  1
  Rh  Rh22  1  0.672418  0.328585  0.001718  1
  Rh  Rh23  1  0.329003  0.673665  0.001919  1
  Rh  Rh24  1  0.329003  0.673665  0.498081  1
  Rh  Rh25  1  0.672418  0.328585  0.498282  1
  Rh  Rh26  1  0.998383  0.997865  0.002146  1
  Rh  Rh27  1  0.998383  0.997865  0.497854  1
