# generated using pymatgen
data_Pr3Nd3TcBr10
_symmetry_space_group_name_H-M   'P 1'
_cell_length_a   7.68285605
_cell_length_b   9.67002131
_cell_length_c   9.63881070
_cell_angle_alpha   108.84968204
_cell_angle_beta   105.92799936
_cell_angle_gamma   97.29124735
_symmetry_Int_Tables_number   1
_chemical_formula_structural   Pr3Nd3TcBr10
_chemical_formula_sum   'Pr3 Nd3 Tc1 Br10'
_cell_volume   633.12765125
_cell_formula_units_Z   1
loop_
 _symmetry_equiv_pos_site_id
 _symmetry_equiv_pos_as_xyz
  1  'x, y, z'
loop_
 _atom_site_type_symbol
 _atom_site_label
 _atom_site_symmetry_multiplicity
 _atom_site_fract_x
 _atom_site_fract_y
 _atom_site_fract_z
 _atom_site_occupancy
  Pr  Pr0  1  0.634982  0.814044  0.860739  1
  Pr  Pr1  1  0.873420  0.244825  0.952426  1
  Pr  Pr2  1  0.974184  0.098910  0.301485  1
  Nd  Nd3  1  0.363217  0.184530  0.137158  1
  Nd  Nd4  1  0.027189  0.901453  0.700798  1
  Nd  Nd5  1  0.126697  0.756739  0.048343  1
  Tc  Tc6  1  0.999599  0.999872  0.000110  1
  Br  Br7  1  0.450838  0.078231  0.824373  1
  Br  Br8  1  0.750912  0.546684  0.917859  1
  Br  Br9  1  0.253379  0.453980  0.083902  1
  Br  Br10  1  0.913542  0.165558  0.633891  1
  Br  Br11  1  0.644759  0.725586  0.543738  1
  Br  Br12  1  0.544676  0.922209  0.175063  1
  Br  Br13  1  0.088875  0.831881  0.365974  1
  Br  Br14  1  0.795332  0.351143  0.257194  1
  Br  Br15  1  0.198392  0.648149  0.743210  1
  Br  Br16  1  0.360008  0.276207  0.453736  1
