# generated using pymatgen
data_Sc2TaNi2Pt7
_symmetry_space_group_name_H-M   'P 1'
_cell_length_a   3.94177100
_cell_length_b   3.95111000
_cell_length_c   11.86612500
_cell_angle_alpha   90.00000000
_cell_angle_beta   90.00000000
_cell_angle_gamma   90.00000000
_symmetry_Int_Tables_number   1
_chemical_formula_structural   Sc2TaNi2Pt7
_chemical_formula_sum   'Sc2 Ta1 Ni2 Pt7'
_cell_volume   184.80743090
_cell_formula_units_Z   1
loop_
 _symmetry_equiv_pos_site_id
 _symmetry_equiv_pos_as_xyz
  1  'x, y, z'
loop_
 _atom_site_type_symbol
 _atom_site_label
 _atom_site_symmetry_multiplicity
 _atom_site_fract_x
 _atom_site_fract_y
 _atom_site_fract_z
 _atom_site_occupancy
  Sc  Sc0  1  0.000000  0.000000  0.338307  1
  Sc  Sc1  1  0.000000  0.000000  0.661693  1
  Ta  Ta2  1  0.000000  0.000000  0.000000  1
  Ni  Ni3  1  0.500000  0.500000  0.000000  1
  Ni  Ni4  1  0.000000  0.500000  0.500000  1
  Pt  Pt5  1  0.500000  0.500000  0.333425  1
  Pt  Pt6  1  0.500000  0.500000  0.666575  1
  Pt  Pt7  1  0.500000  0.000000  0.157660  1
  Pt  Pt8  1  0.500000  0.000000  0.500000  1
  Pt  Pt9  1  0.500000  0.000000  0.842340  1
  Pt  Pt10  1  0.000000  0.500000  0.156858  1
  Pt  Pt11  1  0.000000  0.500000  0.843142  1
