# generated using pymatgen
data_Nd12Co6Hg
_symmetry_space_group_name_H-M   'P 1'
_cell_length_a   8.64630522
_cell_length_b   8.64630509
_cell_length_c   8.64630400
_cell_angle_alpha   109.47121575
_cell_angle_beta   109.47121543
_cell_angle_gamma   109.47122284
_symmetry_Int_Tables_number   1
_chemical_formula_structural   Nd12Co6Hg
_chemical_formula_sum   'Nd12 Co6 Hg1'
_cell_volume   497.58785367
_cell_formula_units_Z   1
loop_
 _symmetry_equiv_pos_site_id
 _symmetry_equiv_pos_as_xyz
  1  'x, y, z'
loop_
 _atom_site_type_symbol
 _atom_site_label
 _atom_site_symmetry_multiplicity
 _atom_site_fract_x
 _atom_site_fract_y
 _atom_site_fract_z
 _atom_site_occupancy
  Nd  Nd0  1  0.807541  0.693947  0.501488  1
  Nd  Nd1  1  0.192459  0.306053  0.498512  1
  Nd  Nd2  1  0.192459  0.693947  0.886406  1
  Nd  Nd3  1  0.807541  0.306053  0.113594  1
  Nd  Nd4  1  0.693947  0.501488  0.807541  1
  Nd  Nd5  1  0.306053  0.498512  0.192459  1
  Nd  Nd6  1  0.693947  0.886406  0.192459  1
  Nd  Nd7  1  0.306053  0.113594  0.807541  1
  Nd  Nd8  1  0.501488  0.807541  0.693947  1
  Nd  Nd9  1  0.498512  0.192459  0.306053  1
  Nd  Nd10  1  0.113594  0.807541  0.306053  1
  Nd  Nd11  1  0.886406  0.192459  0.693947  1
  Co  Co12  1  0.887655  0.387655  0.500000  1
  Co  Co13  1  0.112345  0.612345  0.500000  1
  Co  Co14  1  0.387655  0.500000  0.887655  1
  Co  Co15  1  0.612345  0.500000  0.112345  1
  Co  Co16  1  0.500000  0.887655  0.387655  1
  Co  Co17  1  0.500000  0.112345  0.612345  1
  Hg  Hg18  1  0.000000  0.000000  0.000000  1
