# generated using pymatgen
data_Tb5Ce(Al3Ru)8
_symmetry_space_group_name_H-M   'P 1'
_cell_length_a   8.82964903
_cell_length_b   8.82848004
_cell_length_c   9.58204900
_cell_angle_alpha   90.00000000
_cell_angle_beta   90.00000000
_cell_angle_gamma   119.99561977
_symmetry_Int_Tables_number   1
_chemical_formula_structural   Tb5Ce(Al3Ru)8
_chemical_formula_sum   'Tb5 Ce1 Al24 Ru8'
_cell_volume   646.90061884
_cell_formula_units_Z   1
loop_
 _symmetry_equiv_pos_site_id
 _symmetry_equiv_pos_as_xyz
  1  'x, y, z'
loop_
 _atom_site_type_symbol
 _atom_site_label
 _atom_site_symmetry_multiplicity
 _atom_site_fract_x
 _atom_site_fract_y
 _atom_site_fract_z
 _atom_site_occupancy
  Tb  Tb0  1  0.805672  0.192866  0.250000  1
  Tb  Tb1  1  0.805672  0.612806  0.250000  1
  Tb  Tb2  1  0.614254  0.807127  0.750000  1
  Tb  Tb3  1  0.193211  0.806517  0.750000  1
  Tb  Tb4  1  0.193211  0.386694  0.750000  1
  Ce  Ce5  1  0.387492  0.193746  0.250000  1
  Al  Al6  1  0.438607  0.876026  0.250000  1
  Al  Al7  1  0.122109  0.561055  0.250000  1
  Al  Al8  1  0.438607  0.562581  0.250000  1
  Al  Al9  1  0.560958  0.121750  0.750000  1
  Al  Al10  1  0.877972  0.438986  0.750000  1
  Al  Al11  1  0.560958  0.439208  0.750000  1
  Al  Al12  1  0.161456  0.837136  0.421848  1
  Al  Al13  1  0.161456  0.324321  0.421848  1
  Al  Al14  1  0.675936  0.837968  0.422291  1
  Al  Al15  1  0.837970  0.161883  0.578376  1
  Al  Al16  1  0.837970  0.676086  0.578376  1
  Al  Al17  1  0.323616  0.161807  0.578955  1
  Al  Al18  1  0.837970  0.161883  0.921624  1
  Al  Al19  1  0.837970  0.676086  0.921624  1
  Al  Al20  1  0.323616  0.161807  0.921045  1
  Al  Al21  1  0.161456  0.837136  0.078152  1
  Al  Al22  1  0.161456  0.324321  0.078152  1
  Al  Al23  1  0.675936  0.837968  0.077709  1
  Al  Al24  1  0.332978  0.666489  0.513193  1
  Al  Al25  1  0.668435  0.334217  0.487453  1
  Al  Al26  1  0.668435  0.334217  0.012547  1
  Al  Al27  1  0.332978  0.666489  0.986807  1
  Al  Al28  1  0.999705  0.999852  0.250000  1
  Al  Al29  1  0.000320  0.000160  0.750000  1
  Ru  Ru30  1  0.999605  0.999803  0.500234  1
  Ru  Ru31  1  0.999605  0.999803  0.999766  1
  Ru  Ru32  1  0.500229  0.000360  0.498893  1
  Ru  Ru33  1  0.000748  0.500374  0.500430  1
  Ru  Ru34  1  0.500229  0.499869  0.498893  1
  Ru  Ru35  1  0.500229  0.000360  0.001107  1
  Ru  Ru36  1  0.000748  0.500374  0.999570  1
  Ru  Ru37  1  0.500229  0.499869  0.001107  1
