# generated using pymatgen
data_Tm16MgIn2Ni4Hg
_symmetry_space_group_name_H-M   'P 1'
_cell_length_a   9.46807998
_cell_length_b   9.40485144
_cell_length_c   9.43539700
_cell_angle_alpha   59.89250013
_cell_angle_beta   60.11411931
_cell_angle_gamma   60.10943907
_symmetry_Int_Tables_number   1
_chemical_formula_structural   Tm16MgIn2Ni4Hg
_chemical_formula_sum   'Tm16 Mg1 In2 Ni4 Hg1'
_cell_volume   594.61446785
_cell_formula_units_Z   1
loop_
 _symmetry_equiv_pos_site_id
 _symmetry_equiv_pos_as_xyz
  1  'x, y, z'
loop_
 _atom_site_type_symbol
 _atom_site_label
 _atom_site_symmetry_multiplicity
 _atom_site_fract_x
 _atom_site_fract_y
 _atom_site_fract_z
 _atom_site_occupancy
  Tm  Tm0  1  0.596440  0.596197  0.596671  1
  Tm  Tm1  1  0.596440  0.596197  0.210693  1
  Tm  Tm2  1  0.601684  0.205115  0.596601  1
  Tm  Tm3  1  0.199398  0.602907  0.598848  1
  Tm  Tm4  1  0.059570  0.440702  0.438522  1
  Tm  Tm5  1  0.437500  0.062903  0.061981  1
  Tm  Tm6  1  0.437500  0.062903  0.437617  1
  Tm  Tm7  1  0.059570  0.440702  0.061208  1
  Tm  Tm8  1  0.434867  0.437365  0.063884  1
  Tm  Tm9  1  0.061163  0.060952  0.438943  1
  Tm  Tm10  1  0.186287  0.815731  0.814136  1
  Tm  Tm11  1  0.814261  0.190504  0.182497  1
  Tm  Tm12  1  0.814261  0.190504  0.812738  1
  Tm  Tm13  1  0.186287  0.815731  0.183845  1
  Tm  Tm14  1  0.814289  0.815813  0.184949  1
  Tm  Tm15  1  0.188077  0.190534  0.810695  1
  Mg  Mg16  1  0.523053  0.820051  0.828447  1
  In  In17  1  0.832899  0.831155  0.834049  1
  In  In18  1  0.832899  0.831155  0.501896  1
  Ni  Ni19  1  0.389056  0.392756  0.395892  1
  Ni  Ni20  1  0.389056  0.392756  0.822298  1
  Ni  Ni21  1  0.388894  0.824263  0.393422  1
  Ni  Ni22  1  0.824666  0.390209  0.392563  1
  Hg  Hg23  1  0.831885  0.492898  0.837608  1
