# generated using pymatgen
data_Y19Er(SiBi2)4
_symmetry_space_group_name_H-M   'P 1'
_cell_length_a   12.14966025
_cell_length_b   9.18431806
_cell_length_c   8.08109213
_cell_angle_alpha   89.99451230
_cell_angle_beta   89.98010010
_cell_angle_gamma   90.01242528
_symmetry_Int_Tables_number   1
_chemical_formula_structural   Y19Er(SiBi2)4
_chemical_formula_sum   'Y19 Er1 Si4 Bi8'
_cell_volume   901.73944795
_cell_formula_units_Z   1
loop_
 _symmetry_equiv_pos_site_id
 _symmetry_equiv_pos_as_xyz
  1  'x, y, z'
loop_
 _atom_site_type_symbol
 _atom_site_label
 _atom_site_symmetry_multiplicity
 _atom_site_fract_x
 _atom_site_fract_y
 _atom_site_fract_z
 _atom_site_occupancy
  Y  Y0  1  0.064270  0.448952  0.180847  1
  Y  Y1  1  0.435725  0.551028  0.680872  1
  Y  Y2  1  0.935704  0.948948  0.819134  1
  Y  Y3  1  0.435866  0.949033  0.680581  1
  Y  Y4  1  0.935713  0.551017  0.819118  1
  Y  Y5  1  0.564271  0.448675  0.319054  1
  Y  Y6  1  0.064290  0.051058  0.180886  1
  Y  Y7  1  0.711213  0.249821  0.661615  1
  Y  Y8  1  0.211291  0.249987  0.838256  1
  Y  Y9  1  0.288680  0.749996  0.338243  1
  Y  Y10  1  0.788676  0.750044  0.161812  1
  Y  Y11  1  0.500781  0.249786  0.959277  1
  Y  Y12  1  0.000695  0.249961  0.541172  1
  Y  Y13  1  0.499294  0.750212  0.041318  1
  Y  Y14  1  0.999256  0.750008  0.458849  1
  Y  Y15  1  0.795737  0.249767  0.135524  1
  Y  Y16  1  0.296123  0.249828  0.364535  1
  Y  Y17  1  0.204048  0.749986  0.864631  1
  Y  Y18  1  0.704021  0.749990  0.635346  1
  Er  Er19  1  0.564187  0.051684  0.319762  1
  Si  Si20  1  0.980555  0.250013  0.916394  1
  Si  Si21  1  0.480705  0.249529  0.583172  1
  Si  Si22  1  0.019414  0.750000  0.083646  1
  Si  Si23  1  0.519620  0.750850  0.415990  1
  Bi  Bi24  1  0.826386  0.010188  0.430302  1
  Bi  Bi25  1  0.326634  0.489760  0.069511  1
  Bi  Bi26  1  0.173420  0.510216  0.569499  1
  Bi  Bi27  1  0.673322  0.989733  0.930693  1
  Bi  Bi28  1  0.173430  0.989779  0.569496  1
  Bi  Bi29  1  0.673377  0.510182  0.930492  1
  Bi  Bi30  1  0.826582  0.489763  0.430479  1
  Bi  Bi31  1  0.326715  0.010204  0.069495  1
