# generated using pymatgen
data_LiEu2PdPt2
_symmetry_space_group_name_H-M   'P 1'
_cell_length_a   5.34974551
_cell_length_b   5.39276552
_cell_length_c   5.39276669
_cell_angle_alpha   63.72704156
_cell_angle_beta   63.91243377
_cell_angle_gamma   63.91242326
_symmetry_Int_Tables_number   1
_chemical_formula_structural   LiEu2PdPt2
_chemical_formula_sum   'Li1 Eu2 Pd1 Pt2'
_cell_volume   119.35263437
_cell_formula_units_Z   1
loop_
 _symmetry_equiv_pos_site_id
 _symmetry_equiv_pos_as_xyz
  1  'x, y, z'
loop_
 _atom_site_type_symbol
 _atom_site_label
 _atom_site_symmetry_multiplicity
 _atom_site_fract_x
 _atom_site_fract_y
 _atom_site_fract_z
 _atom_site_occupancy
  Li  Li0  1  0.625000  0.625000  0.625000  1
  Eu  Eu1  1  0.251381  0.248433  0.248433  1
  Eu  Eu2  1  0.998619  0.001567  0.001567  1
  Pd  Pd3  1  0.125000  0.625000  0.625000  1
  Pt  Pt4  1  0.625000  0.125000  0.625000  1
  Pt  Pt5  1  0.625000  0.625000  0.125000  1
