# generated using pymatgen
data_Na2BiIr4PbO14
_symmetry_space_group_name_H-M   'P 1'
_cell_length_a   7.24789393
_cell_length_b   7.26947251
_cell_length_c   7.24789271
_cell_angle_alpha   60.24910072
_cell_angle_beta   59.99170466
_cell_angle_gamma   60.24910393
_symmetry_Int_Tables_number   1
_chemical_formula_structural   Na2BiIr4PbO14
_chemical_formula_sum   'Na2 Bi1 Ir4 Pb1 O14'
_cell_volume   271.02479523
_cell_formula_units_Z   1
loop_
 _symmetry_equiv_pos_site_id
 _symmetry_equiv_pos_as_xyz
  1  'x, y, z'
loop_
 _atom_site_type_symbol
 _atom_site_label
 _atom_site_symmetry_multiplicity
 _atom_site_fract_x
 _atom_site_fract_y
 _atom_site_fract_z
 _atom_site_occupancy
  Na  Na0  1  0.625000  0.125000  0.125000  1
  Na  Na1  1  0.125000  0.125000  0.625000  1
  Bi  Bi2  1  0.125000  0.625000  0.125000  1
  Ir  Ir3  1  0.125000  0.625000  0.625000  1
  Ir  Ir4  1  0.625000  0.125000  0.625000  1
  Ir  Ir5  1  0.625000  0.625000  0.125000  1
  Ir  Ir6  1  0.625000  0.625000  0.625000  1
  Pb  Pb7  1  0.125000  0.125000  0.125000  1
  O  O8  1  0.715131  0.688703  0.296249  1
  O  O9  1  0.297572  0.302112  0.713548  1
  O  O10  1  0.691938  0.308253  0.691938  1
  O  O11  1  0.294352  0.703799  0.294352  1
  O  O12  1  0.296249  0.688703  0.715131  1
  O  O13  1  0.713548  0.302112  0.297572  1
  O  O14  1  0.534869  0.561297  0.953751  1
  O  O15  1  0.952428  0.947888  0.536452  1
  O  O16  1  0.558062  0.941747  0.558062  1
  O  O17  1  0.955648  0.546201  0.955648  1
  O  O18  1  0.953751  0.561297  0.534869  1
  O  O19  1  0.536452  0.947888  0.952428  1
  O  O20  1  0.242503  0.259881  0.242503  1
  O  O21  1  0.007497  0.990119  0.007497  1
