# generated using pymatgen
data_Zr10NiBi6B
_symmetry_space_group_name_H-M   'P 1'
_cell_length_a   8.74856400
_cell_length_b   8.74856292
_cell_length_c   5.96957500
_cell_angle_alpha   90.00000000
_cell_angle_beta   90.00000000
_cell_angle_gamma   119.99999652
_symmetry_Int_Tables_number   1
_chemical_formula_structural   Zr10NiBi6B
_chemical_formula_sum   'Zr10 Ni1 Bi6 B1'
_cell_volume   395.68314658
_cell_formula_units_Z   1
loop_
 _symmetry_equiv_pos_site_id
 _symmetry_equiv_pos_as_xyz
  1  'x, y, z'
loop_
 _atom_site_type_symbol
 _atom_site_label
 _atom_site_symmetry_multiplicity
 _atom_site_fract_x
 _atom_site_fract_y
 _atom_site_fract_z
 _atom_site_occupancy
  Zr  Zr0  1  0.763145  0.763145  0.767426  1
  Zr  Zr1  1  0.236855  0.000000  0.767426  1
  Zr  Zr2  1  0.000000  0.236855  0.767426  1
  Zr  Zr3  1  0.236855  0.236855  0.232574  1
  Zr  Zr4  1  0.763145  0.000000  0.232574  1
  Zr  Zr5  1  0.000000  0.763145  0.232574  1
  Zr  Zr6  1  0.666667  0.333333  0.000000  1
  Zr  Zr7  1  0.333333  0.666667  0.000000  1
  Zr  Zr8  1  0.333333  0.666667  0.500000  1
  Zr  Zr9  1  0.666667  0.333333  0.500000  1
  Ni  Ni10  1  0.000000  0.000000  0.500000  1
  Bi  Bi11  1  0.394922  0.394922  0.744052  1
  Bi  Bi12  1  0.605078  0.000000  0.744052  1
  Bi  Bi13  1  0.000000  0.605078  0.744052  1
  Bi  Bi14  1  0.605078  0.605078  0.255948  1
  Bi  Bi15  1  0.394922  0.000000  0.255948  1
  Bi  Bi16  1  0.000000  0.394922  0.255948  1
  B  B17  1  0.000000  0.000000  0.000000  1
