# generated using pymatgen
data_DyAl2(Fe3Tc2)2
_symmetry_space_group_name_H-M   'P 1'
_cell_length_a   4.77206760
_cell_length_b   6.59394069
_cell_length_c   6.59394000
_cell_angle_alpha   81.57532516
_cell_angle_beta   68.78598667
_cell_angle_gamma   68.78599616
_symmetry_Int_Tables_number   1
_chemical_formula_structural   DyAl2(Fe3Tc2)2
_chemical_formula_sum   'Dy1 Al2 Fe6 Tc4'
_cell_volume   180.29265275
_cell_formula_units_Z   1
loop_
 _symmetry_equiv_pos_site_id
 _symmetry_equiv_pos_as_xyz
  1  'x, y, z'
loop_
 _atom_site_type_symbol
 _atom_site_label
 _atom_site_symmetry_multiplicity
 _atom_site_fract_x
 _atom_site_fract_y
 _atom_site_fract_z
 _atom_site_occupancy
  Dy  Dy0  1  0.000000  0.000000  0.000000  1
  Al  Al1  1  0.500000  0.789399  0.210601  1
  Al  Al2  1  0.500000  0.210601  0.789399  1
  Fe  Fe3  1  0.000000  0.000000  0.500000  1
  Fe  Fe4  1  0.500000  0.000000  0.500000  1
  Fe  Fe5  1  0.500000  0.500000  0.000000  1
  Fe  Fe6  1  0.000000  0.500000  0.000000  1
  Fe  Fe7  1  0.726975  0.773025  0.773025  1
  Fe  Fe8  1  0.273025  0.226975  0.226975  1
  Tc  Tc9  1  0.000000  0.359257  0.640743  1
  Tc  Tc10  1  0.000000  0.640743  0.359257  1
  Tc  Tc11  1  0.639204  0.360796  0.360796  1
  Tc  Tc12  1  0.360796  0.639204  0.639204  1
