# generated using pymatgen
data_YbErIr4
_symmetry_space_group_name_H-M   'P 1'
_cell_length_a   5.33380600
_cell_length_b   5.33380293
_cell_length_c   8.68944000
_cell_angle_alpha   90.00031946
_cell_angle_beta   89.99946010
_cell_angle_gamma   119.99991056
_symmetry_Int_Tables_number   1
_chemical_formula_structural   YbErIr4
_chemical_formula_sum   'Yb2 Er2 Ir8'
_cell_volume   214.09030128
_cell_formula_units_Z   2
loop_
 _symmetry_equiv_pos_site_id
 _symmetry_equiv_pos_as_xyz
  1  'x, y, z'
loop_
 _atom_site_type_symbol
 _atom_site_label
 _atom_site_symmetry_multiplicity
 _atom_site_fract_x
 _atom_site_fract_y
 _atom_site_fract_z
 _atom_site_occupancy
  Yb  Yb0  1  0.333338  0.666661  0.060860  1
  Yb  Yb1  1  0.666662  0.333339  0.939140  1
  Er  Er2  1  0.666660  0.333339  0.574763  1
  Er  Er3  1  0.333340  0.666661  0.425237  1
  Ir  Ir4  1  0.000000  0.000000  0.500000  1
  Ir  Ir5  1  0.000000  0.000000  0.000000  1
  Ir  Ir6  1  0.170105  0.340257  0.747829  1
  Ir  Ir7  1  0.170120  0.829888  0.747830  1
  Ir  Ir8  1  0.659747  0.829887  0.747831  1
  Ir  Ir9  1  0.829895  0.659743  0.252171  1
  Ir  Ir10  1  0.829880  0.170112  0.252170  1
  Ir  Ir11  1  0.340253  0.170113  0.252169  1
