# generated using pymatgen
data_La2Al5GaPtAu
_symmetry_space_group_name_H-M   'P 1'
_cell_length_a   4.35330400
_cell_length_b   4.35330400
_cell_length_c   10.91401100
_cell_angle_alpha   90.00000000
_cell_angle_beta   90.00000000
_cell_angle_gamma   90.00000000
_symmetry_Int_Tables_number   1
_chemical_formula_structural   La2Al5GaPtAu
_chemical_formula_sum   'La2 Al5 Ga1 Pt1 Au1'
_cell_volume   206.83421335
_cell_formula_units_Z   1
loop_
 _symmetry_equiv_pos_site_id
 _symmetry_equiv_pos_as_xyz
  1  'x, y, z'
loop_
 _atom_site_type_symbol
 _atom_site_label
 _atom_site_symmetry_multiplicity
 _atom_site_fract_x
 _atom_site_fract_y
 _atom_site_fract_z
 _atom_site_occupancy
  La  La0  1  0.000000  0.000000  0.980157  1
  La  La1  1  0.500000  0.500000  0.489515  1
  Al  Al2  1  0.000000  0.500000  0.249246  1
  Al  Al3  1  0.500000  0.000000  0.742832  1
  Al  Al4  1  0.500000  0.000000  0.249246  1
  Al  Al5  1  0.000000  0.500000  0.742832  1
  Al  Al6  1  0.000000  0.000000  0.401676  1
  Ga  Ga7  1  0.500000  0.500000  0.890572  1
  Pt  Pt8  1  0.000000  0.000000  0.628864  1
  Au  Au9  1  0.500000  0.500000  0.125064  1
