# generated using pymatgen
data_Dy20TcNi3Bi8
_symmetry_space_group_name_H-M   'P 1'
_cell_length_a   8.01096069
_cell_length_b   8.96097200
_cell_length_c   12.36896327
_cell_angle_alpha   90.00000000
_cell_angle_beta   90.33993765
_cell_angle_gamma   90.00000000
_symmetry_Int_Tables_number   1
_chemical_formula_structural   Dy20TcNi3Bi8
_chemical_formula_sum   'Dy20 Tc1 Ni3 Bi8'
_cell_volume   887.90270093
_cell_formula_units_Z   1
loop_
 _symmetry_equiv_pos_site_id
 _symmetry_equiv_pos_as_xyz
  1  'x, y, z'
loop_
 _atom_site_type_symbol
 _atom_site_label
 _atom_site_symmetry_multiplicity
 _atom_site_fract_x
 _atom_site_fract_y
 _atom_site_fract_z
 _atom_site_occupancy
  Dy  Dy0  1  0.163267  0.750000  0.212185  1
  Dy  Dy1  1  0.347075  0.750000  0.702703  1
  Dy  Dy2  1  0.841261  0.250000  0.794216  1
  Dy  Dy3  1  0.652618  0.250000  0.299554  1
  Dy  Dy4  1  0.450746  0.750000  0.998738  1
  Dy  Dy5  1  0.048109  0.750000  0.497863  1
  Dy  Dy6  1  0.548758  0.250000  0.999676  1
  Dy  Dy7  1  0.950738  0.250000  0.503327  1
  Dy  Dy8  1  0.622192  0.750000  0.301769  1
  Dy  Dy9  1  0.881821  0.750000  0.809426  1
  Dy  Dy10  1  0.380157  0.250000  0.695031  1
  Dy  Dy11  1  0.119728  0.250000  0.191624  1
  Dy  Dy12  1  0.823002  0.539712  0.065291  1
  Dy  Dy13  1  0.677264  0.957156  0.561643  1
  Dy  Dy14  1  0.177529  0.041977  0.936212  1
  Dy  Dy15  1  0.320735  0.459162  0.435750  1
  Dy  Dy16  1  0.177529  0.458023  0.936212  1
  Dy  Dy17  1  0.320735  0.040838  0.435750  1
  Dy  Dy18  1  0.823002  0.960288  0.065291  1
  Dy  Dy19  1  0.677264  0.542844  0.561643  1
  Tc  Tc20  1  0.420293  0.750000  0.482328  1
  Ni  Ni21  1  0.070333  0.750000  0.994628  1
  Ni  Ni22  1  0.577106  0.250000  0.514222  1
  Ni  Ni23  1  0.929087  0.250000  0.008528  1
  Bi  Bi24  1  0.927799  0.507027  0.325673  1
  Bi  Bi25  1  0.573253  0.989757  0.826713  1
  Bi  Bi26  1  0.070889  0.008673  0.674731  1
  Bi  Bi27  1  0.427886  0.488552  0.171079  1
  Bi  Bi28  1  0.070889  0.491327  0.674731  1
  Bi  Bi29  1  0.427886  0.011448  0.171079  1
  Bi  Bi30  1  0.927799  0.992973  0.325673  1
  Bi  Bi31  1  0.573253  0.510243  0.826713  1
