# generated using pymatgen
data_Tb2ThCo9(CuB2)2
_symmetry_space_group_name_H-M   'P 1'
_cell_length_a   5.07559400
_cell_length_b   5.07870442
_cell_length_c   9.80055300
_cell_angle_alpha   90.00001047
_cell_angle_beta   89.99999033
_cell_angle_gamma   119.97975564
_symmetry_Int_Tables_number   1
_chemical_formula_structural   Tb2ThCo9(CuB2)2
_chemical_formula_sum   'Tb2 Th1 Co9 Cu2 B4'
_cell_volume   218.83137242
_cell_formula_units_Z   1
loop_
 _symmetry_equiv_pos_site_id
 _symmetry_equiv_pos_as_xyz
  1  'x, y, z'
loop_
 _atom_site_type_symbol
 _atom_site_label
 _atom_site_symmetry_multiplicity
 _atom_site_fract_x
 _atom_site_fract_y
 _atom_site_fract_z
 _atom_site_occupancy
  Tb  Tb0  1  0.999995  0.000000  0.344701  1
  Tb  Tb1  1  0.999996  0.000000  0.655296  1
  Th  Th2  1  0.999990  0.000000  0.000080  1
  Co  Co3  1  0.499996  0.000000  0.499958  1
  Co  Co4  1  0.499996  0.500000  0.499988  1
  Co  Co5  1  0.999995  0.500000  0.499988  1
  Co  Co6  1  0.499994  0.000000  0.209488  1
  Co  Co7  1  0.499995  0.500000  0.209503  1
  Co  Co8  1  0.999995  0.500000  0.209503  1
  Co  Co9  1  0.499995  0.000000  0.790548  1
  Co  Co10  1  0.499995  0.500000  0.790487  1
  Co  Co11  1  0.999995  0.500000  0.790487  1
  Cu  Cu12  1  0.333265  0.666548  0.000013  1
  Cu  Cu13  1  0.666716  0.333452  0.000013  1
  B  B14  1  0.333260  0.666529  0.350667  1
  B  B15  1  0.666731  0.333471  0.350667  1
  B  B16  1  0.666692  0.333391  0.649309  1
  B  B17  1  0.333300  0.666609  0.649309  1
