# generated using pymatgen
data_YTh2(AlCu)3
_symmetry_space_group_name_H-M   'P 1'
_cell_length_a   7.08042043
_cell_length_b   7.02104557
_cell_length_c   4.21932100
_cell_angle_alpha   90.00000000
_cell_angle_beta   90.00000000
_cell_angle_gamma   119.72298067
_symmetry_Int_Tables_number   1
_chemical_formula_structural   YTh2(AlCu)3
_chemical_formula_sum   'Y1 Th2 Al3 Cu3'
_cell_volume   182.15436570
_cell_formula_units_Z   1
loop_
 _symmetry_equiv_pos_site_id
 _symmetry_equiv_pos_as_xyz
  1  'x, y, z'
loop_
 _atom_site_type_symbol
 _atom_site_label
 _atom_site_symmetry_multiplicity
 _atom_site_fract_x
 _atom_site_fract_y
 _atom_site_fract_z
 _atom_site_occupancy
  Y  Y0  1  0.000000  0.583462  0.500000  1
  Th  Th1  1  0.419995  0.418538  0.500000  1
  Th  Th2  1  0.580005  0.998543  0.500000  1
  Al  Al3  1  0.000000  0.236574  0.000000  1
  Al  Al4  1  0.768142  0.766305  0.000000  1
  Al  Al5  1  0.231858  0.998164  0.000000  1
  Cu  Cu6  1  0.671660  0.336696  0.000000  1
  Cu  Cu7  1  0.000000  0.996682  0.500000  1
  Cu  Cu8  1  0.328340  0.665037  0.000000  1
