# generated using pymatgen
data_ScNb3V4GaP3
_symmetry_space_group_name_H-M   'P 1'
_cell_length_a   3.41866200
_cell_length_b   6.56210602
_cell_length_c   7.88784541
_cell_angle_alpha   89.99702111
_cell_angle_beta   90.00000000
_cell_angle_gamma   90.00000000
_symmetry_Int_Tables_number   1
_chemical_formula_structural   ScNb3V4GaP3
_chemical_formula_sum   'Sc1 Nb3 V4 Ga1 P3'
_cell_volume   176.95294585
_cell_formula_units_Z   1
loop_
 _symmetry_equiv_pos_site_id
 _symmetry_equiv_pos_as_xyz
  1  'x, y, z'
loop_
 _atom_site_type_symbol
 _atom_site_label
 _atom_site_symmetry_multiplicity
 _atom_site_fract_x
 _atom_site_fract_y
 _atom_site_fract_z
 _atom_site_occupancy
  Sc  Sc0  1  0.250000  0.039966  0.832999  1
  Nb  Nb1  1  0.250000  0.541695  0.670637  1
  Nb  Nb2  1  0.750000  0.966936  0.163595  1
  Nb  Nb3  1  0.750000  0.442829  0.328590  1
  V  V4  1  0.250000  0.140017  0.442395  1
  V  V5  1  0.250000  0.624875  0.053450  1
  V  V6  1  0.750000  0.875631  0.566600  1
  V  V7  1  0.750000  0.372076  0.941258  1
  Ga  Ga8  1  0.250000  0.753858  0.361016  1
  P  P9  1  0.250000  0.255562  0.136777  1
  P  P10  1  0.750000  0.246621  0.641177  1
  P  P11  1  0.750000  0.739934  0.861510  1
