# generated using pymatgen
data_CeSm3(Pt2Pb)2
_symmetry_space_group_name_H-M   'P 1'
_cell_length_a   8.06088400
_cell_length_b   8.06088366
_cell_length_c   3.67590600
_cell_angle_alpha   90.00000000
_cell_angle_beta   90.00000000
_cell_angle_gamma   90.72744677
_symmetry_Int_Tables_number   1
_chemical_formula_structural   CeSm3(Pt2Pb)2
_chemical_formula_sum   'Ce1 Sm3 Pt4 Pb2'
_cell_volume   238.83321086
_cell_formula_units_Z   1
loop_
 _symmetry_equiv_pos_site_id
 _symmetry_equiv_pos_as_xyz
  1  'x, y, z'
loop_
 _atom_site_type_symbol
 _atom_site_label
 _atom_site_symmetry_multiplicity
 _atom_site_fract_x
 _atom_site_fract_y
 _atom_site_fract_z
 _atom_site_occupancy
  Ce  Ce0  1  0.669172  0.169172  0.500000  1
  Sm  Sm1  1  0.170076  0.331306  0.500000  1
  Sm  Sm2  1  0.329418  0.829418  0.500000  1
  Sm  Sm3  1  0.831306  0.670076  0.500000  1
  Pt  Pt4  1  0.629583  0.877987  0.000000  1
  Pt  Pt5  1  0.123779  0.623779  0.000000  1
  Pt  Pt6  1  0.866381  0.366381  0.000000  1
  Pt  Pt7  1  0.377987  0.129583  0.000000  1
  Pb  Pb8  1  0.498871  0.503429  0.000000  1
  Pb  Pb9  1  0.003429  0.998871  0.000000  1
