# generated using pymatgen
data_TbY3Al2(HgPd2)2
_symmetry_space_group_name_H-M   'P 1'
_cell_length_a   4.40747300
_cell_length_b   7.02628422
_cell_length_c   8.17954557
_cell_angle_alpha   88.37825021
_cell_angle_beta   90.00000000
_cell_angle_gamma   90.00000000
_symmetry_Int_Tables_number   1
_chemical_formula_structural   TbY3Al2(HgPd2)2
_chemical_formula_sum   'Tb1 Y3 Al2 Hg2 Pd4'
_cell_volume   253.20399646
_cell_formula_units_Z   1
loop_
 _symmetry_equiv_pos_site_id
 _symmetry_equiv_pos_as_xyz
  1  'x, y, z'
loop_
 _atom_site_type_symbol
 _atom_site_label
 _atom_site_symmetry_multiplicity
 _atom_site_fract_x
 _atom_site_fract_y
 _atom_site_fract_z
 _atom_site_occupancy
  Tb  Tb0  1  0.750000  0.967403  0.311473  1
  Y  Y1  1  0.250000  0.531910  0.816086  1
  Y  Y2  1  0.750000  0.468069  0.183867  1
  Y  Y3  1  0.250000  0.032594  0.689025  1
  Al  Al4  1  0.250000  0.146149  0.057287  1
  Al  Al5  1  0.750000  0.853951  0.942390  1
  Hg  Hg6  1  0.250000  0.657278  0.432022  1
  Hg  Hg7  1  0.750000  0.342647  0.568124  1
  Pd  Pd8  1  0.750000  0.756377  0.642170  1
  Pd  Pd9  1  0.250000  0.243619  0.357675  1
  Pd  Pd10  1  0.750000  0.223798  0.905728  1
  Pd  Pd11  1  0.250000  0.776205  0.094154  1
