# generated using pymatgen
data_Tb7Y(Ho3Sn4)4
_symmetry_space_group_name_H-M   'P 1'
_cell_length_a   8.03269012
_cell_length_b   8.17486801
_cell_length_c   15.43044425
_cell_angle_alpha   89.99338986
_cell_angle_beta   90.01952397
_cell_angle_gamma   90.00185999
_symmetry_Int_Tables_number   1
_chemical_formula_structural   Tb7Y(Ho3Sn4)4
_chemical_formula_sum   'Tb7 Y1 Ho12 Sn16'
_cell_volume   1013.25828684
_cell_formula_units_Z   1
loop_
 _symmetry_equiv_pos_site_id
 _symmetry_equiv_pos_as_xyz
  1  'x, y, z'
loop_
 _atom_site_type_symbol
 _atom_site_label
 _atom_site_symmetry_multiplicity
 _atom_site_fract_x
 _atom_site_fract_y
 _atom_site_fract_z
 _atom_site_occupancy
  Tb  Tb0  1  0.521657  0.320793  0.902229  1
  Tb  Tb1  1  0.021661  0.179084  0.597679  1
  Tb  Tb2  1  0.478282  0.679140  0.402208  1
  Tb  Tb3  1  0.978235  0.820913  0.097724  1
  Tb  Tb4  1  0.478206  0.679067  0.097782  1
  Tb  Tb5  1  0.978275  0.820888  0.402220  1
  Tb  Tb6  1  0.521701  0.320826  0.597821  1
  Y  Y7  1  0.022115  0.178967  0.902236  1
  Ho  Ho8  1  0.367643  0.836767  0.877714  1
  Ho  Ho9  1  0.867653  0.663423  0.622306  1
  Ho  Ho10  1  0.632331  0.163453  0.377665  1
  Ho  Ho11  1  0.132320  0.336576  0.122303  1
  Ho  Ho12  1  0.632346  0.163482  0.122296  1
  Ho  Ho13  1  0.132301  0.336574  0.377674  1
  Ho  Ho14  1  0.367712  0.836580  0.622302  1
  Ho  Ho15  1  0.867798  0.663422  0.877730  1
  Ho  Ho16  1  0.198954  0.503389  0.750043  1
  Ho  Ho17  1  0.699085  0.996710  0.750131  1
  Ho  Ho18  1  0.800942  0.496551  0.249977  1
  Ho  Ho19  1  0.301018  0.003432  0.250028  1
  Sn  Sn20  1  0.293188  0.036535  0.041870  1
  Sn  Sn21  1  0.793472  0.463601  0.458075  1
  Sn  Sn22  1  0.706475  0.963584  0.541931  1
  Sn  Sn23  1  0.206449  0.536308  0.958071  1
  Sn  Sn24  1  0.706647  0.963708  0.958034  1
  Sn  Sn25  1  0.206541  0.536399  0.541935  1
  Sn  Sn26  1  0.293457  0.036407  0.458063  1
  Sn  Sn27  1  0.793435  0.463650  0.042003  1
  Sn  Sn28  1  0.565302  0.619689  0.750021  1
  Sn  Sn29  1  0.065336  0.880339  0.749924  1
  Sn  Sn30  1  0.434660  0.380260  0.249978  1
  Sn  Sn31  1  0.934713  0.119690  0.249943  1
  Sn  Sn32  1  0.330017  0.146947  0.750022  1
  Sn  Sn33  1  0.830176  0.352880  0.750109  1
  Sn  Sn34  1  0.669923  0.852980  0.249986  1
  Sn  Sn35  1  0.169977  0.646988  0.249966  1
