# generated using pymatgen
data_Y2Er2Ti(ReN4)3
_symmetry_space_group_name_H-M   'P 1'
_cell_length_a   7.32369113
_cell_length_b   7.40116393
_cell_length_c   6.26119959
_cell_angle_alpha   72.74335439
_cell_angle_beta   74.02478678
_cell_angle_gamma   82.15841119
_symmetry_Int_Tables_number   1
_chemical_formula_structural   Y2Er2Ti(ReN4)3
_chemical_formula_sum   'Y2 Er2 Ti1 Re3 N12'
_cell_volume   311.03205087
_cell_formula_units_Z   1
loop_
 _symmetry_equiv_pos_site_id
 _symmetry_equiv_pos_as_xyz
  1  'x, y, z'
loop_
 _atom_site_type_symbol
 _atom_site_label
 _atom_site_symmetry_multiplicity
 _atom_site_fract_x
 _atom_site_fract_y
 _atom_site_fract_z
 _atom_site_occupancy
  Y  Y0  1  0.707339  0.277497  0.242306  1
  Y  Y1  1  0.301116  0.720099  0.738232  1
  Er  Er2  1  0.906679  0.084293  0.766883  1
  Er  Er3  1  0.091363  0.904367  0.262105  1
  Ti  Ti4  1  0.619047  0.801594  0.272940  1
  Re  Re5  1  0.199844  0.378284  0.217268  1
  Re  Re6  1  0.378708  0.205164  0.721260  1
  Re  Re7  1  0.794628  0.618115  0.781759  1
  N  N8  1  0.658658  0.622040  0.071957  1
  N  N9  1  0.369450  0.879232  0.352104  1
  N  N10  1  0.360574  0.331972  0.421129  1
  N  N11  1  0.125089  0.622827  0.163419  1
  N  N12  1  0.004032  0.222430  0.338366  1
  N  N13  1  0.792903  0.999137  0.147126  1
  N  N14  1  0.223950  0.008117  0.844540  1
  N  N15  1  0.626170  0.131227  0.661861  1
  N  N16  1  0.333829  0.367340  0.916620  1
  N  N17  1  0.884634  0.376443  0.827204  1
  N  N18  1  0.633257  0.665215  0.588964  1
  N  N19  1  0.988731  0.784606  0.663958  1
