# generated using pymatgen
data_Y(HoSi2)5
_symmetry_space_group_name_H-M   'P 1'
_cell_length_a   6.64321276
_cell_length_b   6.64321323
_cell_length_c   8.26552101
_cell_angle_alpha   89.99112443
_cell_angle_beta   90.00887485
_cell_angle_gamma   119.93263369
_symmetry_Int_Tables_number   1
_chemical_formula_structural   Y(HoSi2)5
_chemical_formula_sum   'Y1 Ho5 Si10'
_cell_volume   316.11974563
_cell_formula_units_Z   1
loop_
 _symmetry_equiv_pos_site_id
 _symmetry_equiv_pos_as_xyz
  1  'x, y, z'
loop_
 _atom_site_type_symbol
 _atom_site_label
 _atom_site_symmetry_multiplicity
 _atom_site_fract_x
 _atom_site_fract_y
 _atom_site_fract_z
 _atom_site_occupancy
  Y  Y0  1  0.669417  0.669417  0.500000  1
  Ho  Ho1  1  0.330742  0.999756  0.999918  1
  Ho  Ho2  1  0.330959  0.999995  0.500147  1
  Ho  Ho3  1  0.999995  0.330959  0.499853  1
  Ho  Ho4  1  0.999756  0.330742  0.000082  1
  Ho  Ho5  1  0.668755  0.668755  0.000000  1
  Si  Si6  1  0.382415  0.330246  0.248706  1
  Si  Si7  1  0.668737  0.052725  0.249475  1
  Si  Si8  1  0.948590  0.616876  0.248469  1
  Si  Si9  1  0.616876  0.948590  0.751531  1
  Si  Si10  1  0.000128  0.000096  0.248767  1
  Si  Si11  1  0.666925  0.333638  0.751216  1
  Si  Si12  1  0.052725  0.668737  0.750525  1
  Si  Si13  1  0.330246  0.382415  0.751294  1
  Si  Si14  1  0.333638  0.666925  0.248784  1
  Si  Si15  1  0.000096  0.000128  0.751233  1
