# generated using pymatgen
data_CaAc6OsI12
_symmetry_space_group_name_H-M   'P 1'
_cell_length_a   10.56419119
_cell_length_b   10.56418952
_cell_length_c   10.56418919
_cell_angle_alpha   107.30041218
_cell_angle_beta   107.30041042
_cell_angle_gamma   107.30041237
_symmetry_Int_Tables_number   1
_chemical_formula_structural   CaAc6OsI12
_chemical_formula_sum   'Ca1 Ac6 Os1 I12'
_cell_volume   973.71235525
_cell_formula_units_Z   1
loop_
 _symmetry_equiv_pos_site_id
 _symmetry_equiv_pos_as_xyz
  1  'x, y, z'
loop_
 _atom_site_type_symbol
 _atom_site_label
 _atom_site_symmetry_multiplicity
 _atom_site_fract_x
 _atom_site_fract_y
 _atom_site_fract_z
 _atom_site_occupancy
  Ca  Ca0  1  0.500000  0.500000  0.500000  1
  Ac  Ac1  1  0.305645  0.102316  0.027272  1
  Ac  Ac2  1  0.027272  0.305645  0.102316  1
  Ac  Ac3  1  0.102316  0.027271  0.305645  1
  Ac  Ac4  1  0.897684  0.972729  0.694356  1
  Ac  Ac5  1  0.972728  0.694356  0.897685  1
  Ac  Ac6  1  0.694356  0.897684  0.972729  1
  Os  Os7  1  0.000000  0.000000  0.000000  1
  I  I8  1  0.681939  0.225611  0.072573  1
  I  I9  1  0.388336  0.465046  0.174255  1
  I  I10  1  0.072573  0.681938  0.225612  1
  I  I11  1  0.774389  0.927428  0.318061  1
  I  I12  1  0.465046  0.174255  0.388336  1
  I  I13  1  0.174255  0.388336  0.465046  1
  I  I14  1  0.825745  0.611665  0.534954  1
  I  I15  1  0.534954  0.825746  0.611664  1
  I  I16  1  0.225612  0.072573  0.681939  1
  I  I17  1  0.927427  0.318062  0.774389  1
  I  I18  1  0.611665  0.534954  0.825745  1
  I  I19  1  0.318062  0.774389  0.927427  1
