# generated using pymatgen
data_AsPd(SeO3)4
_symmetry_space_group_name_H-M   'P 1'
_cell_length_a   7.04117331
_cell_length_b   5.16486166
_cell_length_c   9.26600986
_cell_angle_alpha   56.62004791
_cell_angle_beta   86.55973328
_cell_angle_gamma   88.88268787
_symmetry_Int_Tables_number   1
_chemical_formula_structural   AsPd(SeO3)4
_chemical_formula_sum   'As1 Pd1 Se4 O12'
_cell_volume   280.84295608
_cell_formula_units_Z   1
loop_
 _symmetry_equiv_pos_site_id
 _symmetry_equiv_pos_as_xyz
  1  'x, y, z'
loop_
 _atom_site_type_symbol
 _atom_site_label
 _atom_site_symmetry_multiplicity
 _atom_site_fract_x
 _atom_site_fract_y
 _atom_site_fract_z
 _atom_site_occupancy
  As  As0  1  0.500000  0.000000  0.500000  1
  Pd  Pd1  1  0.000000  0.000000  0.000000  1
  Se  Se2  1  0.823687  0.323939  0.193612  1
  Se  Se3  1  0.675134  0.313805  0.690633  1
  Se  Se4  1  0.176313  0.676061  0.806388  1
  Se  Se5  1  0.324866  0.686195  0.309367  1
  O  O6  1  0.829645  0.315018  0.008751  1
  O  O7  1  0.655584  0.286158  0.503834  1
  O  O8  1  0.170355  0.684982  0.991249  1
  O  O9  1  0.344416  0.713842  0.496166  1
  O  O10  1  0.582718  0.178486  0.267229  1
  O  O11  1  0.904917  0.222544  0.724878  1
  O  O12  1  0.417282  0.821514  0.732771  1
  O  O13  1  0.095083  0.777456  0.275122  1
  O  O14  1  0.766815  0.709048  0.097207  1
  O  O15  1  0.707627  0.726837  0.571085  1
  O  O16  1  0.233185  0.290952  0.902793  1
  O  O17  1  0.292373  0.273163  0.428915  1
