# generated using pymatgen
data_Sm2MgSi6(Pd4Pt)4
_symmetry_space_group_name_H-M   'P 1'
_cell_length_a   8.72440553
_cell_length_b   8.73811768
_cell_length_c   8.73811706
_cell_angle_alpha   59.84047430
_cell_angle_beta   59.78381248
_cell_angle_gamma   59.78381055
_symmetry_Int_Tables_number   1
_chemical_formula_structural   Sm2MgSi6(Pd4Pt)4
_chemical_formula_sum   'Sm2 Mg1 Si6 Pd16 Pt4'
_cell_volume   468.92869725
_cell_formula_units_Z   1
loop_
 _symmetry_equiv_pos_site_id
 _symmetry_equiv_pos_as_xyz
  1  'x, y, z'
loop_
 _atom_site_type_symbol
 _atom_site_label
 _atom_site_symmetry_multiplicity
 _atom_site_fract_x
 _atom_site_fract_y
 _atom_site_fract_z
 _atom_site_occupancy
  Sm  Sm0  1  0.249484  0.250174  0.250174  1
  Sm  Sm1  1  0.750014  0.750241  0.750241  1
  Mg  Mg2  1  0.000013  0.999983  0.999983  1
  Si  Si3  1  0.732526  0.266481  0.266481  1
  Si  Si4  1  0.268585  0.732149  0.732149  1
  Si  Si5  1  0.267515  0.732495  0.267126  1
  Si  Si6  1  0.732151  0.267783  0.733526  1
  Si  Si7  1  0.267515  0.267126  0.732495  1
  Si  Si8  1  0.732151  0.733526  0.267783  1
  Pd  Pd9  1  0.617491  0.615248  0.152293  1
  Pd  Pd10  1  0.617491  0.152293  0.615248  1
  Pd  Pd11  1  0.846985  0.383603  0.383603  1
  Pd  Pd12  1  0.151490  0.616255  0.616255  1
  Pd  Pd13  1  0.343000  0.000177  0.000177  1
  Pd  Pd14  1  0.656861  0.000021  0.000021  1
  Pd  Pd15  1  0.999534  0.343681  0.657308  1
  Pd  Pd16  1  0.999534  0.657308  0.343681  1
  Pd  Pd17  1  0.999539  0.343648  0.000420  1
  Pd  Pd18  1  0.657087  0.000168  0.343362  1
  Pd  Pd19  1  0.999311  0.656893  0.000278  1
  Pd  Pd20  1  0.343080  0.000168  0.657456  1
  Pd  Pd21  1  0.999539  0.000420  0.343648  1
  Pd  Pd22  1  0.999311  0.000278  0.656893  1
  Pd  Pd23  1  0.657087  0.343362  0.000168  1
  Pd  Pd24  1  0.343080  0.657456  0.000168  1
  Pt  Pt25  1  0.384815  0.384907  0.384907  1
  Pt  Pt26  1  0.617414  0.614546  0.614546  1
  Pt  Pt27  1  0.383700  0.383892  0.845717  1
  Pt  Pt28  1  0.383700  0.845717  0.383892  1
