# generated using pymatgen
data_Dy5Tm11(ZnRh)4
_symmetry_space_group_name_H-M   'P 1'
_cell_length_a   9.42064386
_cell_length_b   9.40958415
_cell_length_c   9.40958404
_cell_angle_alpha   59.71533003
_cell_angle_beta   59.55774883
_cell_angle_gamma   59.55774871
_symmetry_Int_Tables_number   1
_chemical_formula_structural   Dy5Tm11(ZnRh)4
_chemical_formula_sum   'Dy5 Tm11 Zn4 Rh4'
_cell_volume   584.57516335
_cell_formula_units_Z   1
loop_
 _symmetry_equiv_pos_site_id
 _symmetry_equiv_pos_as_xyz
  1  'x, y, z'
loop_
 _atom_site_type_symbol
 _atom_site_label
 _atom_site_symmetry_multiplicity
 _atom_site_fract_x
 _atom_site_fract_y
 _atom_site_fract_z
 _atom_site_occupancy
  Dy  Dy0  1  0.063526  0.064491  0.437102  1
  Dy  Dy1  1  0.434982  0.063051  0.434848  1
  Dy  Dy2  1  0.063526  0.437102  0.064491  1
  Dy  Dy3  1  0.064534  0.644418  0.644418  1
  Dy  Dy4  1  0.434982  0.434848  0.063051  1
  Tm  Tm5  1  0.644507  0.063386  0.643377  1
  Tm  Tm6  1  0.189579  0.811558  0.189391  1
  Tm  Tm7  1  0.189579  0.189391  0.811558  1
  Tm  Tm8  1  0.809393  0.809302  0.191477  1
  Tm  Tm9  1  0.440123  0.061117  0.061117  1
  Tm  Tm10  1  0.810624  0.189517  0.189517  1
  Tm  Tm11  1  0.061787  0.437232  0.437232  1
  Tm  Tm12  1  0.809393  0.191477  0.809302  1
  Tm  Tm13  1  0.191191  0.810556  0.810556  1
  Tm  Tm14  1  0.644507  0.643377  0.063386  1
  Tm  Tm15  1  0.645737  0.646822  0.646822  1
  Zn  Zn16  1  0.422745  0.422364  0.422364  1
  Zn  Zn17  1  0.736950  0.422291  0.422291  1
  Zn  Zn18  1  0.423963  0.736802  0.420876  1
  Zn  Zn19  1  0.423963  0.420876  0.736802  1
  Rh  Rh20  1  0.854856  0.855035  0.430758  1
  Rh  Rh21  1  0.852339  0.858370  0.858370  1
  Rh  Rh22  1  0.432360  0.855860  0.855860  1
  Rh  Rh23  1  0.854856  0.430758  0.855035  1
