# generated using pymatgen
data_Cs5(VS3)2
_symmetry_space_group_name_H-M   'P 1'
_cell_length_a   7.93675724
_cell_length_b   8.60775221
_cell_length_c   17.63005877
_cell_angle_alpha   89.99251859
_cell_angle_beta   100.67178327
_cell_angle_gamma   122.84061441
_symmetry_Int_Tables_number   1
_chemical_formula_structural   Cs5(VS3)2
_chemical_formula_sum   'Cs10 V4 S12'
_cell_volume   987.08580291
_cell_formula_units_Z   2
loop_
 _symmetry_equiv_pos_site_id
 _symmetry_equiv_pos_as_xyz
  1  'x, y, z'
loop_
 _atom_site_type_symbol
 _atom_site_label
 _atom_site_symmetry_multiplicity
 _atom_site_fract_x
 _atom_site_fract_y
 _atom_site_fract_z
 _atom_site_occupancy
  Cs  Cs0  1  0.130097  0.804521  0.997273  1
  Cs  Cs1  1  0.869931  0.674420  0.502728  1
  Cs  Cs2  1  0.869903  0.195479  0.002727  1
  Cs  Cs3  1  0.130069  0.325580  0.497272  1
  Cs  Cs4  1  0.313393  0.074278  0.720322  1
  Cs  Cs5  1  0.686584  0.760885  0.779692  1
  Cs  Cs6  1  0.686607  0.925722  0.279678  1
  Cs  Cs7  1  0.313416  0.239115  0.220308  1
  Cs  Cs8  1  0.999996  0.384293  0.750000  1
  Cs  Cs9  1  0.000004  0.615707  0.250000  1
  V  V10  1  0.541458  0.924096  0.564813  1
  V  V11  1  0.458544  0.382657  0.935199  1
  V  V12  1  0.458542  0.075904  0.435187  1
  V  V13  1  0.541456  0.617343  0.064801  1
  S  S14  1  0.850932  0.993929  0.621841  1
  S  S15  1  0.149087  0.143078  0.878156  1
  S  S16  1  0.149068  0.006071  0.378159  1
  S  S17  1  0.850913  0.856922  0.121844  1
  S  S18  1  0.313499  0.720472  0.629885  1
  S  S19  1  0.686452  0.406964  0.870127  1
  S  S20  1  0.686501  0.279528  0.370115  1
  S  S21  1  0.313548  0.593036  0.129873  1
  S  S22  1  0.545589  0.189909  0.561457  1
  S  S23  1  0.454315  0.644289  0.938525  1
  S  S24  1  0.454411  0.810091  0.438543  1
  S  S25  1  0.545685  0.355711  0.061475  1
