# generated using pymatgen
data_Pr4MnNi13
_symmetry_space_group_name_H-M   'P 1'
_cell_length_a   5.08466445
_cell_length_b   5.04989999
_cell_length_c   12.67040639
_cell_angle_alpha   78.62229429
_cell_angle_beta   78.42495257
_cell_angle_gamma   59.77201297
_symmetry_Int_Tables_number   1
_chemical_formula_structural   Pr4MnNi13
_chemical_formula_sum   'Pr4 Mn1 Ni13'
_cell_volume   273.59866490
_cell_formula_units_Z   1
loop_
 _symmetry_equiv_pos_site_id
 _symmetry_equiv_pos_as_xyz
  1  'x, y, z'
loop_
 _atom_site_type_symbol
 _atom_site_label
 _atom_site_symmetry_multiplicity
 _atom_site_fract_x
 _atom_site_fract_y
 _atom_site_fract_z
 _atom_site_occupancy
  Pr  Pr0  1  0.947631  0.948061  0.156676  1
  Pr  Pr1  1  0.052369  0.051939  0.843324  1
  Pr  Pr2  1  0.852751  0.853143  0.441355  1
  Pr  Pr3  1  0.147249  0.146857  0.558645  1
  Mn  Mn4  1  0.500000  0.000000  0.000000  1
  Ni  Ni5  1  0.500000  0.500000  0.500000  1
  Ni  Ni6  1  0.722546  0.719654  0.835252  1
  Ni  Ni7  1  0.277454  0.280346  0.164748  1
  Ni  Ni8  1  0.612741  0.611410  0.163108  1
  Ni  Ni9  1  0.387259  0.388590  0.836892  1
  Ni  Ni10  1  0.000000  0.500000  0.000000  1
  Ni  Ni11  1  0.500000  0.500000  0.000000  1
  Ni  Ni12  1  0.392191  0.391725  0.326250  1
  Ni  Ni13  1  0.889834  0.391725  0.326250  1
  Ni  Ni14  1  0.391673  0.890884  0.325770  1
  Ni  Ni15  1  0.607809  0.608275  0.673750  1
  Ni  Ni16  1  0.110166  0.608275  0.673750  1
  Ni  Ni17  1  0.608327  0.109116  0.674230  1
