# generated using pymatgen
data_Ac2Tb(InPd)3
_symmetry_space_group_name_H-M   'P 1'
_cell_length_a   7.93044232
_cell_length_b   7.88826585
_cell_length_c   4.18493200
_cell_angle_alpha   90.00000000
_cell_angle_beta   90.00000000
_cell_angle_gamma   119.82423682
_symmetry_Int_Tables_number   1
_chemical_formula_structural   Ac2Tb(InPd)3
_chemical_formula_sum   'Ac2 Tb1 In3 Pd3'
_cell_volume   227.12474211
_cell_formula_units_Z   1
loop_
 _symmetry_equiv_pos_site_id
 _symmetry_equiv_pos_as_xyz
  1  'x, y, z'
loop_
 _atom_site_type_symbol
 _atom_site_label
 _atom_site_symmetry_multiplicity
 _atom_site_fract_x
 _atom_site_fract_y
 _atom_site_fract_z
 _atom_site_occupancy
  Ac  Ac0  1  0.588099  0.998235  0.500000  1
  Ac  Ac1  1  0.411901  0.410136  0.500000  1
  Tb  Tb2  1  0.000000  0.591343  0.500000  1
  In  In3  1  0.765456  0.750571  0.000000  1
  In  In4  1  0.234544  0.985115  0.000000  1
  In  In5  1  0.000000  0.260304  0.000000  1
  Pd  Pd6  1  0.000000  0.997982  0.500000  1
  Pd  Pd7  1  0.681102  0.343708  0.000000  1
  Pd  Pd8  1  0.318898  0.662607  0.000000  1
