# generated using pymatgen
data_Ho2Th(AlNi)3
_symmetry_space_group_name_H-M   'P 1'
_cell_length_a   6.98945985
_cell_length_b   7.09197740
_cell_length_c   3.89302200
_cell_angle_alpha   90.00000000
_cell_angle_beta   90.00000000
_cell_angle_gamma   120.48638706
_symmetry_Int_Tables_number   1
_chemical_formula_structural   Ho2Th(AlNi)3
_chemical_formula_sum   'Ho2 Th1 Al3 Ni3'
_cell_volume   166.29491438
_cell_formula_units_Z   1
loop_
 _symmetry_equiv_pos_site_id
 _symmetry_equiv_pos_as_xyz
  1  'x, y, z'
loop_
 _atom_site_type_symbol
 _atom_site_label
 _atom_site_symmetry_multiplicity
 _atom_site_fract_x
 _atom_site_fract_y
 _atom_site_fract_z
 _atom_site_occupancy
  Ho  Ho0  1  0.582804  0.999784  0.500000  1
  Ho  Ho1  1  0.417196  0.416980  0.500000  1
  Th  Th2  1  0.000000  0.578272  0.500000  1
  Al  Al3  1  0.242632  0.009233  0.000000  1
  Al  Al4  1  0.757368  0.766601  0.000000  1
  Al  Al5  1  0.000000  0.225435  0.000000  1
  Ni  Ni6  1  0.325067  0.666613  0.000000  1
  Ni  Ni7  1  0.674933  0.341545  0.000000  1
  Ni  Ni8  1  0.000000  0.995536  0.500000  1
