# generated using pymatgen
data_Tb2Y7ScCd3Ru
_symmetry_space_group_name_H-M   'P 1'
_cell_length_a   9.57838065
_cell_length_b   9.57838062
_cell_length_c   9.81272726
_cell_angle_alpha   90.06722195
_cell_angle_beta   89.93277961
_cell_angle_gamma   120.00452179
_symmetry_Int_Tables_number   1
_chemical_formula_structural   Tb2Y7ScCd3Ru
_chemical_formula_sum   'Tb4 Y14 Sc2 Cd6 Ru2'
_cell_volume   779.62248098
_cell_formula_units_Z   2
loop_
 _symmetry_equiv_pos_site_id
 _symmetry_equiv_pos_as_xyz
  1  'x, y, z'
loop_
 _atom_site_type_symbol
 _atom_site_label
 _atom_site_symmetry_multiplicity
 _atom_site_fract_x
 _atom_site_fract_y
 _atom_site_fract_z
 _atom_site_occupancy
  Tb  Tb0  1  0.208374  0.791626  0.440424  1
  Tb  Tb1  1  0.208348  0.416816  0.440454  1
  Tb  Tb2  1  0.583184  0.791652  0.440454  1
  Tb  Tb3  1  0.791329  0.208671  0.559755  1
  Y  Y4  1  0.791780  0.583675  0.559063  1
  Y  Y5  1  0.416325  0.208220  0.559063  1
  Y  Y6  1  0.791825  0.208175  0.940902  1
  Y  Y7  1  0.791677  0.583521  0.940871  1
  Y  Y8  1  0.416479  0.208323  0.940871  1
  Y  Y9  1  0.208144  0.791856  0.058966  1
  Y  Y10  1  0.208079  0.416241  0.058921  1
  Y  Y11  1  0.583759  0.791921  0.058921  1
  Y  Y12  1  0.541028  0.458972  0.250023  1
  Y  Y13  1  0.540958  0.082059  0.250067  1
  Y  Y14  1  0.917941  0.459042  0.250067  1
  Y  Y15  1  0.458996  0.541004  0.749969  1
  Y  Y16  1  0.458957  0.917913  0.749954  1
  Y  Y17  1  0.082087  0.541043  0.749954  1
  Sc  Sc18  1  0.000039  0.999961  0.499989  1
  Sc  Sc19  1  0.000026  0.999974  0.000314  1
  Cd  Cd20  1  0.889290  0.110710  0.249625  1
  Cd  Cd21  1  0.889244  0.778439  0.249811  1
  Cd  Cd22  1  0.221561  0.110756  0.249811  1
  Cd  Cd23  1  0.110765  0.889235  0.750172  1
  Cd  Cd24  1  0.110859  0.221552  0.750258  1
  Cd  Cd25  1  0.778448  0.889141  0.750258  1
  Ru  Ru26  1  0.333351  0.666649  0.251901  1
  Ru  Ru27  1  0.667147  0.332853  0.749161  1
