# generated using pymatgen
data_Nb6V2Co3SiN2
_symmetry_space_group_name_H-M   'P 1'
_cell_length_a   8.08048912
_cell_length_b   8.08048889
_cell_length_c   8.08502700
_cell_angle_alpha   59.98141614
_cell_angle_beta   59.98141709
_cell_angle_gamma   60.19436707
_symmetry_Int_Tables_number   1
_chemical_formula_structural   Nb6V2Co3SiN2
_chemical_formula_sum   'Nb12 V4 Co6 Si2 N4'
_cell_volume   373.72594440
_cell_formula_units_Z   2
loop_
 _symmetry_equiv_pos_site_id
 _symmetry_equiv_pos_as_xyz
  1  'x, y, z'
loop_
 _atom_site_type_symbol
 _atom_site_label
 _atom_site_symmetry_multiplicity
 _atom_site_fract_x
 _atom_site_fract_y
 _atom_site_fract_z
 _atom_site_occupancy
  Nb  Nb0  1  0.800193  0.800193  0.199807  1
  Nb  Nb1  1  0.189792  0.189792  0.810208  1
  Nb  Nb2  1  0.808342  0.194066  0.804179  1
  Nb  Nb3  1  0.194066  0.808342  0.193412  1
  Nb  Nb4  1  0.194066  0.808342  0.804179  1
  Nb  Nb5  1  0.808342  0.194066  0.193412  1
  Nb  Nb6  1  0.438418  0.438418  0.061582  1
  Nb  Nb7  1  0.054184  0.054184  0.445816  1
  Nb  Nb8  1  0.442814  0.059813  0.441543  1
  Nb  Nb9  1  0.059813  0.442814  0.055830  1
  Nb  Nb10  1  0.059813  0.442814  0.441543  1
  Nb  Nb11  1  0.442814  0.059813  0.055830  1
  V  V12  1  0.119630  0.615145  0.632612  1
  V  V13  1  0.615145  0.119630  0.632612  1
  V  V14  1  0.623483  0.623483  0.116568  1
  V  V15  1  0.623483  0.623483  0.636466  1
  Co  Co16  1  0.428723  0.428723  0.725683  1
  Co  Co17  1  0.428723  0.428723  0.416872  1
  Co  Co18  1  0.523688  0.825045  0.825633  1
  Co  Co19  1  0.825045  0.523688  0.825633  1
  Co  Co20  1  0.827558  0.827558  0.518394  1
  Co  Co21  1  0.827558  0.827558  0.826487  1
  Si  Si22  1  0.747615  0.411306  0.420541  1
  Si  Si23  1  0.411306  0.747615  0.420541  1
  N  N24  1  0.628657  0.123955  0.123694  1
  N  N25  1  0.123955  0.628657  0.123694  1
  N  N26  1  0.126386  0.126386  0.623178  1
  N  N27  1  0.126386  0.126386  0.124051  1
