# generated using pymatgen
data_Cd5In13
_symmetry_space_group_name_H-M   'P 1'
_cell_length_a   17.52162452
_cell_length_b   17.52162411
_cell_length_c   7.43029200
_cell_angle_alpha   95.88449613
_cell_angle_beta   95.88449599
_cell_angle_gamma   11.47330136
_symmetry_Int_Tables_number   1
_chemical_formula_structural   Cd5In13
_chemical_formula_sum   'Cd5 In13'
_cell_volume   451.33211314
_cell_formula_units_Z   1
loop_
 _symmetry_equiv_pos_site_id
 _symmetry_equiv_pos_as_xyz
  1  'x, y, z'
loop_
 _atom_site_type_symbol
 _atom_site_label
 _atom_site_symmetry_multiplicity
 _atom_site_fract_x
 _atom_site_fract_y
 _atom_site_fract_z
 _atom_site_occupancy
  Cd  Cd0  1  0.000000  0.000000  0.000000  1
  Cd  Cd1  1  0.664219  0.664219  0.337304  1
  Cd  Cd2  1  0.888031  0.888031  0.438886  1
  Cd  Cd3  1  0.111969  0.111969  0.561115  1
  Cd  Cd4  1  0.335781  0.335781  0.662696  1
  In  In5  1  0.111172  0.111172  0.066796  1
  In  In6  1  0.221229  0.221229  0.118665  1
  In  In7  1  0.335689  0.335689  0.169089  1
  In  In8  1  0.444873  0.444873  0.215488  1
  In  In9  1  0.556538  0.556538  0.290863  1
  In  In10  1  0.780240  0.780240  0.400506  1
  In  In11  1  0.000000  0.000000  0.500000  1
  In  In12  1  0.219760  0.219760  0.599495  1
  In  In13  1  0.443462  0.443462  0.709137  1
  In  In14  1  0.555127  0.555127  0.784511  1
  In  In15  1  0.664310  0.664310  0.830911  1
  In  In16  1  0.778770  0.778770  0.881334  1
  In  In17  1  0.888829  0.888829  0.933205  1
