# generated using pymatgen
data_LiEuAlF6
_symmetry_space_group_name_H-M   'P 1'
_cell_length_a   8.95446700
_cell_length_b   5.17853592
_cell_length_c   10.35293507
_cell_angle_alpha   89.86951884
_cell_angle_beta   90.00000000
_cell_angle_gamma   90.00000000
_symmetry_Int_Tables_number   1
_chemical_formula_structural   LiEuAlF6
_chemical_formula_sum   'Li4 Eu4 Al4 F24'
_cell_volume   480.07500703
_cell_formula_units_Z   4
loop_
 _symmetry_equiv_pos_site_id
 _symmetry_equiv_pos_as_xyz
  1  'x, y, z'
loop_
 _atom_site_type_symbol
 _atom_site_label
 _atom_site_symmetry_multiplicity
 _atom_site_fract_x
 _atom_site_fract_y
 _atom_site_fract_z
 _atom_site_occupancy
  Li  Li0  1  0.915419  0.261077  0.753856  1
  Li  Li1  1  0.415419  0.738923  0.746144  1
  Li  Li2  1  0.084581  0.738923  0.246144  1
  Li  Li3  1  0.584581  0.261077  0.253856  1
  Eu  Eu4  1  0.261532  0.250321  0.001185  1
  Eu  Eu5  1  0.761532  0.749679  0.498815  1
  Eu  Eu6  1  0.738468  0.749679  0.998815  1
  Eu  Eu7  1  0.238468  0.250321  0.501185  1
  Al  Al8  1  0.917559  0.243203  0.250530  1
  Al  Al9  1  0.417559  0.756797  0.249470  1
  Al  Al10  1  0.082441  0.756797  0.749470  1
  Al  Al11  1  0.582441  0.243203  0.750530  1
  F  F12  1  0.763309  0.131451  0.354580  1
  F  F13  1  0.263309  0.868549  0.145420  1
  F  F14  1  0.236691  0.868549  0.645420  1
  F  F15  1  0.736691  0.131451  0.854580  1
  F  F16  1  0.940422  0.528755  0.354470  1
  F  F17  1  0.440422  0.471245  0.145530  1
  F  F18  1  0.059578  0.471245  0.645530  1
  F  F19  1  0.559578  0.528755  0.854470  1
  F  F20  1  0.771209  0.391354  0.152653  1
  F  F21  1  0.271209  0.608646  0.347347  1
  F  F22  1  0.228791  0.608646  0.847347  1
  F  F23  1  0.728791  0.391354  0.652653  1
  F  F24  1  0.917038  0.952344  0.150561  1
  F  F25  1  0.417038  0.047656  0.349439  1
  F  F26  1  0.082962  0.047656  0.849439  1
  F  F27  1  0.582962  0.952344  0.650561  1
  F  F28  1  0.051981  0.066246  0.351984  1
  F  F29  1  0.551981  0.933754  0.148016  1
  F  F30  1  0.948019  0.933754  0.648016  1
  F  F31  1  0.448019  0.066246  0.851984  1
  F  F32  1  0.062440  0.392135  0.149951  1
  F  F33  1  0.562440  0.607865  0.350049  1
  F  F34  1  0.937560  0.607865  0.850049  1
  F  F35  1  0.437560  0.392135  0.649951  1
