# generated using pymatgen
data_CeNd(Be12Ni)2
_symmetry_space_group_name_H-M   'P 1'
_cell_length_a   7.30573365
_cell_length_b   7.35297265
_cell_length_c   7.27782684
_cell_angle_alpha   59.91121937
_cell_angle_beta   59.88056782
_cell_angle_gamma   59.53670806
_symmetry_Int_Tables_number   1
_chemical_formula_structural   CeNd(Be12Ni)2
_chemical_formula_sum   'Ce1 Nd1 Be24 Ni2'
_cell_volume   275.03584882
_cell_formula_units_Z   1
loop_
 _symmetry_equiv_pos_site_id
 _symmetry_equiv_pos_as_xyz
  1  'x, y, z'
loop_
 _atom_site_type_symbol
 _atom_site_label
 _atom_site_symmetry_multiplicity
 _atom_site_fract_x
 _atom_site_fract_y
 _atom_site_fract_z
 _atom_site_occupancy
  Ce  Ce0  1  0.998001  0.002026  0.997990  1
  Nd  Nd1  1  0.499821  0.500204  0.499796  1
  Be  Be2  1  0.316346  0.538976  0.181723  1
  Be  Be3  1  0.181738  0.962916  0.316374  1
  Be  Be4  1  0.040058  0.686475  0.457759  1
  Be  Be5  1  0.457734  0.815694  0.040081  1
  Be  Be6  1  0.684049  0.034072  0.816702  1
  Be  Be7  1  0.816734  0.465162  0.684013  1
  Be  Be8  1  0.958358  0.544938  0.311017  1
  Be  Be9  1  0.542629  0.954910  0.188995  1
  Be  Be10  1  0.188992  0.313410  0.542672  1
  Be  Be11  1  0.311015  0.185662  0.958414  1
  Be  Be12  1  0.461578  0.033134  0.687063  1
  Be  Be13  1  0.036809  0.465241  0.814679  1
  Be  Be14  1  0.814669  0.683268  0.036766  1
  Be  Be15  1  0.687047  0.818286  0.461575  1
  Be  Be16  1  0.312114  0.959030  0.542941  1
  Be  Be17  1  0.186526  0.542506  0.958214  1
  Be  Be18  1  0.542927  0.185958  0.312110  1
  Be  Be19  1  0.958214  0.312718  0.186542  1
  Be  Be20  1  0.687910  0.462239  0.036633  1
  Be  Be21  1  0.815067  0.036593  0.461774  1
  Be  Be22  1  0.036691  0.813213  0.687918  1
  Be  Be23  1  0.461751  0.686635  0.815025  1
  Be  Be24  1  0.250132  0.249860  0.250176  1
  Be  Be25  1  0.749687  0.750330  0.749671  1
  Ni  Ni26  1  0.549159  0.307100  0.954243  1
  Ni  Ni27  1  0.954244  0.189442  0.549135  1
