# generated using pymatgen
data_Ho4ErTm3(WO6)4
_symmetry_space_group_name_H-M   'P 1'
_cell_length_a   5.36648408
_cell_length_b   7.66259848
_cell_length_c   11.38968007
_cell_angle_alpha   75.40847418
_cell_angle_beta   90.00338322
_cell_angle_gamma   90.01985314
_symmetry_Int_Tables_number   1
_chemical_formula_structural   Ho4ErTm3(WO6)4
_chemical_formula_sum   'Ho4 Er1 Tm3 W4 O24'
_cell_volume   453.25123524
_cell_formula_units_Z   1
loop_
 _symmetry_equiv_pos_site_id
 _symmetry_equiv_pos_as_xyz
  1  'x, y, z'
loop_
 _atom_site_type_symbol
 _atom_site_label
 _atom_site_symmetry_multiplicity
 _atom_site_fract_x
 _atom_site_fract_y
 _atom_site_fract_z
 _atom_site_occupancy
  Ho  Ho0  1  0.740534  0.000185  0.750351  1
  Ho  Ho1  1  0.259524  0.000135  0.249742  1
  Ho  Ho2  1  0.684168  0.499764  0.750258  1
  Ho  Ho3  1  0.315988  0.499901  0.249929  1
  Er  Er4  1  0.184378  0.794920  0.578448  1
  Tm  Tm5  1  0.815856  0.794588  0.078683  1
  Tm  Tm6  1  0.184169  0.205430  0.921262  1
  Tm  Tm7  1  0.815611  0.205587  0.421170  1
  W  W8  1  0.255513  0.722942  0.886232  1
  W  W9  1  0.744703  0.723010  0.385748  1
  W  W10  1  0.255351  0.276928  0.613987  1
  W  W11  1  0.744644  0.276924  0.114018  1
  O  O12  1  0.044167  0.940782  0.896516  1
  O  O13  1  0.535791  0.846506  0.932318  1
  O  O14  1  0.955780  0.941010  0.396032  1
  O  O15  1  0.459227  0.790499  0.727045  1
  O  O16  1  0.465212  0.847024  0.431144  1
  O  O17  1  0.980691  0.710920  0.771232  1
  O  O18  1  0.541774  0.790559  0.226105  1
  O  O19  1  0.851233  0.633769  0.549548  1
  O  O20  1  0.360565  0.487803  0.886609  1
  O  O21  1  0.019306  0.711105  0.270526  1
  O  O22  1  0.361665  0.511480  0.613520  1
  O  O23  1  0.852616  0.365650  0.950265  1
  O  O24  1  0.147393  0.634201  0.049913  1
  O  O25  1  0.639106  0.487716  0.386273  1
  O  O26  1  0.981198  0.289139  0.729594  1
  O  O27  1  0.639410  0.512065  0.113427  1
  O  O28  1  0.147461  0.365794  0.450230  1
  O  O29  1  0.458175  0.209031  0.773749  1
  O  O30  1  0.018993  0.288884  0.229375  1
  O  O31  1  0.535390  0.153237  0.568053  1
  O  O32  1  0.541674  0.209301  0.273584  1
  O  O33  1  0.042675  0.060235  0.603605  1
  O  O34  1  0.464096  0.153702  0.068002  1
  O  O35  1  0.955960  0.059273  0.103507  1
