# generated using pymatgen
data_Hf4CoCuN
_symmetry_space_group_name_H-M   'P 1'
_cell_length_a   8.56603755
_cell_length_b   8.56603735
_cell_length_c   8.56603700
_cell_angle_alpha   59.99999748
_cell_angle_beta   59.99999827
_cell_angle_gamma   59.99999805
_symmetry_Int_Tables_number   1
_chemical_formula_structural   Hf4CoCuN
_chemical_formula_sum   'Hf16 Co4 Cu4 N4'
_cell_volume   444.45200039
_cell_formula_units_Z   4
loop_
 _symmetry_equiv_pos_site_id
 _symmetry_equiv_pos_as_xyz
  1  'x, y, z'
loop_
 _atom_site_type_symbol
 _atom_site_label
 _atom_site_symmetry_multiplicity
 _atom_site_fract_x
 _atom_site_fract_y
 _atom_site_fract_z
 _atom_site_occupancy
  Hf  Hf0  1  0.094204  0.635265  0.635265  1
  Hf  Hf1  1  0.635265  0.094204  0.635265  1
  Hf  Hf2  1  0.635265  0.635265  0.094204  1
  Hf  Hf3  1  0.635265  0.635265  0.635265  1
  Hf  Hf4  1  0.817015  0.817015  0.182985  1
  Hf  Hf5  1  0.182985  0.182985  0.817015  1
  Hf  Hf6  1  0.817015  0.182985  0.817015  1
  Hf  Hf7  1  0.182985  0.817015  0.182985  1
  Hf  Hf8  1  0.182985  0.817015  0.817015  1
  Hf  Hf9  1  0.817015  0.182985  0.182985  1
  Hf  Hf10  1  0.432690  0.432690  0.067310  1
  Hf  Hf11  1  0.067310  0.067310  0.432690  1
  Hf  Hf12  1  0.432690  0.067310  0.432690  1
  Hf  Hf13  1  0.067310  0.432690  0.067310  1
  Hf  Hf14  1  0.067310  0.432690  0.432690  1
  Hf  Hf15  1  0.432690  0.067310  0.067310  1
  Co  Co16  1  0.458915  0.847029  0.847029  1
  Co  Co17  1  0.847029  0.458915  0.847029  1
  Co  Co18  1  0.847029  0.847029  0.458915  1
  Co  Co19  1  0.847029  0.847029  0.847029  1
  Cu  Cu20  1  0.748994  0.417002  0.417002  1
  Cu  Cu21  1  0.417002  0.748994  0.417002  1
  Cu  Cu22  1  0.417002  0.417002  0.748994  1
  Cu  Cu23  1  0.417002  0.417002  0.417002  1
  N  N24  1  0.623723  0.125426  0.125426  1
  N  N25  1  0.125426  0.623723  0.125426  1
  N  N26  1  0.125426  0.125426  0.623723  1
  N  N27  1  0.125426  0.125426  0.125426  1
