# generated using pymatgen
data_Ba2In4P6O23
_symmetry_space_group_name_H-M   'P 1'
_cell_length_a   6.72681861
_cell_length_b   8.39789097
_cell_length_c   9.21020580
_cell_angle_alpha   100.37117380
_cell_angle_beta   104.31414194
_cell_angle_gamma   103.50639423
_symmetry_Int_Tables_number   1
_chemical_formula_structural   Ba2In4P6O23
_chemical_formula_sum   'Ba2 In4 P6 O23'
_cell_volume   474.33251594
_cell_formula_units_Z   1
loop_
 _symmetry_equiv_pos_site_id
 _symmetry_equiv_pos_as_xyz
  1  'x, y, z'
loop_
 _atom_site_type_symbol
 _atom_site_label
 _atom_site_symmetry_multiplicity
 _atom_site_fract_x
 _atom_site_fract_y
 _atom_site_fract_z
 _atom_site_occupancy
  Ba  Ba0  1  0.453277  0.449618  0.705055  1
  Ba  Ba1  1  0.551457  0.549960  0.295443  1
  In  In2  1  0.975366  0.787558  0.053726  1
  In  In3  1  0.020706  0.214432  0.943786  1
  In  In4  1  0.773794  0.182921  0.424927  1
  In  In5  1  0.228020  0.814879  0.574884  1
  P  P6  1  0.992831  0.515515  0.741518  1
  P  P7  1  0.010352  0.484622  0.257649  1
  P  P8  1  0.524642  0.861175  0.091651  1
  P  P9  1  0.483280  0.143380  0.911615  1
  P  P10  1  0.782912  0.899896  0.655032  1
  P  P11  1  0.218252  0.099628  0.346552  1
  O  O12  1  0.096847  0.387221  0.808421  1
  O  O13  1  0.907915  0.614175  0.192230  1
  O  O14  1  0.810981  0.422664  0.587386  1
  O  O15  1  0.192526  0.576025  0.411787  1
  O  O16  1  0.294781  0.767679  0.076540  1
  O  O17  1  0.701342  0.250084  0.911217  1
  O  O18  1  0.914235  0.951895  0.834772  1
  O  O19  1  0.081975  0.048744  0.168568  1
  O  O20  1  0.626704  0.739878  0.010418  1
  O  O21  1  0.371655  0.254682  0.993988  1
  O  O22  1  0.556911  0.777484  0.628672  1
  O  O23  1  0.444557  0.220857  0.370701  1
  O  O24  1  0.876364  0.597248  0.846218  1
  O  O25  1  0.126517  0.404207  0.151692  1
  O  O26  1  0.183671  0.645243  0.723075  1
  O  O27  1  0.819966  0.353410  0.275431  1
  O  O28  1  0.767916  0.067043  0.612934  1
  O  O29  1  0.234952  0.933105  0.389296  1
  O  O30  1  0.660577  0.937812  0.261610  1
  O  O31  1  0.337842  0.050862  0.747433  1
  O  O32  1  0.892337  0.801436  0.555672  1
  O  O33  1  0.111421  0.198872  0.447973  1
  O  O34  1  0.533117  0.011792  0.009130  1
