# generated using pymatgen
data_Ba4Mo(BrN2)2
_symmetry_space_group_name_H-M   'P 1'
_cell_length_a   6.33906000
_cell_length_b   8.53453129
_cell_length_c   11.26464363
_cell_angle_alpha   81.49503836
_cell_angle_beta   90.00000000
_cell_angle_gamma   90.00000000
_symmetry_Int_Tables_number   1
_chemical_formula_structural   Ba4Mo(BrN2)2
_chemical_formula_sum   'Ba8 Mo2 Br4 N8'
_cell_volume   602.72558882
_cell_formula_units_Z   2
loop_
 _symmetry_equiv_pos_site_id
 _symmetry_equiv_pos_as_xyz
  1  'x, y, z'
loop_
 _atom_site_type_symbol
 _atom_site_label
 _atom_site_symmetry_multiplicity
 _atom_site_fract_x
 _atom_site_fract_y
 _atom_site_fract_z
 _atom_site_occupancy
  Ba  Ba0  1  0.750000  0.284302  0.302257  1
  Ba  Ba1  1  0.750000  0.004110  0.620940  1
  Ba  Ba2  1  0.750000  0.445979  0.614538  1
  Ba  Ba3  1  0.750000  0.810529  0.103760  1
  Ba  Ba4  1  0.250000  0.995890  0.379060  1
  Ba  Ba5  1  0.250000  0.554021  0.385462  1
  Ba  Ba6  1  0.250000  0.189471  0.896240  1
  Ba  Ba7  1  0.250000  0.715698  0.697743  1
  Mo  Mo8  1  0.750000  0.770733  0.401796  1
  Mo  Mo9  1  0.250000  0.229267  0.598204  1
  Br  Br10  1  0.250000  0.330274  0.162320  1
  Br  Br11  1  0.750000  0.669726  0.837680  1
  Br  Br12  1  0.250000  0.837132  0.099100  1
  Br  Br13  1  0.750000  0.162868  0.900900  1
  N  N14  1  0.250000  0.039002  0.704038  1
  N  N15  1  0.005748  0.244797  0.499480  1
  N  N16  1  0.505748  0.755203  0.500520  1
  N  N17  1  0.994252  0.755203  0.500520  1
  N  N18  1  0.750000  0.609245  0.305164  1
  N  N19  1  0.750000  0.960998  0.295962  1
  N  N20  1  0.494252  0.244797  0.499480  1
  N  N21  1  0.250000  0.390755  0.694836  1
