# generated using pymatgen
data_Zr5SiSn2
_symmetry_space_group_name_H-M   'P 1'
_cell_length_a   8.38142319
_cell_length_b   8.38159298
_cell_length_c   8.38142234
_cell_angle_alpha   96.15318057
_cell_angle_beta   96.13038006
_cell_angle_gamma   141.81360774
_symmetry_Int_Tables_number   1
_chemical_formula_structural   Zr5SiSn2
_chemical_formula_sum   'Zr10 Si2 Sn4'
_cell_volume   343.98292839
_cell_formula_units_Z   2
loop_
 _symmetry_equiv_pos_site_id
 _symmetry_equiv_pos_as_xyz
  1  'x, y, z'
loop_
 _atom_site_type_symbol
 _atom_site_label
 _atom_site_symmetry_multiplicity
 _atom_site_fract_x
 _atom_site_fract_y
 _atom_site_fract_z
 _atom_site_occupancy
  Zr  Zr0  1  0.425510  0.292915  0.718429  1
  Zr  Zr1  1  0.207130  0.074437  0.281543  1
  Zr  Zr2  1  0.574490  0.707085  0.281570  1
  Zr  Zr3  1  0.250017  0.750000  0.500017  1
  Zr  Zr4  1  0.292895  0.574437  0.867308  1
  Zr  Zr5  1  0.707105  0.425563  0.132692  1
  Zr  Zr6  1  0.749983  0.250000  0.499983  1
  Zr  Zr7  1  0.925515  0.207085  0.132595  1
  Zr  Zr8  1  0.792870  0.925563  0.718457  1
  Zr  Zr9  1  0.074485  0.792915  0.867405  1
  Si  Si10  1  0.249998  0.250000  0.999998  1
  Si  Si11  1  0.750002  0.750000  0.000002  1
  Sn  Sn12  1  0.164372  0.335552  0.499950  1
  Sn  Sn13  1  0.664398  0.164448  0.828821  1
  Sn  Sn14  1  0.835628  0.664448  0.500050  1
  Sn  Sn15  1  0.335602  0.835552  0.171179  1
