# generated using pymatgen
data_CaNdB2(Ru2C)2
_symmetry_space_group_name_H-M   'P 1'
_cell_length_a   6.72091679
_cell_length_b   5.90716753
_cell_length_c   5.53366961
_cell_angle_alpha   71.86825787
_cell_angle_beta   56.64487160
_cell_angle_gamma   51.48688101
_symmetry_Int_Tables_number   1
_chemical_formula_structural   CaNdB2(Ru2C)2
_chemical_formula_sum   'Ca1 Nd1 B2 Ru4 C2'
_cell_volume   143.42445934
_cell_formula_units_Z   1
loop_
 _symmetry_equiv_pos_site_id
 _symmetry_equiv_pos_as_xyz
  1  'x, y, z'
loop_
 _atom_site_type_symbol
 _atom_site_label
 _atom_site_symmetry_multiplicity
 _atom_site_fract_x
 _atom_site_fract_y
 _atom_site_fract_z
 _atom_site_occupancy
  Ca  Ca0  1  0.000000  0.000000  0.000000  1
  Nd  Nd1  1  0.250000  0.250000  0.250000  1
  B  B2  1  0.569559  0.930441  0.569559  1
  B  B3  1  0.930441  0.569559  0.930441  1
  Ru  Ru4  1  0.630996  0.630996  0.369004  1
  Ru  Ru5  1  0.369004  0.369004  0.630996  1
  Ru  Ru6  1  0.607963  0.607963  0.892037  1
  Ru  Ru7  1  0.892037  0.892037  0.607963  1
  C  C8  1  0.316216  0.683784  0.316216  1
  C  C9  1  0.683784  0.316216  0.683784  1
