# generated using pymatgen
data_Y2P7Ru11Rh
_symmetry_space_group_name_H-M   'P 1'
_cell_length_a   9.39476003
_cell_length_b   9.43649713
_cell_length_c   3.95267100
_cell_angle_alpha   90.00000000
_cell_angle_beta   90.00000000
_cell_angle_gamma   119.70124342
_symmetry_Int_Tables_number   1
_chemical_formula_structural   Y2P7Ru11Rh
_chemical_formula_sum   'Y2 P7 Ru11 Rh1'
_cell_volume   304.38088595
_cell_formula_units_Z   1
loop_
 _symmetry_equiv_pos_site_id
 _symmetry_equiv_pos_as_xyz
  1  'x, y, z'
loop_
 _atom_site_type_symbol
 _atom_site_label
 _atom_site_symmetry_multiplicity
 _atom_site_fract_x
 _atom_site_fract_y
 _atom_site_fract_z
 _atom_site_occupancy
  Y  Y0  1  0.668409  0.334755  0.500000  1
  Y  Y1  1  0.331136  0.662485  0.000000  1
  P  P2  1  0.600143  0.713053  0.500000  1
  P  P3  1  0.997544  0.999654  0.000000  1
  P  P4  1  0.279175  0.881858  0.500000  1
  P  P5  1  0.117058  0.399708  0.500000  1
  P  P6  1  0.886508  0.577155  0.000000  1
  P  P7  1  0.425712  0.309417  0.000000  1
  P  P8  1  0.695992  0.119983  0.000000  1
  Ru  Ru9  1  0.391011  0.441326  0.500000  1
  Ru  Ru10  1  0.913272  0.124437  0.500000  1
  Ru  Ru11  1  0.209928  0.086555  0.500000  1
  Ru  Ru12  1  0.877497  0.793613  0.500000  1
  Ru  Ru13  1  0.724859  0.891472  0.000000  1
  Ru  Ru14  1  0.109165  0.838203  0.000000  1
  Ru  Ru15  1  0.163511  0.270041  0.000000  1
  Ru  Ru16  1  0.428302  0.066486  0.000000  1
  Ru  Ru17  1  0.936153  0.361534  0.000000  1
  Ru  Ru18  1  0.640908  0.575060  0.000000  1
  Ru  Ru19  1  0.051811  0.608841  0.500000  1
  Rh  Rh20  1  0.551906  0.944362  0.500000  1
