# generated using pymatgen
data_Dy3Er7(Ga2Sb)2
_symmetry_space_group_name_H-M   'P 1'
_cell_length_a   8.63362302
_cell_length_b   8.65235129
_cell_length_c   6.49366300
_cell_angle_alpha   90.00000000
_cell_angle_beta   90.00000000
_cell_angle_gamma   120.08013388
_symmetry_Int_Tables_number   1
_chemical_formula_structural   Dy3Er7(Ga2Sb)2
_chemical_formula_sum   'Dy3 Er7 Ga4 Sb2'
_cell_volume   419.75545809
_cell_formula_units_Z   1
loop_
 _symmetry_equiv_pos_site_id
 _symmetry_equiv_pos_as_xyz
  1  'x, y, z'
loop_
 _atom_site_type_symbol
 _atom_site_label
 _atom_site_symmetry_multiplicity
 _atom_site_fract_x
 _atom_site_fract_y
 _atom_site_fract_z
 _atom_site_occupancy
  Dy  Dy0  1  0.986926  0.236267  0.250000  1
  Dy  Dy1  1  0.765624  0.765928  0.250000  1
  Dy  Dy2  1  0.236341  0.987314  0.250000  1
  Er  Er3  1  0.986835  0.750538  0.750000  1
  Er  Er4  1  0.765881  0.999778  0.750000  1
  Er  Er5  1  0.236197  0.249018  0.750000  1
  Er  Er6  1  0.331964  0.665947  0.500224  1
  Er  Er7  1  0.684619  0.342428  0.999745  1
  Er  Er8  1  0.684619  0.342428  0.500255  1
  Er  Er9  1  0.331964  0.665947  0.999776  1
  Ga  Ga10  1  0.001386  0.600940  0.250000  1
  Ga  Ga11  1  0.001537  0.399951  0.750000  1
  Ga  Ga12  1  0.598097  0.601478  0.750000  1
  Ga  Ga13  1  0.597611  0.996461  0.250000  1
  Sb  Sb14  1  0.394835  0.004246  0.750000  1
  Sb  Sb15  1  0.395564  0.391330  0.250000  1
