# generated using pymatgen
data_YbTm2Lu(MnB4)4
_symmetry_space_group_name_H-M   'P 1'
_cell_length_a   3.36144300
_cell_length_b   5.87602369
_cell_length_c   11.36101235
_cell_angle_alpha   90.01346972
_cell_angle_beta   90.00000000
_cell_angle_gamma   90.00000000
_symmetry_Int_Tables_number   1
_chemical_formula_structural   YbTm2Lu(MnB4)4
_chemical_formula_sum   'Yb1 Tm2 Lu1 Mn4 B16'
_cell_volume   224.40178601
_cell_formula_units_Z   1
loop_
 _symmetry_equiv_pos_site_id
 _symmetry_equiv_pos_as_xyz
  1  'x, y, z'
loop_
 _atom_site_type_symbol
 _atom_site_label
 _atom_site_symmetry_multiplicity
 _atom_site_fract_x
 _atom_site_fract_y
 _atom_site_fract_z
 _atom_site_occupancy
  Yb  Yb0  1  0.500000  0.874029  0.349773  1
  Tm  Tm1  1  0.500000  0.373043  0.150841  1
  Tm  Tm2  1  0.500000  0.626248  0.848970  1
  Lu  Lu3  1  0.500000  0.125781  0.649998  1
  Mn  Mn4  1  0.500000  0.373147  0.418224  1
  Mn  Mn5  1  0.500000  0.625907  0.584325  1
  Mn  Mn6  1  0.500000  0.127499  0.915596  1
  Mn  Mn7  1  0.500000  0.872166  0.082476  1
  B  B8  1  0.000000  0.112970  0.046152  1
  B  B9  1  0.000000  0.887816  0.952488  1
  B  B10  1  0.000000  0.387136  0.547644  1
  B  B11  1  0.000000  0.613054  0.454163  1
  B  B12  1  0.000000  0.137129  0.468478  1
  B  B13  1  0.000000  0.862846  0.533224  1
  B  B14  1  0.000000  0.362634  0.967345  1
  B  B15  1  0.000000  0.637044  0.031537  1
  B  B16  1  0.000000  0.025145  0.191043  1
  B  B17  1  0.000000  0.975818  0.807677  1
  B  B18  1  0.000000  0.475063  0.691974  1
  B  B19  1  0.000000  0.523794  0.308879  1
  B  B20  1  0.000000  0.218595  0.316243  1
  B  B21  1  0.000000  0.782930  0.683930  1
  B  B22  1  0.000000  0.281938  0.815413  1
  B  B23  1  0.000000  0.718265  0.183610  1
