# generated using pymatgen
data_CeNd2(ZnPt)3
_symmetry_space_group_name_H-M   'P 1'
_cell_length_a   7.49749200
_cell_length_b   7.45810825
_cell_length_c   3.93148500
_cell_angle_alpha   90.00000000
_cell_angle_beta   90.00000000
_cell_angle_gamma   120.17483720
_symmetry_Int_Tables_number   1
_chemical_formula_structural   CeNd2(ZnPt)3
_chemical_formula_sum   'Ce1 Nd2 Zn3 Pt3'
_cell_volume   190.04835707
_cell_formula_units_Z   1
loop_
 _symmetry_equiv_pos_site_id
 _symmetry_equiv_pos_as_xyz
  1  'x, y, z'
loop_
 _atom_site_type_symbol
 _atom_site_label
 _atom_site_symmetry_multiplicity
 _atom_site_fract_x
 _atom_site_fract_y
 _atom_site_fract_z
 _atom_site_occupancy
  Ce  Ce0  1  0.409402  0.000000  0.000000  1
  Nd  Nd1  1  0.998229  0.405951  0.000000  1
  Nd  Nd2  1  0.592277  0.594049  0.000000  1
  Zn  Zn3  1  0.998724  0.751953  0.500000  1
  Zn  Zn4  1  0.246772  0.248047  0.500000  1
  Zn  Zn5  1  0.757364  0.000000  0.500000  1
  Pt  Pt6  1  0.006828  0.000000  0.000000  1
  Pt  Pt7  1  0.655807  0.321211  0.500000  1
  Pt  Pt8  1  0.334596  0.678789  0.500000  1
