# generated using pymatgen
data_Zr3(Ga2Ni)2
_symmetry_space_group_name_H-M   'P 1'
_cell_length_a   6.61158800
_cell_length_b   6.61158599
_cell_length_c   3.91337000
_cell_angle_alpha   90.00000000
_cell_angle_beta   90.00000000
_cell_angle_gamma   119.99999005
_symmetry_Int_Tables_number   1
_chemical_formula_structural   Zr3(Ga2Ni)2
_chemical_formula_sum   'Zr3 Ga4 Ni2'
_cell_volume   148.14705412
_cell_formula_units_Z   1
loop_
 _symmetry_equiv_pos_site_id
 _symmetry_equiv_pos_as_xyz
  1  'x, y, z'
loop_
 _atom_site_type_symbol
 _atom_site_label
 _atom_site_symmetry_multiplicity
 _atom_site_fract_x
 _atom_site_fract_y
 _atom_site_fract_z
 _atom_site_occupancy
  Zr  Zr0  1  0.987149  0.404814  0.500000  1
  Zr  Zr1  1  0.595186  0.582334  0.500000  1
  Zr  Zr2  1  0.417666  0.012851  0.500000  1
  Ga  Ga3  1  0.986137  0.747053  0.000000  1
  Ga  Ga4  1  0.252947  0.239083  0.000000  1
  Ga  Ga5  1  0.760917  0.013863  0.000000  1
  Ga  Ga6  1  0.333333  0.666667  0.000000  1
  Ni  Ni7  1  0.000000  0.000000  0.500000  1
  Ni  Ni8  1  0.666667  0.333333  0.000000  1
