# generated using pymatgen
data_HoEr7Ti7Si16W5
_symmetry_space_group_name_H-M   'P 1'
_cell_length_a   6.75757282
_cell_length_b   6.94876612
_cell_length_c   13.14731800
_cell_angle_alpha   90.02960945
_cell_angle_beta   89.94769458
_cell_angle_gamma   89.96648451
_symmetry_Int_Tables_number   1
_chemical_formula_structural   HoEr7Ti7Si16W5
_chemical_formula_sum   'Ho1 Er7 Ti7 Si16 W5'
_cell_volume   617.35544471
_cell_formula_units_Z   1
loop_
 _symmetry_equiv_pos_site_id
 _symmetry_equiv_pos_as_xyz
  1  'x, y, z'
loop_
 _atom_site_type_symbol
 _atom_site_label
 _atom_site_symmetry_multiplicity
 _atom_site_fract_x
 _atom_site_fract_y
 _atom_site_fract_z
 _atom_site_occupancy
  Ho  Ho0  1  0.002970  0.171047  0.096881  1
  Er  Er1  1  0.502884  0.329421  0.096640  1
  Er  Er2  1  0.002126  0.171255  0.403740  1
  Er  Er3  1  0.497499  0.672138  0.595854  1
  Er  Er4  1  0.997368  0.829539  0.903441  1
  Er  Er5  1  0.496194  0.670431  0.902294  1
  Er  Er6  1  0.999255  0.830159  0.595715  1
  Er  Er7  1  0.502268  0.328466  0.405281  1
  Ti  Ti8  1  0.835719  0.327004  0.626280  1
  Ti  Ti9  1  0.331557  0.172395  0.872803  1
  Ti  Ti10  1  0.167161  0.671827  0.126826  1
  Ti  Ti11  1  0.666598  0.829079  0.373742  1
  Ti  Ti12  1  0.166915  0.672692  0.374242  1
  Ti  Ti13  1  0.667739  0.827881  0.126920  1
  Ti  Ti14  1  0.832072  0.326574  0.871506  1
  Si  Si15  1  0.658867  0.038979  0.543974  1
  Si  Si16  1  0.160076  0.460011  0.956430  1
  Si  Si17  1  0.340068  0.960025  0.043484  1
  Si  Si18  1  0.839066  0.538669  0.456597  1
  Si  Si19  1  0.336887  0.959554  0.458093  1
  Si  Si20  1  0.840187  0.539891  0.043848  1
  Si  Si21  1  0.658991  0.039429  0.956399  1
  Si  Si22  1  0.163521  0.459933  0.543252  1
  Si  Si23  1  0.535152  0.374391  0.748949  1
  Si  Si24  1  0.036452  0.123891  0.750110  1
  Si  Si25  1  0.463901  0.626058  0.250484  1
  Si  Si26  1  0.964338  0.874630  0.250381  1
  Si  Si27  1  0.797573  0.627703  0.748939  1
  Si  Si28  1  0.298501  0.872789  0.750088  1
  Si  Si29  1  0.203881  0.372532  0.250764  1
  Si  Si30  1  0.702260  0.128265  0.250268  1
  W  W31  1  0.331612  0.171011  0.626671  1
  W  W32  1  0.661823  0.010663  0.749317  1
  W  W33  1  0.160408  0.489321  0.749337  1
  W  W34  1  0.338598  0.991981  0.250239  1
  W  W35  1  0.839516  0.510366  0.250205  1
