# generated using pymatgen
data_NdYHf2(Al3Ir)6
_symmetry_space_group_name_H-M   'P 1'
_cell_length_a   7.52829464
_cell_length_b   7.52163088
_cell_length_c   9.39912700
_cell_angle_alpha   90.00000000
_cell_angle_beta   90.00000000
_cell_angle_gamma   119.64826445
_symmetry_Int_Tables_number   1
_chemical_formula_structural   NdYHf2(Al3Ir)6
_chemical_formula_sum   'Nd1 Y1 Hf2 Al18 Ir6'
_cell_volume   462.54625339
_cell_formula_units_Z   1
loop_
 _symmetry_equiv_pos_site_id
 _symmetry_equiv_pos_as_xyz
  1  'x, y, z'
loop_
 _atom_site_type_symbol
 _atom_site_label
 _atom_site_symmetry_multiplicity
 _atom_site_fract_x
 _atom_site_fract_y
 _atom_site_fract_z
 _atom_site_occupancy
  Nd  Nd0  1  0.329476  0.006092  0.750000  1
  Y  Y1  1  0.005693  0.328765  0.750000  1
  Hf  Hf2  1  0.993412  0.672261  0.250000  1
  Hf  Hf3  1  0.673565  0.994721  0.250000  1
  Al  Al4  1  0.122342  0.123083  0.250000  1
  Al  Al5  1  0.867634  0.869120  0.750000  1
  Al  Al6  1  0.997399  0.335357  0.083254  1
  Al  Al7  1  0.997792  0.664197  0.932511  1
  Al  Al8  1  0.997792  0.664197  0.567489  1
  Al  Al9  1  0.335258  0.997161  0.415038  1
  Al  Al10  1  0.997399  0.335357  0.416746  1
  Al  Al11  1  0.666086  0.998514  0.567541  1
  Al  Al12  1  0.666086  0.998514  0.932459  1
  Al  Al13  1  0.335258  0.997161  0.084962  1
  Al  Al14  1  0.334207  0.335134  0.547792  1
  Al  Al15  1  0.668456  0.668567  0.436419  1
  Al  Al16  1  0.668456  0.668567  0.063581  1
  Al  Al17  1  0.334207  0.335134  0.952208  1
  Al  Al18  1  0.339192  0.555075  0.250000  1
  Al  Al19  1  0.663959  0.455418  0.750000  1
  Al  Al20  1  0.554927  0.340013  0.250000  1
  Al  Al21  1  0.453326  0.659233  0.750000  1
  Ir  Ir22  1  0.673683  0.328686  0.003794  1
  Ir  Ir23  1  0.328275  0.672938  0.003615  1
  Ir  Ir24  1  0.328275  0.672938  0.496385  1
  Ir  Ir25  1  0.673683  0.328686  0.496206  1
  Ir  Ir26  1  0.997081  0.997558  0.003975  1
  Ir  Ir27  1  0.997081  0.997558  0.496025  1
