# generated using pymatgen
data_Eu10Si4Sb2O
_symmetry_space_group_name_H-M   'P 1'
_cell_length_a   9.36285542
_cell_length_b   9.36285599
_cell_length_c   9.36285653
_cell_angle_alpha   129.05205730
_cell_angle_beta   129.05205294
_cell_angle_gamma   74.92682682
_symmetry_Int_Tables_number   1
_chemical_formula_structural   Eu10Si4Sb2O
_chemical_formula_sum   'Eu10 Si4 Sb2 O1'
_cell_volume   482.06467903
_cell_formula_units_Z   1
loop_
 _symmetry_equiv_pos_site_id
 _symmetry_equiv_pos_as_xyz
  1  'x, y, z'
loop_
 _atom_site_type_symbol
 _atom_site_label
 _atom_site_symmetry_multiplicity
 _atom_site_fract_x
 _atom_site_fract_y
 _atom_site_fract_z
 _atom_site_occupancy
  Eu  Eu0  1  0.759991  0.441692  0.000000  1
  Eu  Eu1  1  0.441692  0.759992  0.000000  1
  Eu  Eu2  1  0.941219  0.941219  0.658932  1
  Eu  Eu3  1  0.282287  0.282287  0.341068  1
  Eu  Eu4  1  0.717713  0.058781  0.000000  1
  Eu  Eu5  1  0.058781  0.717713  0.000000  1
  Eu  Eu6  1  0.558308  0.558308  0.318299  1
  Eu  Eu7  1  0.240008  0.240008  0.681701  1
  Eu  Eu8  1  0.250000  0.750000  0.500000  1
  Eu  Eu9  1  0.750000  0.250000  0.500000  1
  Si  Si10  1  0.136379  0.361536  0.000000  1
  Si  Si11  1  0.361536  0.136379  0.000000  1
  Si  Si12  1  0.863621  0.863621  0.225157  1
  Si  Si13  1  0.638464  0.638464  0.774843  1
  Sb  Sb14  1  0.000000  0.500000  0.500000  1
  Sb  Sb15  1  0.500000  0.000000  0.500000  1
  O  O16  1  0.500000  0.500000  0.000000  1
