# generated using pymatgen
data_ErLu3(ZrPt)4
_symmetry_space_group_name_H-M   'P 1'
_cell_length_a   4.67333900
_cell_length_b   7.01423840
_cell_length_c   8.22122187
_cell_angle_alpha   89.93742557
_cell_angle_beta   90.00000000
_cell_angle_gamma   90.00000000
_symmetry_Int_Tables_number   1
_chemical_formula_structural   ErLu3(ZrPt)4
_chemical_formula_sum   'Er1 Lu3 Zr4 Pt4'
_cell_volume   269.49078412
_cell_formula_units_Z   1
loop_
 _symmetry_equiv_pos_site_id
 _symmetry_equiv_pos_as_xyz
  1  'x, y, z'
loop_
 _atom_site_type_symbol
 _atom_site_label
 _atom_site_symmetry_multiplicity
 _atom_site_fract_x
 _atom_site_fract_y
 _atom_site_fract_z
 _atom_site_occupancy
  Er  Er0  1  0.250000  0.984353  0.321267  1
  Lu  Lu1  1  0.750000  0.516397  0.821334  1
  Lu  Lu2  1  0.250000  0.483810  0.177900  1
  Lu  Lu3  1  0.750000  0.016284  0.678861  1
  Zr  Zr4  1  0.750000  0.649555  0.420779  1
  Zr  Zr5  1  0.250000  0.350292  0.579971  1
  Zr  Zr6  1  0.750000  0.150375  0.078543  1
  Zr  Zr7  1  0.250000  0.849839  0.920089  1
  Pt  Pt8  1  0.750000  0.267030  0.405772  1
  Pt  Pt9  1  0.250000  0.732887  0.596174  1
  Pt  Pt10  1  0.750000  0.765447  0.093863  1
  Pt  Pt11  1  0.250000  0.233733  0.905446  1
