# generated using pymatgen
data_Tb2Y6Hf3Si16W9
_symmetry_space_group_name_H-M   'P 1'
_cell_length_a   6.97290580
_cell_length_b   6.97340934
_cell_length_c   12.93572545
_cell_angle_alpha   89.95660962
_cell_angle_beta   90.05413408
_cell_angle_gamma   89.92243053
_symmetry_Int_Tables_number   1
_chemical_formula_structural   Tb2Y6Hf3Si16W9
_chemical_formula_sum   'Tb2 Y6 Hf3 Si16 W9'
_cell_volume   628.99766037
_cell_formula_units_Z   1
loop_
 _symmetry_equiv_pos_site_id
 _symmetry_equiv_pos_as_xyz
  1  'x, y, z'
loop_
 _atom_site_type_symbol
 _atom_site_label
 _atom_site_symmetry_multiplicity
 _atom_site_fract_x
 _atom_site_fract_y
 _atom_site_fract_z
 _atom_site_occupancy
  Tb  Tb0  1  0.336094  0.001176  0.783012  1
  Tb  Tb1  1  0.662871  0.003344  0.279551  1
  Y  Y2  1  0.001191  0.336176  0.217006  1
  Y  Y3  1  0.003247  0.662808  0.720520  1
  Y  Y4  1  0.162172  0.498337  0.468579  1
  Y  Y5  1  0.499635  0.839212  0.030875  1
  Y  Y6  1  0.839189  0.499604  0.969111  1
  Y  Y7  1  0.498322  0.162184  0.531367  1
  Hf  Hf8  1  0.832714  0.832686  0.499983  1
  Hf  Hf9  1  0.331152  0.667623  0.247775  1
  Hf  Hf10  1  0.667427  0.330970  0.752233  1
  Si  Si11  1  0.372655  0.294737  0.317663  1
  Si  Si12  1  0.625793  0.706811  0.817787  1
  Si  Si13  1  0.205179  0.873419  0.568169  1
  Si  Si14  1  0.124528  0.801924  0.933653  1
  Si  Si15  1  0.802076  0.124587  0.066395  1
  Si  Si16  1  0.873630  0.205243  0.431881  1
  Si  Si17  1  0.294662  0.373019  0.682270  1
  Si  Si18  1  0.706819  0.625447  0.182135  1
  Si  Si19  1  0.289220  0.043897  0.184105  1
  Si  Si20  1  0.708269  0.959702  0.688537  1
  Si  Si21  1  0.458466  0.791264  0.437632  1
  Si  Si22  1  0.210169  0.532329  0.059216  1
  Si  Si23  1  0.532386  0.210267  0.940779  1
  Si  Si24  1  0.791263  0.458535  0.562410  1
  Si  Si25  1  0.043910  0.289648  0.815817  1
  Si  Si26  1  0.959811  0.707972  0.311392  1
  W  W27  1  0.166429  0.166415  0.000121  1
  W  W28  1  0.162190  0.994949  0.375185  1
  W  W29  1  0.833350  0.005438  0.877219  1
  W  W30  1  0.506085  0.661653  0.626542  1
  W  W31  1  0.340172  0.497109  0.873824  1
  W  W32  1  0.496865  0.340125  0.126168  1
  W  W33  1  0.661838  0.505986  0.373435  1
  W  W34  1  0.995058  0.162231  0.624830  1
  W  W35  1  0.005167  0.833175  0.122825  1
