# generated using pymatgen
data_Ta12Al9Ir3C4
_symmetry_space_group_name_H-M   'P 1'
_cell_length_a   8.32607428
_cell_length_b   8.32607499
_cell_length_c   8.32607437
_cell_angle_alpha   60.15847747
_cell_angle_beta   60.15847113
_cell_angle_gamma   60.15848027
_symmetry_Int_Tables_number   1
_chemical_formula_structural   Ta12Al9Ir3C4
_chemical_formula_sum   'Ta12 Al9 Ir3 C4'
_cell_volume   409.60191006
_cell_formula_units_Z   1
loop_
 _symmetry_equiv_pos_site_id
 _symmetry_equiv_pos_as_xyz
  1  'x, y, z'
loop_
 _atom_site_type_symbol
 _atom_site_label
 _atom_site_symmetry_multiplicity
 _atom_site_fract_x
 _atom_site_fract_y
 _atom_site_fract_z
 _atom_site_occupancy
  Ta  Ta0  1  0.184215  0.815794  0.184215  1
  Ta  Ta1  1  0.813727  0.188370  0.813727  1
  Ta  Ta2  1  0.065785  0.434206  0.065785  1
  Ta  Ta3  1  0.061630  0.436273  0.436273  1
  Ta  Ta4  1  0.434206  0.065785  0.065785  1
  Ta  Ta5  1  0.436273  0.061630  0.436273  1
  Ta  Ta6  1  0.813727  0.813727  0.188370  1
  Ta  Ta7  1  0.065785  0.065785  0.434206  1
  Ta  Ta8  1  0.184215  0.184215  0.815794  1
  Ta  Ta9  1  0.188370  0.813727  0.813727  1
  Ta  Ta10  1  0.436273  0.436273  0.061630  1
  Ta  Ta11  1  0.815794  0.184215  0.184215  1
  Al  Al12  1  0.625000  0.625000  0.625000  1
  Al  Al13  1  0.838721  0.838721  0.496638  1
  Al  Al14  1  0.496638  0.838721  0.838721  1
  Al  Al15  1  0.411279  0.753362  0.411279  1
  Al  Al16  1  0.753362  0.411279  0.411279  1
  Al  Al17  1  0.415238  0.415238  0.415238  1
  Al  Al18  1  0.411279  0.411279  0.753362  1
  Al  Al19  1  0.838721  0.496638  0.838721  1
  Al  Al20  1  0.834762  0.834762  0.834762  1
  Ir  Ir21  1  0.125000  0.625000  0.625000  1
  Ir  Ir22  1  0.625000  0.625000  0.125000  1
  Ir  Ir23  1  0.625000  0.125000  0.625000  1
  C  C24  1  0.125000  0.125000  0.125000  1
  C  C25  1  0.125000  0.125000  0.625000  1
  C  C26  1  0.625000  0.125000  0.125000  1
  C  C27  1  0.125000  0.625000  0.125000  1
