# generated using pymatgen
data_Ta6Al4ZnCrC2
_symmetry_space_group_name_H-M   'P 1'
_cell_length_a   8.30336468
_cell_length_b   8.35844161
_cell_length_c   8.30336478
_cell_angle_alpha   59.77956033
_cell_angle_beta   59.61290179
_cell_angle_gamma   59.77952940
_symmetry_Int_Tables_number   1
_chemical_formula_structural   Ta6Al4ZnCrC2
_chemical_formula_sum   'Ta12 Al8 Zn2 Cr2 C4'
_cell_volume   404.93485233
_cell_formula_units_Z   2
loop_
 _symmetry_equiv_pos_site_id
 _symmetry_equiv_pos_as_xyz
  1  'x, y, z'
loop_
 _atom_site_type_symbol
 _atom_site_label
 _atom_site_symmetry_multiplicity
 _atom_site_fract_x
 _atom_site_fract_y
 _atom_site_fract_z
 _atom_site_occupancy
  Ta  Ta0  1  0.566750  0.933248  0.566749  1
  Ta  Ta1  1  0.310728  0.681169  0.696237  1
  Ta  Ta2  1  0.696212  0.311880  0.310730  1
  Ta  Ta3  1  0.306892  0.693094  0.306893  1
  Ta  Ta4  1  0.696236  0.681169  0.310729  1
  Ta  Ta5  1  0.310730  0.311879  0.696213  1
  Ta  Ta6  1  0.553764  0.568831  0.939271  1
  Ta  Ta7  1  0.939272  0.568831  0.553763  1
  Ta  Ta8  1  0.553788  0.938120  0.939270  1
  Ta  Ta9  1  0.939270  0.938121  0.553787  1
  Ta  Ta10  1  0.683250  0.316752  0.683251  1
  Ta  Ta11  1  0.943108  0.556906  0.943107  1
  Al  Al12  1  0.917073  0.908766  0.917074  1
  Al  Al13  1  0.003641  0.334678  0.326986  1
  Al  Al14  1  0.332924  0.992895  0.332924  1
  Al  Al15  1  0.326986  0.334678  0.003641  1
  Al  Al16  1  0.917076  0.257105  0.917076  1
  Al  Al17  1  0.923014  0.915322  0.246359  1
  Al  Al18  1  0.246359  0.915322  0.923014  1
  Al  Al19  1  0.332927  0.341234  0.332926  1
  Zn  Zn20  1  0.625000  0.125000  0.125000  1
  Zn  Zn21  1  0.125000  0.125000  0.625000  1
  Cr  Cr22  1  0.125000  0.125000  0.125000  1
  Cr  Cr23  1  0.125000  0.625000  0.125000  1
  C  C24  1  0.625000  0.625000  0.625000  1
  C  C25  1  0.125000  0.625000  0.625000  1
  C  C26  1  0.625000  0.125000  0.625000  1
  C  C27  1  0.625000  0.625000  0.125000  1
