# generated using pymatgen
data_LiYb5(Si3Ir)8
_symmetry_space_group_name_H-M   'P 1'
_cell_length_a   10.13281217
_cell_length_b   10.13281277
_cell_length_c   8.13387200
_cell_angle_alpha   89.98961272
_cell_angle_beta   89.98960707
_cell_angle_gamma   132.64829890
_symmetry_Int_Tables_number   1
_chemical_formula_structural   LiYb5(Si3Ir)8
_chemical_formula_sum   'Li1 Yb5 Si24 Ir8'
_cell_volume   614.26457239
_cell_formula_units_Z   1
loop_
 _symmetry_equiv_pos_site_id
 _symmetry_equiv_pos_as_xyz
  1  'x, y, z'
loop_
 _atom_site_type_symbol
 _atom_site_label
 _atom_site_symmetry_multiplicity
 _atom_site_fract_x
 _atom_site_fract_y
 _atom_site_fract_z
 _atom_site_occupancy
  Li  Li0  1  0.000000  0.000000  0.000000  1
  Yb  Yb1  1  0.499029  0.999106  0.249730  1
  Yb  Yb2  1  0.000894  0.500971  0.750270  1
  Yb  Yb3  1  0.500971  0.000894  0.750270  1
  Yb  Yb4  1  0.999106  0.499029  0.249730  1
  Yb  Yb5  1  0.500000  0.500000  0.500000  1
  Si  Si6  1  0.385788  0.154132  0.998655  1
  Si  Si7  1  0.656918  0.891274  0.502246  1
  Si  Si8  1  0.108726  0.343082  0.497754  1
  Si  Si9  1  0.845868  0.614212  0.001345  1
  Si  Si10  1  0.614212  0.845868  0.001345  1
  Si  Si11  1  0.343082  0.108726  0.497754  1
  Si  Si12  1  0.891274  0.656918  0.502246  1
  Si  Si13  1  0.154132  0.385788  0.998655  1
  Si  Si14  1  0.619266  0.384185  0.225777  1
  Si  Si15  1  0.885145  0.117765  0.270467  1
  Si  Si16  1  0.882235  0.114855  0.729533  1
  Si  Si17  1  0.615815  0.380734  0.774223  1
  Si  Si18  1  0.380734  0.615815  0.774223  1
  Si  Si19  1  0.114855  0.882235  0.729533  1
  Si  Si20  1  0.703977  0.296023  0.000000  1
  Si  Si21  1  0.796060  0.203940  0.500000  1
  Si  Si22  1  0.296023  0.703977  0.000000  1
  Si  Si23  1  0.203940  0.796060  0.500000  1
  Si  Si24  1  0.166117  0.166117  0.327890  1
  Si  Si25  1  0.672433  0.672433  0.165850  1
  Si  Si26  1  0.327567  0.327567  0.834150  1
  Si  Si27  1  0.833883  0.833883  0.672110  1
  Si  Si28  1  0.384185  0.619266  0.225777  1
  Si  Si29  1  0.117765  0.885145  0.270467  1
  Ir  Ir30  1  0.625124  0.625124  0.872375  1
  Ir  Ir31  1  0.127112  0.127112  0.625941  1
  Ir  Ir32  1  0.872888  0.872888  0.374059  1
  Ir  Ir33  1  0.374876  0.374876  0.127625  1
  Ir  Ir34  1  0.331905  0.668095  0.500000  1
  Ir  Ir35  1  0.168328  0.831672  0.000000  1
  Ir  Ir36  1  0.668095  0.331905  0.500000  1
  Ir  Ir37  1  0.831672  0.168328  0.000000  1
