# generated using pymatgen
data_Li2Nd2Si2Sb
_symmetry_space_group_name_H-M   'P 1'
_cell_length_a   9.74501744
_cell_length_b   9.74501790
_cell_length_c   6.91582100
_cell_angle_alpha   90.00000000
_cell_angle_beta   90.00000000
_cell_angle_gamma   153.12615333
_symmetry_Int_Tables_number   1
_chemical_formula_structural   Li2Nd2Si2Sb
_chemical_formula_sum   'Li4 Nd4 Si4 Sb2'
_cell_volume   296.87522065
_cell_formula_units_Z   2
loop_
 _symmetry_equiv_pos_site_id
 _symmetry_equiv_pos_as_xyz
  1  'x, y, z'
loop_
 _atom_site_type_symbol
 _atom_site_label
 _atom_site_symmetry_multiplicity
 _atom_site_fract_x
 _atom_site_fract_y
 _atom_site_fract_z
 _atom_site_occupancy
  Li  Li0  1  0.185684  0.814316  0.058825  1
  Li  Li1  1  0.185684  0.814316  0.441175  1
  Li  Li2  1  0.814316  0.185684  0.941175  1
  Li  Li3  1  0.814316  0.185684  0.558825  1
  Nd  Nd4  1  0.351691  0.648309  0.250000  1
  Nd  Nd5  1  0.648309  0.351691  0.750000  1
  Nd  Nd6  1  0.546231  0.453769  0.250000  1
  Nd  Nd7  1  0.453769  0.546231  0.750000  1
  Si  Si8  1  0.057580  0.942420  0.925667  1
  Si  Si9  1  0.942420  0.057580  0.074333  1
  Si  Si10  1  0.942420  0.057580  0.425667  1
  Si  Si11  1  0.057580  0.942420  0.574333  1
  Sb  Sb12  1  0.719439  0.280561  0.250000  1
  Sb  Sb13  1  0.280561  0.719439  0.750000  1
