# generated using pymatgen
data_YHo5(Sb4Au3)2
_symmetry_space_group_name_H-M   'P 1'
_cell_length_a   8.60210179
_cell_length_b   8.60210156
_cell_length_c   8.60210245
_cell_angle_alpha   109.50809508
_cell_angle_beta   109.45279221
_cell_angle_gamma   109.45278460
_symmetry_Int_Tables_number   1
_chemical_formula_structural   YHo5(Sb4Au3)2
_chemical_formula_sum   'Y1 Ho5 Sb8 Au6'
_cell_volume   489.99506725
_cell_formula_units_Z   1
loop_
 _symmetry_equiv_pos_site_id
 _symmetry_equiv_pos_as_xyz
  1  'x, y, z'
loop_
 _atom_site_type_symbol
 _atom_site_label
 _atom_site_symmetry_multiplicity
 _atom_site_fract_x
 _atom_site_fract_y
 _atom_site_fract_z
 _atom_site_occupancy
  Y  Y0  1  0.250000  0.125000  0.875000  1
  Ho  Ho1  1  0.750000  0.375000  0.625000  1
  Ho  Ho2  1  0.875070  0.249987  0.125174  1
  Ho  Ho3  1  0.124813  0.874826  0.249896  1
  Ho  Ho4  1  0.624930  0.750104  0.374917  1
  Ho  Ho5  1  0.375187  0.625083  0.750013  1
  Sb  Sb6  1  0.320673  0.320868  0.320615  1
  Sb  Sb7  1  0.499852  0.999857  0.179433  1
  Sb  Sb8  1  0.179327  0.499942  0.000195  1
  Sb  Sb9  1  0.000148  0.179580  0.500005  1
  Sb  Sb10  1  0.820425  0.820567  0.820420  1
  Sb  Sb11  1  0.499747  0.999805  0.679132  1
  Sb  Sb12  1  0.000253  0.679385  0.500058  1
  Sb  Sb13  1  0.679575  0.499995  0.000143  1
  Au  Au14  1  0.375668  0.250469  0.624267  1
  Au  Au15  1  0.750000  0.875000  0.125000  1
  Au  Au16  1  0.250000  0.625000  0.375000  1
  Au  Au17  1  0.626202  0.375733  0.251401  1
  Au  Au18  1  0.124332  0.748599  0.874801  1
  Au  Au19  1  0.873798  0.125199  0.749531  1
