# generated using pymatgen
data_MnFe3(SnO4)2
_symmetry_space_group_name_H-M   'P 1'
_cell_length_a   6.17414953
_cell_length_b   6.34457818
_cell_length_c   6.34316176
_cell_angle_alpha   88.72857600
_cell_angle_beta   119.15721587
_cell_angle_gamma   60.85025263
_symmetry_Int_Tables_number   1
_chemical_formula_structural   MnFe3(SnO4)2
_chemical_formula_sum   'Mn1 Fe3 Sn2 O8'
_cell_volume   178.20205410
_cell_formula_units_Z   1
loop_
 _symmetry_equiv_pos_site_id
 _symmetry_equiv_pos_as_xyz
  1  'x, y, z'
loop_
 _atom_site_type_symbol
 _atom_site_label
 _atom_site_symmetry_multiplicity
 _atom_site_fract_x
 _atom_site_fract_y
 _atom_site_fract_z
 _atom_site_occupancy
  Mn  Mn0  1  0.499928  0.234950  0.234815  1
  Fe  Fe1  1  0.999926  0.013155  0.013022  1
  Fe  Fe2  1  0.749272  0.624735  0.624708  1
  Fe  Fe3  1  0.250734  0.624688  0.624711  1
  Sn  Sn4  1  0.750238  0.625024  0.125529  1
  Sn  Sn5  1  0.249779  0.125500  0.625039  1
  O  O6  1  0.770340  0.378414  0.378388  1
  O  O7  1  0.229595  0.378439  0.378359  1
  O  O8  1  0.268975  0.872576  0.872738  1
  O  O9  1  0.731157  0.872610  0.872707  1
  O  O10  1  0.768193  0.834930  0.371150  1
  O  O11  1  0.232044  0.370814  0.835053  1
  O  O12  1  0.264097  0.882957  0.411108  1
  O  O13  1  0.735722  0.411210  0.882673  1
