# generated using pymatgen
data_CeThNi7B2Ru
_symmetry_space_group_name_H-M   'P 1'
_cell_length_a   5.10946002
_cell_length_b   4.96830855
_cell_length_c   7.06293900
_cell_angle_alpha   90.00000000
_cell_angle_beta   90.00000000
_cell_angle_gamma   119.09029639
_symmetry_Int_Tables_number   1
_chemical_formula_structural   CeThNi7B2Ru
_chemical_formula_sum   'Ce1 Th1 Ni7 B2 Ru1'
_cell_volume   156.67805982
_cell_formula_units_Z   1
loop_
 _symmetry_equiv_pos_site_id
 _symmetry_equiv_pos_as_xyz
  1  'x, y, z'
loop_
 _atom_site_type_symbol
 _atom_site_label
 _atom_site_symmetry_multiplicity
 _atom_site_fract_x
 _atom_site_fract_y
 _atom_site_fract_z
 _atom_site_occupancy
  Ce  Ce0  1  0.000000  0.000000  0.501527  1
  Th  Th1  1  0.000000  0.000000  0.994703  1
  Ni  Ni2  1  0.658599  0.329299  0.004658  1
  Ni  Ni3  1  0.341401  0.670701  0.004658  1
  Ni  Ni4  1  0.500000  0.500000  0.707674  1
  Ni  Ni5  1  0.500000  0.000000  0.707674  1
  Ni  Ni6  1  0.500000  0.500000  0.292266  1
  Ni  Ni7  1  0.500000  0.000000  0.292266  1
  Ni  Ni8  1  0.000000  0.500000  0.293500  1
  B  B9  1  0.660047  0.330023  0.496760  1
  B  B10  1  0.339953  0.669977  0.496760  1
  Ru  Ru11  1  0.000000  0.500000  0.707555  1
