# generated using pymatgen
data_Er3Co8Si4TcP2
_symmetry_space_group_name_H-M   'P 1'
_cell_length_a   3.74738700
_cell_length_b   10.68175300
_cell_length_c   12.28654000
_cell_angle_alpha   90.00000000
_cell_angle_beta   90.00000000
_cell_angle_gamma   90.00000000
_symmetry_Int_Tables_number   1
_chemical_formula_structural   Er3Co8Si4TcP2
_chemical_formula_sum   'Er6 Co16 Si8 Tc2 P4'
_cell_volume   491.81376086
_cell_formula_units_Z   2
loop_
 _symmetry_equiv_pos_site_id
 _symmetry_equiv_pos_as_xyz
  1  'x, y, z'
loop_
 _atom_site_type_symbol
 _atom_site_label
 _atom_site_symmetry_multiplicity
 _atom_site_fract_x
 _atom_site_fract_y
 _atom_site_fract_z
 _atom_site_occupancy
  Er  Er0  1  0.750000  0.250000  0.474069  1
  Er  Er1  1  0.250000  0.750000  0.525931  1
  Er  Er2  1  0.250000  0.929433  0.797035  1
  Er  Er3  1  0.250000  0.570567  0.797035  1
  Er  Er4  1  0.750000  0.070567  0.202965  1
  Er  Er5  1  0.750000  0.429433  0.202965  1
  Co  Co6  1  0.250000  0.250000  0.298956  1
  Co  Co7  1  0.750000  0.750000  0.701044  1
  Co  Co8  1  0.750000  0.250000  0.019737  1
  Co  Co9  1  0.250000  0.750000  0.980263  1
  Co  Co10  1  0.250000  0.416729  0.009077  1
  Co  Co11  1  0.250000  0.083271  0.009077  1
  Co  Co12  1  0.750000  0.583271  0.990923  1
  Co  Co13  1  0.750000  0.916729  0.990923  1
  Co  Co14  1  0.250000  0.445831  0.570624  1
  Co  Co15  1  0.250000  0.054169  0.570624  1
  Co  Co16  1  0.750000  0.554169  0.429376  1
  Co  Co17  1  0.750000  0.945831  0.429376  1
  Co  Co18  1  0.250000  0.867097  0.295312  1
  Co  Co19  1  0.250000  0.632903  0.295312  1
  Co  Co20  1  0.750000  0.132903  0.704688  1
  Co  Co21  1  0.750000  0.367097  0.704688  1
  Si  Si22  1  0.250000  0.444122  0.385175  1
  Si  Si23  1  0.250000  0.055878  0.385175  1
  Si  Si24  1  0.750000  0.555878  0.614825  1
  Si  Si25  1  0.750000  0.944122  0.614825  1
  Si  Si26  1  0.250000  0.901425  0.107328  1
  Si  Si27  1  0.250000  0.598575  0.107328  1
  Si  Si28  1  0.750000  0.098575  0.892672  1
  Si  Si29  1  0.750000  0.401425  0.892672  1
  Tc  Tc30  1  0.250000  0.250000  0.845673  1
  Tc  Tc31  1  0.750000  0.750000  0.154327  1
  P  P32  1  0.250000  0.250000  0.117335  1
  P  P33  1  0.750000  0.750000  0.882665  1
  P  P34  1  0.250000  0.250000  0.655477  1
  P  P35  1  0.750000  0.750000  0.344523  1
