# generated using pymatgen
data_Sc10InGaSb4
_symmetry_space_group_name_H-M   'P 1'
_cell_length_a   8.36848667
_cell_length_b   8.41059756
_cell_length_c   6.00695900
_cell_angle_alpha   90.00000000
_cell_angle_beta   90.00000000
_cell_angle_gamma   120.08274804
_symmetry_Int_Tables_number   1
_chemical_formula_structural   Sc10InGaSb4
_chemical_formula_sum   'Sc10 In1 Ga1 Sb4'
_cell_volume   365.84434947
_cell_formula_units_Z   1
loop_
 _symmetry_equiv_pos_site_id
 _symmetry_equiv_pos_as_xyz
  1  'x, y, z'
loop_
 _atom_site_type_symbol
 _atom_site_label
 _atom_site_symmetry_multiplicity
 _atom_site_fract_x
 _atom_site_fract_y
 _atom_site_fract_z
 _atom_site_occupancy
  Sc  Sc0  1  0.336004  0.675839  0.997949  1
  Sc  Sc1  1  0.658013  0.324368  0.502446  1
  Sc  Sc2  1  0.658013  0.324368  0.997554  1
  Sc  Sc3  1  0.336004  0.675839  0.502051  1
  Sc  Sc4  1  0.240984  0.002096  0.250000  1
  Sc  Sc5  1  0.243928  0.228949  0.750000  1
  Sc  Sc6  1  0.011036  0.769496  0.750000  1
  Sc  Sc7  1  0.000435  0.240799  0.250000  1
  Sc  Sc8  1  0.760797  0.763241  0.250000  1
  Sc  Sc9  1  0.752218  0.995588  0.750000  1
  In  In10  1  0.608799  0.606156  0.750000  1
  Ga  Ga11  1  0.394626  0.999958  0.750000  1
  Sb  Sb12  1  0.607089  0.001185  0.250000  1
  Sb  Sb13  1  0.002185  0.387649  0.750000  1
  Sb  Sb14  1  0.997091  0.607854  0.250000  1
  Sb  Sb15  1  0.392781  0.396617  0.250000  1
