# generated using pymatgen
data_Tb2PrTh(Ga3Rh)6
_symmetry_space_group_name_H-M   'P 1'
_cell_length_a   7.63991439
_cell_length_b   7.64297230
_cell_length_c   9.55929700
_cell_angle_alpha   90.00000000
_cell_angle_beta   90.00000000
_cell_angle_gamma   119.61932422
_symmetry_Int_Tables_number   1
_chemical_formula_structural   Tb2PrTh(Ga3Rh)6
_chemical_formula_sum   'Tb2 Pr1 Th1 Ga18 Rh6'
_cell_volume   485.24441378
_cell_formula_units_Z   1
loop_
 _symmetry_equiv_pos_site_id
 _symmetry_equiv_pos_as_xyz
  1  'x, y, z'
loop_
 _atom_site_type_symbol
 _atom_site_label
 _atom_site_symmetry_multiplicity
 _atom_site_fract_x
 _atom_site_fract_y
 _atom_site_fract_z
 _atom_site_occupancy
  Tb  Tb0  1  0.001911  0.330616  0.750000  1
  Tb  Tb1  1  0.329897  0.001834  0.750000  1
  Pr  Pr2  1  0.670127  0.996685  0.250000  1
  Th  Th3  1  0.997278  0.669215  0.250000  1
  Ga  Ga4  1  0.130620  0.130436  0.250000  1
  Ga  Ga5  1  0.875313  0.876968  0.750000  1
  Ga  Ga6  1  0.003619  0.332274  0.074803  1
  Ga  Ga7  1  0.999168  0.664849  0.914817  1
  Ga  Ga8  1  0.999168  0.664849  0.585183  1
  Ga  Ga9  1  0.337561  0.005505  0.425195  1
  Ga  Ga10  1  0.003619  0.332274  0.425197  1
  Ga  Ga11  1  0.664928  0.000449  0.582316  1
  Ga  Ga12  1  0.664928  0.000449  0.917684  1
  Ga  Ga13  1  0.337561  0.005505  0.074805  1
  Ga  Ga14  1  0.331606  0.331572  0.565712  1
  Ga  Ga15  1  0.662854  0.665065  0.443972  1
  Ga  Ga16  1  0.662854  0.665065  0.056028  1
  Ga  Ga17  1  0.331606  0.331572  0.934288  1
  Ga  Ga18  1  0.340221  0.545037  0.250000  1
  Ga  Ga19  1  0.659367  0.450407  0.750000  1
  Ga  Ga20  1  0.543995  0.338444  0.250000  1
  Ga  Ga21  1  0.450692  0.661305  0.750000  1
  Rh  Rh22  1  0.673425  0.331410  0.999782  1
  Rh  Rh23  1  0.325957  0.670355  0.999627  1
  Rh  Rh24  1  0.325957  0.670355  0.500373  1
  Rh  Rh25  1  0.673425  0.331410  0.500218  1
  Rh  Rh26  1  0.001169  0.998048  0.999767  1
  Rh  Rh27  1  0.001169  0.998048  0.500233  1
