# generated using pymatgen
data_Y7Ho3Cd3In5Pd4
_symmetry_space_group_name_H-M   'P 1'
_cell_length_a   3.62750100
_cell_length_b   8.15146174
_cell_length_c   18.34813594
_cell_angle_alpha   89.95714515
_cell_angle_beta   90.00000000
_cell_angle_gamma   90.00000000
_symmetry_Int_Tables_number   1
_chemical_formula_structural   Y7Ho3Cd3In5Pd4
_chemical_formula_sum   'Y7 Ho3 Cd3 In5 Pd4'
_cell_volume   542.54387291
_cell_formula_units_Z   1
loop_
 _symmetry_equiv_pos_site_id
 _symmetry_equiv_pos_as_xyz
  1  'x, y, z'
loop_
 _atom_site_type_symbol
 _atom_site_label
 _atom_site_symmetry_multiplicity
 _atom_site_fract_x
 _atom_site_fract_y
 _atom_site_fract_z
 _atom_site_occupancy
  Y  Y0  1  0.000000  0.498814  0.499765  1
  Y  Y1  1  0.000000  0.000602  0.999498  1
  Y  Y2  1  0.000000  0.744209  0.282625  1
  Y  Y3  1  0.000000  0.258285  0.718528  1
  Y  Y4  1  0.000000  0.755729  0.782533  1
  Y  Y5  1  0.000000  0.244459  0.217783  1
  Y  Y6  1  0.000000  0.615224  0.083906  1
  Ho  Ho7  1  0.000000  0.386620  0.915935  1
  Ho  Ho8  1  0.000000  0.881537  0.584845  1
  Ho  Ho9  1  0.000000  0.114268  0.414674  1
  Cd  Cd10  1  0.500000  0.707808  0.932637  1
  Cd  Cd11  1  0.500000  0.292429  0.066948  1
  Cd  Cd12  1  0.500000  0.791755  0.433526  1
  In  In13  1  0.500000  0.203652  0.566186  1
  In  In14  1  0.500000  0.576927  0.649157  1
  In  In15  1  0.500000  0.424521  0.351194  1
  In  In16  1  0.500000  0.925865  0.147765  1
  In  In17  1  0.500000  0.076951  0.851490  1
  Pd  Pd18  1  0.500000  0.526264  0.197409  1
  Pd  Pd19  1  0.500000  0.473389  0.804006  1
  Pd  Pd20  1  0.500000  0.973609  0.696032  1
  Pd  Pd21  1  0.500000  0.027086  0.303558  1
