# generated using pymatgen
data_Ho3Mg(GaPt)4
_symmetry_space_group_name_H-M   'P 1'
_cell_length_a   4.33833800
_cell_length_b   6.84267431
_cell_length_c   7.73760663
_cell_angle_alpha   86.16156976
_cell_angle_beta   90.00000000
_cell_angle_gamma   90.00000000
_symmetry_Int_Tables_number   1
_chemical_formula_structural   Ho3Mg(GaPt)4
_chemical_formula_sum   'Ho3 Mg1 Ga4 Pt4'
_cell_volume   229.18204695
_cell_formula_units_Z   1
loop_
 _symmetry_equiv_pos_site_id
 _symmetry_equiv_pos_as_xyz
  1  'x, y, z'
loop_
 _atom_site_type_symbol
 _atom_site_label
 _atom_site_symmetry_multiplicity
 _atom_site_fract_x
 _atom_site_fract_y
 _atom_site_fract_z
 _atom_site_occupancy
  Ho  Ho0  1  0.250000  0.523088  0.690797  1
  Ho  Ho1  1  0.750000  0.979648  0.178279  1
  Ho  Ho2  1  0.750000  0.472059  0.311625  1
  Mg  Mg3  1  0.250000  0.023214  0.819732  1
  Ga  Ga4  1  0.250000  0.149306  0.441167  1
  Ga  Ga5  1  0.250000  0.665390  0.063966  1
  Ga  Ga6  1  0.750000  0.844953  0.565320  1
  Ga  Ga7  1  0.750000  0.345523  0.929964  1
  Pt  Pt8  1  0.250000  0.770312  0.379045  1
  Pt  Pt9  1  0.250000  0.273583  0.109840  1
  Pt  Pt10  1  0.750000  0.218106  0.623619  1
  Pt  Pt11  1  0.750000  0.734819  0.886648  1
