# generated using pymatgen
data_Sc6TaTi(V3Si4)4
_symmetry_space_group_name_H-M   'P 1'
_cell_length_a   6.58671772
_cell_length_b   6.58796403
_cell_length_c   12.17840966
_cell_angle_alpha   90.05589186
_cell_angle_beta   89.83027714
_cell_angle_gamma   89.99268738
_symmetry_Int_Tables_number   1
_chemical_formula_structural   Sc6TaTi(V3Si4)4
_chemical_formula_sum   'Sc6 Ta1 Ti1 V12 Si16'
_cell_volume   528.45587935
_cell_formula_units_Z   1
loop_
 _symmetry_equiv_pos_site_id
 _symmetry_equiv_pos_as_xyz
  1  'x, y, z'
loop_
 _atom_site_type_symbol
 _atom_site_label
 _atom_site_symmetry_multiplicity
 _atom_site_fract_x
 _atom_site_fract_y
 _atom_site_fract_z
 _atom_site_occupancy
  Sc  Sc0  1  0.162403  0.498559  0.779577  1
  Sc  Sc1  1  0.501571  0.837205  0.720800  1
  Sc  Sc2  1  0.500852  0.164489  0.220331  1
  Sc  Sc3  1  0.998786  0.337357  0.528972  1
  Sc  Sc4  1  0.664315  0.000071  0.971653  1
  Sc  Sc5  1  0.338274  0.999067  0.469313  1
  Ta  Ta6  1  0.840670  0.507074  0.280083  1
  Ti  Ti7  1  0.007019  0.657343  0.030389  1
  V  V8  1  0.330381  0.335761  0.001052  1
  V  V9  1  0.163261  0.829067  0.248836  1
  V  V10  1  0.833032  0.167437  0.751362  1
  V  V11  1  0.668916  0.667340  0.498583  1
  V  V12  1  0.002797  0.157984  0.127100  1
  V  V13  1  0.342788  0.504587  0.374092  1
  V  V14  1  0.656562  0.495367  0.878805  1
  V  V15  1  0.507998  0.343464  0.622915  1
  V  V16  1  0.492629  0.655646  0.124153  1
  V  V17  1  0.993305  0.842533  0.626522  1
  V  V18  1  0.153860  0.006375  0.875087  1
  V  V19  1  0.841897  0.991271  0.370941  1
  Si  Si20  1  0.291454  0.959678  0.065088  1
  Si  Si21  1  0.539469  0.793643  0.313797  1
  Si  Si22  1  0.460946  0.206262  0.815331  1
  Si  Si23  1  0.794437  0.539113  0.685881  1
  Si  Si24  1  0.202973  0.459733  0.184095  1
  Si  Si25  1  0.706163  0.039405  0.564317  1
  Si  Si26  1  0.960057  0.298186  0.936137  1
  Si  Si27  1  0.040432  0.706338  0.435188  1
  Si  Si28  1  0.708371  0.373886  0.073509  1
  Si  Si29  1  0.127028  0.205921  0.320373  1
  Si  Si30  1  0.870524  0.793829  0.823078  1
  Si  Si31  1  0.204103  0.129576  0.679900  1
  Si  Si32  1  0.796862  0.865088  0.175882  1
  Si  Si33  1  0.297112  0.629328  0.569680  1
  Si  Si34  1  0.366809  0.705072  0.930168  1
  Si  Si35  1  0.631942  0.296947  0.427008  1
