# generated using pymatgen
data_Nd3Cd2HgPt2Au
_symmetry_space_group_name_H-M   'P 1'
_cell_length_a   7.99164900
_cell_length_b   7.95211505
_cell_length_c   3.89748300
_cell_angle_alpha   90.00000000
_cell_angle_beta   90.00000000
_cell_angle_gamma   120.16459683
_symmetry_Int_Tables_number   1
_chemical_formula_structural   Nd3Cd2HgPt2Au
_chemical_formula_sum   'Nd3 Cd2 Hg1 Pt2 Au1'
_cell_volume   214.14661301
_cell_formula_units_Z   1
loop_
 _symmetry_equiv_pos_site_id
 _symmetry_equiv_pos_as_xyz
  1  'x, y, z'
loop_
 _atom_site_type_symbol
 _atom_site_label
 _atom_site_symmetry_multiplicity
 _atom_site_fract_x
 _atom_site_fract_y
 _atom_site_fract_z
 _atom_site_occupancy
  Nd  Nd0  1  0.586586  0.000000  0.000000  1
  Nd  Nd1  1  0.001940  0.593740  0.000000  1
  Nd  Nd2  1  0.408200  0.406260  0.000000  1
  Cd  Cd3  1  0.999155  0.262860  0.500000  1
  Cd  Cd4  1  0.736295  0.737140  0.500000  1
  Hg  Hg5  1  0.265745  0.000000  0.500000  1
  Pt  Pt6  1  0.334798  0.661028  0.500000  1
  Pt  Pt7  1  0.673772  0.338972  0.500000  1
  Au  Au8  1  0.993508  0.000000  0.000000  1
