# generated using pymatgen
data_Y2In7HgIr
_symmetry_space_group_name_H-M   'P 1'
_cell_length_a   4.67966000
_cell_length_b   4.66169800
_cell_length_c   12.19560200
_cell_angle_alpha   90.00000000
_cell_angle_beta   90.00000000
_cell_angle_gamma   90.00000000
_symmetry_Int_Tables_number   1
_chemical_formula_structural   Y2In7HgIr
_chemical_formula_sum   'Y2 In7 Hg1 Ir1'
_cell_volume   266.04902920
_cell_formula_units_Z   1
loop_
 _symmetry_equiv_pos_site_id
 _symmetry_equiv_pos_as_xyz
  1  'x, y, z'
loop_
 _atom_site_type_symbol
 _atom_site_label
 _atom_site_symmetry_multiplicity
 _atom_site_fract_x
 _atom_site_fract_y
 _atom_site_fract_z
 _atom_site_occupancy
  Y  Y0  1  0.000000  0.000000  0.694680  1
  Y  Y1  1  0.000000  0.000000  0.305320  1
  In  In2  1  0.500000  0.000000  0.877755  1
  In  In3  1  0.000000  0.500000  0.877467  1
  In  In4  1  0.500000  0.000000  0.122245  1
  In  In5  1  0.000000  0.500000  0.122533  1
  In  In6  1  0.000000  0.500000  0.500000  1
  In  In7  1  0.500000  0.500000  0.689883  1
  In  In8  1  0.500000  0.500000  0.310117  1
  Hg  Hg9  1  0.500000  0.000000  0.500000  1
  Ir  Ir10  1  0.000000  0.000000  0.000000  1
