# generated using pymatgen
data_Rb4NaAgBi2
_symmetry_space_group_name_H-M   'P 1'
_cell_length_a   7.29372613
_cell_length_b   7.29372594
_cell_length_c   6.74862049
_cell_angle_alpha   92.18525461
_cell_angle_beta   92.18526729
_cell_angle_gamma   101.26759824
_symmetry_Int_Tables_number   1
_chemical_formula_structural   Rb4NaAgBi2
_chemical_formula_sum   'Rb4 Na1 Ag1 Bi2'
_cell_volume   351.45933040
_cell_formula_units_Z   1
loop_
 _symmetry_equiv_pos_site_id
 _symmetry_equiv_pos_as_xyz
  1  'x, y, z'
loop_
 _atom_site_type_symbol
 _atom_site_label
 _atom_site_symmetry_multiplicity
 _atom_site_fract_x
 _atom_site_fract_y
 _atom_site_fract_z
 _atom_site_occupancy
  Rb  Rb0  1  0.469447  0.815574  0.241273  1
  Rb  Rb1  1  0.184426  0.530553  0.758727  1
  Rb  Rb2  1  0.530553  0.184426  0.758727  1
  Rb  Rb3  1  0.815574  0.469447  0.241273  1
  Na  Na4  1  0.000000  0.000000  0.500000  1
  Ag  Ag5  1  0.000000  0.000000  0.000000  1
  Bi  Bi6  1  0.264120  0.264120  0.238321  1
  Bi  Bi7  1  0.735880  0.735880  0.761679  1
