# generated using pymatgen
data_Ba2AsP3Rh4
_symmetry_space_group_name_H-M   'P 1'
_cell_length_a   7.02517928
_cell_length_b   7.02517937
_cell_length_c   5.66870500
_cell_angle_alpha   90.00000000
_cell_angle_beta   90.00000000
_cell_angle_gamma   132.31638591
_symmetry_Int_Tables_number   1
_chemical_formula_structural   Ba2AsP3Rh4
_chemical_formula_sum   'Ba2 As1 P3 Rh4'
_cell_volume   206.87156432
_cell_formula_units_Z   1
loop_
 _symmetry_equiv_pos_site_id
 _symmetry_equiv_pos_as_xyz
  1  'x, y, z'
loop_
 _atom_site_type_symbol
 _atom_site_label
 _atom_site_symmetry_multiplicity
 _atom_site_fract_x
 _atom_site_fract_y
 _atom_site_fract_z
 _atom_site_occupancy
  Ba  Ba0  1  0.498213  0.501787  0.500000  1
  Ba  Ba1  1  0.992386  0.007614  0.000000  1
  As  As2  1  0.133064  0.866936  0.500000  1
  P  P3  1  0.657095  0.342905  0.000000  1
  P  P4  1  0.351562  0.648438  0.000000  1
  P  P5  1  0.845565  0.154435  0.500000  1
  Rh  Rh6  1  0.500998  0.996990  0.249243  1
  Rh  Rh7  1  0.003010  0.499002  0.750757  1
  Rh  Rh8  1  0.003010  0.499002  0.249243  1
  Rh  Rh9  1  0.500998  0.996990  0.750757  1
