# generated using pymatgen
data_Eu20In3Hg3Ru2
_symmetry_space_group_name_H-M   'P 1'
_cell_length_a   10.24893100
_cell_length_b   10.24893022
_cell_length_c   10.21972200
_cell_angle_alpha   90.00000000
_cell_angle_beta   90.00000000
_cell_angle_gamma   119.99999928
_symmetry_Int_Tables_number   1
_chemical_formula_structural   Eu20In3Hg3Ru2
_chemical_formula_sum   'Eu20 In3 Hg3 Ru2'
_cell_volume   929.66573153
_cell_formula_units_Z   1
loop_
 _symmetry_equiv_pos_site_id
 _symmetry_equiv_pos_as_xyz
  1  'x, y, z'
loop_
 _atom_site_type_symbol
 _atom_site_label
 _atom_site_symmetry_multiplicity
 _atom_site_fract_x
 _atom_site_fract_y
 _atom_site_fract_z
 _atom_site_occupancy
  Eu  Eu0  1  0.000000  0.000000  0.481322  1
  Eu  Eu1  1  0.000000  0.000000  0.018678  1
  Eu  Eu2  1  0.207386  0.792614  0.434807  1
  Eu  Eu3  1  0.207386  0.414774  0.434807  1
  Eu  Eu4  1  0.585226  0.792614  0.434807  1
  Eu  Eu5  1  0.792642  0.207358  0.565252  1
  Eu  Eu6  1  0.792642  0.585285  0.565252  1
  Eu  Eu7  1  0.414715  0.207358  0.565252  1
  Eu  Eu8  1  0.792642  0.207358  0.934748  1
  Eu  Eu9  1  0.792642  0.585285  0.934748  1
  Eu  Eu10  1  0.414715  0.207358  0.934748  1
  Eu  Eu11  1  0.207386  0.792614  0.065193  1
  Eu  Eu12  1  0.207386  0.414774  0.065193  1
  Eu  Eu13  1  0.585226  0.792614  0.065193  1
  Eu  Eu14  1  0.538840  0.461160  0.250000  1
  Eu  Eu15  1  0.538840  0.077681  0.250000  1
  Eu  Eu16  1  0.922319  0.461160  0.250000  1
  Eu  Eu17  1  0.461642  0.538358  0.750000  1
  Eu  Eu18  1  0.461642  0.923286  0.750000  1
  Eu  Eu19  1  0.076714  0.538358  0.750000  1
  In  In20  1  0.110461  0.889539  0.750000  1
  In  In21  1  0.110461  0.220922  0.750000  1
  In  In22  1  0.779078  0.889539  0.750000  1
  Hg  Hg23  1  0.875650  0.124350  0.250000  1
  Hg  Hg24  1  0.875650  0.751300  0.250000  1
  Hg  Hg25  1  0.248700  0.124350  0.250000  1
  Ru  Ru26  1  0.333333  0.666667  0.250000  1
  Ru  Ru27  1  0.666667  0.333333  0.750000  1
