# generated using pymatgen
data_Tb4Zr3TcF28
_symmetry_space_group_name_H-M   'P 1'
_cell_length_a   5.72305709
_cell_length_b   9.08747077
_cell_length_c   12.23367645
_cell_angle_alpha   62.41776610
_cell_angle_beta   90.04477395
_cell_angle_gamma   90.03112739
_symmetry_Int_Tables_number   1
_chemical_formula_structural   Tb4Zr3TcF28
_chemical_formula_sum   'Tb4 Zr3 Tc1 F28'
_cell_volume   563.93860834
_cell_formula_units_Z   1
loop_
 _symmetry_equiv_pos_site_id
 _symmetry_equiv_pos_as_xyz
  1  'x, y, z'
loop_
 _atom_site_type_symbol
 _atom_site_label
 _atom_site_symmetry_multiplicity
 _atom_site_fract_x
 _atom_site_fract_y
 _atom_site_fract_z
 _atom_site_occupancy
  Tb  Tb0  1  0.256713  0.814363  0.269196  1
  Tb  Tb1  1  0.743786  0.186540  0.732778  1
  Tb  Tb2  1  0.757532  0.183122  0.235457  1
  Tb  Tb3  1  0.242180  0.815168  0.761444  1
  Zr  Zr4  1  0.755932  0.726640  0.043510  1
  Zr  Zr5  1  0.244629  0.274441  0.955515  1
  Zr  Zr6  1  0.256119  0.274529  0.455937  1
  Tc  Tc7  1  0.741394  0.725944  0.544768  1
  F  F8  1  0.940770  0.708255  0.420904  1
  F  F9  1  0.039525  0.290183  0.581504  1
  F  F10  1  0.462812  0.290890  0.080724  1
  F  F11  1  0.536167  0.710436  0.918584  1
  F  F12  1  0.483285  0.733096  0.148797  1
  F  F13  1  0.519343  0.268215  0.851857  1
  F  F14  1  0.979325  0.266696  0.353897  1
  F  F15  1  0.018472  0.730595  0.638448  1
  F  F16  1  0.966426  0.747889  0.172149  1
  F  F17  1  0.038669  0.251588  0.826789  1
  F  F18  1  0.464437  0.254218  0.326834  1
  F  F19  1  0.544909  0.743048  0.671984  1
  F  F20  1  0.775810  0.474723  0.140371  1
  F  F21  1  0.222258  0.526252  0.857357  1
  F  F22  1  0.268593  0.526774  0.360374  1
  F  F23  1  0.729982  0.482515  0.640833  1
  F  F24  1  0.948196  0.275298  0.049911  1
  F  F25  1  0.050588  0.725348  0.948123  1
  F  F26  1  0.453328  0.720637  0.456373  1
  F  F27  1  0.553210  0.281213  0.547350  1
  F  F28  1  0.741537  0.969010  0.449451  1
  F  F29  1  0.261173  0.022969  0.556323  1
  F  F30  1  0.242071  0.023509  0.060749  1
  F  F31  1  0.758303  0.978187  0.940530  1
  F  F32  1  0.574801  0.970552  0.236344  1
  F  F33  1  0.426275  0.027530  0.763315  1
  F  F34  1  0.076211  0.026799  0.270194  1
  F  F35  1  0.925239  0.972827  0.731325  1
