# generated using pymatgen
data_Cr4GaSe8
_symmetry_space_group_name_H-M   'P 1'
_cell_length_a   7.35634468
_cell_length_b   7.35634451
_cell_length_c   7.35634433
_cell_angle_alpha   60.78678743
_cell_angle_beta   60.78678856
_cell_angle_gamma   60.78679253
_symmetry_Int_Tables_number   1
_chemical_formula_structural   Cr4GaSe8
_chemical_formula_sum   'Cr4 Ga1 Se8'
_cell_volume   286.49122607
_cell_formula_units_Z   1
loop_
 _symmetry_equiv_pos_site_id
 _symmetry_equiv_pos_as_xyz
  1  'x, y, z'
loop_
 _atom_site_type_symbol
 _atom_site_label
 _atom_site_symmetry_multiplicity
 _atom_site_fract_x
 _atom_site_fract_y
 _atom_site_fract_z
 _atom_site_occupancy
  Cr  Cr0  1  0.386364  0.386364  0.386364  1
  Cr  Cr1  1  0.853846  0.380322  0.380322  1
  Cr  Cr2  1  0.380322  0.853846  0.380322  1
  Cr  Cr3  1  0.380322  0.380322  0.853846  1
  Ga  Ga4  1  0.997491  0.997491  0.997491  1
  Se  Se5  1  0.134718  0.134718  0.134718  1
  Se  Se6  1  0.590226  0.137737  0.137737  1
  Se  Se7  1  0.137737  0.590226  0.137737  1
  Se  Se8  1  0.137737  0.137737  0.590226  1
  Se  Se9  1  0.617670  0.617670  0.617670  1
  Se  Se10  1  0.139246  0.622160  0.622160  1
  Se  Se11  1  0.622160  0.139246  0.622160  1
  Se  Se12  1  0.622160  0.622160  0.139246  1
