# generated using pymatgen
data_Li6SnSb5Rh12
_symmetry_space_group_name_H-M   'P 1'
_cell_length_a   4.36909200
_cell_length_b   6.16486800
_cell_length_c   13.18030000
_cell_angle_alpha   90.00000000
_cell_angle_beta   90.00023974
_cell_angle_gamma   90.00000000
_symmetry_Int_Tables_number   1
_chemical_formula_structural   Li6SnSb5Rh12
_chemical_formula_sum   'Li6 Sn1 Sb5 Rh12'
_cell_volume   355.00973902
_cell_formula_units_Z   1
loop_
 _symmetry_equiv_pos_site_id
 _symmetry_equiv_pos_as_xyz
  1  'x, y, z'
loop_
 _atom_site_type_symbol
 _atom_site_label
 _atom_site_symmetry_multiplicity
 _atom_site_fract_x
 _atom_site_fract_y
 _atom_site_fract_z
 _atom_site_occupancy
  Li  Li0  1  0.000000  0.500000  0.000000  1
  Li  Li1  1  0.499874  0.000000  0.165792  1
  Li  Li2  1  0.999891  0.500000  0.333214  1
  Li  Li3  1  0.499999  0.000000  0.500000  1
  Li  Li4  1  0.000109  0.500000  0.666786  1
  Li  Li5  1  0.500126  0.000000  0.834208  1
  Sn  Sn6  1  0.000000  0.000000  0.000000  1
  Sb  Sb7  1  0.499895  0.500000  0.166011  1
  Sb  Sb8  1  0.999904  0.000000  0.332926  1
  Sb  Sb9  1  0.499999  0.500000  0.500000  1
  Sb  Sb10  1  0.000096  0.000000  0.667074  1
  Sb  Sb11  1  0.500105  0.500000  0.833989  1
  Rh  Rh12  1  0.499999  0.253076  0.000000  1
  Rh  Rh13  1  0.499999  0.746923  0.000000  1
  Rh  Rh14  1  0.999902  0.251481  0.168553  1
  Rh  Rh15  1  0.999902  0.748518  0.168553  1
  Rh  Rh16  1  0.499897  0.250823  0.333793  1
  Rh  Rh17  1  0.499897  0.749178  0.333793  1
  Rh  Rh18  1  0.000000  0.249110  0.500000  1
  Rh  Rh19  1  0.000000  0.750890  0.500000  1
  Rh  Rh20  1  0.500103  0.250823  0.666208  1
  Rh  Rh21  1  0.500103  0.749178  0.666208  1
  Rh  Rh22  1  0.000098  0.251481  0.831447  1
  Rh  Rh23  1  0.000098  0.748518  0.831447  1
