# generated using pymatgen
data_Ca8Cd4Cu3N5
_symmetry_space_group_name_H-M   'P 1'
_cell_length_a   10.96631238
_cell_length_b   10.96631233
_cell_length_c   10.96625370
_cell_angle_alpha   160.77272387
_cell_angle_beta   112.85683185
_cell_angle_gamma   70.57076978
_symmetry_Int_Tables_number   1
_chemical_formula_structural   Ca8Cd4Cu3N5
_chemical_formula_sum   'Ca8 Cd4 Cu3 N5'
_cell_volume   397.66271526
_cell_formula_units_Z   1
loop_
 _symmetry_equiv_pos_site_id
 _symmetry_equiv_pos_as_xyz
  1  'x, y, z'
loop_
 _atom_site_type_symbol
 _atom_site_label
 _atom_site_symmetry_multiplicity
 _atom_site_fract_x
 _atom_site_fract_y
 _atom_site_fract_z
 _atom_site_occupancy
  Ca  Ca0  1  0.561925  0.713662  0.848250  1
  Ca  Ca1  1  0.751735  0.900803  0.850937  1
  Ca  Ca2  1  0.438075  0.286338  0.151750  1
  Ca  Ca3  1  0.865413  0.713675  0.151750  1
  Ca  Ca4  1  0.134587  0.286325  0.848250  1
  Ca  Ca5  1  0.248265  0.099197  0.149063  1
  Ca  Ca6  1  0.049866  0.900799  0.149063  1
  Ca  Ca7  1  0.950134  0.099201  0.850937  1
  Cd  Cd8  1  0.651314  0.499988  0.151302  1
  Cd  Cd9  1  0.348686  0.500012  0.848698  1
  Cd  Cd10  1  0.413350  0.913350  0.500000  1
  Cd  Cd11  1  0.586650  0.086650  0.500000  1
  Cu  Cu12  1  0.192709  0.692709  0.500000  1
  Cu  Cu13  1  0.807291  0.307291  0.500000  1
  Cu  Cu14  1  0.000000  0.500000  0.500000  1
  N  N15  1  0.348765  0.692917  0.655851  1
  N  N16  1  0.962936  0.307087  0.655851  1
  N  N17  1  0.037064  0.692913  0.344149  1
  N  N18  1  0.000000  0.000000  0.000000  1
  N  N19  1  0.651235  0.307083  0.344149  1
