# generated using pymatgen
data_LaSm11MnFeI17
_symmetry_space_group_name_H-M   'P 1'
_cell_length_a   9.87199846
_cell_length_b   11.99098573
_cell_length_c   11.93414920
_cell_angle_alpha   74.18164397
_cell_angle_beta   75.54786956
_cell_angle_gamma   65.70373652
_symmetry_Int_Tables_number   1
_chemical_formula_structural   LaSm11MnFeI17
_chemical_formula_sum   'La1 Sm11 Mn1 Fe1 I17'
_cell_volume   1223.51768015
_cell_formula_units_Z   1
loop_
 _symmetry_equiv_pos_site_id
 _symmetry_equiv_pos_as_xyz
  1  'x, y, z'
loop_
 _atom_site_type_symbol
 _atom_site_label
 _atom_site_symmetry_multiplicity
 _atom_site_fract_x
 _atom_site_fract_y
 _atom_site_fract_z
 _atom_site_occupancy
  La  La0  1  0.157311  0.715180  0.156446  1
  Sm  Sm1  1  0.453834  0.485862  0.323507  1
  Sm  Sm2  1  0.554594  0.670694  0.007767  1
  Sm  Sm3  1  0.271851  0.987653  0.107053  1
  Sm  Sm4  1  0.859707  0.288277  0.847453  1
  Sm  Sm5  1  0.409674  0.241559  0.718227  1
  Sm  Sm6  1  0.723569  0.023622  0.888843  1
  Sm  Sm7  1  0.550051  0.501234  0.679525  1
  Sm  Sm8  1  0.455150  0.327242  0.982933  1
  Sm  Sm9  1  0.579940  0.757339  0.279015  1
  Sm  Sm10  1  0.816524  0.193151  0.589397  1
  Sm  Sm11  1  0.172741  0.810720  0.420487  1
  Mn  Mn12  1  0.348183  0.736120  0.209059  1
  Fe  Fe13  1  0.634959  0.262217  0.785868  1
  I  I14  1  0.055880  0.101785  0.326536  1
  I  I15  1  0.464644  0.947903  0.843786  1
  I  I16  1  0.429879  0.810590  0.534616  1
  I  I17  1  0.571523  0.185596  0.463135  1
  I  I18  1  0.834894  0.713029  0.047970  1
  I  I19  1  0.232257  0.412032  0.240817  1
  I  I20  1  0.689852  0.370705  0.102608  1
  I  I21  1  0.534318  0.048388  0.158294  1
  I  I22  1  0.742505  0.474714  0.414726  1
  I  I23  1  0.883372  0.786970  0.376221  1
  I  I24  1  0.947353  0.899161  0.675979  1
  I  I25  1  0.160518  0.290854  0.954552  1
  I  I26  1  0.318190  0.629580  0.894384  1
  I  I27  1  0.999776  0.004246  0.999750  1
  I  I28  1  0.113515  0.215489  0.631298  1
  I  I29  1  0.777573  0.580900  0.759091  1
  I  I30  1  0.255862  0.527189  0.580661  1
