# generated using pymatgen
data_Y2HoPa(VB4)4
_symmetry_space_group_name_H-M   'P 1'
_cell_length_a   3.48067300
_cell_length_b   5.99272566
_cell_length_c   11.59679901
_cell_angle_alpha   90.09945675
_cell_angle_beta   90.00000000
_cell_angle_gamma   90.00000000
_symmetry_Int_Tables_number   1
_chemical_formula_structural   Y2HoPa(VB4)4
_chemical_formula_sum   'Y2 Ho1 Pa1 V4 B16'
_cell_volume   241.89400042
_cell_formula_units_Z   1
loop_
 _symmetry_equiv_pos_site_id
 _symmetry_equiv_pos_as_xyz
  1  'x, y, z'
loop_
 _atom_site_type_symbol
 _atom_site_label
 _atom_site_symmetry_multiplicity
 _atom_site_fract_x
 _atom_site_fract_y
 _atom_site_fract_z
 _atom_site_occupancy
  Y  Y0  1  0.500000  0.874447  0.348004  1
  Y  Y1  1  0.500000  0.623311  0.850672  1
  Ho  Ho2  1  0.500000  0.375401  0.150608  1
  Pa  Pa3  1  0.500000  0.125852  0.651152  1
  V  V4  1  0.500000  0.126044  0.915942  1
  V  V5  1  0.500000  0.872832  0.082389  1
  V  V6  1  0.500000  0.627654  0.583682  1
  V  V7  1  0.500000  0.372206  0.418293  1
  B  B8  1  0.000000  0.474812  0.691399  1
  B  B9  1  0.000000  0.522438  0.306920  1
  B  B10  1  0.000000  0.977033  0.808635  1
  B  B11  1  0.000000  0.023889  0.192229  1
  B  B12  1  0.000000  0.284494  0.814734  1
  B  B13  1  0.000000  0.713638  0.185584  1
  B  B14  1  0.000000  0.785260  0.684840  1
  B  B15  1  0.000000  0.216074  0.313536  1
  B  B16  1  0.000000  0.364684  0.968010  1
  B  B17  1  0.000000  0.635278  0.032921  1
  B  B18  1  0.000000  0.864806  0.532739  1
  B  B19  1  0.000000  0.137138  0.467415  1
  B  B20  1  0.000000  0.387713  0.546590  1
  B  B21  1  0.000000  0.614180  0.452498  1
  B  B22  1  0.000000  0.885997  0.953684  1
  B  B23  1  0.000000  0.114822  0.047524  1
