# generated using pymatgen
data_Lu6V4Co19
_symmetry_space_group_name_H-M   'P 1'
_cell_length_a   8.27326700
_cell_length_b   8.27326726
_cell_length_c   8.27752600
_cell_angle_alpha   119.98298728
_cell_angle_beta   90.00000000
_cell_angle_gamma   120.00000296
_symmetry_Int_Tables_number   1
_chemical_formula_structural   Lu6V4Co19
_chemical_formula_sum   'Lu6 V4 Co19'
_cell_volume   400.72945000
_cell_formula_units_Z   1
loop_
 _symmetry_equiv_pos_site_id
 _symmetry_equiv_pos_as_xyz
  1  'x, y, z'
loop_
 _atom_site_type_symbol
 _atom_site_label
 _atom_site_symmetry_multiplicity
 _atom_site_fract_x
 _atom_site_fract_y
 _atom_site_fract_z
 _atom_site_occupancy
  Lu  Lu0  1  0.701924  0.990675  0.279427  1
  Lu  Lu1  1  0.288753  0.990675  0.279428  1
  Lu  Lu2  1  0.288753  0.577505  0.279428  1
  Lu  Lu3  1  0.711248  0.009325  0.720573  1
  Lu  Lu4  1  0.298077  0.009325  0.720574  1
  Lu  Lu5  1  0.711249  0.422497  0.720574  1
  V  V6  1  0.000000  0.000000  0.000000  1
  V  V7  1  0.000000  0.000000  0.500000  1
  V  V8  1  0.000000  0.500000  0.500000  1
  V  V9  1  0.500000  0.500000  0.500000  1
  Co  Co10  1  0.500000  0.000000  0.000000  1
  Co  Co11  1  0.000000  0.500000  0.000000  1
  Co  Co12  1  0.500000  0.500000  0.000000  1
  Co  Co13  1  0.678448  0.356894  0.035342  1
  Co  Co14  1  0.367845  0.246574  0.125304  1
  Co  Co15  1  0.878728  0.246574  0.125304  1
  Co  Co16  1  0.878728  0.757456  0.125304  1
  Co  Co17  1  0.676683  0.353365  0.326156  1
  Co  Co18  1  0.676683  0.649474  0.326156  1
  Co  Co19  1  0.972790  0.649474  0.326156  1
  Co  Co20  1  0.120196  0.240393  0.360589  1
  Co  Co21  1  0.879802  0.759605  0.639409  1
  Co  Co22  1  0.027210  0.350526  0.673844  1
  Co  Co23  1  0.323317  0.350526  0.673844  1
  Co  Co24  1  0.323317  0.646635  0.673844  1
  Co  Co25  1  0.121270  0.242542  0.874694  1
  Co  Co26  1  0.121270  0.753424  0.874694  1
  Co  Co27  1  0.632153  0.753424  0.874694  1
  Co  Co28  1  0.321552  0.643106  0.964658  1
