# generated using pymatgen
data_Ho6Al15Ga4Si5Os8
_symmetry_space_group_name_H-M   'P 1'
_cell_length_a   8.67458500
_cell_length_b   8.65878894
_cell_length_c   9.62460700
_cell_angle_alpha   90.00124544
_cell_angle_beta   90.00000000
_cell_angle_gamma   120.06036126
_symmetry_Int_Tables_number   1
_chemical_formula_structural   Ho6Al15Ga4Si5Os8
_chemical_formula_sum   'Ho6 Al15 Ga4 Si5 Os8'
_cell_volume   625.68395867
_cell_formula_units_Z   1
loop_
 _symmetry_equiv_pos_site_id
 _symmetry_equiv_pos_as_xyz
  1  'x, y, z'
loop_
 _atom_site_type_symbol
 _atom_site_label
 _atom_site_symmetry_multiplicity
 _atom_site_fract_x
 _atom_site_fract_y
 _atom_site_fract_z
 _atom_site_occupancy
  Ho  Ho0  1  0.194341  0.388682  0.249998  1
  Ho  Ho1  1  0.806389  0.612778  0.750010  1
  Ho  Ho2  1  0.609364  0.806733  0.250002  1
  Ho  Ho3  1  0.388239  0.194536  0.749993  1
  Ho  Ho4  1  0.197369  0.806733  0.250002  1
  Ho  Ho5  1  0.806297  0.194536  0.749993  1
  Al  Al6  1  0.165927  0.331855  0.575973  1
  Al  Al7  1  0.834383  0.668765  0.420910  1
  Al  Al8  1  0.667258  0.834186  0.574642  1
  Al  Al9  1  0.834384  0.668768  0.079092  1
  Al  Al10  1  0.329531  0.165717  0.421288  1
  Al  Al11  1  0.165930  0.331861  0.924026  1
  Al  Al12  1  0.166928  0.834186  0.574642  1
  Al  Al13  1  0.329532  0.165715  0.078715  1
  Al  Al14  1  0.836185  0.165717  0.421288  1
  Al  Al15  1  0.667257  0.834183  0.925358  1
  Al  Al16  1  0.836184  0.165715  0.078715  1
  Al  Al17  1  0.166925  0.834183  0.925358  1
  Al  Al18  1  0.872436  0.433417  0.249998  1
  Al  Al19  1  0.560979  0.433417  0.249998  1
  Al  Al20  1  0.999754  0.999510  0.249996  1
  Ga  Ga21  1  0.437757  0.875514  0.749999  1
  Ga  Ga22  1  0.126861  0.564150  0.750001  1
  Ga  Ga23  1  0.437290  0.564150  0.750001  1
  Ga  Ga24  1  0.000542  0.001085  0.749997  1
  Si  Si25  1  0.332575  0.665149  0.043986  1
  Si  Si26  1  0.667254  0.334508  0.959803  1
  Si  Si27  1  0.667255  0.334508  0.540201  1
  Si  Si28  1  0.332573  0.665145  0.456014  1
  Si  Si29  1  0.564189  0.128379  0.250005  1
  Os  Os30  1  0.500443  0.000886  0.008402  1
  Os  Os31  1  0.999540  0.499147  0.002127  1
  Os  Os32  1  0.500444  0.000887  0.491600  1
  Os  Os33  1  0.499606  0.499147  0.002127  1
  Os  Os34  1  0.999546  0.499145  0.497872  1
  Os  Os35  1  0.499599  0.499145  0.497872  1
  Os  Os36  1  0.999465  0.998930  0.001146  1
  Os  Os37  1  0.999466  0.998931  0.498851  1
