# generated using pymatgen
data_Dy2Th(InNi)3
_symmetry_space_group_name_H-M   'P 1'
_cell_length_a   7.40740886
_cell_length_b   7.40740873
_cell_length_c   3.89425600
_cell_angle_alpha   90.00000000
_cell_angle_beta   90.00000000
_cell_angle_gamma   118.92183863
_symmetry_Int_Tables_number   1
_chemical_formula_structural   Dy2Th(InNi)3
_chemical_formula_sum   'Dy2 Th1 In3 Ni3'
_cell_volume   187.02697800
_cell_formula_units_Z   1
loop_
 _symmetry_equiv_pos_site_id
 _symmetry_equiv_pos_as_xyz
  1  'x, y, z'
loop_
 _atom_site_type_symbol
 _atom_site_label
 _atom_site_symmetry_multiplicity
 _atom_site_fract_x
 _atom_site_fract_y
 _atom_site_fract_z
 _atom_site_occupancy
  Dy  Dy0  1  0.410500  0.000469  0.500000  1
  Dy  Dy1  1  0.000469  0.410500  0.500000  1
  Th  Th2  1  0.584466  0.584466  0.500000  1
  In  In3  1  0.749910  0.011759  0.000000  1
  In  In4  1  0.011759  0.749910  0.000000  1
  In  In5  1  0.239999  0.239999  0.000000  1
  Ni  Ni6  1  0.346084  0.665594  0.000000  1
  Ni  Ni7  1  0.665594  0.346084  0.000000  1
  Ni  Ni8  1  0.991220  0.991220  0.500000  1
