# generated using pymatgen
data_U2Co3Si2NiP2
_symmetry_space_group_name_H-M   'P 1'
_cell_length_a   3.84447200
_cell_length_b   3.84447200
_cell_length_c   9.45123900
_cell_angle_alpha   90.00000000
_cell_angle_beta   90.00000000
_cell_angle_gamma   90.00000000
_symmetry_Int_Tables_number   1
_chemical_formula_structural   U2Co3Si2NiP2
_chemical_formula_sum   'U2 Co3 Si2 Ni1 P2'
_cell_volume   139.68898124
_cell_formula_units_Z   1
loop_
 _symmetry_equiv_pos_site_id
 _symmetry_equiv_pos_as_xyz
  1  'x, y, z'
loop_
 _atom_site_type_symbol
 _atom_site_label
 _atom_site_symmetry_multiplicity
 _atom_site_fract_x
 _atom_site_fract_y
 _atom_site_fract_z
 _atom_site_occupancy
  U  U0  1  0.500000  0.000000  0.254282  1
  U  U1  1  0.000000  0.500000  0.744594  1
  Co  Co2  1  0.500000  0.000000  0.865457  1
  Co  Co3  1  0.000000  0.000000  0.501147  1
  Co  Co4  1  0.500000  0.500000  0.501147  1
  Si  Si5  1  0.500000  0.500000  0.997988  1
  Si  Si6  1  0.000000  0.000000  0.997988  1
  Ni  Ni7  1  0.000000  0.500000  0.134133  1
  P  P8  1  0.000000  0.500000  0.372302  1
  P  P9  1  0.500000  0.000000  0.630961  1
