# generated using pymatgen
data_Ta9Ga6WC
_symmetry_space_group_name_H-M   'P 1'
_cell_length_a   7.72221900
_cell_length_b   7.72221803
_cell_length_c   5.27490900
_cell_angle_alpha   90.00000000
_cell_angle_beta   90.00000000
_cell_angle_gamma   119.99999986
_symmetry_Int_Tables_number   1
_chemical_formula_structural   Ta9Ga6WC
_chemical_formula_sum   'Ta9 Ga6 W1 C1'
_cell_volume   272.41422230
_cell_formula_units_Z   1
loop_
 _symmetry_equiv_pos_site_id
 _symmetry_equiv_pos_as_xyz
  1  'x, y, z'
loop_
 _atom_site_type_symbol
 _atom_site_label
 _atom_site_symmetry_multiplicity
 _atom_site_fract_x
 _atom_site_fract_y
 _atom_site_fract_z
 _atom_site_occupancy
  Ta  Ta0  1  0.666667  0.333333  0.500000  1
  Ta  Ta1  1  0.666667  0.333333  0.000000  1
  Ta  Ta2  1  0.333333  0.666667  0.000000  1
  Ta  Ta3  1  0.999936  0.764837  0.251159  1
  Ta  Ta4  1  0.235163  0.235099  0.251159  1
  Ta  Ta5  1  0.764901  0.000064  0.251159  1
  Ta  Ta6  1  0.999936  0.235099  0.748841  1
  Ta  Ta7  1  0.764901  0.764837  0.748841  1
  Ta  Ta8  1  0.235163  0.000064  0.748841  1
  Ga  Ga9  1  0.001563  0.403290  0.249344  1
  Ga  Ga10  1  0.596710  0.598272  0.249344  1
  Ga  Ga11  1  0.401728  0.998437  0.249344  1
  Ga  Ga12  1  0.001563  0.598272  0.750656  1
  Ga  Ga13  1  0.401728  0.403290  0.750656  1
  Ga  Ga14  1  0.596710  0.998437  0.750656  1
  W  W15  1  0.333333  0.666667  0.500000  1
  C  C16  1  0.000000  0.000000  0.500000  1
