# generated using pymatgen
data_Dy11Y(In3Hg2)4
_symmetry_space_group_name_H-M   'P 1'
_cell_length_a   6.37458809
_cell_length_b   10.44951445
_cell_length_c   12.36734310
_cell_angle_alpha   89.97687002
_cell_angle_beta   89.99756286
_cell_angle_gamma   89.99272471
_symmetry_Int_Tables_number   1
_chemical_formula_structural   Dy11Y(In3Hg2)4
_chemical_formula_sum   'Dy11 Y1 In12 Hg8'
_cell_volume   823.80535027
_cell_formula_units_Z   1
loop_
 _symmetry_equiv_pos_site_id
 _symmetry_equiv_pos_as_xyz
  1  'x, y, z'
loop_
 _atom_site_type_symbol
 _atom_site_label
 _atom_site_symmetry_multiplicity
 _atom_site_fract_x
 _atom_site_fract_y
 _atom_site_fract_z
 _atom_site_occupancy
  Dy  Dy0  1  0.348267  0.749994  0.055907  1
  Dy  Dy1  1  0.151245  0.749937  0.555853  1
  Dy  Dy2  1  0.651719  0.250092  0.944036  1
  Dy  Dy3  1  0.848121  0.249944  0.444045  1
  Dy  Dy4  1  0.889722  0.502013  0.141630  1
  Dy  Dy5  1  0.609967  0.997832  0.641546  1
  Dy  Dy6  1  0.109930  0.002153  0.858420  1
  Dy  Dy7  1  0.389784  0.497747  0.358179  1
  Dy  Dy8  1  0.110331  0.497874  0.858303  1
  Dy  Dy9  1  0.390012  0.002202  0.358341  1
  Dy  Dy10  1  0.889927  0.997933  0.141610  1
  Y  Y11  1  0.610626  0.502248  0.642101  1
  In  In12  1  0.123709  0.750069  0.286017  1
  In  In13  1  0.376397  0.750105  0.785968  1
  In  In14  1  0.877149  0.249643  0.714200  1
  In  In15  1  0.623419  0.249980  0.214006  1
  In  In16  1  0.877448  0.543694  0.402948  1
  In  In17  1  0.622710  0.956380  0.902935  1
  In  In18  1  0.122616  0.043531  0.597151  1
  In  In19  1  0.377093  0.456246  0.096987  1
  In  In20  1  0.122853  0.456198  0.597116  1
  In  In21  1  0.377214  0.043704  0.097016  1
  In  In22  1  0.877213  0.956360  0.402891  1
  In  In23  1  0.622935  0.543831  0.903155  1
  Hg  Hg24  1  0.607971  0.750419  0.499035  1
  Hg  Hg25  1  0.891527  0.750059  0.999523  1
  Hg  Hg26  1  0.391118  0.249836  0.500389  1
  Hg  Hg27  1  0.108414  0.249993  0.000385  1
  Hg  Hg28  1  0.637432  0.749883  0.244333  1
  Hg  Hg29  1  0.863379  0.750845  0.744767  1
  Hg  Hg30  1  0.362679  0.249339  0.755695  1
  Hg  Hg31  1  0.137073  0.249916  0.255510  1
