# generated using pymatgen
data_Sm3Ho5(CuP)12
_symmetry_space_group_name_H-M   'P 1'
_cell_length_a   3.87687900
_cell_length_b   10.70107902
_cell_length_c   12.95170503
_cell_angle_alpha   89.99270066
_cell_angle_beta   90.00000000
_cell_angle_gamma   90.00000000
_symmetry_Int_Tables_number   1
_chemical_formula_structural   Sm3Ho5(CuP)12
_chemical_formula_sum   'Sm3 Ho5 Cu12 P12'
_cell_volume   537.32464325
_cell_formula_units_Z   1
loop_
 _symmetry_equiv_pos_site_id
 _symmetry_equiv_pos_as_xyz
  1  'x, y, z'
loop_
 _atom_site_type_symbol
 _atom_site_label
 _atom_site_symmetry_multiplicity
 _atom_site_fract_x
 _atom_site_fract_y
 _atom_site_fract_z
 _atom_site_occupancy
  Sm  Sm0  1  0.250000  0.931060  0.793001  1
  Sm  Sm1  1  0.750000  0.430659  0.706935  1
  Sm  Sm2  1  0.250000  0.569333  0.293102  1
  Ho  Ho3  1  0.750000  0.069703  0.207443  1
  Ho  Ho4  1  0.250000  0.841962  0.502172  1
  Ho  Ho5  1  0.750000  0.341352  0.997876  1
  Ho  Ho6  1  0.250000  0.658561  0.002911  1
  Ho  Ho7  1  0.750000  0.157282  0.496312  1
  Cu  Cu8  1  0.250000  0.401483  0.512824  1
  Cu  Cu9  1  0.750000  0.902423  0.987931  1
  Cu  Cu10  1  0.250000  0.097574  0.014209  1
  Cu  Cu11  1  0.750000  0.598445  0.487299  1
  Cu  Cu12  1  0.250000  0.271973  0.332346  1
  Cu  Cu13  1  0.750000  0.772735  0.167911  1
  Cu  Cu14  1  0.250000  0.227999  0.832501  1
  Cu  Cu15  1  0.750000  0.728560  0.667567  1
  Cu  Cu16  1  0.250000  0.862023  0.279523  1
  Cu  Cu17  1  0.750000  0.358127  0.219833  1
  Cu  Cu18  1  0.250000  0.639859  0.780844  1
  Cu  Cu19  1  0.750000  0.139906  0.719344  1
  P  P20  1  0.250000  0.237665  0.642271  1
  P  P21  1  0.750000  0.738144  0.857314  1
  P  P22  1  0.250000  0.258677  0.143727  1
  P  P23  1  0.750000  0.762363  0.357200  1
  P  P24  1  0.250000  0.605867  0.599757  1
  P  P25  1  0.750000  0.105903  0.900090  1
  P  P26  1  0.250000  0.895885  0.100419  1
  P  P27  1  0.750000  0.394360  0.400295  1
  P  P28  1  0.250000  0.057441  0.368427  1
  P  P29  1  0.750000  0.557107  0.128612  1
  P  P30  1  0.250000  0.442619  0.871940  1
  P  P31  1  0.750000  0.942951  0.628064  1
