# generated using pymatgen
data_Ho4Er8Co4SnIr
_symmetry_space_group_name_H-M   'P 1'
_cell_length_a   8.23768286
_cell_length_b   8.23768301
_cell_length_c   8.23768177
_cell_angle_alpha   110.61315861
_cell_angle_beta   111.17208045
_cell_angle_gamma   106.66486995
_symmetry_Int_Tables_number   1
_chemical_formula_structural   Ho4Er8Co4SnIr
_chemical_formula_sum   'Ho4 Er8 Co4 Sn1 Ir1'
_cell_volume   429.54146083
_cell_formula_units_Z   1
loop_
 _symmetry_equiv_pos_site_id
 _symmetry_equiv_pos_as_xyz
  1  'x, y, z'
loop_
 _atom_site_type_symbol
 _atom_site_label
 _atom_site_symmetry_multiplicity
 _atom_site_fract_x
 _atom_site_fract_y
 _atom_site_fract_z
 _atom_site_occupancy
  Ho  Ho0  1  0.286404  0.184787  0.471190  1
  Ho  Ho1  1  0.713596  0.815213  0.528810  1
  Ho  Ho2  1  0.286404  0.815213  0.101615  1
  Ho  Ho3  1  0.713596  0.184787  0.898385  1
  Er  Er4  1  0.619717  0.313673  0.306043  1
  Er  Er5  1  0.380283  0.686327  0.693957  1
  Er  Er6  1  0.007632  0.313673  0.693957  1
  Er  Er7  1  0.992368  0.686327  0.306043  1
  Er  Er8  1  0.215196  0.411302  0.196107  1
  Er  Er9  1  0.784804  0.588698  0.803893  1
  Er  Er10  1  0.215196  0.019089  0.803893  1
  Er  Er11  1  0.784804  0.980911  0.196107  1
  Co  Co12  1  0.000000  0.377239  0.377239  1
  Co  Co13  1  0.000000  0.622761  0.622761  1
  Co  Co14  1  0.387828  0.887828  0.500000  1
  Co  Co15  1  0.612172  0.112172  0.500000  1
  Sn  Sn16  1  0.500000  0.500000  0.000000  1
  Ir  Ir17  1  0.000000  0.000000  0.000000  1
