# generated using pymatgen
data_Na6Hf2UCl18
_symmetry_space_group_name_H-M   'P 1'
_cell_length_a   11.85344900
_cell_length_b   11.85344965
_cell_length_c   6.19314900
_cell_angle_alpha   90.00000000
_cell_angle_beta   90.00000000
_cell_angle_gamma   119.99999538
_symmetry_Int_Tables_number   1
_chemical_formula_structural   Na6Hf2UCl18
_chemical_formula_sum   'Na6 Hf2 U1 Cl18'
_cell_volume   753.58401136
_cell_formula_units_Z   1
loop_
 _symmetry_equiv_pos_site_id
 _symmetry_equiv_pos_as_xyz
  1  'x, y, z'
loop_
 _atom_site_type_symbol
 _atom_site_label
 _atom_site_symmetry_multiplicity
 _atom_site_fract_x
 _atom_site_fract_y
 _atom_site_fract_z
 _atom_site_occupancy
  Na  Na0  1  0.663858  0.003194  0.999009  1
  Na  Na1  1  0.339336  0.003194  0.999009  1
  Na  Na2  1  0.996806  0.660664  0.999009  1
  Na  Na3  1  0.663858  0.660664  0.999009  1
  Na  Na4  1  0.339336  0.336142  0.999009  1
  Na  Na5  1  0.996806  0.336142  0.999009  1
  Hf  Hf6  1  0.666667  0.333333  0.503687  1
  Hf  Hf7  1  0.000000  0.000000  0.000691  1
  U  U8  1  0.333333  0.666667  0.496604  1
  Cl  Cl9  1  0.567890  0.135782  0.735989  1
  Cl  Cl10  1  0.765938  0.234062  0.279640  1
  Cl  Cl11  1  0.801594  0.900797  0.226158  1
  Cl  Cl12  1  0.438398  0.561602  0.250158  1
  Cl  Cl13  1  0.765938  0.531876  0.279640  1
  Cl  Cl14  1  0.099203  0.198406  0.226158  1
  Cl  Cl15  1  0.227369  0.772631  0.735458  1
  Cl  Cl16  1  0.567890  0.432110  0.735989  1
  Cl  Cl17  1  0.227369  0.454737  0.735458  1
  Cl  Cl18  1  0.123205  0.561602  0.250158  1
  Cl  Cl19  1  0.198568  0.099284  0.774249  1
  Cl  Cl20  1  0.099203  0.900797  0.226158  1
  Cl  Cl21  1  0.545263  0.772631  0.735458  1
  Cl  Cl22  1  0.438398  0.876795  0.250158  1
  Cl  Cl23  1  0.900716  0.099284  0.774249  1
  Cl  Cl24  1  0.864218  0.432110  0.735989  1
  Cl  Cl25  1  0.468124  0.234062  0.279640  1
  Cl  Cl26  1  0.900716  0.801432  0.774249  1
