# generated using pymatgen
data_Er8Ta4Ti8Si15Pb
_symmetry_space_group_name_H-M   'P 1'
_cell_length_a   7.09158946
_cell_length_b   7.03980116
_cell_length_c   12.98252883
_cell_angle_alpha   89.96659588
_cell_angle_beta   89.83474030
_cell_angle_gamma   89.91458514
_symmetry_Int_Tables_number   1
_chemical_formula_structural   Er8Ta4Ti8Si15Pb
_chemical_formula_sum   'Er8 Ta4 Ti8 Si15 Pb1'
_cell_volume   648.12819199
_cell_formula_units_Z   1
loop_
 _symmetry_equiv_pos_site_id
 _symmetry_equiv_pos_as_xyz
  1  'x, y, z'
loop_
 _atom_site_type_symbol
 _atom_site_label
 _atom_site_symmetry_multiplicity
 _atom_site_fract_x
 _atom_site_fract_y
 _atom_site_fract_z
 _atom_site_occupancy
  Er  Er0  1  0.345064  0.997866  0.460429  1
  Er  Er1  1  0.507615  0.834548  0.718844  1
  Er  Er2  1  0.501128  0.159519  0.216973  1
  Er  Er3  1  0.841596  0.498178  0.281836  1
  Er  Er4  1  0.158668  0.509869  0.786536  1
  Er  Er5  1  0.660828  0.996535  0.969787  1
  Er  Er6  1  0.990436  0.349967  0.525895  1
  Er  Er7  1  0.999858  0.659119  0.034053  1
  Ta  Ta8  1  0.325990  0.326789  0.001473  1
  Ta  Ta9  1  0.173975  0.826434  0.249645  1
  Ta  Ta10  1  0.813795  0.175947  0.752571  1
  Ta  Ta11  1  0.672972  0.673064  0.499466  1
  Ti  Ti12  1  0.152671  0.008649  0.883449  1
  Ti  Ti13  1  0.491987  0.650736  0.126135  1
  Ti  Ti14  1  0.517026  0.354404  0.625598  1
  Ti  Ti15  1  0.654048  0.493209  0.876606  1
  Ti  Ti16  1  0.347243  0.509142  0.373616  1
  Ti  Ti17  1  0.846649  0.992098  0.375015  1
  Ti  Ti18  1  0.009778  0.152019  0.124192  1
  Ti  Ti19  1  0.976925  0.832124  0.618718  1
  Si  Si20  1  0.370678  0.703289  0.935798  1
  Si  Si21  1  0.627795  0.297234  0.431942  1
  Si  Si22  1  0.703431  0.369606  0.067274  1
  Si  Si23  1  0.296424  0.630679  0.565972  1
  Si  Si24  1  0.798107  0.870161  0.183722  1
  Si  Si25  1  0.129907  0.202652  0.315532  1
  Si  Si26  1  0.870491  0.800577  0.817136  1
  Si  Si27  1  0.294552  0.952971  0.066595  1
  Si  Si28  1  0.549229  0.790315  0.312458  1
  Si  Si29  1  0.460785  0.208130  0.821291  1
  Si  Si30  1  0.796244  0.543340  0.687566  1
  Si  Si31  1  0.207578  0.453567  0.185979  1
  Si  Si32  1  0.705044  0.048086  0.563781  1
  Si  Si33  1  0.953306  0.293432  0.936008  1
  Si  Si34  1  0.047795  0.709442  0.432980  1
  Pb  Pb35  1  0.200384  0.126302  0.675127  1
