# generated using pymatgen
data_Zr5BeGa2Te
_symmetry_space_group_name_H-M   'P 1'
_cell_length_a   8.38782556
_cell_length_b   8.43891506
_cell_length_c   5.72428200
_cell_angle_alpha   90.00000000
_cell_angle_beta   90.00000000
_cell_angle_gamma   120.20169309
_symmetry_Int_Tables_number   1
_chemical_formula_structural   Zr5BeGa2Te
_chemical_formula_sum   'Zr10 Be2 Ga4 Te2'
_cell_volume   350.18811936
_cell_formula_units_Z   2
loop_
 _symmetry_equiv_pos_site_id
 _symmetry_equiv_pos_as_xyz
  1  'x, y, z'
loop_
 _atom_site_type_symbol
 _atom_site_label
 _atom_site_symmetry_multiplicity
 _atom_site_fract_x
 _atom_site_fract_y
 _atom_site_fract_z
 _atom_site_occupancy
  Zr  Zr0  1  0.675267  0.337918  0.006073  1
  Zr  Zr1  1  0.324733  0.662652  0.006073  1
  Zr  Zr2  1  0.324733  0.662652  0.493927  1
  Zr  Zr3  1  0.675267  0.337918  0.493927  1
  Zr  Zr4  1  0.755132  0.748736  0.750000  1
  Zr  Zr5  1  0.244868  0.993604  0.750000  1
  Zr  Zr6  1  0.000000  0.253565  0.750000  1
  Zr  Zr7  1  0.262892  0.262443  0.250000  1
  Zr  Zr8  1  0.737108  0.999551  0.250000  1
  Zr  Zr9  1  0.000000  0.736196  0.250000  1
  Be  Be10  1  0.000000  0.000048  0.025390  1
  Be  Be11  1  0.000000  0.000048  0.474610  1
  Ga  Ga12  1  0.000000  0.611709  0.750000  1
  Ga  Ga13  1  0.619769  0.621660  0.250000  1
  Ga  Ga14  1  0.380231  0.001892  0.250000  1
  Ga  Ga15  1  0.000000  0.380538  0.250000  1
  Te  Te16  1  0.394140  0.391506  0.750000  1
  Te  Te17  1  0.605860  0.997367  0.750000  1
