# generated using pymatgen
data_Mn5Be(SiOs2)6
_symmetry_space_group_name_H-M   'P 1'
_cell_length_a   4.18175200
_cell_length_b   5.91502000
_cell_length_c   12.55983800
_cell_angle_alpha   90.00023028
_cell_angle_beta   90.00021909
_cell_angle_gamma   89.99997661
_symmetry_Int_Tables_number   1
_chemical_formula_structural   Mn5Be(SiOs2)6
_chemical_formula_sum   'Mn5 Be1 Si6 Os12'
_cell_volume   310.66943564
_cell_formula_units_Z   1
loop_
 _symmetry_equiv_pos_site_id
 _symmetry_equiv_pos_as_xyz
  1  'x, y, z'
loop_
 _atom_site_type_symbol
 _atom_site_label
 _atom_site_symmetry_multiplicity
 _atom_site_fract_x
 _atom_site_fract_y
 _atom_site_fract_z
 _atom_site_occupancy
  Mn  Mn0  1  0.000003  0.499998  0.997352  1
  Mn  Mn1  1  0.499838  0.000000  0.165468  1
  Mn  Mn2  1  0.999846  0.499999  0.333335  1
  Mn  Mn3  1  0.499998  0.000000  0.501208  1
  Mn  Mn4  1  0.000158  0.499998  0.669297  1
  Be  Be5  1  0.500185  0.000000  0.833341  1
  Si  Si6  1  0.999991  0.000000  0.996978  1
  Si  Si7  1  0.499829  0.499999  0.162001  1
  Si  Si8  1  0.999816  0.000000  0.333337  1
  Si  Si9  1  0.500007  0.500000  0.504668  1
  Si  Si10  1  0.000167  0.999999  0.669683  1
  Si  Si11  1  0.500178  0.499999  0.833327  1
  Os  Os12  1  0.500002  0.247471  0.998583  1
  Os  Os13  1  0.500001  0.752529  0.998584  1
  Os  Os14  1  0.999864  0.249536  0.166712  1
  Os  Os15  1  0.999864  0.750464  0.166712  1
  Os  Os16  1  0.499859  0.249494  0.333342  1
  Os  Os17  1  0.499859  0.750506  0.333342  1
  Os  Os18  1  0.000003  0.249547  0.499966  1
  Os  Os19  1  0.000003  0.750454  0.499966  1
  Os  Os20  1  0.500148  0.247494  0.668081  1
  Os  Os21  1  0.500148  0.752507  0.668081  1
  Os  Os22  1  0.000117  0.246849  0.833319  1
  Os  Os23  1  0.000117  0.753151  0.833319  1
