# generated using pymatgen
data_Li4TbEr3Si8
_symmetry_space_group_name_H-M   'P 1'
_cell_length_a   3.78220200
_cell_length_b   7.57510869
_cell_length_c   10.11975116
_cell_angle_alpha   89.97915919
_cell_angle_beta   90.00000000
_cell_angle_gamma   90.00000000
_symmetry_Int_Tables_number   1
_chemical_formula_structural   Li4TbEr3Si8
_chemical_formula_sum   'Li4 Tb1 Er3 Si8'
_cell_volume   289.93683479
_cell_formula_units_Z   1
loop_
 _symmetry_equiv_pos_site_id
 _symmetry_equiv_pos_as_xyz
  1  'x, y, z'
loop_
 _atom_site_type_symbol
 _atom_site_label
 _atom_site_symmetry_multiplicity
 _atom_site_fract_x
 _atom_site_fract_y
 _atom_site_fract_z
 _atom_site_occupancy
  Li  Li0  1  0.250000  0.989801  0.392841  1
  Li  Li1  1  0.250000  0.488119  0.106879  1
  Li  Li2  1  0.750000  0.011894  0.607977  1
  Li  Li3  1  0.750000  0.511603  0.893393  1
  Tb  Tb4  1  0.750000  0.359607  0.363390  1
  Er  Er5  1  0.250000  0.137752  0.863336  1
  Er  Er6  1  0.250000  0.639199  0.636365  1
  Er  Er7  1  0.750000  0.861257  0.136065  1
  Si  Si8  1  0.250000  0.233876  0.569587  1
  Si  Si9  1  0.250000  0.733903  0.932629  1
  Si  Si10  1  0.750000  0.768105  0.432523  1
  Si  Si11  1  0.750000  0.264129  0.065494  1
  Si  Si12  1  0.250000  0.657041  0.319285  1
  Si  Si13  1  0.250000  0.153533  0.178763  1
  Si  Si14  1  0.750000  0.345462  0.682085  1
  Si  Si15  1  0.750000  0.844720  0.819387  1
