# generated using pymatgen
data_Hf3BeTc2Ge2Rh
_symmetry_space_group_name_H-M   'P 1'
_cell_length_a   6.89966126
_cell_length_b   6.88389776
_cell_length_c   3.45453700
_cell_angle_alpha   90.00000000
_cell_angle_beta   90.00000000
_cell_angle_gamma   119.92444458
_symmetry_Int_Tables_number   1
_chemical_formula_structural   Hf3BeTc2Ge2Rh
_chemical_formula_sum   'Hf3 Be1 Tc2 Ge2 Rh1'
_cell_volume   142.20432548
_cell_formula_units_Z   1
loop_
 _symmetry_equiv_pos_site_id
 _symmetry_equiv_pos_as_xyz
  1  'x, y, z'
loop_
 _atom_site_type_symbol
 _atom_site_label
 _atom_site_symmetry_multiplicity
 _atom_site_fract_x
 _atom_site_fract_y
 _atom_site_fract_z
 _atom_site_occupancy
  Hf  Hf0  1  0.395504  0.388107  0.500000  1
  Hf  Hf1  1  0.604496  0.992604  0.500000  1
  Hf  Hf2  1  0.000000  0.620638  0.500000  1
  Be  Be3  1  0.000000  0.003574  0.500000  1
  Tc  Tc4  1  0.756330  0.757666  0.000000  1
  Tc  Tc5  1  0.243670  0.001336  0.000000  1
  Ge  Ge6  1  0.670359  0.331989  0.000000  1
  Ge  Ge7  1  0.329641  0.661631  0.000000  1
  Rh  Rh8  1  0.000000  0.242456  0.000000  1
