# generated using pymatgen
data_Ca2Si7(Ir3Ru)3
_symmetry_space_group_name_H-M   'P 1'
_cell_length_a   9.64824600
_cell_length_b   9.64824638
_cell_length_c   3.96444800
_cell_angle_alpha   90.00000000
_cell_angle_beta   90.00000000
_cell_angle_gamma   119.99999368
_symmetry_Int_Tables_number   1
_chemical_formula_structural   Ca2Si7(Ir3Ru)3
_chemical_formula_sum   'Ca2 Si7 Ir9 Ru3'
_cell_volume   319.60247839
_cell_formula_units_Z   1
loop_
 _symmetry_equiv_pos_site_id
 _symmetry_equiv_pos_as_xyz
  1  'x, y, z'
loop_
 _atom_site_type_symbol
 _atom_site_label
 _atom_site_symmetry_multiplicity
 _atom_site_fract_x
 _atom_site_fract_y
 _atom_site_fract_z
 _atom_site_occupancy
  Ca  Ca0  1  0.333333  0.666667  0.738454  1
  Ca  Ca1  1  0.666667  0.333333  0.238132  1
  Si  Si2  1  0.000000  0.000000  0.738653  1
  Si  Si3  1  0.287017  0.889246  0.237999  1
  Si  Si4  1  0.602229  0.712983  0.237999  1
  Si  Si5  1  0.110754  0.397771  0.237999  1
  Si  Si6  1  0.702929  0.117873  0.737986  1
  Si  Si7  1  0.414944  0.297071  0.737986  1
  Si  Si8  1  0.882127  0.585056  0.737986  1
  Ir  Ir9  1  0.725394  0.884654  0.738210  1
  Ir  Ir10  1  0.159260  0.274606  0.738210  1
  Ir  Ir11  1  0.115346  0.840740  0.738210  1
  Ir  Ir12  1  0.050828  0.611655  0.238217  1
  Ir  Ir13  1  0.560826  0.949172  0.238217  1
  Ir  Ir14  1  0.388345  0.439174  0.238217  1
  Ir  Ir15  1  0.939373  0.369485  0.737906  1
  Ir  Ir16  1  0.430112  0.060627  0.737906  1
  Ir  Ir17  1  0.630515  0.569888  0.737906  1
  Ru  Ru18  1  0.210244  0.092191  0.237936  1
  Ru  Ru19  1  0.881947  0.789756  0.237936  1
  Ru  Ru20  1  0.907809  0.118053  0.237936  1
