# generated using pymatgen
data_YEr2Cd3Ge2Au
_symmetry_space_group_name_H-M   'P 1'
_cell_length_a   7.31088239
_cell_length_b   7.31088208
_cell_length_c   4.32682000
_cell_angle_alpha   90.00000000
_cell_angle_beta   90.00000000
_cell_angle_gamma   120.03724598
_symmetry_Int_Tables_number   1
_chemical_formula_structural   YEr2Cd3Ge2Au
_chemical_formula_sum   'Y1 Er2 Cd3 Ge2 Au1'
_cell_volume   200.20545984
_cell_formula_units_Z   1
loop_
 _symmetry_equiv_pos_site_id
 _symmetry_equiv_pos_as_xyz
  1  'x, y, z'
loop_
 _atom_site_type_symbol
 _atom_site_label
 _atom_site_symmetry_multiplicity
 _atom_site_fract_x
 _atom_site_fract_y
 _atom_site_fract_z
 _atom_site_occupancy
  Y  Y0  1  0.416282  0.416282  0.000000  1
  Er  Er1  1  0.584456  0.000243  0.000000  1
  Er  Er2  1  0.000243  0.584456  0.000000  1
  Cd  Cd3  1  0.251344  0.999705  0.500000  1
  Cd  Cd4  1  0.999705  0.251344  0.500000  1
  Cd  Cd5  1  0.748836  0.748836  0.500000  1
  Ge  Ge6  1  0.332792  0.667680  0.500000  1
  Ge  Ge7  1  0.667680  0.332792  0.500000  1
  Au  Au8  1  0.998663  0.998663  0.000000  1
