# generated using pymatgen
data_Yb4ZnIr6W
_symmetry_space_group_name_H-M   'P 1'
_cell_length_a   5.48800900
_cell_length_b   5.20057871
_cell_length_c   8.88278500
_cell_angle_alpha   90.00000000
_cell_angle_beta   90.00000000
_cell_angle_gamma   122.03472119
_symmetry_Int_Tables_number   1
_chemical_formula_structural   Yb4ZnIr6W
_chemical_formula_sum   'Yb4 Zn1 Ir6 W1'
_cell_volume   214.91738984
_cell_formula_units_Z   1
loop_
 _symmetry_equiv_pos_site_id
 _symmetry_equiv_pos_as_xyz
  1  'x, y, z'
loop_
 _atom_site_type_symbol
 _atom_site_label
 _atom_site_symmetry_multiplicity
 _atom_site_fract_x
 _atom_site_fract_y
 _atom_site_fract_z
 _atom_site_occupancy
  Yb  Yb0  1  0.668850  0.337885  0.562280  1
  Yb  Yb1  1  0.337675  0.674638  0.431626  1
  Yb  Yb2  1  0.337675  0.674638  0.068374  1
  Yb  Yb3  1  0.668850  0.337885  0.937720  1
  Zn  Zn4  1  0.829436  0.659055  0.250000  1
  Ir  Ir5  1  0.013404  0.026665  0.499245  1
  Ir  Ir6  1  0.013404  0.026665  0.000755  1
  Ir  Ir7  1  0.164271  0.811660  0.750000  1
  Ir  Ir8  1  0.646515  0.811355  0.750000  1
  Ir  Ir9  1  0.824065  0.161983  0.250000  1
  Ir  Ir10  1  0.337941  0.162436  0.250000  1
  W  W11  1  0.157915  0.315133  0.750000  1
