# generated using pymatgen
data_YPu(ZnAs)6
_symmetry_space_group_name_H-M   'P 1'
_cell_length_a   4.16769863
_cell_length_b   4.17105430
_cell_length_c   20.26714023
_cell_angle_alpha   90.06065179
_cell_angle_beta   90.06249297
_cell_angle_gamma   60.00775712
_symmetry_Int_Tables_number   1
_chemical_formula_structural   YPu(ZnAs)6
_chemical_formula_sum   'Y1 Pu1 Zn6 As6'
_cell_volume   305.13980314
_cell_formula_units_Z   1
loop_
 _symmetry_equiv_pos_site_id
 _symmetry_equiv_pos_as_xyz
  1  'x, y, z'
loop_
 _atom_site_type_symbol
 _atom_site_label
 _atom_site_symmetry_multiplicity
 _atom_site_fract_x
 _atom_site_fract_y
 _atom_site_fract_z
 _atom_site_occupancy
  Y  Y0  1  0.000876  0.000991  0.000010  1
  Pu  Pu1  1  0.000757  0.001025  0.500046  1
  Zn  Zn2  1  0.338740  0.337518  0.129157  1
  Zn  Zn3  1  0.671930  0.664773  0.870883  1
  Zn  Zn4  1  0.673742  0.664048  0.624324  1
  Zn  Zn5  1  0.335037  0.338034  0.375759  1
  Zn  Zn6  1  0.257604  0.368704  0.749002  1
  Zn  Zn7  1  0.630906  0.628573  0.250663  1
  As  As8  1  0.336411  0.332831  0.580582  1
  As  As9  1  0.668319  0.669265  0.419517  1
  As  As10  1  0.670003  0.669200  0.084603  1
  As  As11  1  0.335925  0.332934  0.915447  1
  As  As12  1  0.585136  0.705259  0.747330  1
  As  As13  1  0.295414  0.291943  0.252677  1
