# generated using pymatgen
data_AcPrEr2(ZnSn)4
_symmetry_space_group_name_H-M   'P 1'
_cell_length_a   4.56494900
_cell_length_b   4.56494892
_cell_length_c   16.49051100
_cell_angle_alpha   90.00000000
_cell_angle_beta   90.00000000
_cell_angle_gamma   119.99999332
_symmetry_Int_Tables_number   1
_chemical_formula_structural   AcPrEr2(ZnSn)4
_chemical_formula_sum   'Ac1 Pr1 Er2 Zn4 Sn4'
_cell_volume   297.60253550
_cell_formula_units_Z   1
loop_
 _symmetry_equiv_pos_site_id
 _symmetry_equiv_pos_as_xyz
  1  'x, y, z'
loop_
 _atom_site_type_symbol
 _atom_site_label
 _atom_site_symmetry_multiplicity
 _atom_site_fract_x
 _atom_site_fract_y
 _atom_site_fract_z
 _atom_site_occupancy
  Ac  Ac0  1  0.000000  0.000000  0.000000  1
  Pr  Pr1  1  0.000000  0.000000  0.500000  1
  Er  Er2  1  0.000000  0.000000  0.258307  1
  Er  Er3  1  0.000000  0.000000  0.741693  1
  Zn  Zn4  1  0.333333  0.666667  0.175642  1
  Zn  Zn5  1  0.666667  0.333333  0.824358  1
  Zn  Zn6  1  0.666667  0.333333  0.656913  1
  Zn  Zn7  1  0.333333  0.666667  0.343087  1
  Sn  Sn8  1  0.333333  0.666667  0.614971  1
  Sn  Sn9  1  0.666667  0.333333  0.385029  1
  Sn  Sn10  1  0.666667  0.333333  0.131472  1
  Sn  Sn11  1  0.333333  0.666667  0.868528  1
