# generated using pymatgen
data_AlGaI4
_symmetry_space_group_name_H-M   'P 1'
_cell_length_a   8.44926900
_cell_length_b   8.56718600
_cell_length_c   15.17922200
_cell_angle_alpha   90.00000000
_cell_angle_beta   90.00000000
_cell_angle_gamma   90.00000000
_symmetry_Int_Tables_number   1
_chemical_formula_structural   AlGaI4
_chemical_formula_sum   'Al4 Ga4 I16'
_cell_volume   1098.77013228
_cell_formula_units_Z   4
loop_
 _symmetry_equiv_pos_site_id
 _symmetry_equiv_pos_as_xyz
  1  'x, y, z'
loop_
 _atom_site_type_symbol
 _atom_site_label
 _atom_site_symmetry_multiplicity
 _atom_site_fract_x
 _atom_site_fract_y
 _atom_site_fract_z
 _atom_site_occupancy
  Al  Al0  1  0.250000  0.303502  0.897207  1
  Al  Al1  1  0.750000  0.803502  0.602793  1
  Al  Al2  1  0.750000  0.696498  0.102793  1
  Al  Al3  1  0.250000  0.196498  0.397207  1
  Ga  Ga4  1  0.250000  0.444639  0.151258  1
  Ga  Ga5  1  0.750000  0.944639  0.348742  1
  Ga  Ga6  1  0.750000  0.555361  0.848742  1
  Ga  Ga7  1  0.250000  0.055361  0.651258  1
  I  I8  1  0.250000  0.128014  0.033404  1
  I  I9  1  0.750000  0.628014  0.466596  1
  I  I10  1  0.750000  0.871986  0.966596  1
  I  I11  1  0.250000  0.371986  0.533404  1
  I  I12  1  0.250000  0.909897  0.446265  1
  I  I13  1  0.750000  0.409897  0.053735  1
  I  I14  1  0.750000  0.090103  0.553735  1
  I  I15  1  0.250000  0.590103  0.946265  1
  I  I16  1  0.993366  0.756258  0.199417  1
  I  I17  1  0.006634  0.256258  0.300583  1
  I  I18  1  0.493366  0.243742  0.800583  1
  I  I19  1  0.506634  0.743742  0.699417  1
  I  I20  1  0.006634  0.243742  0.800583  1
  I  I21  1  0.993366  0.743742  0.699417  1
  I  I22  1  0.506634  0.756258  0.199417  1
  I  I23  1  0.493366  0.256258  0.300583  1
