# generated using pymatgen
data_Y2Zr3Si4
_symmetry_space_group_name_H-M   'P 1'
_cell_length_a   7.34078700
_cell_length_b   7.12622237
_cell_length_c   7.32690499
_cell_angle_alpha   71.81944701
_cell_angle_beta   90.00000000
_cell_angle_gamma   90.00000000
_symmetry_Int_Tables_number   1
_chemical_formula_structural   Y2Zr3Si4
_chemical_formula_sum   'Y4 Zr6 Si8'
_cell_volume   364.15126097
_cell_formula_units_Z   2
loop_
 _symmetry_equiv_pos_site_id
 _symmetry_equiv_pos_as_xyz
  1  'x, y, z'
loop_
 _atom_site_type_symbol
 _atom_site_label
 _atom_site_symmetry_multiplicity
 _atom_site_fract_x
 _atom_site_fract_y
 _atom_site_fract_z
 _atom_site_occupancy
  Y  Y0  1  0.172571  0.926653  0.191527  1
  Y  Y1  1  0.327429  0.426653  0.191527  1
  Y  Y2  1  0.827429  0.073347  0.808473  1
  Y  Y3  1  0.672571  0.573347  0.808473  1
  Zr  Zr4  1  0.818844  0.250621  0.252328  1
  Zr  Zr5  1  0.318844  0.249379  0.747672  1
  Zr  Zr6  1  0.181156  0.749379  0.747672  1
  Zr  Zr7  1  0.681156  0.750621  0.252328  1
  Zr  Zr8  1  0.500000  0.000000  0.500000  1
  Zr  Zr9  1  0.000000  0.500000  0.500000  1
  Si  Si10  1  0.532120  0.130266  0.080379  1
  Si  Si11  1  0.377365  0.627509  0.491287  1
  Si  Si12  1  0.877365  0.872491  0.508713  1
  Si  Si13  1  0.032120  0.369734  0.919621  1
  Si  Si14  1  0.122635  0.127509  0.491287  1
  Si  Si15  1  0.622635  0.372491  0.508713  1
  Si  Si16  1  0.967880  0.630266  0.080379  1
  Si  Si17  1  0.467880  0.869734  0.919621  1
