# generated using pymatgen
data_NdSm3(B4W)4
_symmetry_space_group_name_H-M   'P 1'
_cell_length_a   3.68331400
_cell_length_b   6.10225517
_cell_length_c   11.80604345
_cell_angle_alpha   89.96382819
_cell_angle_beta   90.00000000
_cell_angle_gamma   90.00000000
_symmetry_Int_Tables_number   1
_chemical_formula_structural   NdSm3(B4W)4
_chemical_formula_sum   'Nd1 Sm3 B16 W4'
_cell_volume   265.35874128
_cell_formula_units_Z   1
loop_
 _symmetry_equiv_pos_site_id
 _symmetry_equiv_pos_as_xyz
  1  'x, y, z'
loop_
 _atom_site_type_symbol
 _atom_site_label
 _atom_site_symmetry_multiplicity
 _atom_site_fract_x
 _atom_site_fract_y
 _atom_site_fract_z
 _atom_site_occupancy
  Nd  Nd0  1  0.000000  0.374450  0.650333  1
  Sm  Sm1  1  0.000000  0.125693  0.150068  1
  Sm  Sm2  1  0.000000  0.874163  0.850230  1
  Sm  Sm3  1  0.000000  0.625916  0.349719  1
  B  B4  1  0.500000  0.023350  0.691798  1
  B  B5  1  0.500000  0.975620  0.307762  1
  B  B6  1  0.500000  0.525122  0.809209  1
  B  B7  1  0.500000  0.475644  0.191854  1
  B  B8  1  0.500000  0.111729  0.545806  1
  B  B9  1  0.500000  0.886996  0.452831  1
  B  B10  1  0.500000  0.612889  0.953911  1
  B  B11  1  0.500000  0.387295  0.046828  1
  B  B12  1  0.500000  0.284124  0.314027  1
  B  B13  1  0.500000  0.717557  0.685805  1
  B  B14  1  0.500000  0.784026  0.185471  1
  B  B15  1  0.500000  0.215580  0.815423  1
  B  B16  1  0.500000  0.364102  0.466974  1
  B  B17  1  0.500000  0.636175  0.531483  1
  B  B18  1  0.500000  0.864275  0.032288  1
  B  B19  1  0.500000  0.135456  0.968256  1
  W  W20  1  0.000000  0.129032  0.415702  1
  W  W21  1  0.000000  0.870780  0.583453  1
  W  W22  1  0.000000  0.629237  0.084005  1
  W  W23  1  0.000000  0.370788  0.916766  1
