# generated using pymatgen
data_Tb13Y7Co3Bi8Ru
_symmetry_space_group_name_H-M   'P 1'
_cell_length_a   8.07739492
_cell_length_b   8.91746000
_cell_length_c   12.49537432
_cell_angle_alpha   90.00000000
_cell_angle_beta   90.17404796
_cell_angle_gamma   90.00000000
_symmetry_Int_Tables_number   1
_chemical_formula_structural   Tb13Y7Co3Bi8Ru
_chemical_formula_sum   'Tb13 Y7 Co3 Bi8 Ru1'
_cell_volume   900.03573661
_cell_formula_units_Z   1
loop_
 _symmetry_equiv_pos_site_id
 _symmetry_equiv_pos_as_xyz
  1  'x, y, z'
loop_
 _atom_site_type_symbol
 _atom_site_label
 _atom_site_symmetry_multiplicity
 _atom_site_fract_x
 _atom_site_fract_y
 _atom_site_fract_z
 _atom_site_occupancy
  Tb  Tb0  1  0.652880  0.750000  0.296396  1
  Tb  Tb1  1  0.379715  0.750000  0.693820  1
  Tb  Tb2  1  0.118241  0.750000  0.188725  1
  Tb  Tb3  1  0.947922  0.750000  0.503458  1
  Tb  Tb4  1  0.548092  0.750000  0.002254  1
  Tb  Tb5  1  0.678798  0.044027  0.564976  1
  Tb  Tb6  1  0.324690  0.967910  0.437627  1
  Tb  Tb7  1  0.175791  0.966828  0.937302  1
  Tb  Tb8  1  0.324690  0.532090  0.437627  1
  Tb  Tb9  1  0.823377  0.036283  0.062717  1
  Tb  Tb10  1  0.678798  0.455973  0.564976  1
  Tb  Tb11  1  0.823377  0.463717  0.062717  1
  Tb  Tb12  1  0.175791  0.533172  0.937302  1
  Y  Y13  1  0.847188  0.750000  0.799779  1
  Y  Y14  1  0.152539  0.250000  0.199401  1
  Y  Y15  1  0.346652  0.250000  0.700144  1
  Y  Y16  1  0.618596  0.250000  0.307790  1
  Y  Y17  1  0.881019  0.250000  0.808797  1
  Y  Y18  1  0.047459  0.250000  0.496914  1
  Y  Y19  1  0.454012  0.250000  0.997700  1
  Co  Co20  1  0.433310  0.250000  0.489636  1
  Co  Co21  1  0.059523  0.250000  0.991431  1
  Co  Co22  1  0.938154  0.750000  0.008167  1
  Bi  Bi23  1  0.572343  0.491300  0.826731  1
  Bi  Bi24  1  0.427025  0.507913  0.173226  1
  Bi  Bi25  1  0.072224  0.508052  0.674125  1
  Bi  Bi26  1  0.427025  0.992087  0.173226  1
  Bi  Bi27  1  0.928705  0.491499  0.325766  1
  Bi  Bi28  1  0.572343  0.008700  0.826731  1
  Bi  Bi29  1  0.928705  0.008501  0.325766  1
  Bi  Bi30  1  0.072224  0.991948  0.674125  1
  Ru  Ru31  1  0.568790  0.750000  0.510652  1
