# generated using pymatgen
data_Tm2Re3W
_symmetry_space_group_name_H-M   'P 1'
_cell_length_a   5.45585000
_cell_length_b   5.45585026
_cell_length_c   8.77093100
_cell_angle_alpha   90.00000000
_cell_angle_beta   90.00000000
_cell_angle_gamma   119.99999842
_symmetry_Int_Tables_number   1
_chemical_formula_structural   Tm2Re3W
_chemical_formula_sum   'Tm4 Re6 W2'
_cell_volume   226.10033039
_cell_formula_units_Z   2
loop_
 _symmetry_equiv_pos_site_id
 _symmetry_equiv_pos_as_xyz
  1  'x, y, z'
loop_
 _atom_site_type_symbol
 _atom_site_label
 _atom_site_symmetry_multiplicity
 _atom_site_fract_x
 _atom_site_fract_y
 _atom_site_fract_z
 _atom_site_occupancy
  Tm  Tm0  1  0.333333  0.666667  0.437046  1
  Tm  Tm1  1  0.666667  0.333333  0.562954  1
  Tm  Tm2  1  0.666667  0.333333  0.937046  1
  Tm  Tm3  1  0.333333  0.666667  0.062954  1
  Re  Re4  1  0.827972  0.172028  0.250000  1
  Re  Re5  1  0.827972  0.655943  0.250000  1
  Re  Re6  1  0.344057  0.172028  0.250000  1
  Re  Re7  1  0.172028  0.827972  0.750000  1
  Re  Re8  1  0.172028  0.344057  0.750000  1
  Re  Re9  1  0.655943  0.827972  0.750000  1
  W  W10  1  0.000000  0.000000  0.500000  1
  W  W11  1  0.000000  0.000000  0.000000  1
