# generated using pymatgen
data_Tm2HgPtPb
_symmetry_space_group_name_H-M   'P 1'
_cell_length_a   8.20255600
_cell_length_b   8.09648100
_cell_length_c   3.64822900
_cell_angle_alpha   90.00000000
_cell_angle_beta   90.00000000
_cell_angle_gamma   90.00000000
_symmetry_Int_Tables_number   1
_chemical_formula_structural   Tm2HgPtPb
_chemical_formula_sum   'Tm4 Hg2 Pt2 Pb2'
_cell_volume   242.28559627
_cell_formula_units_Z   2
loop_
 _symmetry_equiv_pos_site_id
 _symmetry_equiv_pos_as_xyz
  1  'x, y, z'
loop_
 _atom_site_type_symbol
 _atom_site_label
 _atom_site_symmetry_multiplicity
 _atom_site_fract_x
 _atom_site_fract_y
 _atom_site_fract_z
 _atom_site_occupancy
  Tm  Tm0  1  0.311798  0.836473  0.500000  1
  Tm  Tm1  1  0.630606  0.174413  0.500000  1
  Tm  Tm2  1  0.188202  0.336473  0.500000  1
  Tm  Tm3  1  0.869394  0.674413  0.500000  1
  Hg  Hg4  1  0.871779  0.365692  0.000000  1
  Hg  Hg5  1  0.628221  0.865692  0.000000  1
  Pt  Pt6  1  0.370641  0.121170  0.000000  1
  Pt  Pt7  1  0.129359  0.621170  0.000000  1
  Pb  Pb8  1  0.493204  0.502251  0.000000  1
  Pb  Pb9  1  0.006796  0.002251  0.000000  1
