# generated using pymatgen
data_Dy6Ho3ErSi6
_symmetry_space_group_name_H-M   'P 1'
_cell_length_a   8.43282800
_cell_length_b   8.43282640
_cell_length_c   6.33075500
_cell_angle_alpha   90.00000000
_cell_angle_beta   90.00000000
_cell_angle_gamma   119.99999844
_symmetry_Int_Tables_number   1
_chemical_formula_structural   Dy6Ho3ErSi6
_chemical_formula_sum   'Dy6 Ho3 Er1 Si6'
_cell_volume   389.88142731
_cell_formula_units_Z   1
loop_
 _symmetry_equiv_pos_site_id
 _symmetry_equiv_pos_as_xyz
  1  'x, y, z'
loop_
 _atom_site_type_symbol
 _atom_site_label
 _atom_site_symmetry_multiplicity
 _atom_site_fract_x
 _atom_site_fract_y
 _atom_site_fract_z
 _atom_site_occupancy
  Dy  Dy0  1  0.000024  0.756840  0.750027  1
  Dy  Dy1  1  0.000024  0.243183  0.249973  1
  Dy  Dy2  1  0.756817  0.756840  0.249973  1
  Dy  Dy3  1  0.756817  0.999976  0.750027  1
  Dy  Dy4  1  0.243160  0.243183  0.750027  1
  Dy  Dy5  1  0.243160  0.999976  0.249973  1
  Ho  Ho6  1  0.333333  0.666667  0.500000  1
  Ho  Ho7  1  0.666667  0.333333  0.000000  1
  Ho  Ho8  1  0.666667  0.333333  0.500000  1
  Er  Er9  1  0.333333  0.666667  0.000000  1
  Si  Si10  1  0.394723  0.999920  0.750068  1
  Si  Si11  1  0.394723  0.394803  0.249932  1
  Si  Si12  1  0.000080  0.605277  0.249932  1
  Si  Si13  1  0.000080  0.394803  0.750068  1
  Si  Si14  1  0.605197  0.605277  0.750068  1
  Si  Si15  1  0.605197  0.999920  0.249932  1
