# generated using pymatgen
data_Nd4GaCuNi12
_symmetry_space_group_name_H-M   'P 1'
_cell_length_a   5.08894207
_cell_length_b   5.03699590
_cell_length_c   12.71160535
_cell_angle_alpha   78.39318949
_cell_angle_beta   78.45315368
_cell_angle_gamma   59.65826142
_symmetry_Int_Tables_number   1
_chemical_formula_structural   Nd4GaCuNi12
_chemical_formula_sum   'Nd4 Ga1 Cu1 Ni12'
_cell_volume   273.57804032
_cell_formula_units_Z   1
loop_
 _symmetry_equiv_pos_site_id
 _symmetry_equiv_pos_as_xyz
  1  'x, y, z'
loop_
 _atom_site_type_symbol
 _atom_site_label
 _atom_site_symmetry_multiplicity
 _atom_site_fract_x
 _atom_site_fract_y
 _atom_site_fract_z
 _atom_site_occupancy
  Nd  Nd0  1  0.947061  0.947253  0.158625  1
  Nd  Nd1  1  0.053086  0.050419  0.843407  1
  Nd  Nd2  1  0.852779  0.853886  0.440556  1
  Nd  Nd3  1  0.147508  0.147366  0.557618  1
  Ga  Ga4  1  0.497375  0.002448  0.002801  1
  Cu  Cu5  1  0.724360  0.718035  0.833245  1
  Ni  Ni6  1  0.499477  0.500656  0.500391  1
  Ni  Ni7  1  0.275112  0.283209  0.166567  1
  Ni  Ni8  1  0.613579  0.607657  0.165184  1
  Ni  Ni9  1  0.388948  0.387908  0.834197  1
  Ni  Ni10  1  0.999692  0.501189  0.000382  1
  Ni  Ni11  1  0.498737  0.501189  0.000382  1
  Ni  Ni12  1  0.391443  0.392584  0.326999  1
  Ni  Ni13  1  0.888973  0.392584  0.326999  1
  Ni  Ni14  1  0.390829  0.891266  0.327075  1
  Ni  Ni15  1  0.608143  0.606374  0.672217  1
  Ni  Ni16  1  0.113267  0.606374  0.672217  1
  Ni  Ni17  1  0.609632  0.109601  0.671137  1
