# generated using pymatgen
data_La6Mn(SiSe7)2
_symmetry_space_group_name_H-M   'P 1'
_cell_length_a   10.82759600
_cell_length_b   10.82759633
_cell_length_c   6.07397800
_cell_angle_alpha   90.00000000
_cell_angle_beta   90.00000000
_cell_angle_gamma   120.00000511
_symmetry_Int_Tables_number   1
_chemical_formula_structural   La6Mn(SiSe7)2
_chemical_formula_sum   'La6 Mn1 Si2 Se14'
_cell_volume   616.69144400
_cell_formula_units_Z   1
loop_
 _symmetry_equiv_pos_site_id
 _symmetry_equiv_pos_as_xyz
  1  'x, y, z'
loop_
 _atom_site_type_symbol
 _atom_site_label
 _atom_site_symmetry_multiplicity
 _atom_site_fract_x
 _atom_site_fract_y
 _atom_site_fract_z
 _atom_site_occupancy
  La  La0  1  0.876810  0.232606  0.249573  1
  La  La1  1  0.767394  0.644205  0.249573  1
  La  La2  1  0.355795  0.123190  0.249573  1
  La  La3  1  0.123373  0.767917  0.750098  1
  La  La4  1  0.232083  0.355456  0.750098  1
  La  La5  1  0.644544  0.876627  0.750098  1
  Mn  Mn6  1  0.000000  0.000000  0.488290  1
  Si  Si7  1  0.666667  0.333333  0.835837  1
  Si  Si8  1  0.333333  0.666667  0.338615  1
  Se  Se9  1  0.666667  0.333333  0.463195  1
  Se  Se10  1  0.333333  0.666667  0.965780  1
  Se  Se11  1  0.914924  0.159987  0.726709  1
  Se  Se12  1  0.840013  0.754938  0.726709  1
  Se  Se13  1  0.245062  0.085076  0.726709  1
  Se  Se14  1  0.082762  0.837942  0.247722  1
  Se  Se15  1  0.162058  0.244820  0.247722  1
  Se  Se16  1  0.755180  0.917238  0.247722  1
  Se  Se17  1  0.589144  0.109861  0.982462  1
  Se  Se18  1  0.890139  0.479284  0.982462  1
  Se  Se19  1  0.520716  0.410856  0.982462  1
  Se  Se20  1  0.411421  0.890162  0.484749  1
  Se  Se21  1  0.109838  0.521259  0.484749  1
  Se  Se22  1  0.478741  0.588579  0.484749  1
