# generated using pymatgen
data_Y20Ga5Si10Pt
_symmetry_space_group_name_H-M   'P 1'
_cell_length_a   7.44966096
_cell_length_b   7.81842594
_cell_length_c   14.83077992
_cell_angle_alpha   89.97798172
_cell_angle_beta   90.03379768
_cell_angle_gamma   89.80418108
_symmetry_Int_Tables_number   1
_chemical_formula_structural   Y20Ga5Si10Pt
_chemical_formula_sum   'Y20 Ga5 Si10 Pt1'
_cell_volume   863.80791825
_cell_formula_units_Z   1
loop_
 _symmetry_equiv_pos_site_id
 _symmetry_equiv_pos_as_xyz
  1  'x, y, z'
loop_
 _atom_site_type_symbol
 _atom_site_label
 _atom_site_symmetry_multiplicity
 _atom_site_fract_x
 _atom_site_fract_y
 _atom_site_fract_z
 _atom_site_occupancy
  Y  Y0  1  0.677146  0.176449  0.625155  1
  Y  Y1  1  0.183797  0.326930  0.874102  1
  Y  Y2  1  0.319253  0.825491  0.123649  1
  Y  Y3  1  0.821613  0.675062  0.377071  1
  Y  Y4  1  0.318098  0.822928  0.378373  1
  Y  Y5  1  0.821832  0.677065  0.121057  1
  Y  Y6  1  0.678635  0.179197  0.876677  1
  Y  Y7  1  0.183714  0.326221  0.624252  1
  Y  Y8  1  0.518691  0.679456  0.595507  1
  Y  Y9  1  0.022873  0.815341  0.901838  1
  Y  Y10  1  0.477655  0.314352  0.095161  1
  Y  Y11  1  0.978364  0.182866  0.403687  1
  Y  Y12  1  0.475376  0.317051  0.405750  1
  Y  Y13  1  0.975654  0.179750  0.096582  1
  Y  Y14  1  0.521039  0.677118  0.904120  1
  Y  Y15  1  0.024170  0.819644  0.597833  1
  Y  Y16  1  0.838996  0.511526  0.750917  1
  Y  Y17  1  0.353035  0.986004  0.748586  1
  Y  Y18  1  0.155466  0.483649  0.251370  1
  Y  Y19  1  0.650768  0.017393  0.248615  1
  Ga  Ga20  1  0.654211  0.968758  0.460080  1
  Ga  Ga21  1  0.157689  0.529752  0.040568  1
  Ga  Ga22  1  0.342887  0.028054  0.958572  1
  Ga  Ga23  1  0.844444  0.467479  0.540881  1
  Ga  Ga24  1  0.526986  0.603077  0.248155  1
  Si  Si25  1  0.346341  0.027383  0.540692  1
  Si  Si26  1  0.850639  0.469649  0.959509  1
  Si  Si27  1  0.648752  0.970952  0.040232  1
  Si  Si28  1  0.151996  0.529201  0.459708  1
  Si  Si29  1  0.979326  0.101126  0.751310  1
  Si  Si30  1  0.022413  0.894292  0.251008  1
  Si  Si31  1  0.738493  0.877336  0.750984  1
  Si  Si32  1  0.226083  0.633762  0.749621  1
  Si  Si33  1  0.264612  0.124359  0.250644  1
  Si  Si34  1  0.771521  0.375217  0.249436  1
  Pt  Pt35  1  0.477430  0.406111  0.748298  1
