# generated using pymatgen
data_TcRuI18
_symmetry_space_group_name_H-M   'P 1'
_cell_length_a   10.03623560
_cell_length_b   10.03623700
_cell_length_c   10.03623699
_cell_angle_alpha   95.03078486
_cell_angle_beta   95.03077588
_cell_angle_gamma   95.03079148
_symmetry_Int_Tables_number   1
_chemical_formula_structural   TcRuI18
_chemical_formula_sum   'Tc1 Ru1 I18'
_cell_volume   998.49204330
_cell_formula_units_Z   1
loop_
 _symmetry_equiv_pos_site_id
 _symmetry_equiv_pos_as_xyz
  1  'x, y, z'
loop_
 _atom_site_type_symbol
 _atom_site_label
 _atom_site_symmetry_multiplicity
 _atom_site_fract_x
 _atom_site_fract_y
 _atom_site_fract_z
 _atom_site_occupancy
  Tc  Tc0  1  0.500000  0.500000  0.500000  1
  Ru  Ru1  1  0.000000  0.000000  0.000000  1
  I  I2  1  0.737321  0.134405  0.619393  1
  I  I3  1  0.970714  0.007353  0.730906  1
  I  I4  1  0.619393  0.737321  0.134405  1
  I  I5  1  0.992647  0.269094  0.029286  1
  I  I6  1  0.730906  0.970714  0.007353  1
  I  I7  1  0.007353  0.730906  0.970714  1
  I  I8  1  0.029286  0.992647  0.269094  1
  I  I9  1  0.865595  0.380607  0.262679  1
  I  I10  1  0.269094  0.029286  0.992647  1
  I  I11  1  0.262679  0.865595  0.380607  1
  I  I12  1  0.134405  0.619393  0.737321  1
  I  I13  1  0.380607  0.262679  0.865595  1
  I  I14  1  0.771196  0.540973  0.494601  1
  I  I15  1  0.540973  0.494601  0.771196  1
  I  I16  1  0.228804  0.459027  0.505399  1
  I  I17  1  0.459027  0.505399  0.228804  1
  I  I18  1  0.494601  0.771196  0.540973  1
  I  I19  1  0.505399  0.228804  0.459027  1
