# generated using pymatgen
data_Dy4Ho4Cd2CoOs
_symmetry_space_group_name_H-M   'P 1'
_cell_length_a   9.65204532
_cell_length_b   9.55263711
_cell_length_c   9.55373690
_cell_angle_alpha   59.24449766
_cell_angle_beta   59.47983845
_cell_angle_gamma   59.49022411
_symmetry_Int_Tables_number   1
_chemical_formula_structural   Dy4Ho4Cd2CoOs
_chemical_formula_sum   'Dy8 Ho8 Cd4 Co2 Os2'
_cell_volume   614.43205979
_cell_formula_units_Z   2
loop_
 _symmetry_equiv_pos_site_id
 _symmetry_equiv_pos_as_xyz
  1  'x, y, z'
loop_
 _atom_site_type_symbol
 _atom_site_label
 _atom_site_symmetry_multiplicity
 _atom_site_fract_x
 _atom_site_fract_y
 _atom_site_fract_z
 _atom_site_occupancy
  Dy  Dy0  1  0.939884  0.939709  0.556384  1
  Dy  Dy1  1  0.811145  0.188719  0.188268  1
  Dy  Dy2  1  0.936284  0.563574  0.564089  1
  Dy  Dy3  1  0.939758  0.556161  0.939679  1
  Dy  Dy4  1  0.815664  0.807079  0.185654  1
  Dy  Dy5  1  0.339858  0.349554  0.349441  1
  Dy  Dy6  1  0.556462  0.943260  0.943284  1
  Dy  Dy7  1  0.565020  0.938958  0.556442  1
  Ho  Ho8  1  0.189230  0.810528  0.810189  1
  Ho  Ho9  1  0.189267  0.186369  0.807317  1
  Ho  Ho10  1  0.343646  0.353393  0.960445  1
  Ho  Ho11  1  0.343369  0.960783  0.353225  1
  Ho  Ho12  1  0.815431  0.186127  0.807036  1
  Ho  Ho13  1  0.565188  0.555918  0.939277  1
  Ho  Ho14  1  0.189769  0.807210  0.186312  1
  Ho  Ho15  1  0.962850  0.349354  0.349759  1
  Cd  Cd16  1  0.580721  0.579459  0.257930  1
  Cd  Cd17  1  0.258469  0.579751  0.579696  1
  Cd  Cd18  1  0.580989  0.579373  0.579839  1
  Cd  Cd19  1  0.580788  0.258063  0.579550  1
  Co  Co20  1  0.139037  0.581168  0.142796  1
  Co  Co21  1  0.138707  0.142756  0.581370  1
  Os  Os22  1  0.578615  0.141910  0.141240  1
  Os  Os23  1  0.139855  0.140826  0.140783  1
