# generated using pymatgen
data_TlBi2Ir4PbO14
_symmetry_space_group_name_H-M   'P 1'
_cell_length_a   7.28518596
_cell_length_b   7.38973625
_cell_length_c   7.38973637
_cell_angle_alpha   60.28699589
_cell_angle_beta   59.82436632
_cell_angle_gamma   59.82436102
_symmetry_Int_Tables_number   1
_chemical_formula_structural   TlBi2Ir4PbO14
_chemical_formula_sum   'Tl1 Bi2 Ir4 Pb1 O14'
_cell_volume   281.15999772
_cell_formula_units_Z   1
loop_
 _symmetry_equiv_pos_site_id
 _symmetry_equiv_pos_as_xyz
  1  'x, y, z'
loop_
 _atom_site_type_symbol
 _atom_site_label
 _atom_site_symmetry_multiplicity
 _atom_site_fract_x
 _atom_site_fract_y
 _atom_site_fract_z
 _atom_site_occupancy
  Tl  Tl0  1  0.625000  0.125000  0.125000  1
  Bi  Bi1  1  0.125000  0.625000  0.125000  1
  Bi  Bi2  1  0.125000  0.125000  0.625000  1
  Ir  Ir3  1  0.125000  0.625000  0.625000  1
  Ir  Ir4  1  0.625000  0.125000  0.625000  1
  Ir  Ir5  1  0.625000  0.625000  0.125000  1
  Ir  Ir6  1  0.625000  0.625000  0.625000  1
  Pb  Pb7  1  0.125000  0.125000  0.125000  1
  O  O8  1  0.704436  0.704289  0.296081  1
  O  O9  1  0.295052  0.296496  0.703101  1
  O  O10  1  0.704436  0.296081  0.704289  1
  O  O11  1  0.295052  0.703101  0.296496  1
  O  O12  1  0.294768  0.704791  0.704791  1
  O  O13  1  0.703180  0.295628  0.295628  1
  O  O14  1  0.545564  0.545711  0.953919  1
  O  O15  1  0.954948  0.953504  0.546899  1
  O  O16  1  0.545564  0.953919  0.545711  1
  O  O17  1  0.954948  0.546899  0.953504  1
  O  O18  1  0.955232  0.545209  0.545209  1
  O  O19  1  0.546820  0.954372  0.954372  1
  O  O20  1  0.247894  0.253351  0.253351  1
  O  O21  1  0.002106  0.996649  0.996649  1
