# generated using pymatgen
data_Tm7Lu3(Si3O)2
_symmetry_space_group_name_H-M   'P 1'
_cell_length_a   8.25267800
_cell_length_b   8.25267818
_cell_length_c   6.07155400
_cell_angle_alpha   90.00000000
_cell_angle_beta   90.00000000
_cell_angle_gamma   119.99999930
_symmetry_Int_Tables_number   1
_chemical_formula_structural   Tm7Lu3(Si3O)2
_chemical_formula_sum   'Tm7 Lu3 Si6 O2'
_cell_volume   358.11318122
_cell_formula_units_Z   1
loop_
 _symmetry_equiv_pos_site_id
 _symmetry_equiv_pos_as_xyz
  1  'x, y, z'
loop_
 _atom_site_type_symbol
 _atom_site_label
 _atom_site_symmetry_multiplicity
 _atom_site_fract_x
 _atom_site_fract_y
 _atom_site_fract_z
 _atom_site_occupancy
  Tm  Tm0  1  0.767491  0.767539  0.250054  1
  Tm  Tm1  1  0.767491  0.999952  0.749946  1
  Tm  Tm2  1  0.000048  0.232509  0.250054  1
  Tm  Tm3  1  0.000048  0.767539  0.749946  1
  Tm  Tm4  1  0.232461  0.232509  0.749946  1
  Tm  Tm5  1  0.232461  0.999952  0.250054  1
  Tm  Tm6  1  0.666667  0.333333  0.000000  1
  Lu  Lu7  1  0.333333  0.666667  0.500000  1
  Lu  Lu8  1  0.333333  0.666667  0.000000  1
  Lu  Lu9  1  0.666667  0.333333  0.500000  1
  Si  Si10  1  0.398593  0.999834  0.749860  1
  Si  Si11  1  0.398593  0.398759  0.250140  1
  Si  Si12  1  0.000166  0.601407  0.250140  1
  Si  Si13  1  0.000166  0.398759  0.749860  1
  Si  Si14  1  0.601241  0.601407  0.749860  1
  Si  Si15  1  0.601241  0.999834  0.250140  1
  O  O16  1  0.000000  0.000000  0.500000  1
  O  O17  1  0.000000  0.000000  0.000000  1
