# generated using pymatgen
data_NdCr2AgO8
_symmetry_space_group_name_H-M   'P 1'
_cell_length_a   6.14247551
_cell_length_b   6.14247542
_cell_length_c   6.14247578
_cell_angle_alpha   106.11745072
_cell_angle_beta   106.11745243
_cell_angle_gamma   116.40961432
_symmetry_Int_Tables_number   1
_chemical_formula_structural   NdCr2AgO8
_chemical_formula_sum   'Nd1 Cr2 Ag1 O8'
_cell_volume   176.42051279
_cell_formula_units_Z   1
loop_
 _symmetry_equiv_pos_site_id
 _symmetry_equiv_pos_as_xyz
  1  'x, y, z'
loop_
 _atom_site_type_symbol
 _atom_site_label
 _atom_site_symmetry_multiplicity
 _atom_site_fract_x
 _atom_site_fract_y
 _atom_site_fract_z
 _atom_site_occupancy
  Nd  Nd0  1  0.250000  0.750000  0.500000  1
  Cr  Cr1  1  0.750000  0.250000  0.500000  1
  Cr  Cr2  1  0.500000  0.500000  0.000000  1
  Ag  Ag3  1  0.000000  0.000000  0.000000  1
  O  O4  1  0.351660  0.536092  0.184432  1
  O  O5  1  0.410613  0.086534  0.324079  1
  O  O6  1  0.762455  0.086534  0.675921  1
  O  O7  1  0.351660  0.167228  0.815568  1
  O  O8  1  0.832772  0.648340  0.184432  1
  O  O9  1  0.913466  0.237545  0.324079  1
  O  O10  1  0.913466  0.589387  0.675921  1
  O  O11  1  0.463908  0.648340  0.815568  1
