# generated using pymatgen
data_Ce3U5B24MoW3
_symmetry_space_group_name_H-M   'P 1'
_cell_length_a   3.72668100
_cell_length_b   9.32933323
_cell_length_c   11.43529800
_cell_angle_alpha   90.03106605
_cell_angle_beta   90.00000000
_cell_angle_gamma   90.00000000
_symmetry_Int_Tables_number   1
_chemical_formula_structural   Ce3U5B24MoW3
_chemical_formula_sum   'Ce3 U5 B24 Mo1 W3'
_cell_volume   397.57608048
_cell_formula_units_Z   1
loop_
 _symmetry_equiv_pos_site_id
 _symmetry_equiv_pos_as_xyz
  1  'x, y, z'
loop_
 _atom_site_type_symbol
 _atom_site_label
 _atom_site_symmetry_multiplicity
 _atom_site_fract_x
 _atom_site_fract_y
 _atom_site_fract_z
 _atom_site_occupancy
  Ce  Ce0  1  0.000000  0.335031  0.408123  1
  Ce  Ce1  1  0.000000  0.664652  0.592402  1
  Ce  Ce2  1  0.000000  0.834949  0.091433  1
  U  U3  1  0.000000  0.164732  0.907784  1
  U  U4  1  0.000000  0.956488  0.394949  1
  U  U5  1  0.000000  0.043172  0.605528  1
  U  U6  1  0.000000  0.456376  0.104539  1
  U  U7  1  0.000000  0.543187  0.894712  1
  B  B8  1  0.500000  0.552906  0.431151  1
  B  B9  1  0.500000  0.446258  0.570241  1
  B  B10  1  0.500000  0.053918  0.066233  1
  B  B11  1  0.500000  0.951304  0.930778  1
  B  B12  1  0.500000  0.745561  0.422934  1
  B  B13  1  0.500000  0.254217  0.578040  1
  B  B14  1  0.500000  0.244110  0.075239  1
  B  B15  1  0.500000  0.755217  0.922238  1
  B  B16  1  0.500000  0.803676  0.273983  1
  B  B17  1  0.500000  0.195348  0.728328  1
  B  B18  1  0.500000  0.303189  0.225073  1
  B  B19  1  0.500000  0.697251  0.774544  1
  B  B20  1  0.500000  0.643287  0.187187  1
  B  B21  1  0.500000  0.354089  0.813596  1
  B  B22  1  0.500000  0.143732  0.311824  1
  B  B23  1  0.500000  0.857071  0.688237  1
  B  B24  1  0.500000  0.989391  0.219627  1
  B  B25  1  0.500000  0.014081  0.781971  1
  B  B26  1  0.500000  0.488624  0.279733  1
  B  B27  1  0.500000  0.510681  0.720768  1
  B  B28  1  0.500000  0.637393  0.037256  1
  B  B29  1  0.500000  0.358053  0.960761  1
  B  B30  1  0.500000  0.137072  0.462008  1
  B  B31  1  0.500000  0.863327  0.538283  1
  Mo  Mo32  1  0.000000  0.856825  0.819472  1
  W  W33  1  0.000000  0.646968  0.318497  1
  W  W34  1  0.000000  0.350763  0.684188  1
  W  W35  1  0.000000  0.147105  0.178339  1
