# generated using pymatgen
data_Li8MgTc11Ge16
_symmetry_space_group_name_H-M   'P 1'
_cell_length_a   6.54905542
_cell_length_b   6.76761276
_cell_length_c   12.56692900
_cell_angle_alpha   90.04089162
_cell_angle_beta   90.08624481
_cell_angle_gamma   89.99378355
_symmetry_Int_Tables_number   1
_chemical_formula_structural   Li8MgTc11Ge16
_chemical_formula_sum   'Li8 Mg1 Tc11 Ge16'
_cell_volume   556.98400366
_cell_formula_units_Z   1
loop_
 _symmetry_equiv_pos_site_id
 _symmetry_equiv_pos_as_xyz
  1  'x, y, z'
loop_
 _atom_site_type_symbol
 _atom_site_label
 _atom_site_symmetry_multiplicity
 _atom_site_fract_x
 _atom_site_fract_y
 _atom_site_fract_z
 _atom_site_occupancy
  Li  Li0  1  0.476048  0.669478  0.585968  1
  Li  Li1  1  0.958982  0.832318  0.925516  1
  Li  Li2  1  0.532890  0.331180  0.083532  1
  Li  Li3  1  0.030956  0.173204  0.408822  1
  Li  Li4  1  0.527304  0.319965  0.409944  1
  Li  Li5  1  0.029076  0.172016  0.081258  1
  Li  Li6  1  0.473372  0.677104  0.920524  1
  Li  Li7  1  0.971167  0.826050  0.587466  1
  Mg  Mg8  1  0.164606  0.338032  0.625839  1
  Tc  Tc9  1  0.677509  0.163121  0.630046  1
  Tc  Tc10  1  0.169581  0.342649  0.866612  1
  Tc  Tc11  1  0.328522  0.840679  0.128010  1
  Tc  Tc12  1  0.830529  0.656637  0.369891  1
  Tc  Tc13  1  0.331561  0.847131  0.369718  1
  Tc  Tc14  1  0.829408  0.658378  0.128101  1
  Tc  Tc15  1  0.671677  0.157483  0.874054  1
  Tc  Tc16  1  0.834973  0.497297  0.748180  1
  Tc  Tc17  1  0.334485  0.001085  0.748536  1
  Tc  Tc18  1  0.164110  0.504371  0.247146  1
  Tc  Tc19  1  0.663650  0.995184  0.250916  1
  Ge  Ge20  1  0.691695  0.968547  0.454679  1
  Ge  Ge21  1  0.176285  0.535144  0.043771  1
  Ge  Ge22  1  0.320099  0.033498  0.954182  1
  Ge  Ge23  1  0.803165  0.471215  0.541769  1
  Ge  Ge24  1  0.340639  0.014949  0.546672  1
  Ge  Ge25  1  0.816043  0.467824  0.954294  1
  Ge  Ge26  1  0.677403  0.967983  0.048540  1
  Ge  Ge27  1  0.177943  0.540770  0.447277  1
  Ge  Ge28  1  0.478908  0.389634  0.759469  1
  Ge  Ge29  1  0.967844  0.098260  0.755626  1
  Ge  Ge30  1  0.528191  0.605915  0.248640  1
  Ge  Ge31  1  0.028442  0.893297  0.248353  1
  Ge  Ge32  1  0.676315  0.831590  0.751402  1
  Ge  Ge33  1  0.169562  0.678762  0.763816  1
  Ge  Ge34  1  0.323966  0.169119  0.244134  1
  Ge  Ge35  1  0.823093  0.330127  0.247297  1
