# generated using pymatgen
data_Pr6Al24Os5Pt2Rh
_symmetry_space_group_name_H-M   'P 1'
_cell_length_a   8.92956172
_cell_length_b   8.96845635
_cell_length_c   9.71964251
_cell_angle_alpha   89.96972864
_cell_angle_beta   90.04569789
_cell_angle_gamma   119.71985066
_symmetry_Int_Tables_number   1
_chemical_formula_structural   Pr6Al24Os5Pt2Rh
_chemical_formula_sum   'Pr6 Al24 Os5 Pt2 Rh1'
_cell_volume   676.00158457
_cell_formula_units_Z   1
loop_
 _symmetry_equiv_pos_site_id
 _symmetry_equiv_pos_as_xyz
  1  'x, y, z'
loop_
 _atom_site_type_symbol
 _atom_site_label
 _atom_site_symmetry_multiplicity
 _atom_site_fract_x
 _atom_site_fract_y
 _atom_site_fract_z
 _atom_site_occupancy
  Pr  Pr0  1  0.191285  0.379693  0.250186  1
  Pr  Pr1  1  0.808715  0.620307  0.749814  1
  Pr  Pr2  1  0.616919  0.810630  0.249966  1
  Pr  Pr3  1  0.383081  0.189370  0.750034  1
  Pr  Pr4  1  0.193697  0.812268  0.251457  1
  Pr  Pr5  1  0.806303  0.187732  0.748543  1
  Al  Al6  1  0.331203  0.669829  0.019842  1
  Al  Al7  1  0.668797  0.330171  0.980158  1
  Al  Al8  1  0.662527  0.331038  0.519418  1
  Al  Al9  1  0.337473  0.668962  0.480582  1
  Al  Al10  1  0.168055  0.326264  0.573563  1
  Al  Al11  1  0.831945  0.673736  0.426437  1
  Al  Al12  1  0.671083  0.835036  0.573605  1
  Al  Al13  1  0.839984  0.674589  0.075459  1
  Al  Al14  1  0.328917  0.164964  0.426395  1
  Al  Al15  1  0.160016  0.325411  0.924541  1
  Al  Al16  1  0.167585  0.841021  0.575654  1
  Al  Al17  1  0.326856  0.158884  0.075266  1
  Al  Al18  1  0.832415  0.158979  0.424346  1
  Al  Al19  1  0.673144  0.841116  0.924734  1
  Al  Al20  1  0.834230  0.161513  0.075214  1
  Al  Al21  1  0.165770  0.838487  0.924786  1
  Al  Al22  1  0.562480  0.125964  0.249685  1
  Al  Al23  1  0.437520  0.874036  0.750315  1
  Al  Al24  1  0.873858  0.437161  0.246645  1
  Al  Al25  1  0.126142  0.562839  0.753355  1
  Al  Al26  1  0.563598  0.436018  0.253545  1
  Al  Al27  1  0.436402  0.563982  0.746455  1
  Al  Al28  1  0.001485  0.002428  0.250218  1
  Al  Al29  1  0.998515  0.997572  0.749782  1
  Os  Os30  1  0.500000  0.000000  0.000000  1
  Os  Os31  1  0.500000  0.000000  0.500000  1
  Os  Os32  1  0.500000  0.500000  0.500000  1
  Os  Os33  1  0.000000  0.000000  0.000000  1
  Os  Os34  1  0.000000  0.000000  0.500000  1
  Pt  Pt35  1  0.500000  0.500000  0.000000  1
  Pt  Pt36  1  0.000000  0.500000  0.500000  1
  Rh  Rh37  1  0.000000  0.500000  0.000000  1
