# generated using pymatgen
data_DyHo7(LuRu2)2
_symmetry_space_group_name_H-M   'P 1'
_cell_length_a   6.30497569
_cell_length_b   7.23096185
_cell_length_c   8.42072881
_cell_angle_alpha   96.76490289
_cell_angle_beta   112.08764198
_cell_angle_gamma   89.93255737
_symmetry_Int_Tables_number   1
_chemical_formula_structural   DyHo7(LuRu2)2
_chemical_formula_sum   'Dy1 Ho7 Lu2 Ru4'
_cell_volume   352.86982852
_cell_formula_units_Z   1
loop_
 _symmetry_equiv_pos_site_id
 _symmetry_equiv_pos_as_xyz
  1  'x, y, z'
loop_
 _atom_site_type_symbol
 _atom_site_label
 _atom_site_symmetry_multiplicity
 _atom_site_fract_x
 _atom_site_fract_y
 _atom_site_fract_z
 _atom_site_occupancy
  Dy  Dy0  1  0.523493  0.083392  0.814372  1
  Ho  Ho1  1  0.476836  0.916400  0.185623  1
  Ho  Ho2  1  0.708049  0.416634  0.186034  1
  Ho  Ho3  1  0.291744  0.583411  0.814206  1
  Ho  Ho4  1  0.296421  0.313262  0.432569  1
  Ho  Ho5  1  0.703562  0.686852  0.567272  1
  Ho  Ho6  1  0.863556  0.186616  0.566924  1
  Ho  Ho7  1  0.136467  0.813175  0.432708  1
  Lu  Lu8  1  0.077992  0.250706  0.000439  1
  Lu  Lu9  1  0.922293  0.749366  0.999821  1
  Ru  Ru10  1  0.320253  0.576081  0.218289  1
  Ru  Ru11  1  0.679829  0.424183  0.781644  1
  Ru  Ru12  1  0.101408  0.924521  0.781562  1
  Ru  Ru13  1  0.898098  0.075400  0.218537  1
