# generated using pymatgen
data_Rb2ZrSi2O7
_symmetry_space_group_name_H-M   'P 1'
_cell_length_a   11.27597802
_cell_length_b   11.27597860
_cell_length_c   14.33145700
_cell_angle_alpha   67.18764428
_cell_angle_beta   67.18764304
_cell_angle_gamma   59.89285335
_symmetry_Int_Tables_number   1
_chemical_formula_structural   Rb2ZrSi2O7
_chemical_formula_sum   'Rb16 Zr8 Si16 O56'
_cell_volume   1409.76414305
_cell_formula_units_Z   8
loop_
 _symmetry_equiv_pos_site_id
 _symmetry_equiv_pos_as_xyz
  1  'x, y, z'
loop_
 _atom_site_type_symbol
 _atom_site_label
 _atom_site_symmetry_multiplicity
 _atom_site_fract_x
 _atom_site_fract_y
 _atom_site_fract_z
 _atom_site_occupancy
  Rb  Rb0  1  0.385565  0.898278  0.568621  1
  Rb  Rb1  1  0.898278  0.385565  0.568621  1
  Rb  Rb2  1  0.614435  0.101722  0.431379  1
  Rb  Rb3  1  0.101722  0.614435  0.431379  1
  Rb  Rb4  1  0.601646  0.114479  0.933407  1
  Rb  Rb5  1  0.114479  0.601646  0.933407  1
  Rb  Rb6  1  0.398354  0.885521  0.066593  1
  Rb  Rb7  1  0.885521  0.398354  0.066593  1
  Rb  Rb8  1  0.391048  0.391048  0.574794  1
  Rb  Rb9  1  0.608952  0.608952  0.425206  1
  Rb  Rb10  1  0.109465  0.109465  0.924540  1
  Rb  Rb11  1  0.890535  0.890535  0.075460  1
  Rb  Rb12  1  0.616703  0.616703  0.900061  1
  Rb  Rb13  1  0.383297  0.383297  0.099939  1
  Rb  Rb14  1  0.884328  0.884328  0.598326  1
  Rb  Rb15  1  0.115672  0.115672  0.401674  1
  Zr  Zr16  1  0.990237  0.990237  0.777032  1
  Zr  Zr17  1  0.009763  0.009763  0.222968  1
  Zr  Zr18  1  0.510141  0.510141  0.723244  1
  Zr  Zr19  1  0.489859  0.489859  0.276756  1
  Zr  Zr20  1  0.497839  0.003050  0.749898  1
  Zr  Zr21  1  0.003050  0.497839  0.749898  1
  Zr  Zr22  1  0.502161  0.996950  0.250102  1
  Zr  Zr23  1  0.996950  0.502161  0.250102  1
  Si  Si24  1  0.200275  0.717911  0.622169  1
  Si  Si25  1  0.717911  0.200275  0.622169  1
  Si  Si26  1  0.799725  0.282089  0.377831  1
  Si  Si27  1  0.282089  0.799725  0.377831  1
  Si  Si28  1  0.300414  0.782504  0.877911  1
  Si  Si29  1  0.782504  0.300414  0.877911  1
  Si  Si30  1  0.699586  0.217496  0.122089  1
  Si  Si31  1  0.217496  0.699586  0.122089  1
  Si  Si32  1  0.200834  0.200834  0.632707  1
  Si  Si33  1  0.799166  0.799166  0.367293  1
  Si  Si34  1  0.299656  0.299656  0.867680  1
  Si  Si35  1  0.700344  0.700344  0.132320  1
  Si  Si36  1  0.714057  0.714057  0.613543  1
  Si  Si37  1  0.285943  0.285943  0.386457  1
  Si  Si38  1  0.786750  0.786750  0.886068  1
  Si  Si39  1  0.213250  0.213250  0.113932  1
  O  O40  1  0.870488  0.870488  0.884111  1
  O  O41  1  0.129512  0.129512  0.115889  1
  O  O42  1  0.134355  0.867223  0.875947  1
  O  O43  1  0.867223  0.134355  0.875947  1
  O  O44  1  0.865645  0.132777  0.124053  1
  O  O45  1  0.132777  0.865645  0.124053  1
  O  O46  1  0.662662  0.391168  0.810442  1
  O  O47  1  0.391168  0.662662  0.810442  1
  O  O48  1  0.337338  0.608832  0.189558  1
  O  O49  1  0.608832  0.337338  0.189558  1
  O  O50  1  0.633039  0.366350  0.624099  1
  O  O51  1  0.366350  0.633039  0.624099  1
  O  O52  1  0.366961  0.633650  0.375901  1
  O  O53  1  0.633650  0.366961  0.375901  1
  O  O54  1  0.188600  0.811400  0.500000  1
  O  O55  1  0.811400  0.188600  0.500000  1
  O  O56  1  0.311867  0.688133  0.000000  1
  O  O57  1  0.688133  0.311867  0.000000  1
  O  O58  1  0.392472  0.392472  0.806581  1
  O  O59  1  0.607528  0.607528  0.193419  1
  O  O60  1  0.630096  0.630096  0.616221  1
  O  O61  1  0.369904  0.369904  0.383779  1
  O  O62  1  0.375789  0.887448  0.849624  1
  O  O63  1  0.887448  0.375789  0.849624  1
  O  O64  1  0.624211  0.112552  0.150376  1
  O  O65  1  0.112552  0.624211  0.150376  1
  O  O66  1  0.612836  0.125016  0.650740  1
  O  O67  1  0.125016  0.612836  0.650740  1
  O  O68  1  0.387164  0.874984  0.349260  1
  O  O69  1  0.874984  0.387164  0.349260  1
  O  O70  1  0.650326  0.890958  0.836726  1
  O  O71  1  0.890958  0.650326  0.836726  1
  O  O72  1  0.349674  0.109042  0.163274  1
  O  O73  1  0.109042  0.349674  0.163274  1
  O  O74  1  0.850617  0.610121  0.662868  1
  O  O75  1  0.610121  0.850617  0.662868  1
  O  O76  1  0.149383  0.389879  0.337132  1
  O  O77  1  0.389879  0.149383  0.337132  1
  O  O78  1  0.380958  0.141817  0.848732  1
  O  O79  1  0.141817  0.380958  0.848732  1
  O  O80  1  0.619042  0.858183  0.151268  1
  O  O81  1  0.858183  0.619042  0.151268  1
  O  O82  1  0.119788  0.358888  0.651244  1
  O  O83  1  0.358888  0.119788  0.651244  1
  O  O84  1  0.880212  0.641112  0.348756  1
  O  O85  1  0.641112  0.880212  0.348756  1
  O  O86  1  0.217149  0.217149  0.508645  1
  O  O87  1  0.782851  0.782851  0.491355  1
  O  O88  1  0.282552  0.282552  0.992060  1
  O  O89  1  0.717448  0.717448  0.007940  1
  O  O90  1  0.838474  0.109600  0.689049  1
  O  O91  1  0.109600  0.838474  0.689049  1
  O  O92  1  0.161526  0.890400  0.310951  1
  O  O93  1  0.890400  0.161526  0.310951  1
  O  O94  1  0.108043  0.108043  0.694599  1
  O  O95  1  0.891957  0.891957  0.305401  1
