# generated using pymatgen
data_YTm3(VB4)4
_symmetry_space_group_name_H-M   'P 1'
_cell_length_a   3.42192300
_cell_length_b   5.97603045
_cell_length_c   11.57442187
_cell_angle_alpha   90.04429953
_cell_angle_beta   90.00000000
_cell_angle_gamma   90.00000000
_symmetry_Int_Tables_number   1
_chemical_formula_structural   YTm3(VB4)4
_chemical_formula_sum   'Y1 Tm3 V4 B16'
_cell_volume   236.69125476
_cell_formula_units_Z   1
loop_
 _symmetry_equiv_pos_site_id
 _symmetry_equiv_pos_as_xyz
  1  'x, y, z'
loop_
 _atom_site_type_symbol
 _atom_site_label
 _atom_site_symmetry_multiplicity
 _atom_site_fract_x
 _atom_site_fract_y
 _atom_site_fract_z
 _atom_site_occupancy
  Y  Y0  1  0.000000  0.875593  0.848321  1
  Tm  Tm1  1  0.000000  0.624135  0.348382  1
  Tm  Tm2  1  0.000000  0.375729  0.651226  1
  Tm  Tm3  1  0.000000  0.124220  0.151848  1
  V  V4  1  0.000000  0.627401  0.083788  1
  V  V5  1  0.000000  0.372254  0.917298  1
  V  V6  1  0.000000  0.127812  0.416610  1
  V  V7  1  0.000000  0.872276  0.582474  1
  B  B8  1  0.500000  0.787430  0.186400  1
  B  B9  1  0.500000  0.214435  0.813584  1
  B  B10  1  0.500000  0.287435  0.314020  1
  B  B11  1  0.500000  0.711941  0.684992  1
  B  B12  1  0.500000  0.865043  0.033466  1
  B  B13  1  0.500000  0.135228  0.968379  1
  B  B14  1  0.500000  0.365410  0.467273  1
  B  B15  1  0.500000  0.634448  0.531969  1
  B  B16  1  0.500000  0.884496  0.451739  1
  B  B17  1  0.500000  0.115856  0.547472  1
  B  B18  1  0.500000  0.384297  0.048581  1
  B  B19  1  0.500000  0.614172  0.952978  1
  B  B20  1  0.500000  0.977324  0.307002  1
  B  B21  1  0.500000  0.024035  0.691859  1
  B  B22  1  0.500000  0.477236  0.193366  1
  B  B23  1  0.500000  0.521795  0.806974  1
