# generated using pymatgen
data_Sm2DyAgO6
_symmetry_space_group_name_H-M   'P 1'
_cell_length_a   3.71343667
_cell_length_b   5.66100716
_cell_length_c   7.17050900
_cell_angle_alpha   90.74570530
_cell_angle_beta   102.86927551
_cell_angle_gamma   90.96885195
_symmetry_Int_Tables_number   1
_chemical_formula_structural   Sm2DyAgO6
_chemical_formula_sum   'Sm2 Dy1 Ag1 O6'
_cell_volume   146.90776613
_cell_formula_units_Z   1
loop_
 _symmetry_equiv_pos_site_id
 _symmetry_equiv_pos_as_xyz
  1  'x, y, z'
loop_
 _atom_site_type_symbol
 _atom_site_label
 _atom_site_symmetry_multiplicity
 _atom_site_fract_x
 _atom_site_fract_y
 _atom_site_fract_z
 _atom_site_occupancy
  Sm  Sm0  1  0.610439  0.533015  0.764360  1
  Sm  Sm1  1  0.389561  0.466985  0.235640  1
  Dy  Dy2  1  0.000000  0.000000  0.500000  1
  Ag  Ag3  1  0.000000  0.000000  0.000000  1
  O  O4  1  0.161443  0.311158  0.891683  1
  O  O5  1  0.877854  0.197699  0.215822  1
  O  O6  1  0.122146  0.802301  0.784178  1
  O  O7  1  0.479451  0.749420  0.473590  1
  O  O8  1  0.838557  0.688842  0.108317  1
  O  O9  1  0.520549  0.250580  0.526410  1
