# generated using pymatgen
data_Ca9Tb11Pb16
_symmetry_space_group_name_H-M   'P 1'
_cell_length_a   8.01631209
_cell_length_b   8.50652078
_cell_length_c   16.26282300
_cell_angle_alpha   89.98023801
_cell_angle_beta   89.99120155
_cell_angle_gamma   89.96862295
_symmetry_Int_Tables_number   1
_chemical_formula_structural   Ca9Tb11Pb16
_chemical_formula_sum   'Ca9 Tb11 Pb16'
_cell_volume   1108.97670503
_cell_formula_units_Z   1
loop_
 _symmetry_equiv_pos_site_id
 _symmetry_equiv_pos_as_xyz
  1  'x, y, z'
loop_
 _atom_site_type_symbol
 _atom_site_label
 _atom_site_symmetry_multiplicity
 _atom_site_fract_x
 _atom_site_fract_y
 _atom_site_fract_z
 _atom_site_occupancy
  Ca  Ca0  1  0.498227  0.683038  0.592363  1
  Ca  Ca1  1  0.998263  0.817193  0.907270  1
  Ca  Ca2  1  0.500093  0.314862  0.091151  1
  Ca  Ca3  1  0.000193  0.183619  0.409834  1
  Ca  Ca4  1  0.500224  0.314520  0.408939  1
  Ca  Ca5  1  0.000227  0.183631  0.089906  1
  Ca  Ca6  1  0.497971  0.683076  0.907845  1
  Ca  Ca7  1  0.998216  0.817387  0.593040  1
  Ca  Ca8  1  0.668410  0.009884  0.249874  1
  Tb  Tb9  1  0.170749  0.342783  0.876846  1
  Tb  Tb10  1  0.329611  0.841349  0.121427  1
  Tb  Tb11  1  0.830902  0.660923  0.377847  1
  Tb  Tb12  1  0.329697  0.841438  0.378400  1
  Tb  Tb13  1  0.830826  0.661406  0.121999  1
  Tb  Tb14  1  0.670840  0.159877  0.876490  1
  Tb  Tb15  1  0.170403  0.342380  0.623331  1
  Tb  Tb16  1  0.671613  0.159376  0.623492  1
  Tb  Tb17  1  0.833072  0.506873  0.750020  1
  Tb  Tb18  1  0.333998  0.992788  0.749795  1
  Tb  Tb19  1  0.169139  0.491332  0.250070  1
  Pb  Pb20  1  0.677528  0.958757  0.459382  1
  Pb  Pb21  1  0.178793  0.537984  0.043009  1
  Pb  Pb22  1  0.321636  0.038285  0.955344  1
  Pb  Pb23  1  0.821707  0.462166  0.544227  1
  Pb  Pb24  1  0.321683  0.038344  0.544504  1
  Pb  Pb25  1  0.821256  0.462283  0.955812  1
  Pb  Pb26  1  0.677336  0.959246  0.040436  1
  Pb  Pb27  1  0.179247  0.538104  0.457155  1
  Pb  Pb28  1  0.473293  0.364891  0.749727  1
  Pb  Pb29  1  0.974605  0.131785  0.750350  1
  Pb  Pb30  1  0.527917  0.629979  0.249924  1
  Pb  Pb31  1  0.028570  0.863325  0.249972  1
  Pb  Pb32  1  0.702776  0.856411  0.750325  1
  Pb  Pb33  1  0.202513  0.646104  0.750165  1
  Pb  Pb34  1  0.289290  0.141222  0.249912  1
  Pb  Pb35  1  0.799174  0.363378  0.249814  1
