# generated using pymatgen
data_Tm3LuGaSi3
_symmetry_space_group_name_H-M   'P 1'
_cell_length_a   3.82386000
_cell_length_b   4.24366900
_cell_length_c   10.43888800
_cell_angle_alpha   90.00000000
_cell_angle_beta   90.00000000
_cell_angle_gamma   90.00000000
_symmetry_Int_Tables_number   1
_chemical_formula_structural   Tm3LuGaSi3
_chemical_formula_sum   'Tm3 Lu1 Ga1 Si3'
_cell_volume   169.39388308
_cell_formula_units_Z   1
loop_
 _symmetry_equiv_pos_site_id
 _symmetry_equiv_pos_as_xyz
  1  'x, y, z'
loop_
 _atom_site_type_symbol
 _atom_site_label
 _atom_site_symmetry_multiplicity
 _atom_site_fract_x
 _atom_site_fract_y
 _atom_site_fract_z
 _atom_site_occupancy
  Tm  Tm0  1  0.000000  0.000000  0.362318  1
  Tm  Tm1  1  0.000000  0.500000  0.857623  1
  Tm  Tm2  1  0.500000  0.000000  0.639142  1
  Lu  Lu3  1  0.500000  0.500000  0.141559  1
  Ga  Ga4  1  0.000000  0.000000  0.078121  1
  Si  Si5  1  0.000000  0.500000  0.577605  1
  Si  Si6  1  0.500000  0.500000  0.423396  1
  Si  Si7  1  0.500000  0.000000  0.920236  1
