# generated using pymatgen
data_Rb12NaLi7(ZrP3)4
_symmetry_space_group_name_H-M   'P 1'
_cell_length_a   10.42446540
_cell_length_b   10.42446593
_cell_length_c   15.49794104
_cell_angle_alpha   90.00295000
_cell_angle_beta   90.00295171
_cell_angle_gamma   143.35497561
_symmetry_Int_Tables_number   1
_chemical_formula_structural   Rb12NaLi7(ZrP3)4
_chemical_formula_sum   'Rb12 Na1 Li7 Zr4 P12'
_cell_volume   1005.19623078
_cell_formula_units_Z   1
loop_
 _symmetry_equiv_pos_site_id
 _symmetry_equiv_pos_as_xyz
  1  'x, y, z'
loop_
 _atom_site_type_symbol
 _atom_site_label
 _atom_site_symmetry_multiplicity
 _atom_site_fract_x
 _atom_site_fract_y
 _atom_site_fract_z
 _atom_site_occupancy
  Rb  Rb0  1  0.950914  0.607306  0.827067  1
  Rb  Rb1  1  0.551187  0.893488  0.323191  1
  Rb  Rb2  1  0.392694  0.049086  0.172933  1
  Rb  Rb3  1  0.048728  0.392928  0.172381  1
  Rb  Rb4  1  0.891340  0.549734  0.324899  1
  Rb  Rb5  1  0.450266  0.108660  0.675101  1
  Rb  Rb6  1  0.607072  0.951272  0.827619  1
  Rb  Rb7  1  0.288979  0.289892  0.316914  1
  Rb  Rb8  1  0.789681  0.789432  0.181157  1
  Rb  Rb9  1  0.210568  0.210319  0.818843  1
  Rb  Rb10  1  0.710108  0.711021  0.683086  1
  Rb  Rb11  1  0.106512  0.448813  0.676809  1
  Na  Na12  1  0.256099  0.743901  0.500000  1
  Li  Li13  1  0.917339  0.082661  0.000000  1
  Li  Li14  1  0.581443  0.418557  0.500000  1
  Li  Li15  1  0.082704  0.917296  0.000000  1
  Li  Li16  1  0.420819  0.579181  0.500000  1
  Li  Li17  1  0.750150  0.249850  0.000000  1
  Li  Li18  1  0.749046  0.250954  0.500000  1
  Li  Li19  1  0.249733  0.750267  0.000000  1
  Zr  Zr20  1  0.587582  0.412418  0.000000  1
  Zr  Zr21  1  0.912946  0.087054  0.500000  1
  Zr  Zr22  1  0.412399  0.587601  0.000000  1
  Zr  Zr23  1  0.086607  0.913393  0.500000  1
  P  P24  1  0.896090  0.572010  0.086200  1
  P  P25  1  0.427990  0.103910  0.913800  1
  P  P26  1  0.618044  0.936749  0.593081  1
  P  P27  1  0.917272  0.602735  0.589657  1
  P  P28  1  0.104129  0.428185  0.913653  1
  P  P29  1  0.571815  0.895871  0.086347  1
  P  P30  1  0.397265  0.082728  0.410343  1
  P  P31  1  0.226067  0.226811  0.582199  1
  P  P32  1  0.724745  0.724772  0.918051  1
  P  P33  1  0.275228  0.275255  0.081949  1
  P  P34  1  0.063251  0.381956  0.406919  1
  P  P35  1  0.773189  0.773933  0.417801  1
