# generated using pymatgen
data_Tb9ScGa3NiBi2
_symmetry_space_group_name_H-M   'P 1'
_cell_length_a   8.54557747
_cell_length_b   8.54557772
_cell_length_c   8.72951149
_cell_angle_alpha   124.36049313
_cell_angle_beta   124.14339893
_cell_angle_gamma   81.37929402
_symmetry_Int_Tables_number   1
_chemical_formula_structural   Tb9ScGa3NiBi2
_chemical_formula_sum   'Tb9 Sc1 Ga3 Ni1 Bi2'
_cell_volume   422.34932163
_cell_formula_units_Z   1
loop_
 _symmetry_equiv_pos_site_id
 _symmetry_equiv_pos_as_xyz
  1  'x, y, z'
loop_
 _atom_site_type_symbol
 _atom_site_label
 _atom_site_symmetry_multiplicity
 _atom_site_fract_x
 _atom_site_fract_y
 _atom_site_fract_z
 _atom_site_occupancy
  Tb  Tb0  1  0.503421  0.506750  0.010169  1
  Tb  Tb1  1  0.782825  0.295834  0.797089  1
  Tb  Tb2  1  0.200506  0.721530  0.202925  1
  Tb  Tb3  1  0.481395  0.002419  0.202925  1
  Tb  Tb4  1  0.301791  0.456986  0.495317  1
  Tb  Tb5  1  0.038331  0.193525  0.495317  1
  Tb  Tb6  1  0.501256  0.014264  0.797089  1
  Tb  Tb7  1  0.707235  0.518224  0.503885  1
  Tb  Tb8  1  0.985661  0.796650  0.503885  1
  Sc  Sc9  1  0.993023  0.996034  0.989059  1
  Ga  Ga10  1  0.145571  0.649922  0.795492  1
  Ga  Ga11  1  0.857390  0.347094  0.204485  1
  Ga  Ga12  1  0.637766  0.866829  0.504594  1
  Ni  Ni13  1  0.376159  0.122924  0.499083  1
  Bi  Bi14  1  0.240117  0.251792  0.999343  1
  Bi  Bi15  1  0.747551  0.759226  0.999343  1
