# generated using pymatgen
data_Lu4ScP12Ru19
_symmetry_space_group_name_H-M   'P 1'
_cell_length_a   12.47455240
_cell_length_b   12.47956266
_cell_length_c   3.95678600
_cell_angle_alpha   90.00000000
_cell_angle_beta   90.00000000
_cell_angle_gamma   120.01328614
_symmetry_Int_Tables_number   1
_chemical_formula_structural   Lu4ScP12Ru19
_chemical_formula_sum   'Lu4 Sc1 P12 Ru19'
_cell_volume   533.38324941
_cell_formula_units_Z   1
loop_
 _symmetry_equiv_pos_site_id
 _symmetry_equiv_pos_as_xyz
  1  'x, y, z'
loop_
 _atom_site_type_symbol
 _atom_site_label
 _atom_site_symmetry_multiplicity
 _atom_site_fract_x
 _atom_site_fract_y
 _atom_site_fract_z
 _atom_site_occupancy
  Lu  Lu0  1  0.183094  0.182977  0.500000  1
  Lu  Lu1  1  0.816906  0.999883  0.500000  1
  Lu  Lu2  1  0.333251  0.666788  0.000000  1
  Lu  Lu3  1  0.666749  0.333537  0.000000  1
  Sc  Sc4  1  0.000000  0.816891  0.500000  1
  P  P5  1  0.817403  0.816789  0.000000  1
  P  P6  1  0.182597  0.999386  0.000000  1
  P  P7  1  0.000000  0.182586  0.000000  1
  P  P8  1  0.171254  0.478617  0.500000  1
  P  P9  1  0.521893  0.692879  0.500000  1
  P  P10  1  0.306898  0.828716  0.500000  1
  P  P11  1  0.693102  0.521819  0.500000  1
  P  P12  1  0.828746  0.307363  0.500000  1
  P  P13  1  0.478107  0.170986  0.500000  1
  P  P14  1  0.371661  0.371659  0.000000  1
  P  P15  1  0.628339  0.999997  0.000000  1
  P  P16  1  0.000000  0.628681  0.000000  1
  Ru  Ru17  1  0.554643  0.554526  0.000000  1
  Ru  Ru18  1  0.445357  0.999883  0.000000  1
  Ru  Ru19  1  0.000000  0.445613  0.000000  1
  Ru  Ru20  1  0.718959  0.718504  0.500000  1
  Ru  Ru21  1  0.281041  0.999545  0.500000  1
  Ru  Ru22  1  0.000000  0.281823  0.500000  1
  Ru  Ru23  1  0.184971  0.376399  0.000000  1
  Ru  Ru24  1  0.623660  0.808639  0.000000  1
  Ru  Ru25  1  0.190291  0.815011  0.000000  1
  Ru  Ru26  1  0.809709  0.624720  0.000000  1
  Ru  Ru27  1  0.815029  0.191428  0.000000  1
  Ru  Ru28  1  0.376340  0.184980  0.000000  1
  Ru  Ru29  1  0.365209  0.492170  0.500000  1
  Ru  Ru30  1  0.507726  0.873006  0.500000  1
  Ru  Ru31  1  0.126837  0.634918  0.500000  1
  Ru  Ru32  1  0.873163  0.508080  0.500000  1
  Ru  Ru33  1  0.634791  0.126960  0.500000  1
  Ru  Ru34  1  0.492274  0.365279  0.500000  1
  Ru  Ru35  1  0.000000  0.998960  0.000000  1
