# generated using pymatgen
data_Fe8Ge4Mo9W3C4
_symmetry_space_group_name_H-M   'P 1'
_cell_length_a   7.94802800
_cell_length_b   7.94802741
_cell_length_c   7.95471163
_cell_angle_alpha   60.02778735
_cell_angle_beta   60.02779553
_cell_angle_gamma   60.00001192
_symmetry_Int_Tables_number   1
_chemical_formula_structural   Fe8Ge4Mo9W3C4
_chemical_formula_sum   'Fe8 Ge4 Mo9 W3 C4'
_cell_volume   355.47620208
_cell_formula_units_Z   1
loop_
 _symmetry_equiv_pos_site_id
 _symmetry_equiv_pos_as_xyz
  1  'x, y, z'
loop_
 _atom_site_type_symbol
 _atom_site_label
 _atom_site_symmetry_multiplicity
 _atom_site_fract_x
 _atom_site_fract_y
 _atom_site_fract_z
 _atom_site_occupancy
  Fe  Fe0  1  0.917056  0.247926  0.917963  1
  Fe  Fe1  1  0.247926  0.917056  0.917963  1
  Fe  Fe2  1  0.917284  0.917284  0.248147  1
  Fe  Fe3  1  0.003514  0.332773  0.330940  1
  Fe  Fe4  1  0.332773  0.003514  0.330940  1
  Fe  Fe5  1  0.917056  0.917056  0.917963  1
  Fe  Fe6  1  0.332773  0.332773  0.330940  1
  Fe  Fe7  1  0.332794  0.332794  0.001617  1
  Ge  Ge8  1  0.625596  0.124533  0.125338  1
  Ge  Ge9  1  0.124954  0.124954  0.625138  1
  Ge  Ge10  1  0.124533  0.625596  0.125338  1
  Ge  Ge11  1  0.124533  0.124533  0.125338  1
  Mo  Mo12  1  0.556309  0.943323  0.557046  1
  Mo  Mo13  1  0.694365  0.305412  0.694811  1
  Mo  Mo14  1  0.693430  0.693430  0.307185  1
  Mo  Mo15  1  0.305412  0.305412  0.694811  1
  Mo  Mo16  1  0.693430  0.305954  0.307185  1
  Mo  Mo17  1  0.305412  0.694365  0.694811  1
  Mo  Mo18  1  0.943323  0.556309  0.557046  1
  Mo  Mo19  1  0.943323  0.943323  0.557046  1
  Mo  Mo20  1  0.305954  0.693430  0.307185  1
  W  W21  1  0.557545  0.557545  0.941778  1
  W  W22  1  0.943132  0.557545  0.941778  1
  W  W23  1  0.557545  0.943132  0.941778  1
  C  C24  1  0.624743  0.624743  0.624652  1
  C  C25  1  0.125860  0.624743  0.624652  1
  C  C26  1  0.624743  0.125860  0.624652  1
  C  C27  1  0.624679  0.624679  0.125962  1
