# generated using pymatgen
data_Tb4Y6TlSb5
_symmetry_space_group_name_H-M   'P 1'
_cell_length_a   6.40967700
_cell_length_b   9.04161199
_cell_length_c   9.02314100
_cell_angle_alpha   120.06774404
_cell_angle_beta   90.00008939
_cell_angle_gamma   89.99982214
_symmetry_Int_Tables_number   1
_chemical_formula_structural   Tb4Y6TlSb5
_chemical_formula_sum   'Tb4 Y6 Tl1 Sb5'
_cell_volume   452.55724029
_cell_formula_units_Z   1
loop_
 _symmetry_equiv_pos_site_id
 _symmetry_equiv_pos_as_xyz
  1  'x, y, z'
loop_
 _atom_site_type_symbol
 _atom_site_label
 _atom_site_symmetry_multiplicity
 _atom_site_fract_x
 _atom_site_fract_y
 _atom_site_fract_z
 _atom_site_occupancy
  Tb  Tb0  1  0.498737  0.334237  0.668011  1
  Tb  Tb1  1  0.498737  0.666225  0.331989  1
  Tb  Tb2  1  0.001263  0.666226  0.331990  1
  Tb  Tb3  1  0.001263  0.334236  0.668010  1
  Y  Y4  1  0.750000  0.243838  0.000000  1
  Y  Y5  1  0.750001  0.754035  0.756996  1
  Y  Y6  1  0.750001  0.997039  0.243004  1
  Y  Y7  1  0.250000  0.756906  0.000000  1
  Y  Y8  1  0.249999  0.247031  0.245190  1
  Y  Y9  1  0.249999  0.001841  0.754810  1
  Tl  Tl10  1  0.750007  0.607441  0.000000  1
  Sb  Sb11  1  0.750000  0.388519  0.389305  1
  Sb  Sb12  1  0.750000  0.999213  0.610695  1
  Sb  Sb13  1  0.250001  0.389831  0.000000  1
  Sb  Sb14  1  0.249999  0.612248  0.611117  1
  Sb  Sb15  1  0.249999  0.001133  0.388883  1
