# generated using pymatgen
data_Gd4Tm4Re3B24Os
_symmetry_space_group_name_H-M   'P 1'
_cell_length_a   3.66356200
_cell_length_b   9.14850955
_cell_length_c   11.55052810
_cell_angle_alpha   90.06104570
_cell_angle_beta   90.00000000
_cell_angle_gamma   90.00000000
_symmetry_Int_Tables_number   1
_chemical_formula_structural   Gd4Tm4Re3B24Os
_chemical_formula_sum   'Gd4 Tm4 Re3 B24 Os1'
_cell_volume   387.12880411
_cell_formula_units_Z   1
loop_
 _symmetry_equiv_pos_site_id
 _symmetry_equiv_pos_as_xyz
  1  'x, y, z'
loop_
 _atom_site_type_symbol
 _atom_site_label
 _atom_site_symmetry_multiplicity
 _atom_site_fract_x
 _atom_site_fract_y
 _atom_site_fract_z
 _atom_site_occupancy
  Gd  Gd0  1  0.000000  0.321206  0.414453  1
  Gd  Gd1  1  0.000000  0.677872  0.587489  1
  Gd  Gd2  1  0.000000  0.823774  0.084533  1
  Gd  Gd3  1  0.000000  0.177545  0.913571  1
  Tm  Tm4  1  0.000000  0.942568  0.369912  1
  Tm  Tm5  1  0.000000  0.056685  0.629605  1
  Tm  Tm6  1  0.000000  0.442581  0.129907  1
  Tm  Tm7  1  0.000000  0.557057  0.870625  1
  Re  Re8  1  0.000000  0.361729  0.679178  1
  Re  Re9  1  0.000000  0.138869  0.180591  1
  Re  Re10  1  0.000000  0.861293  0.819989  1
  B  B11  1  0.500000  0.554197  0.432093  1
  B  B12  1  0.500000  0.446569  0.567423  1
  B  B13  1  0.500000  0.053637  0.067586  1
  B  B14  1  0.500000  0.946627  0.932239  1
  B  B15  1  0.500000  0.749285  0.417667  1
  B  B16  1  0.500000  0.249761  0.581785  1
  B  B17  1  0.500000  0.250041  0.082015  1
  B  B18  1  0.500000  0.750414  0.918171  1
  B  B19  1  0.500000  0.791011  0.265527  1
  B  B20  1  0.500000  0.208124  0.734266  1
  B  B21  1  0.500000  0.291884  0.234883  1
  B  B22  1  0.500000  0.707979  0.765774  1
  B  B23  1  0.500000  0.630236  0.185612  1
  B  B24  1  0.500000  0.370300  0.814393  1
  B  B25  1  0.500000  0.129957  0.315168  1
  B  B26  1  0.500000  0.869759  0.685219  1
  B  B27  1  0.500000  0.982165  0.212568  1
  B  B28  1  0.500000  0.017886  0.787034  1
  B  B29  1  0.500000  0.483137  0.287588  1
  B  B30  1  0.500000  0.518198  0.712649  1
  B  B31  1  0.500000  0.599269  0.028037  1
  B  B32  1  0.500000  0.401053  0.972786  1
  B  B33  1  0.500000  0.098278  0.472325  1
  B  B34  1  0.500000  0.900261  0.527313  1
  Os  Os35  1  0.000000  0.638797  0.320018  1
