# generated using pymatgen
data_Ho2Al2IrRh
_symmetry_space_group_name_H-M   'P 1'
_cell_length_a   4.23634200
_cell_length_b   6.85970343
_cell_length_c   7.90696767
_cell_angle_alpha   90.07428184
_cell_angle_beta   90.00000000
_cell_angle_gamma   90.00000000
_symmetry_Int_Tables_number   1
_chemical_formula_structural   Ho2Al2IrRh
_chemical_formula_sum   'Ho4 Al4 Ir2 Rh2'
_cell_volume   229.77668086
_cell_formula_units_Z   2
loop_
 _symmetry_equiv_pos_site_id
 _symmetry_equiv_pos_as_xyz
  1  'x, y, z'
loop_
 _atom_site_type_symbol
 _atom_site_label
 _atom_site_symmetry_multiplicity
 _atom_site_fract_x
 _atom_site_fract_y
 _atom_site_fract_z
 _atom_site_occupancy
  Ho  Ho0  1  0.250000  0.531289  0.180002  1
  Ho  Ho1  1  0.750000  0.468711  0.819998  1
  Ho  Ho2  1  0.750000  0.966626  0.681018  1
  Ho  Ho3  1  0.250000  0.033374  0.318982  1
  Al  Al4  1  0.250000  0.639080  0.561188  1
  Al  Al5  1  0.750000  0.360920  0.438812  1
  Al  Al6  1  0.750000  0.860601  0.059999  1
  Al  Al7  1  0.250000  0.139399  0.940001  1
  Ir  Ir8  1  0.250000  0.767356  0.878515  1
  Ir  Ir9  1  0.750000  0.232644  0.121485  1
  Rh  Rh10  1  0.750000  0.733689  0.380633  1
  Rh  Rh11  1  0.250000  0.266311  0.619367  1
