# generated using pymatgen
data_Ac2(CN2)3
_symmetry_space_group_name_H-M   'P 1'
_cell_length_a   8.19085727
_cell_length_b   8.19085775
_cell_length_c   5.45958296
_cell_angle_alpha   83.14230662
_cell_angle_beta   83.14230896
_cell_angle_gamma   30.19983863
_symmetry_Int_Tables_number   1
_chemical_formula_structural   Ac2(CN2)3
_chemical_formula_sum   'Ac2 C3 N6'
_cell_volume   182.83289675
_cell_formula_units_Z   1
loop_
 _symmetry_equiv_pos_site_id
 _symmetry_equiv_pos_as_xyz
  1  'x, y, z'
loop_
 _atom_site_type_symbol
 _atom_site_label
 _atom_site_symmetry_multiplicity
 _atom_site_fract_x
 _atom_site_fract_y
 _atom_site_fract_z
 _atom_site_occupancy
  Ac  Ac0  1  0.864660  0.864660  0.575539  1
  Ac  Ac1  1  0.135340  0.135340  0.424461  1
  C  C2  1  0.327750  0.327750  0.094125  1
  C  C3  1  0.672250  0.672250  0.905875  1
  C  C4  1  0.000000  0.000000  0.000000  1
  N  N5  1  0.688498  0.688498  0.676096  1
  N  N6  1  0.311502  0.311502  0.323904  1
  N  N7  1  0.658566  0.658566  0.131778  1
  N  N8  1  0.341434  0.341434  0.868222  1
  N  N9  1  0.990799  0.990799  0.227847  1
  N  N10  1  0.009201  0.009201  0.772153  1
