# generated using pymatgen
data_Cs2TlCdBi2
_symmetry_space_group_name_H-M   'P 1'
_cell_length_a   11.65071200
_cell_length_b   11.65071206
_cell_length_c   7.66461400
_cell_angle_alpha   90.00000000
_cell_angle_beta   90.00000000
_cell_angle_gamma   98.13158025
_symmetry_Int_Tables_number   1
_chemical_formula_structural   Cs2TlCdBi2
_chemical_formula_sum   'Cs8 Tl4 Cd4 Bi8'
_cell_volume   1029.92751662
_cell_formula_units_Z   4
loop_
 _symmetry_equiv_pos_site_id
 _symmetry_equiv_pos_as_xyz
  1  'x, y, z'
loop_
 _atom_site_type_symbol
 _atom_site_label
 _atom_site_symmetry_multiplicity
 _atom_site_fract_x
 _atom_site_fract_y
 _atom_site_fract_z
 _atom_site_occupancy
  Cs  Cs0  1  0.085392  0.414608  0.250000  1
  Cs  Cs1  1  0.414608  0.085392  0.750000  1
  Cs  Cs2  1  0.914608  0.585392  0.750000  1
  Cs  Cs3  1  0.585392  0.914608  0.250000  1
  Cs  Cs4  1  0.665051  0.334949  0.247149  1
  Cs  Cs5  1  0.834949  0.165051  0.747149  1
  Cs  Cs6  1  0.334949  0.665051  0.752851  1
  Cs  Cs7  1  0.165051  0.834949  0.252851  1
  Tl  Tl8  1  0.123017  0.123017  0.000000  1
  Tl  Tl9  1  0.376983  0.376983  0.500000  1
  Tl  Tl10  1  0.876983  0.876983  0.000000  1
  Tl  Tl11  1  0.623017  0.623017  0.500000  1
  Cd  Cd12  1  0.372818  0.372818  0.000000  1
  Cd  Cd13  1  0.127182  0.127182  0.500000  1
  Cd  Cd14  1  0.627182  0.627182  0.000000  1
  Cd  Cd15  1  0.872818  0.872818  0.500000  1
  Bi  Bi16  1  0.845158  0.654841  0.250000  1
  Bi  Bi17  1  0.654841  0.845158  0.750000  1
  Bi  Bi18  1  0.154841  0.345158  0.750000  1
  Bi  Bi19  1  0.345158  0.154841  0.250000  1
  Bi  Bi20  1  0.904321  0.095679  0.268484  1
  Bi  Bi21  1  0.595679  0.404321  0.768484  1
  Bi  Bi22  1  0.095679  0.904321  0.731516  1
  Bi  Bi23  1  0.404321  0.595679  0.231516  1
