# generated using pymatgen
data_Y2Ho3Co2
_symmetry_space_group_name_H-M   'P 1'
_cell_length_a   6.30982163
_cell_length_b   6.95212083
_cell_length_c   8.59641459
_cell_angle_alpha   96.49579285
_cell_angle_beta   111.53090465
_cell_angle_gamma   90.00000029
_symmetry_Int_Tables_number   1
_chemical_formula_structural   Y2Ho3Co2
_chemical_formula_sum   'Y4 Ho6 Co4'
_cell_volume   348.17819510
_cell_formula_units_Z   2
loop_
 _symmetry_equiv_pos_site_id
 _symmetry_equiv_pos_as_xyz
  1  'x, y, z'
loop_
 _atom_site_type_symbol
 _atom_site_label
 _atom_site_symmetry_multiplicity
 _atom_site_fract_x
 _atom_site_fract_y
 _atom_site_fract_z
 _atom_site_occupancy
  Y  Y0  1  0.985417  0.912844  0.190824  1
  Y  Y1  1  0.794594  0.587156  0.809176  1
  Y  Y2  1  0.014583  0.087156  0.809176  1
  Y  Y3  1  0.205406  0.412844  0.190824  1
  Ho  Ho4  1  0.644739  0.815905  0.431368  1
  Ho  Ho5  1  0.213370  0.684095  0.568632  1
  Ho  Ho6  1  0.355261  0.184095  0.568632  1
  Ho  Ho7  1  0.786630  0.315905  0.431368  1
  Ho  Ho8  1  0.429163  0.750000  0.000000  1
  Ho  Ho9  1  0.570837  0.250000  0.000000  1
  Co  Co10  1  0.819966  0.571614  0.225018  1
  Co  Co11  1  0.594949  0.928386  0.774982  1
  Co  Co12  1  0.180034  0.428386  0.774982  1
  Co  Co13  1  0.405051  0.071614  0.225018  1
