# generated using pymatgen
data_Ce3Al12Tc3Rh
_symmetry_space_group_name_H-M   'P 1'
_cell_length_a   8.94360211
_cell_length_b   8.94360158
_cell_length_c   9.64968948
_cell_angle_alpha   89.65212270
_cell_angle_beta   89.65212258
_cell_angle_gamma   120.15090791
_symmetry_Int_Tables_number   1
_chemical_formula_structural   Ce3Al12Tc3Rh
_chemical_formula_sum   'Ce6 Al24 Tc6 Rh2'
_cell_volume   667.38170220
_cell_formula_units_Z   2
loop_
 _symmetry_equiv_pos_site_id
 _symmetry_equiv_pos_as_xyz
  1  'x, y, z'
loop_
 _atom_site_type_symbol
 _atom_site_label
 _atom_site_symmetry_multiplicity
 _atom_site_fract_x
 _atom_site_fract_y
 _atom_site_fract_z
 _atom_site_occupancy
  Ce  Ce0  1  0.801430  0.609688  0.745652  1
  Ce  Ce1  1  0.193358  0.806642  0.250000  1
  Ce  Ce2  1  0.609688  0.801430  0.245652  1
  Ce  Ce3  1  0.390312  0.198570  0.754348  1
  Ce  Ce4  1  0.806642  0.193358  0.750000  1
  Ce  Ce5  1  0.198570  0.390312  0.254348  1
  Al  Al6  1  0.334237  0.667746  0.496033  1
  Al  Al7  1  0.667746  0.334237  0.996033  1
  Al  Al8  1  0.665763  0.332254  0.503967  1
  Al  Al9  1  0.332254  0.665763  0.003967  1
  Al  Al10  1  0.161166  0.322560  0.580730  1
  Al  Al11  1  0.676493  0.838827  0.577460  1
  Al  Al12  1  0.161334  0.839098  0.579334  1
  Al  Al13  1  0.839098  0.161334  0.079334  1
  Al  Al14  1  0.838666  0.160902  0.420666  1
  Al  Al15  1  0.838827  0.676493  0.077460  1
  Al  Al16  1  0.322560  0.161166  0.080730  1
  Al  Al17  1  0.677440  0.838834  0.919270  1
  Al  Al18  1  0.161173  0.323507  0.922540  1
  Al  Al19  1  0.838834  0.677440  0.419270  1
  Al  Al20  1  0.999591  0.000409  0.250000  1
  Al  Al21  1  0.000409  0.999591  0.750000  1
  Al  Al22  1  0.562563  0.123523  0.249984  1
  Al  Al23  1  0.436303  0.563697  0.750000  1
  Al  Al24  1  0.123523  0.562563  0.749984  1
  Al  Al25  1  0.876477  0.437437  0.250016  1
  Al  Al26  1  0.563697  0.436303  0.250000  1
  Al  Al27  1  0.437437  0.876477  0.750016  1
  Al  Al28  1  0.160902  0.838666  0.920666  1
  Al  Al29  1  0.323507  0.161173  0.422540  1
  Tc  Tc30  1  0.000000  0.000000  0.500000  1
  Tc  Tc31  1  0.000000  0.000000  0.000000  1
  Tc  Tc32  1  0.500000  0.500000  0.000000  1
  Tc  Tc33  1  0.000000  0.500000  0.500000  1
  Tc  Tc34  1  0.500000  0.500000  0.500000  1
  Tc  Tc35  1  0.500000  0.000000  0.000000  1
  Rh  Rh36  1  0.500000  0.000000  0.500000  1
  Rh  Rh37  1  0.000000  0.500000  0.000000  1
