# generated using pymatgen
data_Tb6Mn3Co14TcP12
_symmetry_space_group_name_H-M   'P 1'
_cell_length_a   3.74303900
_cell_length_b   10.60418400
_cell_length_c   12.18262100
_cell_angle_alpha   90.00000000
_cell_angle_beta   90.00000000
_cell_angle_gamma   90.00000000
_symmetry_Int_Tables_number   1
_chemical_formula_structural   Tb6Mn3Co14TcP12
_chemical_formula_sum   'Tb6 Mn3 Co14 Tc1 P12'
_cell_volume   483.55106107
_cell_formula_units_Z   1
loop_
 _symmetry_equiv_pos_site_id
 _symmetry_equiv_pos_as_xyz
  1  'x, y, z'
loop_
 _atom_site_type_symbol
 _atom_site_label
 _atom_site_symmetry_multiplicity
 _atom_site_fract_x
 _atom_site_fract_y
 _atom_site_fract_z
 _atom_site_occupancy
  Tb  Tb0  1  0.000000  0.500000  0.524336  1
  Tb  Tb1  1  0.500000  0.000000  0.476697  1
  Tb  Tb2  1  0.500000  0.818653  0.203916  1
  Tb  Tb3  1  0.500000  0.181347  0.203916  1
  Tb  Tb4  1  0.000000  0.680168  0.796191  1
  Tb  Tb5  1  0.000000  0.319832  0.796191  1
  Mn  Mn6  1  0.000000  0.000000  0.847751  1
  Mn  Mn7  1  0.000000  0.500000  0.987378  1
  Mn  Mn8  1  0.500000  0.000000  0.011390  1
  Co  Co9  1  0.500000  0.500000  0.698261  1
  Co  Co10  1  0.000000  0.000000  0.301329  1
  Co  Co11  1  0.500000  0.330703  0.992332  1
  Co  Co12  1  0.500000  0.669297  0.992332  1
  Co  Co13  1  0.000000  0.167645  0.005598  1
  Co  Co14  1  0.000000  0.832355  0.005598  1
  Co  Co15  1  0.500000  0.296267  0.430704  1
  Co  Co16  1  0.500000  0.703733  0.430704  1
  Co  Co17  1  0.000000  0.204143  0.569444  1
  Co  Co18  1  0.000000  0.795857  0.569444  1
  Co  Co19  1  0.500000  0.878975  0.707927  1
  Co  Co20  1  0.500000  0.121025  0.707927  1
  Co  Co21  1  0.000000  0.620673  0.292623  1
  Co  Co22  1  0.000000  0.379327  0.292623  1
  Tc  Tc23  1  0.500000  0.500000  0.155947  1
  P  P24  1  0.500000  0.500000  0.883351  1
  P  P25  1  0.000000  0.000000  0.117472  1
  P  P26  1  0.500000  0.500000  0.346788  1
  P  P27  1  0.000000  0.000000  0.654988  1
  P  P28  1  0.500000  0.308915  0.616146  1
  P  P29  1  0.500000  0.691085  0.616146  1
  P  P30  1  0.000000  0.190490  0.383896  1
  P  P31  1  0.000000  0.809510  0.383896  1
  P  P32  1  0.500000  0.845717  0.893732  1
  P  P33  1  0.500000  0.154283  0.893732  1
  P  P34  1  0.000000  0.653759  0.104649  1
  P  P35  1  0.000000  0.346241  0.104649  1
