# generated using pymatgen
data_V12ZnGa6CuN4
_symmetry_space_group_name_H-M   'P 1'
_cell_length_a   6.59164563
_cell_length_b   6.59204977
_cell_length_c   6.59315721
_cell_angle_alpha   90.05188359
_cell_angle_beta   89.95394118
_cell_angle_gamma   90.16037097
_symmetry_Int_Tables_number   1
_chemical_formula_structural   V12ZnGa6CuN4
_chemical_formula_sum   'V12 Zn1 Ga6 Cu1 N4'
_cell_volume   286.48754204
_cell_formula_units_Z   1
loop_
 _symmetry_equiv_pos_site_id
 _symmetry_equiv_pos_as_xyz
  1  'x, y, z'
loop_
 _atom_site_type_symbol
 _atom_site_label
 _atom_site_symmetry_multiplicity
 _atom_site_fract_x
 _atom_site_fract_y
 _atom_site_fract_z
 _atom_site_occupancy
  V  V0  1  0.788447  0.960003  0.375648  1
  V  V1  1  0.711011  0.039875  0.875217  1
  V  V2  1  0.208071  0.457977  0.126024  1
  V  V3  1  0.291848  0.540739  0.626246  1
  V  V4  1  0.959150  0.376369  0.790489  1
  V  V5  1  0.039426  0.873094  0.710229  1
  V  V6  1  0.460930  0.127268  0.210267  1
  V  V7  1  0.541836  0.623229  0.289623  1
  V  V8  1  0.376683  0.788835  0.958125  1
  V  V9  1  0.873208  0.709326  0.040016  1
  V  V10  1  0.123308  0.211048  0.459471  1
  V  V11  1  0.626965  0.291384  0.540427  1
  Zn  Zn12  1  0.183245  0.821119  0.318377  1
  Ga  Ga13  1  0.821853  0.319050  0.178098  1
  Ga  Ga14  1  0.677386  0.680888  0.679198  1
  Ga  Ga15  1  0.561145  0.420604  0.926671  1
  Ga  Ga16  1  0.422043  0.937408  0.574814  1
  Ga  Ga17  1  0.934908  0.574903  0.428877  1
  Ga  Ga18  1  0.080254  0.068628  0.066061  1
  Cu  Cu19  1  0.317144  0.179333  0.818542  1
  N  N20  1  0.877009  0.124305  0.626792  1
  N  N21  1  0.623283  0.875708  0.125814  1
  N  N22  1  0.126148  0.623944  0.877332  1
  N  N23  1  0.374698  0.374963  0.377639  1
