# generated using pymatgen
data_Pr8DyLuPb6
_symmetry_space_group_name_H-M   'P 1'
_cell_length_a   9.38266900
_cell_length_b   9.38267037
_cell_length_c   6.89083500
_cell_angle_alpha   90.00000000
_cell_angle_beta   90.00000000
_cell_angle_gamma   119.99999870
_symmetry_Int_Tables_number   1
_chemical_formula_structural   Pr8DyLuPb6
_chemical_formula_sum   'Pr8 Dy1 Lu1 Pb6'
_cell_volume   525.35799144
_cell_formula_units_Z   1
loop_
 _symmetry_equiv_pos_site_id
 _symmetry_equiv_pos_as_xyz
  1  'x, y, z'
loop_
 _atom_site_type_symbol
 _atom_site_label
 _atom_site_symmetry_multiplicity
 _atom_site_fract_x
 _atom_site_fract_y
 _atom_site_fract_z
 _atom_site_occupancy
  Pr  Pr0  1  0.333333  0.666667  0.500000  1
  Pr  Pr1  1  0.666667  0.333333  0.500000  1
  Pr  Pr2  1  0.759090  0.759279  0.752422  1
  Pr  Pr3  1  0.240721  0.999811  0.752422  1
  Pr  Pr4  1  0.000189  0.240910  0.752422  1
  Pr  Pr5  1  0.240721  0.240910  0.247578  1
  Pr  Pr6  1  0.759090  0.999811  0.247578  1
  Pr  Pr7  1  0.000189  0.759279  0.247578  1
  Dy  Dy8  1  0.666667  0.333333  0.000000  1
  Lu  Lu9  1  0.333333  0.666667  0.000000  1
  Pb  Pb10  1  0.396465  0.397051  0.758943  1
  Pb  Pb11  1  0.602949  0.999414  0.758943  1
  Pb  Pb12  1  0.000586  0.603535  0.758943  1
  Pb  Pb13  1  0.602949  0.603535  0.241057  1
  Pb  Pb14  1  0.396465  0.999414  0.241057  1
  Pb  Pb15  1  0.000586  0.397051  0.241057  1
