# generated using pymatgen
data_Nb2SiB2Ru5
_symmetry_space_group_name_H-M   'P 1'
_cell_length_a   9.29126000
_cell_length_b   9.29126000
_cell_length_c   2.96541600
_cell_angle_alpha   90.00000000
_cell_angle_beta   90.00000000
_cell_angle_gamma   90.00000000
_symmetry_Int_Tables_number   1
_chemical_formula_structural   Nb2SiB2Ru5
_chemical_formula_sum   'Nb4 Si2 B4 Ru10'
_cell_volume   255.99698647
_cell_formula_units_Z   2
loop_
 _symmetry_equiv_pos_site_id
 _symmetry_equiv_pos_as_xyz
  1  'x, y, z'
loop_
 _atom_site_type_symbol
 _atom_site_label
 _atom_site_symmetry_multiplicity
 _atom_site_fract_x
 _atom_site_fract_y
 _atom_site_fract_z
 _atom_site_occupancy
  Nb  Nb0  1  0.822849  0.677151  0.000000  1
  Nb  Nb1  1  0.177151  0.322849  0.000000  1
  Nb  Nb2  1  0.322849  0.822849  0.000000  1
  Nb  Nb3  1  0.677151  0.177151  0.000000  1
  Si  Si4  1  0.500000  0.500000  0.000000  1
  Si  Si5  1  0.000000  0.000000  0.000000  1
  B  B6  1  0.624824  0.875176  0.000000  1
  B  B7  1  0.375176  0.124824  0.000000  1
  B  B8  1  0.124824  0.624824  0.000000  1
  B  B9  1  0.875176  0.375176  0.000000  1
  Ru  Ru10  1  0.567004  0.711230  0.500000  1
  Ru  Ru11  1  0.432996  0.288770  0.500000  1
  Ru  Ru12  1  0.067004  0.788770  0.500000  1
  Ru  Ru13  1  0.932996  0.211230  0.500000  1
  Ru  Ru14  1  0.288770  0.567004  0.500000  1
  Ru  Ru15  1  0.711230  0.432996  0.500000  1
  Ru  Ru16  1  0.211230  0.067004  0.500000  1
  Ru  Ru17  1  0.788770  0.932996  0.500000  1
  Ru  Ru18  1  0.500000  0.000000  0.500000  1
  Ru  Ru19  1  0.000000  0.500000  0.500000  1
