# generated using pymatgen
data_Hf4Ta6Si5Sb
_symmetry_space_group_name_H-M   'P 1'
_cell_length_a   7.81506068
_cell_length_b   7.81506023
_cell_length_c   7.81506058
_cell_angle_alpha   129.18303371
_cell_angle_beta   129.18302677
_cell_angle_gamma   74.71624727
_symmetry_Int_Tables_number   1
_chemical_formula_structural   Hf4Ta6Si5Sb
_chemical_formula_sum   'Hf4 Ta6 Si5 Sb1'
_cell_volume   279.38355065
_cell_formula_units_Z   1
loop_
 _symmetry_equiv_pos_site_id
 _symmetry_equiv_pos_as_xyz
  1  'x, y, z'
loop_
 _atom_site_type_symbol
 _atom_site_label
 _atom_site_symmetry_multiplicity
 _atom_site_fract_x
 _atom_site_fract_y
 _atom_site_fract_z
 _atom_site_occupancy
  Hf  Hf0  1  0.025269  0.197237  0.518169  1
  Hf  Hf1  1  0.679068  0.507100  0.481831  1
  Hf  Hf2  1  0.507100  0.025269  0.828032  1
  Hf  Hf3  1  0.197237  0.679068  0.171968  1
  Ta  Ta4  1  0.992241  0.814423  0.515864  1
  Ta  Ta5  1  0.298560  0.476377  0.484136  1
  Ta  Ta6  1  0.476377  0.992241  0.177817  1
  Ta  Ta7  1  0.814423  0.298560  0.822183  1
  Ta  Ta8  1  0.008008  0.008008  0.000000  1
  Ta  Ta9  1  0.506238  0.506238  0.000000  1
  Si  Si10  1  0.241207  0.241207  0.000000  1
  Si  Si11  1  0.370272  0.133468  0.500074  1
  Si  Si12  1  0.633394  0.870197  0.499926  1
  Si  Si13  1  0.870197  0.370272  0.236804  1
  Si  Si14  1  0.133468  0.633394  0.763196  1
  Sb  Sb15  1  0.746942  0.746942  0.000000  1
