# generated using pymatgen
data_DyCo3TcSn6
_symmetry_space_group_name_H-M   'P 1'
_cell_length_a   6.75572229
_cell_length_b   6.69490492
_cell_length_c   6.83287664
_cell_angle_alpha   119.78681337
_cell_angle_beta   120.07693704
_cell_angle_gamma   89.20371095
_symmetry_Int_Tables_number   1
_chemical_formula_structural   DyCo3TcSn6
_chemical_formula_sum   'Dy1 Co3 Tc1 Sn6'
_cell_volume   220.43679818
_cell_formula_units_Z   1
loop_
 _symmetry_equiv_pos_site_id
 _symmetry_equiv_pos_as_xyz
  1  'x, y, z'
loop_
 _atom_site_type_symbol
 _atom_site_label
 _atom_site_symmetry_multiplicity
 _atom_site_fract_x
 _atom_site_fract_y
 _atom_site_fract_z
 _atom_site_occupancy
  Dy  Dy0  1  0.989028  0.999758  0.000000  1
  Co  Co1  1  0.411360  0.734894  0.000000  1
  Co  Co2  1  0.605017  0.604177  0.356040  1
  Co  Co3  1  0.248978  0.248137  0.643959  1
  Tc  Tc4  1  0.739442  0.409144  0.000000  1
  Sn  Sn5  1  0.460684  0.112927  0.000000  1
  Sn  Sn6  1  0.128965  0.464810  0.000000  1
  Sn  Sn7  1  0.887455  0.893000  0.361109  1
  Sn  Sn8  1  0.496565  0.995836  0.490409  1
  Sn  Sn9  1  0.006157  0.505425  0.509589  1
  Sn  Sn10  1  0.526345  0.531890  0.638890  1
