# generated using pymatgen
data_HoTm11InCo5
_symmetry_space_group_name_H-M   'P 1'
_cell_length_a   8.15395301
_cell_length_b   8.15395323
_cell_length_c   8.15199653
_cell_angle_alpha   111.03474514
_cell_angle_beta   110.87482623
_cell_angle_gamma   106.55348154
_symmetry_Int_Tables_number   1
_chemical_formula_structural   HoTm11InCo5
_chemical_formula_sum   'Ho1 Tm11 In1 Co5'
_cell_volume   416.37008641
_cell_formula_units_Z   1
loop_
 _symmetry_equiv_pos_site_id
 _symmetry_equiv_pos_as_xyz
  1  'x, y, z'
loop_
 _atom_site_type_symbol
 _atom_site_label
 _atom_site_symmetry_multiplicity
 _atom_site_fract_x
 _atom_site_fract_y
 _atom_site_fract_z
 _atom_site_occupancy
  Ho  Ho0  1  0.288032  0.185709  0.473740  1
  Tm  Tm1  1  0.711983  0.814560  0.526544  1
  Tm  Tm2  1  0.287999  0.814156  0.102154  1
  Tm  Tm3  1  0.712174  0.185495  0.897670  1
  Tm  Tm4  1  0.619051  0.314219  0.304589  1
  Tm  Tm5  1  0.381121  0.686119  0.695391  1
  Tm  Tm6  1  0.009271  0.314270  0.695391  1
  Tm  Tm7  1  0.990371  0.685538  0.304589  1
  Tm  Tm8  1  0.213177  0.405747  0.192047  1
  Tm  Tm9  1  0.787093  0.594724  0.807971  1
  Tm  Tm10  1  0.213249  0.020880  0.807971  1
  Tm  Tm11  1  0.786299  0.978869  0.192047  1
  In  In12  1  0.500051  0.500072  0.000123  1
  Co  Co13  1  0.999793  0.376477  0.376270  1
  Co  Co14  1  0.000015  0.623622  0.623637  1
  Co  Co15  1  0.387000  0.886530  0.500082  1
  Co  Co16  1  0.613552  0.113082  0.500082  1
  Co  Co17  1  0.999770  0.999931  0.999701  1
