# generated using pymatgen
data_Nb3GaAuC
_symmetry_space_group_name_H-M   'P 1'
_cell_length_a   7.16606800
_cell_length_b   7.16606800
_cell_length_c   7.16606800
_cell_angle_alpha   90.00000000
_cell_angle_beta   90.00000000
_cell_angle_gamma   90.00000000
_symmetry_Int_Tables_number   1
_chemical_formula_structural   Nb3GaAuC
_chemical_formula_sum   'Nb12 Ga4 Au4 C4'
_cell_volume   367.99572611
_cell_formula_units_Z   4
loop_
 _symmetry_equiv_pos_site_id
 _symmetry_equiv_pos_as_xyz
  1  'x, y, z'
loop_
 _atom_site_type_symbol
 _atom_site_label
 _atom_site_symmetry_multiplicity
 _atom_site_fract_x
 _atom_site_fract_y
 _atom_site_fract_z
 _atom_site_occupancy
  Nb  Nb0  1  0.788336  0.956496  0.377338  1
  Nb  Nb1  1  0.711664  0.043504  0.877338  1
  Nb  Nb2  1  0.211664  0.456496  0.122662  1
  Nb  Nb3  1  0.288336  0.543504  0.622662  1
  Nb  Nb4  1  0.956496  0.377338  0.788336  1
  Nb  Nb5  1  0.043504  0.877338  0.711664  1
  Nb  Nb6  1  0.456496  0.122662  0.211664  1
  Nb  Nb7  1  0.543504  0.622662  0.288336  1
  Nb  Nb8  1  0.377338  0.788336  0.956496  1
  Nb  Nb9  1  0.877338  0.711664  0.043504  1
  Nb  Nb10  1  0.122662  0.211664  0.456496  1
  Nb  Nb11  1  0.622662  0.288336  0.543504  1
  Ga  Ga12  1  0.569705  0.430295  0.930295  1
  Ga  Ga13  1  0.430295  0.930295  0.569705  1
  Ga  Ga14  1  0.930295  0.569705  0.430295  1
  Ga  Ga15  1  0.069705  0.069705  0.069705  1
  Au  Au16  1  0.178816  0.821184  0.321184  1
  Au  Au17  1  0.321184  0.178816  0.821184  1
  Au  Au18  1  0.821184  0.321184  0.178816  1
  Au  Au19  1  0.678816  0.678816  0.678816  1
  C  C20  1  0.875171  0.124829  0.624829  1
  C  C21  1  0.624829  0.875171  0.124829  1
  C  C22  1  0.124829  0.624829  0.875171  1
  C  C23  1  0.375171  0.375171  0.375171  1
