# generated using pymatgen
data_Sc2CrWC3
_symmetry_space_group_name_H-M   'P 1'
_cell_length_a   5.70239565
_cell_length_b   5.70239622
_cell_length_c   5.41612285
_cell_angle_alpha   109.52211996
_cell_angle_beta   109.52212040
_cell_angle_gamma   32.22087912
_symmetry_Int_Tables_number   1
_chemical_formula_structural   Sc2CrWC3
_chemical_formula_sum   'Sc2 Cr1 W1 C3'
_cell_volume   88.03973277
_cell_formula_units_Z   1
loop_
 _symmetry_equiv_pos_site_id
 _symmetry_equiv_pos_as_xyz
  1  'x, y, z'
loop_
 _atom_site_type_symbol
 _atom_site_label
 _atom_site_symmetry_multiplicity
 _atom_site_fract_x
 _atom_site_fract_y
 _atom_site_fract_z
 _atom_site_occupancy
  Sc  Sc0  1  0.386467  0.386467  0.167334  1
  Sc  Sc1  1  0.612812  0.612812  0.841799  1
  Cr  Cr2  1  0.156211  0.156211  0.323234  1
  W  W3  1  0.846849  0.846849  0.666619  1
  C  C4  1  0.004970  0.004970  0.012570  1
  C  C5  1  0.752201  0.752201  0.257139  1
  C  C6  1  0.240491  0.240491  0.731309  1
