# generated using pymatgen
data_Ca5Ac5(Pb3Cl)2
_symmetry_space_group_name_H-M   'P 1'
_cell_length_a   9.84421120
_cell_length_b   9.84421057
_cell_length_c   7.10819200
_cell_angle_alpha   90.00000000
_cell_angle_beta   90.00000000
_cell_angle_gamma   119.80533149
_symmetry_Int_Tables_number   1
_chemical_formula_structural   Ca5Ac5(Pb3Cl)2
_chemical_formula_sum   'Ca5 Ac5 Pb6 Cl2'
_cell_volume   597.72328878
_cell_formula_units_Z   1
loop_
 _symmetry_equiv_pos_site_id
 _symmetry_equiv_pos_as_xyz
  1  'x, y, z'
loop_
 _atom_site_type_symbol
 _atom_site_label
 _atom_site_symmetry_multiplicity
 _atom_site_fract_x
 _atom_site_fract_y
 _atom_site_fract_z
 _atom_site_occupancy
  Ca  Ca0  1  0.262509  0.262509  0.750000  1
  Ca  Ca1  1  0.332739  0.663122  0.998449  1
  Ca  Ca2  1  0.663122  0.332739  0.998449  1
  Ca  Ca3  1  0.663122  0.332739  0.501551  1
  Ca  Ca4  1  0.332739  0.663122  0.501551  1
  Ac  Ac5  1  0.266229  0.002208  0.250000  1
  Ac  Ac6  1  0.734269  0.999488  0.750000  1
  Ac  Ac7  1  0.002208  0.266229  0.250000  1
  Ac  Ac8  1  0.999488  0.734269  0.750000  1
  Ac  Ac9  1  0.737834  0.737834  0.250000  1
  Pb  Pb10  1  0.607276  0.000850  0.250000  1
  Pb  Pb11  1  0.391567  0.003738  0.750000  1
  Pb  Pb12  1  0.000850  0.607276  0.250000  1
  Pb  Pb13  1  0.003738  0.391567  0.750000  1
  Pb  Pb14  1  0.395476  0.395476  0.250000  1
  Pb  Pb15  1  0.600671  0.600671  0.750000  1
  Cl  Cl16  1  0.003083  0.003083  0.996838  1
  Cl  Cl17  1  0.003083  0.003083  0.503162  1
