# generated using pymatgen
data_Ce2AlZn3Co2
_symmetry_space_group_name_H-M   'P 1'
_cell_length_a   4.94005534
_cell_length_b   4.94005427
_cell_length_c   7.57611086
_cell_angle_alpha   89.86171073
_cell_angle_beta   90.13828788
_cell_angle_gamma   130.38865706
_symmetry_Int_Tables_number   1
_chemical_formula_structural   Ce2AlZn3Co2
_chemical_formula_sum   'Ce2 Al1 Zn3 Co2'
_cell_volume   140.82288372
_cell_formula_units_Z   1
loop_
 _symmetry_equiv_pos_site_id
 _symmetry_equiv_pos_as_xyz
  1  'x, y, z'
loop_
 _atom_site_type_symbol
 _atom_site_label
 _atom_site_symmetry_multiplicity
 _atom_site_fract_x
 _atom_site_fract_y
 _atom_site_fract_z
 _atom_site_occupancy
  Ce  Ce0  1  0.552273  0.447726  0.256889  1
  Ce  Ce1  1  0.449536  0.550463  0.748739  1
  Al  Al2  1  0.840299  0.159700  0.046111  1
  Zn  Zn3  1  0.845508  0.154491  0.456945  1
  Zn  Zn4  1  0.157563  0.842436  0.542137  1
  Zn  Zn5  1  0.151960  0.848039  0.954638  1
  Co  Co6  1  0.308305  0.691694  0.241871  1
  Co  Co7  1  0.694551  0.305448  0.752668  1
