# generated using pymatgen
data_VFeAg(P2O7)2
_symmetry_space_group_name_H-M   'P 1'
_cell_length_a   4.88601802
_cell_length_b   7.09359580
_cell_length_c   8.01409598
_cell_angle_alpha   90.97112557
_cell_angle_beta   93.86782649
_cell_angle_gamma   104.93894810
_symmetry_Int_Tables_number   1
_chemical_formula_structural   VFeAg(P2O7)2
_chemical_formula_sum   'V1 Fe1 Ag1 P4 O14'
_cell_volume   267.59472597
_cell_formula_units_Z   1
loop_
 _symmetry_equiv_pos_site_id
 _symmetry_equiv_pos_as_xyz
  1  'x, y, z'
loop_
 _atom_site_type_symbol
 _atom_site_label
 _atom_site_symmetry_multiplicity
 _atom_site_fract_x
 _atom_site_fract_y
 _atom_site_fract_z
 _atom_site_occupancy
  V  V0  1  0.500000  0.500000  0.500000  1
  Fe  Fe1  1  0.000000  0.000000  0.000000  1
  Ag  Ag2  1  0.000000  0.000000  0.500000  1
  P  P3  1  0.009688  0.623748  0.254786  1
  P  P4  1  0.990312  0.376252  0.745214  1
  P  P5  1  0.622908  0.234627  0.199350  1
  P  P6  1  0.377092  0.765373  0.800650  1
  O  O7  1  0.801225  0.450223  0.144174  1
  O  O8  1  0.198775  0.549777  0.855826  1
  O  O9  1  0.541139  0.264752  0.380459  1
  O  O10  1  0.458861  0.735248  0.619541  1
  O  O11  1  0.271009  0.552554  0.315725  1
  O  O12  1  0.728991  0.447446  0.684275  1
  O  O13  1  0.847236  0.664486  0.406667  1
  O  O14  1  0.177631  0.899833  0.798926  1
  O  O15  1  0.822369  0.100167  0.201074  1
  O  O16  1  0.903498  0.200527  0.850007  1
  O  O17  1  0.096502  0.799473  0.149993  1
  O  O18  1  0.628355  0.817798  0.928007  1
  O  O19  1  0.371645  0.182202  0.071993  1
  O  O20  1  0.152764  0.335514  0.593333  1
