# generated using pymatgen
data_CaSbAsF12
_symmetry_space_group_name_H-M   'P 1'
_cell_length_a   11.40055064
_cell_length_b   5.79104228
_cell_length_c   5.81051091
_cell_angle_alpha   57.32826560
_cell_angle_beta   56.44103459
_cell_angle_gamma   56.71739981
_symmetry_Int_Tables_number   1
_chemical_formula_structural   CaSbAsF12
_chemical_formula_sum   'Ca1 Sb1 As1 F12'
_cell_volume   251.37204369
_cell_formula_units_Z   1
loop_
 _symmetry_equiv_pos_site_id
 _symmetry_equiv_pos_as_xyz
  1  'x, y, z'
loop_
 _atom_site_type_symbol
 _atom_site_label
 _atom_site_symmetry_multiplicity
 _atom_site_fract_x
 _atom_site_fract_y
 _atom_site_fract_z
 _atom_site_occupancy
  Ca  Ca0  1  0.740218  0.506073  0.507001  1
  Sb  Sb1  1  0.013949  0.984188  0.996436  1
  As  As2  1  0.489796  0.013907  0.000195  1
  F  F3  1  0.173035  0.127049  0.760672  1
  F  F4  1  0.658912  0.113548  0.786744  1
  F  F5  1  0.056528  0.776608  0.343538  1
  F  F6  1  0.561790  0.792923  0.297065  1
  F  F7  1  0.113848  0.656824  0.876914  1
  F  F8  1  0.611147  0.694795  0.878935  1
  F  F9  1  0.445971  0.209888  0.686182  1
  F  F10  1  0.931057  0.225905  0.683981  1
  F  F11  1  0.344827  0.879786  0.214541  1
  F  F12  1  0.831843  0.879147  0.224856  1
  F  F13  1  0.394830  0.313709  0.113585  1
  F  F14  1  0.882250  0.325651  0.129358  1
