# generated using pymatgen
data_Mn3V3(Ni10B3)4
_symmetry_space_group_name_H-M   'P 1'
_cell_length_a   12.85237085
_cell_length_b   12.85237043
_cell_length_c   12.85237100
_cell_angle_alpha   33.68626272
_cell_angle_beta   33.68626552
_cell_angle_gamma   33.68626598
_symmetry_Int_Tables_number   1
_chemical_formula_structural   Mn3V3(Ni10B3)4
_chemical_formula_sum   'Mn3 V3 Ni40 B12'
_cell_volume   581.85542349
_cell_formula_units_Z   1
loop_
 _symmetry_equiv_pos_site_id
 _symmetry_equiv_pos_as_xyz
  1  'x, y, z'
loop_
 _atom_site_type_symbol
 _atom_site_label
 _atom_site_symmetry_multiplicity
 _atom_site_fract_x
 _atom_site_fract_y
 _atom_site_fract_z
 _atom_site_occupancy
  Mn  Mn0  1  0.000009  0.000009  0.000009  1
  Mn  Mn1  1  0.499916  0.499916  0.499916  1
  Mn  Mn2  1  0.375085  0.375085  0.375085  1
  V  V3  1  0.874966  0.874966  0.874966  1
  V  V4  1  0.125222  0.125222  0.125222  1
  V  V5  1  0.624664  0.624664  0.624664  1
  Ni  Ni6  1  0.660031  0.341250  0.997909  1
  Ni  Ni7  1  0.158800  0.840883  0.500759  1
  Ni  Ni8  1  0.832104  0.169461  0.169461  1
  Ni  Ni9  1  0.328987  0.670526  0.670526  1
  Ni  Ni10  1  0.660031  0.997909  0.341250  1
  Ni  Ni11  1  0.158800  0.500759  0.840883  1
  Ni  Ni12  1  0.169461  0.169461  0.832104  1
  Ni  Ni13  1  0.670526  0.670526  0.328987  1
  Ni  Ni14  1  0.997909  0.341250  0.660031  1
  Ni  Ni15  1  0.500759  0.840883  0.158800  1
  Ni  Ni16  1  0.840883  0.500759  0.158800  1
  Ni  Ni17  1  0.341250  0.997909  0.660031  1
  Ni  Ni18  1  0.329352  0.329352  0.671626  1
  Ni  Ni19  1  0.829446  0.829446  0.170473  1
  Ni  Ni20  1  0.671626  0.329352  0.329352  1
  Ni  Ni21  1  0.170473  0.829446  0.829446  1
  Ni  Ni22  1  0.329352  0.671626  0.329352  1
  Ni  Ni23  1  0.829446  0.170473  0.829446  1
  Ni  Ni24  1  0.341250  0.660031  0.997909  1
  Ni  Ni25  1  0.840883  0.158800  0.500759  1
  Ni  Ni26  1  0.997909  0.660031  0.341250  1
  Ni  Ni27  1  0.500759  0.158800  0.840883  1
  Ni  Ni28  1  0.169461  0.832104  0.169461  1
  Ni  Ni29  1  0.670526  0.328987  0.670526  1
  Ni  Ni30  1  0.036761  0.577893  0.577893  1
  Ni  Ni31  1  0.545274  0.072880  0.072880  1
  Ni  Ni32  1  0.577893  0.577893  0.036761  1
  Ni  Ni33  1  0.072880  0.072880  0.545274  1
  Ni  Ni34  1  0.808894  0.808894  0.808894  1
  Ni  Ni35  1  0.307277  0.307277  0.307277  1
  Ni  Ni36  1  0.577893  0.036761  0.577893  1
  Ni  Ni37  1  0.072880  0.545274  0.072880  1
  Ni  Ni38  1  0.452197  0.929197  0.929197  1
  Ni  Ni39  1  0.952170  0.428205  0.428205  1
  Ni  Ni40  1  0.929197  0.929197  0.452197  1
  Ni  Ni41  1  0.428205  0.428205  0.952170  1
  Ni  Ni42  1  0.689970  0.689970  0.689970  1
  Ni  Ni43  1  0.191119  0.191119  0.191119  1
  Ni  Ni44  1  0.929197  0.452197  0.929197  1
  Ni  Ni45  1  0.428205  0.952170  0.428205  1
  B  B46  1  0.865379  0.865379  0.403948  1
  B  B47  1  0.365819  0.365819  0.902595  1
  B  B48  1  0.097099  0.634227  0.634227  1
  B  B49  1  0.596508  0.134552  0.134552  1
  B  B50  1  0.865379  0.403948  0.865379  1
  B  B51  1  0.365819  0.902595  0.365819  1
  B  B52  1  0.634227  0.634227  0.097099  1
  B  B53  1  0.134552  0.134552  0.596508  1
  B  B54  1  0.403948  0.865379  0.865379  1
  B  B55  1  0.902595  0.365819  0.365819  1
  B  B56  1  0.634227  0.097099  0.634227  1
  B  B57  1  0.134552  0.596508  0.134552  1
