# generated using pymatgen
data_Hf(Hg4Cl3)2
_symmetry_space_group_name_H-M   'P 1'
_cell_length_a   7.75008745
_cell_length_b   8.92947302
_cell_length_c   15.22500559
_cell_angle_alpha   96.01369832
_cell_angle_beta   91.20879701
_cell_angle_gamma   100.28976265
_symmetry_Int_Tables_number   1
_chemical_formula_structural   Hf(Hg4Cl3)2
_chemical_formula_sum   'Hf2 Hg16 Cl12'
_cell_volume   1030.13001191
_cell_formula_units_Z   2
loop_
 _symmetry_equiv_pos_site_id
 _symmetry_equiv_pos_as_xyz
  1  'x, y, z'
loop_
 _atom_site_type_symbol
 _atom_site_label
 _atom_site_symmetry_multiplicity
 _atom_site_fract_x
 _atom_site_fract_y
 _atom_site_fract_z
 _atom_site_occupancy
  Hf  Hf0  1  0.000000  0.000000  0.000000  1
  Hf  Hf1  1  0.000000  0.000000  0.500000  1
  Hg  Hg2  1  0.556113  0.309819  0.082467  1
  Hg  Hg3  1  0.316825  0.661928  0.082589  1
  Hg  Hg4  1  0.472000  0.286994  0.256174  1
  Hg  Hg5  1  0.155906  0.596255  0.240232  1
  Hg  Hg6  1  0.645287  0.751901  0.213675  1
  Hg  Hg7  1  0.871395  0.420576  0.328974  1
  Hg  Hg8  1  0.423937  0.689345  0.380283  1
  Hg  Hg9  1  0.501469  0.286383  0.438502  1
  Hg  Hg10  1  0.498532  0.713616  0.561498  1
  Hg  Hg11  1  0.576063  0.310655  0.619717  1
  Hg  Hg12  1  0.128604  0.579424  0.671026  1
  Hg  Hg13  1  0.354712  0.248100  0.786325  1
  Hg  Hg14  1  0.844095  0.403746  0.759768  1
  Hg  Hg15  1  0.527999  0.713005  0.743826  1
  Hg  Hg16  1  0.683175  0.338072  0.917410  1
  Hg  Hg17  1  0.443887  0.690181  0.917532  1
  Cl  Cl18  1  0.107868  0.274036  0.986735  1
  Cl  Cl19  1  0.250461  0.996758  0.103291  1
  Cl  Cl20  1  0.824589  0.071020  0.125614  1
  Cl  Cl21  1  0.124597  0.930206  0.357646  1
  Cl  Cl22  1  0.717126  0.003176  0.422855  1
  Cl  Cl23  1  0.093825  0.274767  0.482616  1
  Cl  Cl24  1  0.906174  0.725234  0.517384  1
  Cl  Cl25  1  0.282873  0.996823  0.577144  1
  Cl  Cl26  1  0.875402  0.069794  0.642354  1
  Cl  Cl27  1  0.175412  0.928980  0.874386  1
  Cl  Cl28  1  0.749540  0.003241  0.896709  1
  Cl  Cl29  1  0.892131  0.725964  0.013265  1
