# generated using pymatgen
data_La16Er4Sn15Bi
_symmetry_space_group_name_H-M   'P 1'
_cell_length_a   8.42574370
_cell_length_b   8.50113060
_cell_length_c   16.25603429
_cell_angle_alpha   89.98541005
_cell_angle_beta   90.12777758
_cell_angle_gamma   89.91179828
_symmetry_Int_Tables_number   1
_chemical_formula_structural   La16Er4Sn15Bi
_chemical_formula_sum   'La16 Er4 Sn15 Bi1'
_cell_volume   1164.38856026
_cell_formula_units_Z   1
loop_
 _symmetry_equiv_pos_site_id
 _symmetry_equiv_pos_as_xyz
  1  'x, y, z'
loop_
 _atom_site_type_symbol
 _atom_site_label
 _atom_site_symmetry_multiplicity
 _atom_site_fract_x
 _atom_site_fract_y
 _atom_site_fract_z
 _atom_site_occupancy
  La  La0  1  0.972023  0.819436  0.899518  1
  La  La1  1  0.467892  0.682643  0.601187  1
  La  La2  1  0.528138  0.319143  0.100428  1
  La  La3  1  0.029400  0.179557  0.398755  1
  La  La4  1  0.972647  0.821677  0.600870  1
  La  La5  1  0.471747  0.680769  0.899585  1
  La  La6  1  0.525962  0.317810  0.398145  1
  La  La7  1  0.027907  0.181157  0.100270  1
  La  La8  1  0.880708  0.662189  0.381076  1
  La  La9  1  0.379118  0.840412  0.117751  1
  La  La10  1  0.619206  0.156601  0.618492  1
  La  La11  1  0.121071  0.340568  0.882146  1
  La  La12  1  0.124506  0.339040  0.617980  1
  La  La13  1  0.621166  0.159678  0.882072  1
  La  La14  1  0.379156  0.840043  0.382100  1
  La  La15  1  0.879171  0.659345  0.117822  1
  Er  Er16  1  0.286647  0.002620  0.750665  1
  Er  Er17  1  0.786996  0.497284  0.753563  1
  Er  Er18  1  0.212852  0.503150  0.249537  1
  Er  Er19  1  0.712806  0.997351  0.249371  1
  Sn  Sn20  1  0.281118  0.029810  0.953227  1
  Sn  Sn21  1  0.719508  0.971214  0.453501  1
  Sn  Sn22  1  0.219107  0.529848  0.046490  1
  Sn  Sn23  1  0.220362  0.529063  0.453274  1
  Sn  Sn24  1  0.718925  0.970311  0.046585  1
  Sn  Sn25  1  0.280882  0.028924  0.546921  1
  Sn  Sn26  1  0.781092  0.470206  0.953248  1
  Sn  Sn27  1  0.167394  0.645549  0.749831  1
  Sn  Sn28  1  0.667450  0.853595  0.749786  1
  Sn  Sn29  1  0.332006  0.145156  0.249878  1
  Sn  Sn30  1  0.831782  0.354944  0.250060  1
  Sn  Sn31  1  0.924811  0.118588  0.749566  1
  Sn  Sn32  1  0.424528  0.381904  0.749563  1
  Sn  Sn33  1  0.576279  0.617810  0.250176  1
  Sn  Sn34  1  0.075665  0.882095  0.249768  1
  Bi  Bi35  1  0.779971  0.470511  0.546793  1
