# generated using pymatgen
data_GdI28
_symmetry_space_group_name_H-M   'P 1'
_cell_length_a   10.67681737
_cell_length_b   14.33344904
_cell_length_c   12.98270300
_cell_angle_alpha   108.44914254
_cell_angle_beta   105.43469067
_cell_angle_gamma   86.57346759
_symmetry_Int_Tables_number   1
_chemical_formula_structural   GdI28
_chemical_formula_sum   'Gd1 I28'
_cell_volume   1816.08072199
_cell_formula_units_Z   1
loop_
 _symmetry_equiv_pos_site_id
 _symmetry_equiv_pos_as_xyz
  1  'x, y, z'
loop_
 _atom_site_type_symbol
 _atom_site_label
 _atom_site_symmetry_multiplicity
 _atom_site_fract_x
 _atom_site_fract_y
 _atom_site_fract_z
 _atom_site_occupancy
  Gd  Gd0  1  0.500000  0.000000  0.000000  1
  I  I1  1  0.095148  0.100618  0.402641  1
  I  I2  1  0.567790  0.141033  0.443667  1
  I  I3  1  0.285490  0.274598  0.848055  1
  I  I4  1  0.784809  0.287138  0.873411  1
  I  I5  1  0.193866  0.507468  0.648675  1
  I  I6  1  0.765526  0.578308  0.736789  1
  I  I7  1  0.432210  0.858967  0.556333  1
  I  I8  1  0.904852  0.899382  0.597359  1
  I  I9  1  0.215191  0.712862  0.126589  1
  I  I10  1  0.714510  0.725402  0.151945  1
  I  I11  1  0.234474  0.421692  0.263211  1
  I  I12  1  0.806134  0.492532  0.351325  1
  I  I13  1  0.848582  0.087491  0.744721  1
  I  I14  1  0.314636  0.958786  0.778295  1
  I  I15  1  0.991168  0.644250  0.937236  1
  I  I16  1  0.506395  0.782593  0.967390  1
  I  I17  1  0.706393  0.351150  0.416884  1
  I  I18  1  0.175513  0.260630  0.336179  1
  I  I19  1  0.685364  0.041214  0.221705  1
  I  I20  1  0.151418  0.912509  0.255279  1
  I  I21  1  0.493605  0.217407  0.032610  1
  I  I22  1  0.008832  0.355750  0.062764  1
  I  I23  1  0.824487  0.739370  0.663821  1
  I  I24  1  0.293607  0.648850  0.583116  1
  I  I25  1  0.076637  0.332164  0.694724  1
  I  I26  1  0.471379  0.215749  0.630441  1
  I  I27  1  0.528621  0.784251  0.369559  1
  I  I28  1  0.923363  0.667836  0.305276  1
