# generated using pymatgen
data_Tb6Ti7Al9Ir8
_symmetry_space_group_name_H-M   'P 1'
_cell_length_a   9.08998778
_cell_length_b   9.08998798
_cell_length_c   9.08998859
_cell_angle_alpha   60.07432316
_cell_angle_beta   60.07433431
_cell_angle_gamma   60.07433423
_symmetry_Int_Tables_number   1
_chemical_formula_structural   Tb6Ti7Al9Ir8
_chemical_formula_sum   'Tb6 Ti7 Al9 Ir8'
_cell_volume   531.99296353
_cell_formula_units_Z   1
loop_
 _symmetry_equiv_pos_site_id
 _symmetry_equiv_pos_as_xyz
  1  'x, y, z'
loop_
 _atom_site_type_symbol
 _atom_site_label
 _atom_site_symmetry_multiplicity
 _atom_site_fract_x
 _atom_site_fract_y
 _atom_site_fract_z
 _atom_site_occupancy
  Tb  Tb0  1  0.212224  0.212224  0.789055  1
  Tb  Tb1  1  0.789055  0.212224  0.212224  1
  Tb  Tb2  1  0.212224  0.789055  0.212224  1
  Tb  Tb3  1  0.793393  0.793393  0.198269  1
  Tb  Tb4  1  0.198269  0.793393  0.793393  1
  Tb  Tb5  1  0.793393  0.198269  0.793393  1
  Ti  Ti6  1  0.379289  0.379289  0.379289  1
  Ti  Ti7  1  0.381156  0.861630  0.381156  1
  Ti  Ti8  1  0.861630  0.381156  0.381156  1
  Ti  Ti9  1  0.381156  0.381156  0.861630  1
  Ti  Ti10  1  0.830948  0.506546  0.830948  1
  Ti  Ti11  1  0.506546  0.830948  0.830948  1
  Ti  Ti12  1  0.830948  0.830948  0.506546  1
  Al  Al13  1  0.171492  0.171492  0.171492  1
  Al  Al14  1  0.171517  0.486930  0.171517  1
  Al  Al15  1  0.486930  0.171517  0.171517  1
  Al  Al16  1  0.171517  0.171517  0.486930  1
  Al  Al17  1  0.618329  0.618329  0.618329  1
  Al  Al18  1  0.618088  0.144720  0.618088  1
  Al  Al19  1  0.144720  0.618088  0.618088  1
  Al  Al20  1  0.618088  0.618088  0.144720  1
  Al  Al21  1  0.824388  0.824388  0.824388  1
  Ir  Ir22  1  0.000480  0.000480  0.496591  1
  Ir  Ir23  1  0.496591  0.000480  0.000480  1
  Ir  Ir24  1  0.000480  0.496591  0.000480  1
  Ir  Ir25  1  0.502657  0.502657  0.997985  1
  Ir  Ir26  1  0.997985  0.502657  0.502657  1
  Ir  Ir27  1  0.502657  0.997985  0.502657  1
  Ir  Ir28  1  0.500461  0.500461  0.500461  1
  Ir  Ir29  1  0.003384  0.003384  0.003384  1
