# generated using pymatgen
data_Hf4Ga2Pd3Rh7
_symmetry_space_group_name_H-M   'P 1'
_cell_length_a   4.15405200
_cell_length_b   5.52363863
_cell_length_c   10.93464441
_cell_angle_alpha   89.39965526
_cell_angle_beta   90.00000000
_cell_angle_gamma   90.00000000
_symmetry_Int_Tables_number   1
_chemical_formula_structural   Hf4Ga2Pd3Rh7
_chemical_formula_sum   'Hf4 Ga2 Pd3 Rh7'
_cell_volume   250.88691461
_cell_formula_units_Z   1
loop_
 _symmetry_equiv_pos_site_id
 _symmetry_equiv_pos_as_xyz
  1  'x, y, z'
loop_
 _atom_site_type_symbol
 _atom_site_label
 _atom_site_symmetry_multiplicity
 _atom_site_fract_x
 _atom_site_fract_y
 _atom_site_fract_z
 _atom_site_occupancy
  Hf  Hf0  1  0.500000  0.174791  0.638038  1
  Hf  Hf1  1  0.500000  0.816884  0.366850  1
  Hf  Hf2  1  0.500000  0.692149  0.863225  1
  Hf  Hf3  1  0.500000  0.317908  0.132371  1
  Ga  Ga4  1  0.000000  0.497411  0.500845  1
  Ga  Ga5  1  0.000000  0.999938  0.997007  1
  Pd  Pd6  1  0.000000  0.434180  0.745352  1
  Pd  Pd7  1  0.000000  0.566877  0.254685  1
  Pd  Pd8  1  0.000000  0.066960  0.244741  1
  Rh  Rh9  1  0.500000  0.196887  0.889856  1
  Rh  Rh10  1  0.500000  0.808663  0.111882  1
  Rh  Rh11  1  0.500000  0.688889  0.609870  1
  Rh  Rh12  1  0.500000  0.307350  0.388924  1
  Rh  Rh13  1  0.000000  0.997321  0.500211  1
  Rh  Rh14  1  0.000000  0.500760  0.000486  1
  Rh  Rh15  1  0.000000  0.933031  0.755656  1
