# generated using pymatgen
data_Ce3Co8P6Ru
_symmetry_space_group_name_H-M   'P 1'
_cell_length_a   3.76836200
_cell_length_b   10.56044600
_cell_length_c   12.38220500
_cell_angle_alpha   90.00000000
_cell_angle_beta   90.00000000
_cell_angle_gamma   90.00000000
_symmetry_Int_Tables_number   1
_chemical_formula_structural   Ce3Co8P6Ru
_chemical_formula_sum   'Ce6 Co16 P12 Ru2'
_cell_volume   492.75707187
_cell_formula_units_Z   2
loop_
 _symmetry_equiv_pos_site_id
 _symmetry_equiv_pos_as_xyz
  1  'x, y, z'
loop_
 _atom_site_type_symbol
 _atom_site_label
 _atom_site_symmetry_multiplicity
 _atom_site_fract_x
 _atom_site_fract_y
 _atom_site_fract_z
 _atom_site_occupancy
  Ce  Ce0  1  0.000000  0.500000  0.525293  1
  Ce  Ce1  1  0.500000  0.000000  0.474707  1
  Ce  Ce2  1  0.500000  0.817896  0.208205  1
  Ce  Ce3  1  0.500000  0.182104  0.208205  1
  Ce  Ce4  1  0.000000  0.682104  0.791795  1
  Ce  Ce5  1  0.000000  0.317896  0.791795  1
  Co  Co6  1  0.500000  0.500000  0.704048  1
  Co  Co7  1  0.000000  0.000000  0.295952  1
  Co  Co8  1  0.000000  0.500000  0.985466  1
  Co  Co9  1  0.500000  0.000000  0.014534  1
  Co  Co10  1  0.500000  0.332691  0.992366  1
  Co  Co11  1  0.500000  0.667309  0.992366  1
  Co  Co12  1  0.000000  0.167309  0.007634  1
  Co  Co13  1  0.000000  0.832691  0.007634  1
  Co  Co14  1  0.500000  0.301793  0.428292  1
  Co  Co15  1  0.500000  0.698207  0.428292  1
  Co  Co16  1  0.000000  0.198207  0.571708  1
  Co  Co17  1  0.000000  0.801793  0.571708  1
  Co  Co18  1  0.500000  0.880273  0.712292  1
  Co  Co19  1  0.500000  0.119727  0.712292  1
  Co  Co20  1  0.000000  0.619727  0.287708  1
  Co  Co21  1  0.000000  0.380273  0.287708  1
  P  P22  1  0.500000  0.500000  0.885831  1
  P  P23  1  0.000000  0.000000  0.114169  1
  P  P24  1  0.500000  0.500000  0.346109  1
  P  P25  1  0.000000  0.000000  0.653891  1
  P  P26  1  0.500000  0.306041  0.612483  1
  P  P27  1  0.500000  0.693959  0.612483  1
  P  P28  1  0.000000  0.193959  0.387517  1
  P  P29  1  0.000000  0.806041  0.387517  1
  P  P30  1  0.500000  0.847178  0.895713  1
  P  P31  1  0.500000  0.152822  0.895713  1
  P  P32  1  0.000000  0.652822  0.104287  1
  P  P33  1  0.000000  0.347178  0.104287  1
  Ru  Ru34  1  0.500000  0.500000  0.157741  1
  Ru  Ru35  1  0.000000  0.000000  0.842259  1
