# generated using pymatgen
data_Sm4Ga10Pt5Rh
_symmetry_space_group_name_H-M   'P 1'
_cell_length_a   8.67595365
_cell_length_b   8.67595391
_cell_length_c   5.79301298
_cell_angle_alpha   70.60029835
_cell_angle_beta   70.60029673
_cell_angle_gamma   94.55875505
_symmetry_Int_Tables_number   1
_chemical_formula_structural   Sm4Ga10Pt5Rh
_chemical_formula_sum   'Sm4 Ga10 Pt5 Rh1'
_cell_volume   379.01211061
_cell_formula_units_Z   1
loop_
 _symmetry_equiv_pos_site_id
 _symmetry_equiv_pos_as_xyz
  1  'x, y, z'
loop_
 _atom_site_type_symbol
 _atom_site_label
 _atom_site_symmetry_multiplicity
 _atom_site_fract_x
 _atom_site_fract_y
 _atom_site_fract_z
 _atom_site_occupancy
  Sm  Sm0  1  0.864519  0.585934  0.775103  1
  Sm  Sm1  1  0.414066  0.135481  0.724897  1
  Sm  Sm2  1  0.135621  0.414082  0.226326  1
  Sm  Sm3  1  0.585918  0.864379  0.273674  1
  Ga  Ga4  1  0.073592  0.260592  0.837961  1
  Ga  Ga5  1  0.739408  0.926408  0.662039  1
  Ga  Ga6  1  0.926278  0.739447  0.171886  1
  Ga  Ga7  1  0.260553  0.073722  0.328114  1
  Ga  Ga8  1  0.207984  0.792016  0.750000  1
  Ga  Ga9  1  0.793830  0.206170  0.250000  1
  Ga  Ga10  1  0.500746  0.499254  0.750000  1
  Ga  Ga11  1  0.499368  0.500632  0.250000  1
  Ga  Ga12  1  0.791073  0.208927  0.750000  1
  Ga  Ga13  1  0.207001  0.792999  0.250000  1
  Pt  Pt14  1  0.255533  0.547661  0.598742  1
  Pt  Pt15  1  0.452339  0.744467  0.901258  1
  Pt  Pt16  1  0.744637  0.452375  0.397506  1
  Pt  Pt17  1  0.547625  0.255363  0.102494  1
  Pt  Pt18  1  0.000072  0.999928  0.750000  1
  Rh  Rh19  1  0.999837  0.000163  0.250000  1
