# generated using pymatgen
data_YbFe2Sb12OsRu
_symmetry_space_group_name_H-M   'P 1'
_cell_length_a   8.07013578
_cell_length_b   8.02448790
_cell_length_c   8.06937992
_cell_angle_alpha   109.32262747
_cell_angle_beta   109.58959601
_cell_angle_gamma   109.50977076
_symmetry_Int_Tables_number   1
_chemical_formula_structural   YbFe2Sb12OsRu
_chemical_formula_sum   'Yb1 Fe2 Sb12 Os1 Ru1'
_cell_volume   402.22578753
_cell_formula_units_Z   1
loop_
 _symmetry_equiv_pos_site_id
 _symmetry_equiv_pos_as_xyz
  1  'x, y, z'
loop_
 _atom_site_type_symbol
 _atom_site_label
 _atom_site_symmetry_multiplicity
 _atom_site_fract_x
 _atom_site_fract_y
 _atom_site_fract_z
 _atom_site_occupancy
  Yb  Yb0  1  0.000000  0.000000  0.000000  1
  Fe  Fe1  1  0.500000  0.000000  0.000000  1
  Fe  Fe2  1  0.000000  0.000000  0.500000  1
  Sb  Sb3  1  0.845318  0.668908  0.505772  1
  Sb  Sb4  1  0.154682  0.331092  0.494228  1
  Sb  Sb5  1  0.164188  0.668597  0.821620  1
  Sb  Sb6  1  0.835812  0.331403  0.178380  1
  Sb  Sb7  1  0.658955  0.503240  0.842714  1
  Sb  Sb8  1  0.341045  0.496760  0.157286  1
  Sb  Sb9  1  0.666579  0.826784  0.161132  1
  Sb  Sb10  1  0.333421  0.173216  0.838868  1
  Sb  Sb11  1  0.503550  0.845762  0.667125  1
  Sb  Sb12  1  0.496450  0.154238  0.332875  1
  Sb  Sb13  1  0.177026  0.845943  0.341514  1
  Sb  Sb14  1  0.822974  0.154057  0.658486  1
  Os  Os15  1  0.000000  0.500000  0.000000  1
  Ru  Ru16  1  0.500000  0.500000  0.500000  1
