# generated using pymatgen
data_DyTm3(Fe5P3)4
_symmetry_space_group_name_H-M   'P 1'
_cell_length_a   3.63919600
_cell_length_b   10.25659947
_cell_length_c   11.77673253
_cell_angle_alpha   90.03452867
_cell_angle_beta   90.00000000
_cell_angle_gamma   90.00000000
_symmetry_Int_Tables_number   1
_chemical_formula_structural   DyTm3(Fe5P3)4
_chemical_formula_sum   'Dy1 Tm3 Fe20 P12'
_cell_volume   439.57559782
_cell_formula_units_Z   1
loop_
 _symmetry_equiv_pos_site_id
 _symmetry_equiv_pos_as_xyz
  1  'x, y, z'
loop_
 _atom_site_type_symbol
 _atom_site_label
 _atom_site_symmetry_multiplicity
 _atom_site_fract_x
 _atom_site_fract_y
 _atom_site_fract_z
 _atom_site_occupancy
  Dy  Dy0  1  0.250000  0.580679  0.704657  1
  Tm  Tm1  1  0.250000  0.919787  0.204559  1
  Tm  Tm2  1  0.750000  0.419264  0.295591  1
  Tm  Tm3  1  0.750000  0.080332  0.795511  1
  Fe  Fe4  1  0.250000  0.708407  0.988829  1
  Fe  Fe5  1  0.250000  0.791817  0.488653  1
  Fe  Fe6  1  0.750000  0.291372  0.011498  1
  Fe  Fe7  1  0.750000  0.208005  0.510616  1
  Fe  Fe8  1  0.250000  0.405174  0.489381  1
  Fe  Fe9  1  0.250000  0.094302  0.989963  1
  Fe  Fe10  1  0.750000  0.594396  0.509161  1
  Fe  Fe11  1  0.750000  0.905674  0.010176  1
  Fe  Fe12  1  0.250000  0.219152  0.176721  1
  Fe  Fe13  1  0.250000  0.280204  0.676574  1
  Fe  Fe14  1  0.750000  0.781346  0.823485  1
  Fe  Fe15  1  0.750000  0.719541  0.323187  1
  Fe  Fe16  1  0.250000  0.876772  0.701436  1
  Fe  Fe17  1  0.250000  0.624432  0.201732  1
  Fe  Fe18  1  0.750000  0.124045  0.298417  1
  Fe  Fe19  1  0.750000  0.374951  0.799086  1
  Fe  Fe20  1  0.250000  0.462641  0.933157  1
  Fe  Fe21  1  0.250000  0.036952  0.431864  1
  Fe  Fe22  1  0.750000  0.536788  0.068658  1
  Fe  Fe23  1  0.750000  0.963962  0.567213  1
  P  P24  1  0.250000  0.421472  0.113716  1
  P  P25  1  0.250000  0.078285  0.612999  1
  P  P26  1  0.750000  0.578384  0.888152  1
  P  P27  1  0.750000  0.921884  0.386543  1
  P  P28  1  0.250000  0.264748  0.871684  1
  P  P29  1  0.250000  0.234763  0.371266  1
  P  P30  1  0.750000  0.735368  0.128386  1
  P  P31  1  0.750000  0.766259  0.627846  1
  P  P32  1  0.250000  0.600066  0.395949  1
  P  P33  1  0.250000  0.899937  0.895875  1
  P  P34  1  0.750000  0.398680  0.603372  1
  P  P35  1  0.750000  0.100160  0.104087  1
