# generated using pymatgen
data_Nb8Co8Si13Ge
_symmetry_space_group_name_H-M   'P 1'
_cell_length_a   9.24846524
_cell_length_b   9.24846533
_cell_length_c   9.24286242
_cell_angle_alpha   94.21213259
_cell_angle_beta   94.21214119
_cell_angle_gamma   148.56035907
_symmetry_Int_Tables_number   1
_chemical_formula_structural   Nb8Co8Si13Ge
_chemical_formula_sum   'Nb8 Co8 Si13 Ge1'
_cell_volume   396.92419412
_cell_formula_units_Z   1
loop_
 _symmetry_equiv_pos_site_id
 _symmetry_equiv_pos_as_xyz
  1  'x, y, z'
loop_
 _atom_site_type_symbol
 _atom_site_label
 _atom_site_symmetry_multiplicity
 _atom_site_fract_x
 _atom_site_fract_y
 _atom_site_fract_z
 _atom_site_occupancy
  Nb  Nb0  1  0.308973  0.503021  0.811994  1
  Nb  Nb1  1  0.690949  0.499293  0.190242  1
  Nb  Nb2  1  0.499293  0.690949  0.190242  1
  Nb  Nb3  1  0.503021  0.308973  0.811994  1
  Nb  Nb4  1  0.132830  0.132830  0.265659  1
  Nb  Nb5  1  0.867228  0.867228  0.734456  1
  Nb  Nb6  1  0.133906  0.866241  0.000147  1
  Nb  Nb7  1  0.866241  0.133906  0.000147  1
  Co  Co8  1  0.398960  0.898960  0.797920  1
  Co  Co9  1  0.101242  0.601242  0.202487  1
  Co  Co10  1  0.894222  0.099129  0.498032  1
  Co  Co11  1  0.603809  0.398903  0.498032  1
  Co  Co12  1  0.601242  0.101242  0.202487  1
  Co  Co13  1  0.898960  0.398960  0.797920  1
  Co  Co14  1  0.099129  0.894222  0.498032  1
  Co  Co15  1  0.398903  0.603809  0.498032  1
  Si  Si16  1  0.707303  0.707303  0.414608  1
  Si  Si17  1  0.291325  0.709392  0.000718  1
  Si  Si18  1  0.709392  0.291325  0.000718  1
  Si  Si19  1  0.093639  0.500051  0.593689  1
  Si  Si20  1  0.906615  0.499635  0.406250  1
  Si  Si21  1  0.499635  0.906615  0.406250  1
  Si  Si22  1  0.500051  0.093639  0.593689  1
  Si  Si23  1  0.249598  0.249598  0.999952  1
  Si  Si24  1  0.750354  0.750354  0.999952  1
  Si  Si25  1  0.296705  0.999822  0.296527  1
  Si  Si26  1  0.703036  0.999953  0.702989  1
  Si  Si27  1  0.999953  0.703036  0.702989  1
  Si  Si28  1  0.999822  0.296705  0.296527  1
  Ge  Ge29  1  0.293662  0.293662  0.587323  1
