# generated using pymatgen
data_NdSmLu4(RuO7)2
_symmetry_space_group_name_H-M   'P 1'
_cell_length_a   6.34230069
_cell_length_b   6.34230013
_cell_length_c   7.41521733
_cell_angle_alpha   90.01954214
_cell_angle_beta   90.01954302
_cell_angle_gamma   109.73621113
_symmetry_Int_Tables_number   1
_chemical_formula_structural   NdSmLu4(RuO7)2
_chemical_formula_sum   'Nd1 Sm1 Lu4 Ru2 O14'
_cell_volume   280.75389395
_cell_formula_units_Z   1
loop_
 _symmetry_equiv_pos_site_id
 _symmetry_equiv_pos_as_xyz
  1  'x, y, z'
loop_
 _atom_site_type_symbol
 _atom_site_label
 _atom_site_symmetry_multiplicity
 _atom_site_fract_x
 _atom_site_fract_y
 _atom_site_fract_z
 _atom_site_occupancy
  Nd  Nd0  1  0.000000  0.000000  0.500000  1
  Sm  Sm1  1  0.000000  0.000000  0.000000  1
  Lu  Lu2  1  0.485023  0.937519  0.750373  1
  Lu  Lu3  1  0.514977  0.062481  0.249627  1
  Lu  Lu4  1  0.937519  0.485023  0.750373  1
  Lu  Lu5  1  0.062481  0.514977  0.249627  1
  Ru  Ru6  1  0.500000  0.500000  0.500000  1
  Ru  Ru7  1  0.500000  0.500000  0.000000  1
  O  O8  1  0.594666  0.594666  0.749907  1
  O  O9  1  0.405334  0.405334  0.250093  1
  O  O10  1  0.836066  0.121873  0.752192  1
  O  O11  1  0.163934  0.878127  0.247808  1
  O  O12  1  0.121873  0.836066  0.752192  1
  O  O13  1  0.878127  0.163934  0.247808  1
  O  O14  1  0.438714  0.177093  0.963206  1
  O  O15  1  0.560039  0.822666  0.463088  1
  O  O16  1  0.177093  0.438714  0.963206  1
  O  O17  1  0.822666  0.560039  0.463088  1
  O  O18  1  0.439961  0.177334  0.536912  1
  O  O19  1  0.561286  0.822907  0.036794  1
  O  O20  1  0.822907  0.561286  0.036794  1
  O  O21  1  0.177334  0.439961  0.536912  1
