# generated using pymatgen
data_Sr6CePrBi6
_symmetry_space_group_name_H-M   'P 1'
_cell_length_a   8.75871366
_cell_length_b   8.83831941
_cell_length_c   8.70403036
_cell_angle_alpha   109.53702801
_cell_angle_beta   108.89662166
_cell_angle_gamma   109.67197078
_symmetry_Int_Tables_number   1
_chemical_formula_structural   Sr6CePrBi6
_chemical_formula_sum   'Sr6 Ce1 Pr1 Bi6'
_cell_volume   520.63292110
_cell_formula_units_Z   1
loop_
 _symmetry_equiv_pos_site_id
 _symmetry_equiv_pos_as_xyz
  1  'x, y, z'
loop_
 _atom_site_type_symbol
 _atom_site_label
 _atom_site_symmetry_multiplicity
 _atom_site_fract_x
 _atom_site_fract_y
 _atom_site_fract_z
 _atom_site_occupancy
  Sr  Sr0  1  0.360630  0.357489  0.359591  1
  Sr  Sr1  1  0.000324  0.139863  0.498363  1
  Sr  Sr2  1  0.860185  0.857361  0.860659  1
  Sr  Sr3  1  0.998213  0.639432  0.500188  1
  Sr  Sr4  1  0.502905  0.002743  0.138818  1
  Sr  Sr5  1  0.638409  0.502743  0.002580  1
  Ce  Ce6  1  0.501258  0.000906  0.639026  1
  Pr  Pr7  1  0.137429  0.501033  0.001181  1
  Bi  Bi8  1  0.875281  0.250892  0.112403  1
  Bi  Bi9  1  0.134330  0.869759  0.253962  1
  Bi  Bi10  1  0.372289  0.628460  0.751363  1
  Bi  Bi11  1  0.251862  0.128498  0.872604  1
  Bi  Bi12  1  0.754143  0.369488  0.633689  1
  Bi  Bi13  1  0.612740  0.751332  0.375571  1
