# generated using pymatgen
data_Ba4SrPu2O12
_symmetry_space_group_name_H-M   'P 1'
_cell_length_a   10.57120836
_cell_length_b   10.57120898
_cell_length_c   10.57121000
_cell_angle_alpha   33.58362564
_cell_angle_beta   33.58362052
_cell_angle_gamma   33.58362952
_symmetry_Int_Tables_number   1
_chemical_formula_structural   Ba4SrPu2O12
_chemical_formula_sum   'Ba4 Sr1 Pu2 O12'
_cell_volume   321.97861418
_cell_formula_units_Z   1
loop_
 _symmetry_equiv_pos_site_id
 _symmetry_equiv_pos_as_xyz
  1  'x, y, z'
loop_
 _atom_site_type_symbol
 _atom_site_label
 _atom_site_symmetry_multiplicity
 _atom_site_fract_x
 _atom_site_fract_y
 _atom_site_fract_z
 _atom_site_occupancy
  Ba  Ba0  1  0.719115  0.719115  0.719115  1
  Ba  Ba1  1  0.280885  0.280885  0.280885  1
  Ba  Ba2  1  0.862284  0.862284  0.862284  1
  Ba  Ba3  1  0.137716  0.137716  0.137716  1
  Sr  Sr4  1  0.000000  0.000000  0.000000  1
  Pu  Pu5  1  0.578365  0.578365  0.578365  1
  Pu  Pu6  1  0.421635  0.421635  0.421635  1
  O  O7  1  0.227992  0.689783  0.227992  1
  O  O8  1  0.227992  0.227992  0.689783  1
  O  O9  1  0.689783  0.227992  0.227992  1
  O  O10  1  0.772008  0.310217  0.772008  1
  O  O11  1  0.772008  0.772008  0.310217  1
  O  O12  1  0.310217  0.772008  0.772008  1
  O  O13  1  0.380473  0.870183  0.380473  1
  O  O14  1  0.380473  0.380473  0.870183  1
  O  O15  1  0.870183  0.380473  0.380473  1
  O  O16  1  0.619527  0.129817  0.619527  1
  O  O17  1  0.619527  0.619527  0.129817  1
  O  O18  1  0.129817  0.619527  0.619527  1
