# generated using pymatgen
data_YbSmAg2Ru3RhO14
_symmetry_space_group_name_H-M   'P 1'
_cell_length_a   7.15266976
_cell_length_b   7.22810855
_cell_length_c   7.24708900
_cell_angle_alpha   61.13789955
_cell_angle_beta   60.41946508
_cell_angle_gamma   60.31879829
_symmetry_Int_Tables_number   1
_chemical_formula_structural   YbSmAg2Ru3RhO14
_chemical_formula_sum   'Yb1 Sm1 Ag2 Ru3 Rh1 O14'
_cell_volume   268.64552073
_cell_formula_units_Z   1
loop_
 _symmetry_equiv_pos_site_id
 _symmetry_equiv_pos_as_xyz
  1  'x, y, z'
loop_
 _atom_site_type_symbol
 _atom_site_label
 _atom_site_symmetry_multiplicity
 _atom_site_fract_x
 _atom_site_fract_y
 _atom_site_fract_z
 _atom_site_occupancy
  Yb  Yb0  1  0.625000  0.625000  0.125000  1
  Sm  Sm1  1  0.625000  0.125000  0.625000  1
  Ag  Ag2  1  0.625000  0.625000  0.625000  1
  Ag  Ag3  1  0.125000  0.625000  0.625000  1
  Ru  Ru4  1  0.125000  0.125000  0.125000  1
  Ru  Ru5  1  0.125000  0.125000  0.625000  1
  Ru  Ru6  1  0.125000  0.625000  0.125000  1
  Rh  Rh7  1  0.625000  0.125000  0.125000  1
  O  O8  1  0.486683  0.513832  0.512325  1
  O  O9  1  0.763317  0.736168  0.737675  1
  O  O10  1  0.053681  0.053868  0.444699  1
  O  O11  1  0.803007  0.798033  0.196302  1
  O  O12  1  0.449264  0.053930  0.452532  1
  O  O13  1  0.457275  0.039659  0.039800  1
  O  O14  1  0.065298  0.435772  0.437294  1
  O  O15  1  0.059218  0.441182  0.054614  1
  O  O16  1  0.446993  0.451967  0.053698  1
  O  O17  1  0.184702  0.814228  0.812706  1
  O  O18  1  0.792725  0.210341  0.210200  1
  O  O19  1  0.196319  0.196132  0.805301  1
  O  O20  1  0.190782  0.808818  0.195386  1
  O  O21  1  0.800736  0.196070  0.797468  1
