# generated using pymatgen
data_NdAl3Au
_symmetry_space_group_name_H-M   'P 1'
_cell_length_a   6.28353104
_cell_length_b   6.28353135
_cell_length_c   6.28353104
_cell_angle_alpha   139.82892115
_cell_angle_beta   139.82892191
_cell_angle_gamma   58.11314633
_symmetry_Int_Tables_number   1
_chemical_formula_structural   NdAl3Au
_chemical_formula_sum   'Nd1 Al3 Au1'
_cell_volume   102.30821482
_cell_formula_units_Z   1
loop_
 _symmetry_equiv_pos_site_id
 _symmetry_equiv_pos_as_xyz
  1  'x, y, z'
loop_
 _atom_site_type_symbol
 _atom_site_label
 _atom_site_symmetry_multiplicity
 _atom_site_fract_x
 _atom_site_fract_y
 _atom_site_fract_z
 _atom_site_occupancy
  Nd  Nd0  1  0.191486  0.191486  0.000000  1
  Al  Al1  1  0.599175  0.599175  0.000000  1
  Al  Al2  1  0.951361  0.451361  0.500000  1
  Al  Al3  1  0.451361  0.951361  0.500000  1
  Au  Au4  1  0.825936  0.825936  0.000000  1
