# generated using pymatgen
data_SrH4S2O
_symmetry_space_group_name_H-M   'P 1'
_cell_length_a   4.29321700
_cell_length_b   7.17563100
_cell_length_c   7.84022800
_cell_angle_alpha   90.00000000
_cell_angle_beta   90.00000000
_cell_angle_gamma   90.00000000
_symmetry_Int_Tables_number   1
_chemical_formula_structural   SrH4S2O
_chemical_formula_sum   'Sr2 H8 S4 O2'
_cell_volume   241.53030529
_cell_formula_units_Z   2
loop_
 _symmetry_equiv_pos_site_id
 _symmetry_equiv_pos_as_xyz
  1  'x, y, z'
loop_
 _atom_site_type_symbol
 _atom_site_label
 _atom_site_symmetry_multiplicity
 _atom_site_fract_x
 _atom_site_fract_y
 _atom_site_fract_z
 _atom_site_occupancy
  Sr  Sr0  1  0.000000  0.629882  0.738566  1
  Sr  Sr1  1  0.000000  0.370118  0.238566  1
  H  H2  1  0.500000  0.267985  0.602313  1
  H  H3  1  0.500000  0.732015  0.102313  1
  H  H4  1  0.500000  0.986449  0.581152  1
  H  H5  1  0.500000  0.013551  0.081152  1
  H  H6  1  0.177868  0.180576  0.845062  1
  H  H7  1  0.822132  0.819424  0.345062  1
  H  H8  1  0.177868  0.819424  0.345062  1
  H  H9  1  0.822132  0.180576  0.845062  1
  S  S10  1  0.500000  0.562769  0.025796  1
  S  S11  1  0.500000  0.943179  0.749004  1
  S  S12  1  0.500000  0.056821  0.249004  1
  S  S13  1  0.500000  0.437231  0.525796  1
  O  O14  1  0.000000  0.259803  0.881844  1
  O  O15  1  0.000000  0.740197  0.381844  1
