# generated using pymatgen
data_Hf18Mo8IrAu
_symmetry_space_group_name_H-M   'P 1'
_cell_length_a   8.77296700
_cell_length_b   8.77295921
_cell_length_c   8.54872200
_cell_angle_alpha   90.00003946
_cell_angle_beta   90.00001323
_cell_angle_gamma   119.99988948
_symmetry_Int_Tables_number   1
_chemical_formula_structural   Hf18Mo8IrAu
_chemical_formula_sum   'Hf18 Mo8 Ir1 Au1'
_cell_volume   569.80324118
_cell_formula_units_Z   1
loop_
 _symmetry_equiv_pos_site_id
 _symmetry_equiv_pos_as_xyz
  1  'x, y, z'
loop_
 _atom_site_type_symbol
 _atom_site_label
 _atom_site_symmetry_multiplicity
 _atom_site_fract_x
 _atom_site_fract_y
 _atom_site_fract_z
 _atom_site_occupancy
  Hf  Hf0  1  0.542433  0.084868  0.250000  1
  Hf  Hf1  1  0.457169  0.914338  0.750000  1
  Hf  Hf2  1  0.915133  0.457567  0.250000  1
  Hf  Hf3  1  0.085664  0.542832  0.750000  1
  Hf  Hf4  1  0.542434  0.457566  0.250000  1
  Hf  Hf5  1  0.457168  0.542831  0.750000  1
  Hf  Hf6  1  0.198192  0.396385  0.053752  1
  Hf  Hf7  1  0.806516  0.613033  0.949901  1
  Hf  Hf8  1  0.603615  0.801807  0.053752  1
  Hf  Hf9  1  0.806516  0.613033  0.550098  1
  Hf  Hf10  1  0.386967  0.193484  0.949902  1
  Hf  Hf11  1  0.198192  0.396385  0.446248  1
  Hf  Hf12  1  0.198192  0.801808  0.053752  1
  Hf  Hf13  1  0.386967  0.193483  0.550098  1
  Hf  Hf14  1  0.806516  0.193483  0.949901  1
  Hf  Hf15  1  0.603615  0.801808  0.446249  1
  Hf  Hf16  1  0.806516  0.193483  0.550099  1
  Hf  Hf17  1  0.198192  0.801808  0.446248  1
  Mo  Mo18  1  0.000000  0.000000  0.001676  1
  Mo  Mo19  1  0.000000  0.000000  0.498324  1
  Mo  Mo20  1  0.888445  0.776890  0.250000  1
  Mo  Mo21  1  0.111328  0.222657  0.750000  1
  Mo  Mo22  1  0.223109  0.111555  0.250000  1
  Mo  Mo23  1  0.777343  0.888672  0.750000  1
  Mo  Mo24  1  0.888445  0.111555  0.250000  1
  Mo  Mo25  1  0.111328  0.888672  0.750000  1
  Ir  Ir26  1  0.333333  0.666666  0.250000  1
  Au  Au27  1  0.666667  0.333334  0.750000  1
