# generated using pymatgen
data_Na5RuO6
_symmetry_space_group_name_H-M   'P 1'
_cell_length_a   5.70203295
_cell_length_b   5.70168435
_cell_length_c   5.65522565
_cell_angle_alpha   79.75555257
_cell_angle_beta   79.77740147
_cell_angle_gamma   119.59401663
_symmetry_Int_Tables_number   1
_chemical_formula_structural   Na5RuO6
_chemical_formula_sum   'Na5 Ru1 O6'
_cell_volume   149.57165933
_cell_formula_units_Z   1
loop_
 _symmetry_equiv_pos_site_id
 _symmetry_equiv_pos_as_xyz
  1  'x, y, z'
loop_
 _atom_site_type_symbol
 _atom_site_label
 _atom_site_symmetry_multiplicity
 _atom_site_fract_x
 _atom_site_fract_y
 _atom_site_fract_z
 _atom_site_occupancy
  Na  Na0  1  0.829052  0.170934  0.500003  1
  Na  Na1  1  0.333309  0.666691  0.999999  1
  Na  Na2  1  0.666691  0.333309  0.000001  1
  Na  Na3  1  0.500000  0.500000  0.500000  1
  Na  Na4  1  0.170948  0.829066  0.499997  1
  Ru  Ru5  1  0.000000  0.000000  0.000000  1
  O  O6  1  0.204415  0.204409  0.204145  1
  O  O7  1  0.929495  0.650044  0.216152  1
  O  O8  1  0.350034  0.070522  0.783801  1
  O  O9  1  0.070505  0.349956  0.783848  1
  O  O10  1  0.649966  0.929478  0.216199  1
  O  O11  1  0.795585  0.795591  0.795855  1
