# generated using pymatgen
data_Cs6KRb2InSb4
_symmetry_space_group_name_H-M   'P 1'
_cell_length_a   11.38098861
_cell_length_b   11.33164027
_cell_length_c   12.03675500
_cell_angle_alpha   90.00000000
_cell_angle_beta   90.00000000
_cell_angle_gamma   119.85665545
_symmetry_Int_Tables_number   1
_chemical_formula_structural   Cs6KRb2InSb4
_chemical_formula_sum   'Cs12 K2 Rb4 In2 Sb8'
_cell_volume   1346.28907093
_cell_formula_units_Z   2
loop_
 _symmetry_equiv_pos_site_id
 _symmetry_equiv_pos_as_xyz
  1  'x, y, z'
loop_
 _atom_site_type_symbol
 _atom_site_label
 _atom_site_symmetry_multiplicity
 _atom_site_fract_x
 _atom_site_fract_y
 _atom_site_fract_z
 _atom_site_occupancy
  Cs  Cs0  1  0.207817  0.416011  0.542650  1
  Cs  Cs1  1  0.792183  0.208195  0.042650  1
  Cs  Cs2  1  0.416475  0.208438  0.043245  1
  Cs  Cs3  1  0.583525  0.791962  0.543245  1
  Cs  Cs4  1  0.208453  0.791574  0.542993  1
  Cs  Cs5  1  0.791547  0.583122  0.457007  1
  Cs  Cs6  1  0.792183  0.208195  0.457350  1
  Cs  Cs7  1  0.791547  0.583122  0.042993  1
  Cs  Cs8  1  0.416475  0.208438  0.456755  1
  Cs  Cs9  1  0.583525  0.791962  0.956755  1
  Cs  Cs10  1  0.207817  0.416011  0.957350  1
  Cs  Cs11  1  0.208453  0.791574  0.957007  1
  K  K12  1  0.120011  0.240107  0.250000  1
  K  K13  1  0.879989  0.120098  0.750000  1
  Rb  Rb14  1  0.238494  0.119536  0.750000  1
  Rb  Rb15  1  0.761506  0.881041  0.250000  1
  Rb  Rb16  1  0.119357  0.881137  0.250000  1
  Rb  Rb17  1  0.880643  0.761782  0.750000  1
  In  In18  1  0.333107  0.666548  0.250000  1
  In  In19  1  0.666893  0.333440  0.750000  1
  Sb  Sb20  1  0.476228  0.518369  0.250000  1
  Sb  Sb21  1  0.957292  0.476118  0.750000  1
  Sb  Sb22  1  0.523772  0.042142  0.750000  1
  Sb  Sb23  1  0.478789  0.957956  0.250000  1
  Sb  Sb24  1  0.042708  0.518825  0.250000  1
  Sb  Sb25  1  0.521211  0.479168  0.750000  1
  Sb  Sb26  1  0.000000  0.002563  0.000000  1
  Sb  Sb27  1  0.000000  0.002563  0.500000  1
