# generated using pymatgen
data_Nd3GaSiRh2
_symmetry_space_group_name_H-M   'P 1'
_cell_length_a   5.73255900
_cell_length_b   8.21557900
_cell_length_c   13.28929800
_cell_angle_alpha   90.00000000
_cell_angle_beta   90.00000000
_cell_angle_gamma   90.00000000
_symmetry_Int_Tables_number   1
_chemical_formula_structural   Nd3GaSiRh2
_chemical_formula_sum   'Nd12 Ga4 Si4 Rh8'
_cell_volume   625.87665027
_cell_formula_units_Z   4
loop_
 _symmetry_equiv_pos_site_id
 _symmetry_equiv_pos_as_xyz
  1  'x, y, z'
loop_
 _atom_site_type_symbol
 _atom_site_label
 _atom_site_symmetry_multiplicity
 _atom_site_fract_x
 _atom_site_fract_y
 _atom_site_fract_z
 _atom_site_occupancy
  Nd  Nd0  1  0.639233  0.251190  0.250000  1
  Nd  Nd1  1  0.360767  0.748810  0.750000  1
  Nd  Nd2  1  0.360767  0.751190  0.250000  1
  Nd  Nd3  1  0.639233  0.248810  0.750000  1
  Nd  Nd4  1  0.145934  0.396108  0.101686  1
  Nd  Nd5  1  0.854066  0.603892  0.898314  1
  Nd  Nd6  1  0.854066  0.603892  0.601686  1
  Nd  Nd7  1  0.854066  0.896108  0.398314  1
  Nd  Nd8  1  0.145934  0.396108  0.398314  1
  Nd  Nd9  1  0.145934  0.103892  0.601686  1
  Nd  Nd10  1  0.145934  0.103892  0.898314  1
  Nd  Nd11  1  0.854066  0.896108  0.101686  1
  Ga  Ga12  1  0.626640  0.250000  0.000000  1
  Ga  Ga13  1  0.373360  0.750000  0.000000  1
  Ga  Ga14  1  0.373360  0.750000  0.500000  1
  Ga  Ga15  1  0.626640  0.250000  0.500000  1
  Si  Si16  1  0.146517  0.106827  0.250000  1
  Si  Si17  1  0.853483  0.893173  0.750000  1
  Si  Si18  1  0.853483  0.606827  0.250000  1
  Si  Si19  1  0.146517  0.393173  0.750000  1
  Rh  Rh20  1  0.362539  0.029241  0.095535  1
  Rh  Rh21  1  0.637461  0.970759  0.904465  1
  Rh  Rh22  1  0.637461  0.970759  0.595535  1
  Rh  Rh23  1  0.637461  0.529241  0.404465  1
  Rh  Rh24  1  0.362539  0.029241  0.404465  1
  Rh  Rh25  1  0.362539  0.470759  0.595535  1
  Rh  Rh26  1  0.362539  0.470759  0.904465  1
  Rh  Rh27  1  0.637461  0.529241  0.095535  1
