# generated using pymatgen
data_CsNa(CoAs)4
_symmetry_space_group_name_H-M   'P 1'
_cell_length_a   3.79613100
_cell_length_b   3.79613100
_cell_length_c   13.81669400
_cell_angle_alpha   90.00000000
_cell_angle_beta   90.00000000
_cell_angle_gamma   90.00000000
_symmetry_Int_Tables_number   1
_chemical_formula_structural   CsNa(CoAs)4
_chemical_formula_sum   'Cs1 Na1 Co4 As4'
_cell_volume   199.10699659
_cell_formula_units_Z   1
loop_
 _symmetry_equiv_pos_site_id
 _symmetry_equiv_pos_as_xyz
  1  'x, y, z'
loop_
 _atom_site_type_symbol
 _atom_site_label
 _atom_site_symmetry_multiplicity
 _atom_site_fract_x
 _atom_site_fract_y
 _atom_site_fract_z
 _atom_site_occupancy
  Cs  Cs0  1  0.500000  0.500000  0.500000  1
  Na  Na1  1  0.000000  0.000000  0.000000  1
  Co  Co2  1  0.500000  0.000000  0.774549  1
  Co  Co3  1  0.000000  0.500000  0.774549  1
  Co  Co4  1  0.500000  0.000000  0.225451  1
  Co  Co5  1  0.000000  0.500000  0.225451  1
  As  As6  1  0.000000  0.000000  0.678642  1
  As  As7  1  0.000000  0.000000  0.321358  1
  As  As8  1  0.500000  0.500000  0.870599  1
  As  As9  1  0.500000  0.500000  0.129401  1
