# generated using pymatgen
data_CaDyGaO4
_symmetry_space_group_name_H-M   'P 1'
_cell_length_a   11.41395300
_cell_length_b   5.32918100
_cell_length_c   6.59145300
_cell_angle_alpha   90.00004301
_cell_angle_beta   89.99997992
_cell_angle_gamma   89.99984948
_symmetry_Int_Tables_number   1
_chemical_formula_structural   CaDyGaO4
_chemical_formula_sum   'Ca4 Dy4 Ga4 O16'
_cell_volume   400.93845310
_cell_formula_units_Z   4
loop_
 _symmetry_equiv_pos_site_id
 _symmetry_equiv_pos_as_xyz
  1  'x, y, z'
loop_
 _atom_site_type_symbol
 _atom_site_label
 _atom_site_symmetry_multiplicity
 _atom_site_fract_x
 _atom_site_fract_y
 _atom_site_fract_z
 _atom_site_occupancy
  Ca  Ca0  1  0.499974  0.499990  0.487205  1
  Ca  Ca1  1  0.500023  0.500020  0.987213  1
  Ca  Ca2  1  0.999967  0.000010  0.986963  1
  Ca  Ca3  1  0.000008  0.999988  0.487095  1
  Dy  Dy4  1  0.222251  0.503784  0.237143  1
  Dy  Dy5  1  0.777741  0.496218  0.737139  1
  Dy  Dy6  1  0.277746  0.003787  0.737168  1
  Dy  Dy7  1  0.722257  0.996220  0.237159  1
  Ga  Ga8  1  0.402924  0.058998  0.237170  1
  Ga  Ga9  1  0.597075  0.941001  0.737166  1
  Ga  Ga10  1  0.097081  0.558997  0.737138  1
  Ga  Ga11  1  0.902930  0.441007  0.237138  1
  O  O12  1  0.399301  0.717183  0.237191  1
  O  O13  1  0.600694  0.282824  0.737191  1
  O  O14  1  0.100704  0.217182  0.737112  1
  O  O15  1  0.899308  0.782811  0.237119  1
  O  O16  1  0.170710  0.730476  0.518723  1
  O  O17  1  0.829290  0.269540  0.018733  1
  O  O18  1  0.329304  0.230479  0.018749  1
  O  O19  1  0.670701  0.769529  0.518743  1
  O  O20  1  0.329261  0.230463  0.455537  1
  O  O21  1  0.670741  0.769548  0.955535  1
  O  O22  1  0.170730  0.730468  0.955520  1
  O  O23  1  0.829271  0.269535  0.455517  1
  O  O24  1  0.553026  0.206701  0.237202  1
  O  O25  1  0.446980  0.793290  0.737199  1
  O  O26  1  0.946977  0.706675  0.737118  1
  O  O27  1  0.053025  0.293276  0.237118  1
