# generated using pymatgen
data_La7Y5(HoSi2)8
_symmetry_space_group_name_H-M   'P 1'
_cell_length_a   7.76836596
_cell_length_b   7.76215449
_cell_length_c   14.41038500
_cell_angle_alpha   90.22763644
_cell_angle_beta   89.95001606
_cell_angle_gamma   90.22020987
_symmetry_Int_Tables_number   1
_chemical_formula_structural   La7Y5(HoSi2)8
_chemical_formula_sum   'La7 Y5 Ho8 Si16'
_cell_volume   868.92190903
_cell_formula_units_Z   1
loop_
 _symmetry_equiv_pos_site_id
 _symmetry_equiv_pos_as_xyz
  1  'x, y, z'
loop_
 _atom_site_type_symbol
 _atom_site_label
 _atom_site_symmetry_multiplicity
 _atom_site_fract_x
 _atom_site_fract_y
 _atom_site_fract_z
 _atom_site_occupancy
  La  La0  1  0.008581  0.356173  0.541386  1
  La  La1  1  0.644236  0.991790  0.960338  1
  La  La2  1  0.141594  0.510952  0.792231  1
  La  La3  1  0.856712  0.489168  0.289741  1
  La  La4  1  0.510015  0.142133  0.207187  1
  La  La5  1  0.488842  0.857461  0.709523  1
  La  La6  1  0.356360  0.008543  0.457658  1
  Y  Y7  1  0.996295  0.637847  0.043468  1
  Y  Y8  1  0.680708  0.682056  0.499933  1
  Y  Y9  1  0.816613  0.183579  0.751080  1
  Y  Y10  1  0.181585  0.815267  0.249461  1
  Y  Y11  1  0.317221  0.319616  0.000040  1
  Ho  Ho12  1  0.360417  0.491370  0.374433  1
  Ho  Ho13  1  0.860544  0.006192  0.373632  1
  Ho  Ho14  1  0.993133  0.137120  0.123971  1
  Ho  Ho15  1  0.008213  0.861009  0.625153  1
  Ho  Ho16  1  0.640719  0.511547  0.877196  1
  Ho  Ho17  1  0.491318  0.360446  0.624996  1
  Ho  Ho18  1  0.510329  0.640839  0.123650  1
  Ho  Ho19  1  0.136798  0.992286  0.876517  1
  Si  Si20  1  0.064001  0.709354  0.438032  1
  Si  Si21  1  0.938308  0.294560  0.939732  1
  Si  Si22  1  0.710748  0.064797  0.561582  1
  Si  Si23  1  0.210072  0.437504  0.186791  1
  Si  Si24  1  0.787926  0.565174  0.688345  1
  Si  Si25  1  0.435480  0.212264  0.812451  1
  Si  Si26  1  0.566065  0.787687  0.310783  1
  Si  Si27  1  0.286296  0.931937  0.061962  1
  Si  Si28  1  0.845933  0.797896  0.808669  1
  Si  Si29  1  0.151679  0.203640  0.308076  1
  Si  Si30  1  0.800753  0.844192  0.186954  1
  Si  Si31  1  0.294893  0.651712  0.558487  1
  Si  Si32  1  0.709477  0.353421  0.060444  1
  Si  Si33  1  0.652020  0.294607  0.440773  1
  Si  Si34  1  0.342760  0.703045  0.942852  1
  Si  Si35  1  0.203355  0.152815  0.692476  1
