# generated using pymatgen
data_Li8Nd8SnBi2Pb5
_symmetry_space_group_name_H-M   'P 1'
_cell_length_a   9.68964053
_cell_length_b   9.68995050
_cell_length_c   7.65539930
_cell_angle_alpha   90.00000578
_cell_angle_beta   90.05378806
_cell_angle_gamma   120.00105620
_symmetry_Int_Tables_number   1
_chemical_formula_structural   Li8Nd8SnBi2Pb5
_chemical_formula_sum   'Li8 Nd8 Sn1 Bi2 Pb5'
_cell_volume   622.47630844
_cell_formula_units_Z   1
loop_
 _symmetry_equiv_pos_site_id
 _symmetry_equiv_pos_as_xyz
  1  'x, y, z'
loop_
 _atom_site_type_symbol
 _atom_site_label
 _atom_site_symmetry_multiplicity
 _atom_site_fract_x
 _atom_site_fract_y
 _atom_site_fract_z
 _atom_site_occupancy
  Li  Li0  1  0.167638  0.334475  0.283194  1
  Li  Li1  1  0.167638  0.833162  0.283194  1
  Li  Li2  1  0.665136  0.832568  0.285504  1
  Li  Li3  1  0.830382  0.663573  0.785761  1
  Li  Li4  1  0.830382  0.166809  0.785761  1
  Li  Li5  1  0.337271  0.168635  0.788928  1
  Li  Li6  1  0.334940  0.667471  0.668357  1
  Li  Li7  1  0.666546  0.333272  0.170451  1
  Nd  Nd8  1  0.516023  0.027295  0.493958  1
  Nd  Nd9  1  0.516023  0.488729  0.493958  1
  Nd  Nd10  1  0.971530  0.485766  0.492365  1
  Nd  Nd11  1  0.491643  0.979729  0.996067  1
  Nd  Nd12  1  0.491643  0.511914  0.996067  1
  Nd  Nd13  1  0.018448  0.509223  0.997046  1
  Nd  Nd14  1  0.997587  0.998794  0.496930  1
  Nd  Nd15  1  0.997286  0.998643  0.002847  1
  Sn  Sn16  1  0.667340  0.333669  0.764650  1
  Bi  Bi17  1  0.166483  0.333570  0.733379  1
  Bi  Bi18  1  0.166483  0.832914  0.733379  1
  Pb  Pb19  1  0.666417  0.833209  0.731389  1
  Pb  Pb20  1  0.833625  0.666820  0.232524  1
  Pb  Pb21  1  0.833625  0.166804  0.232524  1
  Pb  Pb22  1  0.333423  0.166711  0.231370  1
  Pb  Pb23  1  0.332489  0.666245  0.262375  1
