# generated using pymatgen
data_Y8SnHg3Au8
_symmetry_space_group_name_H-M   'P 1'
_cell_length_a   8.03463400
_cell_length_b   8.03463400
_cell_length_c   7.38023000
_cell_angle_alpha   90.00000000
_cell_angle_beta   90.00000000
_cell_angle_gamma   90.00000000
_symmetry_Int_Tables_number   1
_chemical_formula_structural   Y8SnHg3Au8
_chemical_formula_sum   'Y8 Sn1 Hg3 Au8'
_cell_volume   476.43328286
_cell_formula_units_Z   1
loop_
 _symmetry_equiv_pos_site_id
 _symmetry_equiv_pos_as_xyz
  1  'x, y, z'
loop_
 _atom_site_type_symbol
 _atom_site_label
 _atom_site_symmetry_multiplicity
 _atom_site_fract_x
 _atom_site_fract_y
 _atom_site_fract_z
 _atom_site_occupancy
  Y  Y0  1  0.840472  0.160719  0.500044  1
  Y  Y1  1  0.159528  0.839281  0.500044  1
  Y  Y2  1  0.339281  0.340472  0.999956  1
  Y  Y3  1  0.660719  0.659528  0.999956  1
  Y  Y4  1  0.685142  0.685048  0.499863  1
  Y  Y5  1  0.314858  0.314952  0.499863  1
  Y  Y6  1  0.185048  0.814858  0.000137  1
  Y  Y7  1  0.814952  0.185142  0.000137  1
  Sn  Sn8  1  0.000000  0.500000  0.250000  1
  Hg  Hg9  1  0.500000  0.000000  0.250000  1
  Hg  Hg10  1  0.000000  0.500000  0.750000  1
  Hg  Hg11  1  0.500000  0.000000  0.750000  1
  Au  Au12  1  0.625487  0.372483  0.276192  1
  Au  Au13  1  0.374513  0.627517  0.276192  1
  Au  Au14  1  0.127567  0.125704  0.775270  1
  Au  Au15  1  0.872433  0.874296  0.775270  1
  Au  Au16  1  0.374296  0.627567  0.724730  1
  Au  Au17  1  0.625704  0.372433  0.724730  1
  Au  Au18  1  0.872483  0.874513  0.223808  1
  Au  Au19  1  0.127517  0.125487  0.223808  1
