# generated using pymatgen
data_Na5GeP11Ir19
_symmetry_space_group_name_H-M   'P 1'
_cell_length_a   12.66947777
_cell_length_b   12.65890107
_cell_length_c   3.96251700
_cell_angle_alpha   90.00000000
_cell_angle_beta   90.00000000
_cell_angle_gamma   119.97238902
_symmetry_Int_Tables_number   1
_chemical_formula_structural   Na5GeP11Ir19
_chemical_formula_sum   'Na5 Ge1 P11 Ir19'
_cell_volume   550.52526515
_cell_formula_units_Z   1
loop_
 _symmetry_equiv_pos_site_id
 _symmetry_equiv_pos_as_xyz
  1  'x, y, z'
loop_
 _atom_site_type_symbol
 _atom_site_label
 _atom_site_symmetry_multiplicity
 _atom_site_fract_x
 _atom_site_fract_y
 _atom_site_fract_z
 _atom_site_occupancy
  Na  Na0  1  0.330445  0.664198  0.500000  1
  Na  Na1  1  0.669555  0.333752  0.500000  1
  Na  Na2  1  0.000000  0.822725  0.000000  1
  Na  Na3  1  0.179196  0.176622  0.000000  1
  Na  Na4  1  0.820804  0.997427  0.000000  1
  Ge  Ge5  1  0.000000  0.644628  0.500000  1
  P  P6  1  0.358576  0.359531  0.500000  1
  P  P7  1  0.641424  0.000955  0.500000  1
  P  P8  1  0.509718  0.689717  0.000000  1
  P  P9  1  0.311517  0.824376  0.000000  1
  P  P10  1  0.170307  0.482863  0.000000  1
  P  P11  1  0.490282  0.179998  0.000000  1
  P  P12  1  0.688483  0.512859  0.000000  1
  P  P13  1  0.829693  0.312557  0.000000  1
  P  P14  1  0.000000  0.174042  0.500000  1
  P  P15  1  0.816857  0.818344  0.500000  1
  P  P16  1  0.183143  0.001487  0.500000  1
  Ir  Ir17  1  0.510852  0.874506  0.000000  1
  Ir  Ir18  1  0.130800  0.638920  0.000000  1
  Ir  Ir19  1  0.356720  0.490758  0.000000  1
  Ir  Ir20  1  0.489148  0.363652  0.000000  1
  Ir  Ir21  1  0.869200  0.508118  0.000000  1
  Ir  Ir22  1  0.643280  0.134037  0.000000  1
  Ir  Ir23  1  0.000000  0.449489  0.500000  1
  Ir  Ir24  1  0.535794  0.543958  0.500000  1
  Ir  Ir25  1  0.464206  0.008164  0.500000  1
  Ir  Ir26  1  0.000000  0.287102  0.000000  1
  Ir  Ir27  1  0.701986  0.707200  0.000000  1
  Ir  Ir28  1  0.298014  0.005214  0.000000  1
  Ir  Ir29  1  0.618730  0.803701  0.500000  1
  Ir  Ir30  1  0.209961  0.826247  0.500000  1
  Ir  Ir31  1  0.180246  0.373416  0.500000  1
  Ir  Ir32  1  0.381270  0.184971  0.500000  1
  Ir  Ir33  1  0.790039  0.616286  0.500000  1
  Ir  Ir34  1  0.819754  0.193170  0.500000  1
  Ir  Ir35  1  0.000000  0.995012  0.500000  1
