# generated using pymatgen
data_BaBOsF10
_symmetry_space_group_name_H-M   'P 1'
_cell_length_a   10.95008300
_cell_length_b   10.95008234
_cell_length_c   6.50606200
_cell_angle_alpha   90.00000000
_cell_angle_beta   90.00000000
_cell_angle_gamma   120.00000502
_symmetry_Int_Tables_number   1
_chemical_formula_structural   BaBOsF10
_chemical_formula_sum   'Ba3 B3 Os3 F30'
_cell_volume   675.59060781
_cell_formula_units_Z   3
loop_
 _symmetry_equiv_pos_site_id
 _symmetry_equiv_pos_as_xyz
  1  'x, y, z'
loop_
 _atom_site_type_symbol
 _atom_site_label
 _atom_site_symmetry_multiplicity
 _atom_site_fract_x
 _atom_site_fract_y
 _atom_site_fract_z
 _atom_site_occupancy
  Ba  Ba0  1  0.000000  0.000000  0.500000  1
  Ba  Ba1  1  0.666667  0.333333  0.000000  1
  Ba  Ba2  1  0.333333  0.666667  0.000000  1
  B  B3  1  0.752573  0.000000  0.000000  1
  B  B4  1  0.000000  0.752573  0.000000  1
  B  B5  1  0.247427  0.247427  0.000000  1
  Os  Os6  1  0.437947  0.000000  0.500000  1
  Os  Os7  1  0.000000  0.437947  0.500000  1
  Os  Os8  1  0.562053  0.562053  0.500000  1
  F  F9  1  0.610413  0.000000  0.500000  1
  F  F10  1  0.000000  0.610413  0.500000  1
  F  F11  1  0.389587  0.389587  0.500000  1
  F  F12  1  0.262401  0.000000  0.500000  1
  F  F13  1  0.000000  0.262401  0.500000  1
  F  F14  1  0.737599  0.737599  0.500000  1
  F  F15  1  0.509704  0.143396  0.707629  1
  F  F16  1  0.856604  0.366308  0.707629  1
  F  F17  1  0.633692  0.490296  0.707629  1
  F  F18  1  0.509704  0.143396  0.292371  1
  F  F19  1  0.856604  0.366308  0.292371  1
  F  F20  1  0.633692  0.490296  0.292371  1
  F  F21  1  0.366308  0.856604  0.707629  1
  F  F22  1  0.490296  0.633692  0.707629  1
  F  F23  1  0.143396  0.509704  0.707629  1
  F  F24  1  0.366308  0.856604  0.292371  1
  F  F25  1  0.490296  0.633692  0.292371  1
  F  F26  1  0.143396  0.509704  0.292371  1
  F  F27  1  0.827170  0.000000  0.821512  1
  F  F28  1  0.000000  0.827170  0.821512  1
  F  F29  1  0.172830  0.172830  0.821512  1
  F  F30  1  0.827170  0.000000  0.178488  1
  F  F31  1  0.000000  0.827170  0.178488  1
  F  F32  1  0.172830  0.172830  0.178488  1
  F  F33  1  0.384606  0.262719  0.000000  1
  F  F34  1  0.737281  0.121885  0.000000  1
  F  F35  1  0.878115  0.615394  0.000000  1
  F  F36  1  0.121885  0.737281  0.000000  1
  F  F37  1  0.615394  0.878115  0.000000  1
  F  F38  1  0.262719  0.384606  0.000000  1
