# generated using pymatgen
data_Ho3Er5Sc11Si16Hg
_symmetry_space_group_name_H-M   'P 1'
_cell_length_a   7.02524115
_cell_length_b   7.37177783
_cell_length_c   13.97614563
_cell_angle_alpha   90.02582050
_cell_angle_beta   90.02260143
_cell_angle_gamma   89.89309909
_symmetry_Int_Tables_number   1
_chemical_formula_structural   Ho3Er5Sc11Si16Hg
_chemical_formula_sum   'Ho3 Er5 Sc11 Si16 Hg1'
_cell_volume   723.80246570
_cell_formula_units_Z   1
loop_
 _symmetry_equiv_pos_site_id
 _symmetry_equiv_pos_as_xyz
  1  'x, y, z'
loop_
 _atom_site_type_symbol
 _atom_site_label
 _atom_site_symmetry_multiplicity
 _atom_site_fract_x
 _atom_site_fract_y
 _atom_site_fract_z
 _atom_site_occupancy
  Ho  Ho0  1  0.009798  0.174830  0.096783  1
  Ho  Ho1  1  0.990397  0.816221  0.902524  1
  Ho  Ho2  1  0.485903  0.672829  0.902489  1
  Er  Er3  1  0.990208  0.816091  0.597181  1
  Er  Er4  1  0.510362  0.323927  0.097291  1
  Er  Er5  1  0.010082  0.175032  0.403533  1
  Er  Er6  1  0.510505  0.323850  0.403334  1
  Er  Er7  1  0.486009  0.673148  0.597226  1
  Sc  Sc8  1  0.837403  0.497412  0.250307  1
  Sc  Sc9  1  0.339435  0.004468  0.250308  1
  Sc  Sc10  1  0.657189  0.996753  0.749873  1
  Sc  Sc11  1  0.324575  0.182772  0.626089  1
  Sc  Sc12  1  0.671490  0.824278  0.375258  1
  Sc  Sc13  1  0.168621  0.681139  0.373240  1
  Sc  Sc14  1  0.671003  0.823991  0.125329  1
  Sc  Sc15  1  0.839759  0.324968  0.625782  1
  Sc  Sc16  1  0.324352  0.182817  0.873548  1
  Sc  Sc17  1  0.840099  0.325340  0.873575  1
  Sc  Sc18  1  0.168884  0.680558  0.127056  1
  Si  Si19  1  0.026266  0.091206  0.749478  1
  Si  Si20  1  0.967798  0.890076  0.250231  1
  Si  Si21  1  0.466679  0.616544  0.250343  1
  Si  Si22  1  0.544781  0.379237  0.749694  1
  Si  Si23  1  0.290970  0.884312  0.749483  1
  Si  Si24  1  0.712658  0.130401  0.250436  1
  Si  Si25  1  0.212705  0.372324  0.250437  1
  Si  Si26  1  0.769820  0.631942  0.749437  1
  Si  Si27  1  0.164668  0.459619  0.528030  1
  Si  Si28  1  0.841302  0.535471  0.461704  1
  Si  Si29  1  0.343314  0.966708  0.462444  1
  Si  Si30  1  0.840883  0.535405  0.038309  1
  Si  Si31  1  0.657813  0.033079  0.540484  1
  Si  Si32  1  0.164146  0.459104  0.972204  1
  Si  Si33  1  0.657600  0.033807  0.959728  1
  Si  Si34  1  0.343715  0.966703  0.037715  1
  Hg  Hg35  1  0.158811  0.513631  0.749117  1
