# generated using pymatgen
data_Yb2Th2(Ga8Pt3)3
_symmetry_space_group_name_H-M   'P 1'
_cell_length_a   7.56545868
_cell_length_b   7.63153459
_cell_length_c   13.37457660
_cell_angle_alpha   84.77518177
_cell_angle_beta   100.75696978
_cell_angle_gamma   119.34659006
_symmetry_Int_Tables_number   1
_chemical_formula_structural   Yb2Th2(Ga8Pt3)3
_chemical_formula_sum   'Yb2 Th2 Ga24 Pt9'
_cell_volume   661.27233207
_cell_formula_units_Z   1
loop_
 _symmetry_equiv_pos_site_id
 _symmetry_equiv_pos_as_xyz
  1  'x, y, z'
loop_
 _atom_site_type_symbol
 _atom_site_label
 _atom_site_symmetry_multiplicity
 _atom_site_fract_x
 _atom_site_fract_y
 _atom_site_fract_z
 _atom_site_occupancy
  Yb  Yb0  1  0.768990  0.501907  0.809586  1
  Yb  Yb1  1  0.231010  0.498093  0.190414  1
  Th  Th2  1  0.436493  0.830948  0.810380  1
  Th  Th3  1  0.563507  0.169052  0.189620  1
  Ga  Ga4  1  0.482402  0.171999  0.938064  1
  Ga  Ga5  1  0.517598  0.828001  0.061936  1
  Ga  Ga6  1  0.022317  0.167976  0.558790  1
  Ga  Ga7  1  0.977683  0.832024  0.441210  1
  Ga  Ga8  1  0.355889  0.834887  0.555356  1
  Ga  Ga9  1  0.644111  0.165113  0.444644  1
  Ga  Ga10  1  0.613601  0.827935  0.326238  1
  Ga  Ga11  1  0.386399  0.172065  0.673762  1
  Ga  Ga12  1  0.051500  0.491906  0.674178  1
  Ga  Ga13  1  0.948500  0.508094  0.325822  1
  Ga  Ga14  1  0.732240  0.833932  0.672710  1
  Ga  Ga15  1  0.267760  0.166068  0.327290  1
  Ga  Ga16  1  0.140670  0.498505  0.942338  1
  Ga  Ga17  1  0.859330  0.501495  0.057662  1
  Ga  Ga18  1  0.815737  0.828164  0.946271  1
  Ga  Ga19  1  0.184263  0.171836  0.053729  1
  Ga  Ga20  1  0.311837  0.499546  0.442481  1
  Ga  Ga21  1  0.688163  0.500454  0.557519  1
  Ga  Ga22  1  0.098497  0.831827  0.181388  1
  Ga  Ga23  1  0.901503  0.168173  0.818612  1
  Ga  Ga24  1  0.307125  0.367875  0.817461  1
  Ga  Ga25  1  0.692875  0.632125  0.182539  1
  Ga  Ga26  1  0.100677  0.962172  0.817500  1
  Ga  Ga27  1  0.899323  0.037828  0.182500  1
  Pt  Pt28  1  0.383996  0.505642  0.638088  1
  Pt  Pt29  1  0.616004  0.494358  0.361912  1
  Pt  Pt30  1  0.174493  0.834153  0.999662  1
  Pt  Pt31  1  0.825507  0.165847  0.000338  1
  Pt  Pt32  1  0.293305  0.835189  0.360213  1
  Pt  Pt33  1  0.706695  0.164811  0.639787  1
  Pt  Pt34  1  0.052312  0.830514  0.638101  1
  Pt  Pt35  1  0.947688  0.169486  0.361899  1
  Pt  Pt36  1  0.500000  0.500000  0.000000  1
