# generated using pymatgen
data_Dy17Tm(LuSn8)2
_symmetry_space_group_name_H-M   'P 1'
_cell_length_a   8.00325101
_cell_length_b   8.15256065
_cell_length_c   15.42581400
_cell_angle_alpha   90.00000000
_cell_angle_beta   90.00000000
_cell_angle_gamma   89.96613045
_symmetry_Int_Tables_number   1
_chemical_formula_structural   Dy17Tm(LuSn8)2
_chemical_formula_sum   'Dy17 Tm1 Lu2 Sn16'
_cell_volume   1006.48774425
_cell_formula_units_Z   1
loop_
 _symmetry_equiv_pos_site_id
 _symmetry_equiv_pos_as_xyz
  1  'x, y, z'
loop_
 _atom_site_type_symbol
 _atom_site_label
 _atom_site_symmetry_multiplicity
 _atom_site_fract_x
 _atom_site_fract_y
 _atom_site_fract_z
 _atom_site_occupancy
  Dy  Dy0  1  0.367563  0.835741  0.878116  1
  Dy  Dy1  1  0.868083  0.663841  0.621878  1
  Dy  Dy2  1  0.632098  0.164087  0.378061  1
  Dy  Dy3  1  0.132091  0.335917  0.121797  1
  Dy  Dy4  1  0.632098  0.164087  0.121939  1
  Dy  Dy5  1  0.132091  0.335917  0.378203  1
  Dy  Dy6  1  0.367563  0.835741  0.621884  1
  Dy  Dy7  1  0.868083  0.663841  0.878122  1
  Dy  Dy8  1  0.520966  0.320370  0.902319  1
  Dy  Dy9  1  0.021266  0.179950  0.597668  1
  Dy  Dy10  1  0.478936  0.679792  0.402350  1
  Dy  Dy11  1  0.978865  0.820226  0.097720  1
  Dy  Dy12  1  0.478936  0.679792  0.097650  1
  Dy  Dy13  1  0.978865  0.820226  0.402280  1
  Dy  Dy14  1  0.520966  0.320370  0.597681  1
  Dy  Dy15  1  0.021266  0.179950  0.902332  1
  Dy  Dy16  1  0.698332  0.997378  0.750000  1
  Tm  Tm17  1  0.198703  0.502803  0.750000  1
  Lu  Lu18  1  0.801373  0.497304  0.250000  1
  Lu  Lu19  1  0.301398  0.002710  0.250000  1
  Sn  Sn20  1  0.292134  0.034712  0.042121  1
  Sn  Sn21  1  0.792118  0.465173  0.457875  1
  Sn  Sn22  1  0.707872  0.965173  0.541828  1
  Sn  Sn23  1  0.207839  0.534758  0.957780  1
  Sn  Sn24  1  0.707872  0.965173  0.958172  1
  Sn  Sn25  1  0.207839  0.534758  0.542220  1
  Sn  Sn26  1  0.292134  0.034712  0.457879  1
  Sn  Sn27  1  0.792118  0.465173  0.042125  1
  Sn  Sn28  1  0.564591  0.618378  0.750000  1
  Sn  Sn29  1  0.065734  0.880685  0.750000  1
  Sn  Sn30  1  0.435052  0.381106  0.250000  1
  Sn  Sn31  1  0.935289  0.119012  0.250000  1
  Sn  Sn32  1  0.328967  0.147934  0.750000  1
  Sn  Sn33  1  0.829589  0.353422  0.750000  1
  Sn  Sn34  1  0.670544  0.852357  0.250000  1
  Sn  Sn35  1  0.170760  0.647431  0.250000  1
