# generated using pymatgen
data_Dy2Co3NiP6(Rh2W)2
_symmetry_space_group_name_H-M   'P 1'
_cell_length_a   3.81302700
_cell_length_b   10.63807000
_cell_length_c   12.23998000
_cell_angle_alpha   90.00000000
_cell_angle_beta   90.00000000
_cell_angle_gamma   90.00000000
_symmetry_Int_Tables_number   1
_chemical_formula_structural   Dy2Co3NiP6(Rh2W)2
_chemical_formula_sum   'Dy4 Co6 Ni2 P12 Rh8 W4'
_cell_volume   496.49334594
_cell_formula_units_Z   2
loop_
 _symmetry_equiv_pos_site_id
 _symmetry_equiv_pos_as_xyz
  1  'x, y, z'
loop_
 _atom_site_type_symbol
 _atom_site_label
 _atom_site_symmetry_multiplicity
 _atom_site_fract_x
 _atom_site_fract_y
 _atom_site_fract_z
 _atom_site_occupancy
  Dy  Dy0  1  0.250000  0.581133  0.708884  1
  Dy  Dy1  1  0.250000  0.918867  0.208884  1
  Dy  Dy2  1  0.750000  0.416426  0.291348  1
  Dy  Dy3  1  0.750000  0.083574  0.791348  1
  Co  Co4  1  0.750000  0.113547  0.304502  1
  Co  Co5  1  0.750000  0.386453  0.804502  1
  Co  Co6  1  0.250000  0.464904  0.934326  1
  Co  Co7  1  0.250000  0.035096  0.434326  1
  Co  Co8  1  0.750000  0.535837  0.065351  1
  Co  Co9  1  0.750000  0.964163  0.565351  1
  Ni  Ni10  1  0.250000  0.886725  0.697285  1
  Ni  Ni11  1  0.250000  0.613275  0.197285  1
  P  P12  1  0.250000  0.426328  0.110838  1
  P  P13  1  0.250000  0.073672  0.610838  1
  P  P14  1  0.750000  0.571045  0.887652  1
  P  P15  1  0.750000  0.928955  0.387652  1
  P  P16  1  0.250000  0.273564  0.869938  1
  P  P17  1  0.250000  0.226436  0.369938  1
  P  P18  1  0.750000  0.729110  0.128348  1
  P  P19  1  0.750000  0.770890  0.628348  1
  P  P20  1  0.250000  0.599854  0.386498  1
  P  P21  1  0.250000  0.900146  0.886498  1
  P  P22  1  0.750000  0.399949  0.616088  1
  P  P23  1  0.750000  0.100051  0.116088  1
  Rh  Rh24  1  0.250000  0.404286  0.482686  1
  Rh  Rh25  1  0.250000  0.095714  0.982686  1
  Rh  Rh26  1  0.750000  0.594311  0.516107  1
  Rh  Rh27  1  0.750000  0.905689  0.016107  1
  Rh  Rh28  1  0.250000  0.225572  0.181517  1
  Rh  Rh29  1  0.250000  0.274428  0.681517  1
  Rh  Rh30  1  0.750000  0.773953  0.818365  1
  Rh  Rh31  1  0.750000  0.726047  0.318365  1
  W  W32  1  0.250000  0.705769  0.987168  1
  W  W33  1  0.250000  0.794231  0.487168  1
  W  W34  1  0.750000  0.294531  0.013101  1
  W  W35  1  0.750000  0.205469  0.513101  1
