# generated using pymatgen
data_Rb5CaPu2Br12
_symmetry_space_group_name_H-M   'P 1'
_cell_length_a   14.14707700
_cell_length_b   14.07803910
_cell_length_c   4.53243800
_cell_angle_alpha   90.00000000
_cell_angle_beta   90.00000000
_cell_angle_gamma   120.16235179
_symmetry_Int_Tables_number   1
_chemical_formula_structural   Rb5CaPu2Br12
_chemical_formula_sum   'Rb5 Ca1 Pu2 Br12'
_cell_volume   780.47423486
_cell_formula_units_Z   1
loop_
 _symmetry_equiv_pos_site_id
 _symmetry_equiv_pos_as_xyz
  1  'x, y, z'
loop_
 _atom_site_type_symbol
 _atom_site_label
 _atom_site_symmetry_multiplicity
 _atom_site_fract_x
 _atom_site_fract_y
 _atom_site_fract_z
 _atom_site_occupancy
  Rb  Rb0  1  0.332052  0.671349  0.000000  1
  Rb  Rb1  1  0.660704  0.328651  0.000000  1
  Rb  Rb2  1  0.708632  0.000000  0.000000  1
  Rb  Rb3  1  0.006220  0.718303  0.000000  1
  Rb  Rb4  1  0.287917  0.281697  0.000000  1
  Ca  Ca5  1  0.328740  0.000000  0.500000  1
  Pu  Pu6  1  0.000723  0.328663  0.500000  1
  Pu  Pu7  1  0.672060  0.671337  0.500000  1
  Br  Br8  1  0.189361  0.000000  0.000000  1
  Br  Br9  1  0.999299  0.188430  0.000000  1
  Br  Br10  1  0.810870  0.811570  0.000000  1
  Br  Br11  1  0.463381  0.000000  0.000000  1
  Br  Br12  1  0.999668  0.463090  0.000000  1
  Br  Br13  1  0.536578  0.536910  0.000000  1
  Br  Br14  1  0.239720  0.444149  0.500000  1
  Br  Br15  1  0.556470  0.794402  0.500000  1
  Br  Br16  1  0.444941  0.239916  0.500000  1
  Br  Br17  1  0.205026  0.760084  0.500000  1
  Br  Br18  1  0.795570  0.555851  0.500000  1
  Br  Br19  1  0.762068  0.205598  0.500000  1
