# generated using pymatgen
data_TcN(OF3)2
_symmetry_space_group_name_H-M   'P 1'
_cell_length_a   5.52983881
_cell_length_b   5.61240885
_cell_length_c   5.16175214
_cell_angle_alpha   89.63531801
_cell_angle_beta   89.91072760
_cell_angle_gamma   66.75764540
_symmetry_Int_Tables_number   1
_chemical_formula_structural   TcN(OF3)2
_chemical_formula_sum   'Tc1 N1 O2 F6'
_cell_volume   147.19451052
_cell_formula_units_Z   1
loop_
 _symmetry_equiv_pos_site_id
 _symmetry_equiv_pos_as_xyz
  1  'x, y, z'
loop_
 _atom_site_type_symbol
 _atom_site_label
 _atom_site_symmetry_multiplicity
 _atom_site_fract_x
 _atom_site_fract_y
 _atom_site_fract_z
 _atom_site_occupancy
  Tc  Tc0  1  0.000000  0.000000  0.500000  1
  N  N1  1  0.499999  0.499999  0.000000  1
  O  O2  1  0.609521  0.606817  0.103032  1
  O  O3  1  0.390478  0.393182  0.896968  1
  F  F4  1  0.125182  0.123894  0.210270  1
  F  F5  1  0.663437  0.114206  0.333776  1
  F  F6  1  0.112271  0.669137  0.334358  1
  F  F7  1  0.887729  0.330864  0.665640  1
  F  F8  1  0.336564  0.885794  0.666222  1
  F  F9  1  0.874817  0.876105  0.789731  1
