# generated using pymatgen
data_Er8Lu2RuRh3
_symmetry_space_group_name_H-M   'P 1'
_cell_length_a   6.37026059
_cell_length_b   7.12310600
_cell_length_c   8.48602931
_cell_angle_alpha   96.80743542
_cell_angle_beta   112.44580485
_cell_angle_gamma   90.04337278
_symmetry_Int_Tables_number   1
_chemical_formula_structural   Er8Lu2RuRh3
_chemical_formula_sum   'Er8 Lu2 Ru1 Rh3'
_cell_volume   352.93706120
_cell_formula_units_Z   1
loop_
 _symmetry_equiv_pos_site_id
 _symmetry_equiv_pos_as_xyz
  1  'x, y, z'
loop_
 _atom_site_type_symbol
 _atom_site_label
 _atom_site_symmetry_multiplicity
 _atom_site_fract_x
 _atom_site_fract_y
 _atom_site_fract_z
 _atom_site_occupancy
  Er  Er0  1  0.525390  0.081032  0.816698  1
  Er  Er1  1  0.479147  0.919070  0.187708  1
  Er  Er2  1  0.712012  0.416785  0.188778  1
  Er  Er3  1  0.290026  0.581767  0.812728  1
  Er  Er4  1  0.288278  0.310566  0.436025  1
  Er  Er5  1  0.708039  0.687599  0.562852  1
  Er  Er6  1  0.855940  0.188388  0.561571  1
  Er  Er7  1  0.143699  0.814024  0.434821  1
  Lu  Lu8  1  0.074314  0.249450  0.999925  1
  Lu  Lu9  1  0.925244  0.751469  0.001019  1
  Ru  Ru10  1  0.895975  0.074018  0.216642  1
  Rh  Rh11  1  0.320405  0.573642  0.219406  1
  Rh  Rh12  1  0.681225  0.426712  0.779522  1
  Rh  Rh13  1  0.100306  0.925479  0.782304  1
