# generated using pymatgen
data_Ca2Si7(Ir5Ru)2
_symmetry_space_group_name_H-M   'P 1'
_cell_length_a   9.66816653
_cell_length_b   9.66112524
_cell_length_c   3.95696602
_cell_angle_alpha   89.99612383
_cell_angle_beta   90.00812586
_cell_angle_gamma   120.06149855
_symmetry_Int_Tables_number   1
_chemical_formula_structural   Ca2Si7(Ir5Ru)2
_chemical_formula_sum   'Ca2 Si7 Ir10 Ru2'
_cell_volume   319.88606086
_cell_formula_units_Z   1
loop_
 _symmetry_equiv_pos_site_id
 _symmetry_equiv_pos_as_xyz
  1  'x, y, z'
loop_
 _atom_site_type_symbol
 _atom_site_label
 _atom_site_symmetry_multiplicity
 _atom_site_fract_x
 _atom_site_fract_y
 _atom_site_fract_z
 _atom_site_occupancy
  Ca  Ca0  1  0.334679  0.667865  0.737391  1
  Ca  Ca1  1  0.666426  0.334072  0.237892  1
  Si  Si2  1  0.000735  0.997975  0.737567  1
  Si  Si3  1  0.286530  0.887829  0.238745  1
  Si  Si4  1  0.602684  0.712925  0.238298  1
  Si  Si5  1  0.114939  0.401706  0.238101  1
  Si  Si6  1  0.701328  0.118096  0.736842  1
  Si  Si7  1  0.414518  0.296682  0.737765  1
  Si  Si8  1  0.881239  0.585239  0.737455  1
  Ir  Ir9  1  0.907787  0.123702  0.238397  1
  Ir  Ir10  1  0.726685  0.886630  0.738408  1
  Ir  Ir11  1  0.158419  0.273518  0.738262  1
  Ir  Ir12  1  0.115668  0.839286  0.738575  1
  Ir  Ir13  1  0.050286  0.610203  0.238061  1
  Ir  Ir14  1  0.559704  0.948138  0.237806  1
  Ir  Ir15  1  0.387771  0.438685  0.237800  1
  Ir  Ir16  1  0.938577  0.369635  0.738122  1
  Ir  Ir17  1  0.430480  0.061022  0.738353  1
  Ir  Ir18  1  0.629447  0.569303  0.738332  1
  Ru  Ru19  1  0.210935  0.090875  0.238842  1
  Ru  Ru20  1  0.881164  0.786615  0.238985  1
