# generated using pymatgen
data_As3Pt4SeBr4
_symmetry_space_group_name_H-M   'P 1'
_cell_length_a   7.78196800
_cell_length_b   7.67474000
_cell_length_c   5.20569500
_cell_angle_alpha   90.00000000
_cell_angle_beta   90.00000000
_cell_angle_gamma   90.00000000
_symmetry_Int_Tables_number   1
_chemical_formula_structural   As3Pt4SeBr4
_chemical_formula_sum   'As3 Pt4 Se1 Br4'
_cell_volume   310.90795315
_cell_formula_units_Z   1
loop_
 _symmetry_equiv_pos_site_id
 _symmetry_equiv_pos_as_xyz
  1  'x, y, z'
loop_
 _atom_site_type_symbol
 _atom_site_label
 _atom_site_symmetry_multiplicity
 _atom_site_fract_x
 _atom_site_fract_y
 _atom_site_fract_z
 _atom_site_occupancy
  As  As0  1  0.001881  0.199153  0.000000  1
  As  As1  1  0.001881  0.800848  0.000000  1
  As  As2  1  0.205118  0.000000  0.500001  1
  Pt  Pt3  1  0.247209  0.000000  0.000000  1
  Pt  Pt4  1  0.753957  0.000000  0.000000  1
  Pt  Pt5  1  0.001130  0.249063  0.500001  1
  Pt  Pt6  1  0.001130  0.750937  0.500001  1
  Se  Se7  1  0.801374  0.000000  0.500001  1
  Br  Br8  1  0.499952  0.231830  0.000000  1
  Br  Br9  1  0.499952  0.768171  0.000000  1
  Br  Br10  1  0.218095  0.500000  0.500001  1
  Br  Br11  1  0.768321  0.500000  0.500001  1
