# generated using pymatgen
data_BaFe3NiAs12
_symmetry_space_group_name_H-M   'P 1'
_cell_length_a   7.29493798
_cell_length_b   7.29493753
_cell_length_c   7.29493793
_cell_angle_alpha   109.49035660
_cell_angle_beta   109.49034097
_cell_angle_gamma   109.49035296
_symmetry_Int_Tables_number   1
_chemical_formula_structural   BaFe3NiAs12
_chemical_formula_sum   'Ba1 Fe3 Ni1 As12'
_cell_volume   298.63102134
_cell_formula_units_Z   1
loop_
 _symmetry_equiv_pos_site_id
 _symmetry_equiv_pos_as_xyz
  1  'x, y, z'
loop_
 _atom_site_type_symbol
 _atom_site_label
 _atom_site_symmetry_multiplicity
 _atom_site_fract_x
 _atom_site_fract_y
 _atom_site_fract_z
 _atom_site_occupancy
  Ba  Ba0  1  0.000000  0.000000  0.000000  1
  Fe  Fe1  1  0.000000  0.000000  0.500000  1
  Fe  Fe2  1  0.500000  0.000000  0.000000  1
  Fe  Fe3  1  0.000000  0.500000  0.000000  1
  Ni  Ni4  1  0.500000  0.500000  0.500000  1
  As  As5  1  0.345277  0.187916  0.841888  1
  As  As6  1  0.654723  0.812084  0.158112  1
  As  As7  1  0.655909  0.496117  0.850100  1
  As  As8  1  0.344091  0.503883  0.149900  1
  As  As9  1  0.187916  0.841888  0.345277  1
  As  As10  1  0.812084  0.158112  0.654723  1
  As  As11  1  0.496117  0.850100  0.655909  1
  As  As12  1  0.503883  0.149900  0.344091  1
  As  As13  1  0.841888  0.345277  0.187916  1
  As  As14  1  0.158112  0.654723  0.812084  1
  As  As15  1  0.850100  0.655909  0.496117  1
  As  As16  1  0.149900  0.344091  0.503883  1
