# generated using pymatgen
data_LaHo(CoB)8
_symmetry_space_group_name_H-M   'P 1'
_cell_length_a   6.99113200
_cell_length_b   6.99113200
_cell_length_c   3.79112900
_cell_angle_alpha   90.00000000
_cell_angle_beta   90.00000000
_cell_angle_gamma   90.00000000
_symmetry_Int_Tables_number   1
_chemical_formula_structural   LaHo(CoB)8
_chemical_formula_sum   'La1 Ho1 Co8 B8'
_cell_volume   185.29494289
_cell_formula_units_Z   1
loop_
 _symmetry_equiv_pos_site_id
 _symmetry_equiv_pos_as_xyz
  1  'x, y, z'
loop_
 _atom_site_type_symbol
 _atom_site_label
 _atom_site_symmetry_multiplicity
 _atom_site_fract_x
 _atom_site_fract_y
 _atom_site_fract_z
 _atom_site_occupancy
  La  La0  1  0.500000  0.500000  0.500000  1
  Ho  Ho1  1  0.000000  0.000000  0.000000  1
  Co  Co2  1  0.380704  0.137198  0.890873  1
  Co  Co3  1  0.619296  0.862802  0.890873  1
  Co  Co4  1  0.353611  0.885161  0.393471  1
  Co  Co5  1  0.646389  0.114839  0.393471  1
  Co  Co6  1  0.114839  0.353611  0.606529  1
  Co  Co7  1  0.885161  0.646389  0.606529  1
  Co  Co8  1  0.137198  0.619296  0.109127  1
  Co  Co9  1  0.862802  0.380704  0.109127  1
  B  B10  1  0.804677  0.665110  0.102130  1
  B  B11  1  0.195323  0.334890  0.102130  1
  B  B12  1  0.841042  0.289786  0.607795  1
  B  B13  1  0.158958  0.710214  0.607795  1
  B  B14  1  0.710214  0.841042  0.392205  1
  B  B15  1  0.289786  0.158958  0.392205  1
  B  B16  1  0.665110  0.195323  0.897870  1
  B  B17  1  0.334890  0.804677  0.897870  1
