# generated using pymatgen
data_Pr17Y3Si15Au
_symmetry_space_group_name_H-M   'P 1'
_cell_length_a   7.92107054
_cell_length_b   7.89521976
_cell_length_c   15.28527200
_cell_angle_alpha   90.00442678
_cell_angle_beta   89.62183112
_cell_angle_gamma   90.11071097
_symmetry_Int_Tables_number   1
_chemical_formula_structural   Pr17Y3Si15Au
_chemical_formula_sum   'Pr17 Y3 Si15 Au1'
_cell_volume   955.89678985
_cell_formula_units_Z   1
loop_
 _symmetry_equiv_pos_site_id
 _symmetry_equiv_pos_as_xyz
  1  'x, y, z'
loop_
 _atom_site_type_symbol
 _atom_site_label
 _atom_site_symmetry_multiplicity
 _atom_site_fract_x
 _atom_site_fract_y
 _atom_site_fract_z
 _atom_site_occupancy
  Pr  Pr0  1  0.693765  0.688926  0.498800  1
  Pr  Pr1  1  0.374460  0.011389  0.447958  1
  Pr  Pr2  1  0.490891  0.872034  0.699741  1
  Pr  Pr3  1  0.510841  0.124076  0.196633  1
  Pr  Pr4  1  0.878079  0.488007  0.301121  1
  Pr  Pr5  1  0.120139  0.514981  0.802367  1
  Pr  Pr6  1  0.626538  0.988063  0.949807  1
  Pr  Pr7  1  0.002050  0.378808  0.549907  1
  Pr  Pr8  1  0.989611  0.626132  0.052936  1
  Pr  Pr9  1  0.132527  0.981776  0.877669  1
  Pr  Pr10  1  0.520291  0.631030  0.126181  1
  Pr  Pr11  1  0.478301  0.371460  0.628172  1
  Pr  Pr12  1  0.628484  0.520840  0.875008  1
  Pr  Pr13  1  0.373289  0.480638  0.371598  1
  Pr  Pr14  1  0.872928  0.021858  0.376364  1
  Pr  Pr15  1  0.980891  0.126999  0.123218  1
  Pr  Pr16  1  0.016899  0.868486  0.621612  1
  Y  Y17  1  0.309669  0.310394  0.999142  1
  Y  Y18  1  0.189736  0.810899  0.250047  1
  Y  Y19  1  0.805688  0.186431  0.751996  1
  Si  Si20  1  0.330205  0.691178  0.953825  1
  Si  Si21  1  0.662622  0.302999  0.453141  1
  Si  Si22  1  0.694504  0.332257  0.046746  1
  Si  Si23  1  0.306658  0.669256  0.545513  1
  Si  Si24  1  0.810050  0.830584  0.204546  1
  Si  Si25  1  0.170373  0.192292  0.295413  1
  Si  Si26  1  0.833204  0.808472  0.796947  1
  Si  Si27  1  0.286575  0.923330  0.062651  1
  Si  Si28  1  0.575808  0.788481  0.309343  1
  Si  Si29  1  0.436104  0.208345  0.816814  1
  Si  Si30  1  0.785892  0.575300  0.691351  1
  Si  Si31  1  0.214214  0.423645  0.187001  1
  Si  Si32  1  0.708565  0.079032  0.562389  1
  Si  Si33  1  0.923761  0.287590  0.938479  1
  Si  Si34  1  0.082017  0.714495  0.436298  1
  Au  Au35  1  0.184373  0.169521  0.699267  1
