# generated using pymatgen
data_Tb3Er7Ru3Rh
_symmetry_space_group_name_H-M   'P 1'
_cell_length_a   6.32269592
_cell_length_b   7.29354031
_cell_length_c   8.43813187
_cell_angle_alpha   96.80229241
_cell_angle_beta   111.91381662
_cell_angle_gamma   90.07859032
_symmetry_Int_Tables_number   1
_chemical_formula_structural   Tb3Er7Ru3Rh
_chemical_formula_sum   'Tb3 Er7 Ru3 Rh1'
_cell_volume   358.02730361
_cell_formula_units_Z   1
loop_
 _symmetry_equiv_pos_site_id
 _symmetry_equiv_pos_as_xyz
  1  'x, y, z'
loop_
 _atom_site_type_symbol
 _atom_site_label
 _atom_site_symmetry_multiplicity
 _atom_site_fract_x
 _atom_site_fract_y
 _atom_site_fract_z
 _atom_site_occupancy
  Tb  Tb0  1  0.792370  0.581891  0.813877  1
  Tb  Tb1  1  0.980077  0.915510  0.189362  1
  Tb  Tb2  1  0.209142  0.415479  0.186818  1
  Er  Er3  1  0.023946  0.085893  0.814141  1
  Er  Er4  1  0.203571  0.683297  0.564064  1
  Er  Er5  1  0.642617  0.815173  0.432934  1
  Er  Er6  1  0.793159  0.314637  0.434815  1
  Er  Er7  1  0.356967  0.186585  0.564342  1
  Er  Er8  1  0.419307  0.749405  0.000668  1
  Er  Er9  1  0.579913  0.251769  0.001119  1
  Ru  Ru10  1  0.823057  0.576681  0.220080  1
  Ru  Ru11  1  0.397191  0.075185  0.220944  1
  Ru  Ru12  1  0.178084  0.423767  0.779040  1
  Rh  Rh13  1  0.600601  0.924728  0.777797  1
