# generated using pymatgen
data_Ac3(TaN3)2
_symmetry_space_group_name_H-M   'P 1'
_cell_length_a   4.13707608
_cell_length_b   4.13711792
_cell_length_c   10.94075230
_cell_angle_alpha   100.89847608
_cell_angle_beta   100.89836505
_cell_angle_gamma   90.00000232
_symmetry_Int_Tables_number   1
_chemical_formula_structural   Ac3(TaN3)2
_chemical_formula_sum   'Ac3 Ta2 N6'
_cell_volume   180.43925266
_cell_formula_units_Z   1
loop_
 _symmetry_equiv_pos_site_id
 _symmetry_equiv_pos_as_xyz
  1  'x, y, z'
loop_
 _atom_site_type_symbol
 _atom_site_label
 _atom_site_symmetry_multiplicity
 _atom_site_fract_x
 _atom_site_fract_y
 _atom_site_fract_z
 _atom_site_occupancy
  Ac  Ac0  1  0.000000  0.000000  0.000000  1
  Ac  Ac1  1  0.181102  0.181102  0.362204  1
  Ac  Ac2  1  0.818898  0.818898  0.637796  1
  Ta  Ta3  1  0.600737  0.600737  0.201473  1
  Ta  Ta4  1  0.399263  0.399263  0.798527  1
  N  N5  1  0.586625  0.086625  0.173251  1
  N  N6  1  0.086626  0.586626  0.173251  1
  N  N7  1  0.693948  0.693948  0.387895  1
  N  N8  1  0.306052  0.306052  0.612105  1
  N  N9  1  0.913375  0.413375  0.826750  1
  N  N10  1  0.413376  0.913376  0.826750  1
