# generated using pymatgen
data_Tb3Al12OsRuPt2
_symmetry_space_group_name_H-M   'P 1'
_cell_length_a   8.88096375
_cell_length_b   8.88096468
_cell_length_c   9.52976100
_cell_angle_alpha   90.00000000
_cell_angle_beta   90.00000000
_cell_angle_gamma   120.40467672
_symmetry_Int_Tables_number   1
_chemical_formula_structural   Tb3Al12OsRuPt2
_chemical_formula_sum   'Tb6 Al24 Os2 Ru2 Pt4'
_cell_volume   648.25732981
_cell_formula_units_Z   2
loop_
 _symmetry_equiv_pos_site_id
 _symmetry_equiv_pos_as_xyz
  1  'x, y, z'
loop_
 _atom_site_type_symbol
 _atom_site_label
 _atom_site_symmetry_multiplicity
 _atom_site_fract_x
 _atom_site_fract_y
 _atom_site_fract_z
 _atom_site_occupancy
  Tb  Tb0  1  0.197541  0.383292  0.250000  1
  Tb  Tb1  1  0.802459  0.616708  0.750000  1
  Tb  Tb2  1  0.616708  0.802459  0.250000  1
  Tb  Tb3  1  0.383292  0.197541  0.750000  1
  Tb  Tb4  1  0.190072  0.809928  0.250000  1
  Tb  Tb5  1  0.809928  0.190072  0.750000  1
  Al  Al6  1  0.335455  0.664545  0.030873  1
  Al  Al7  1  0.664545  0.335455  0.969127  1
  Al  Al8  1  0.664545  0.335455  0.530873  1
  Al  Al9  1  0.335455  0.664545  0.469127  1
  Al  Al10  1  0.167097  0.326205  0.576169  1
  Al  Al11  1  0.832903  0.673795  0.423831  1
  Al  Al12  1  0.673795  0.832903  0.576169  1
  Al  Al13  1  0.832903  0.673795  0.076169  1
  Al  Al14  1  0.326205  0.167097  0.423831  1
  Al  Al15  1  0.167097  0.326205  0.923831  1
  Al  Al16  1  0.160952  0.839048  0.577344  1
  Al  Al17  1  0.326205  0.167097  0.076169  1
  Al  Al18  1  0.839048  0.160952  0.422656  1
  Al  Al19  1  0.673795  0.832903  0.923831  1
  Al  Al20  1  0.839048  0.160952  0.077344  1
  Al  Al21  1  0.160952  0.839048  0.922656  1
  Al  Al22  1  0.564278  0.126720  0.250000  1
  Al  Al23  1  0.435722  0.873280  0.750000  1
  Al  Al24  1  0.873280  0.435722  0.250000  1
  Al  Al25  1  0.126720  0.564278  0.750000  1
  Al  Al26  1  0.563089  0.436911  0.250000  1
  Al  Al27  1  0.436911  0.563089  0.750000  1
  Al  Al28  1  0.001552  0.998448  0.250000  1
  Al  Al29  1  0.998448  0.001552  0.750000  1
  Os  Os30  1  0.500000  0.500000  0.000000  1
  Os  Os31  1  0.500000  0.500000  0.500000  1
  Ru  Ru32  1  0.000000  0.000000  0.000000  1
  Ru  Ru33  1  0.000000  0.000000  0.500000  1
  Pt  Pt34  1  0.500000  0.000000  0.000000  1
  Pt  Pt35  1  0.000000  0.500000  0.000000  1
  Pt  Pt36  1  0.500000  0.000000  0.500000  1
  Pt  Pt37  1  0.000000  0.500000  0.500000  1
