# generated using pymatgen
data_NaLi2Hf6TlFeBr18
_symmetry_space_group_name_H-M   'P 1'
_cell_length_a   10.45711503
_cell_length_b   10.35300210
_cell_length_c   10.56892122
_cell_angle_alpha   112.80163939
_cell_angle_beta   106.31319291
_cell_angle_gamma   99.13014400
_symmetry_Int_Tables_number   1
_chemical_formula_structural   NaLi2Hf6TlFeBr18
_chemical_formula_sum   'Na1 Li2 Hf6 Tl1 Fe1 Br18'
_cell_volume   964.94222806
_cell_formula_units_Z   1
loop_
 _symmetry_equiv_pos_site_id
 _symmetry_equiv_pos_as_xyz
  1  'x, y, z'
loop_
 _atom_site_type_symbol
 _atom_site_label
 _atom_site_symmetry_multiplicity
 _atom_site_fract_x
 _atom_site_fract_y
 _atom_site_fract_z
 _atom_site_occupancy
  Na  Na0  1  0.417353  0.871503  0.609620  1
  Li  Li1  1  0.583488  0.445222  0.116653  1
  Li  Li2  1  0.413958  0.561634  0.878829  1
  Hf  Hf3  1  0.153965  0.045581  0.242231  1
  Hf  Hf4  1  0.843220  0.948808  0.755335  1
  Hf  Hf5  1  0.872125  0.152119  0.116303  1
  Hf  Hf6  1  0.128484  0.848627  0.881854  1
  Hf  Hf7  1  0.148475  0.213374  0.015715  1
  Hf  Hf8  1  0.850609  0.784868  0.982712  1
  Tl  Tl9  1  0.609492  0.154639  0.431498  1
  Fe  Fe10  1  0.999771  0.999033  0.999102  1
  Br  Br11  1  0.025472  0.405508  0.146062  1
  Br  Br12  1  0.976934  0.593769  0.850049  1
  Br  Br13  1  0.338757  0.293143  0.291115  1
  Br  Br14  1  0.659006  0.702778  0.710575  1
  Br  Br15  1  0.339171  0.467342  0.045555  1
  Br  Br16  1  0.656874  0.531530  0.948109  1
  Br  Br17  1  0.003219  0.811394  0.247589  1
  Br  Br18  1  0.990640  0.183229  0.747965  1
  Br  Br19  1  0.723660  0.332939  0.249527  1
  Br  Br20  1  0.289046  0.684393  0.741385  1
  Br  Br21  1  0.312434  0.072986  0.892260  1
  Br  Br22  1  0.687739  0.929728  0.107679  1
  Br  Br23  1  0.028207  0.218992  0.396857  1
  Br  Br24  1  0.970064  0.779058  0.600932  1
  Br  Br25  1  0.316911  0.882541  0.139214  1
  Br  Br26  1  0.681602  0.114705  0.857445  1
  Br  Br27  1  0.339302  0.097382  0.520499  1
  Br  Br28  1  0.640022  0.873174  0.477332  1
