# generated using pymatgen
data_Na3Mg2AuO6
_symmetry_space_group_name_H-M   'P 1'
_cell_length_a   5.39703116
_cell_length_b   5.39703106
_cell_length_c   5.71593122
_cell_angle_alpha   99.12527410
_cell_angle_beta   99.12527138
_cell_angle_gamma   119.91507563
_symmetry_Int_Tables_number   1
_chemical_formula_structural   Na3Mg2AuO6
_chemical_formula_sum   'Na3 Mg2 Au1 O6'
_cell_volume   136.87851364
_cell_formula_units_Z   1
loop_
 _symmetry_equiv_pos_site_id
 _symmetry_equiv_pos_as_xyz
  1  'x, y, z'
loop_
 _atom_site_type_symbol
 _atom_site_label
 _atom_site_symmetry_multiplicity
 _atom_site_fract_x
 _atom_site_fract_y
 _atom_site_fract_z
 _atom_site_occupancy
  Na  Na0  1  0.832154  0.167847  0.500000  1
  Na  Na1  1  0.500000  0.500000  0.500000  1
  Na  Na2  1  0.167847  0.832154  0.500000  1
  Mg  Mg3  1  0.666366  0.333636  0.000000  1
  Mg  Mg4  1  0.333636  0.666366  0.000000  1
  Au  Au5  1  0.000000  0.000000  0.000000  1
  O  O6  1  0.744090  0.744090  0.203392  1
  O  O7  1  0.392422  0.067926  0.204523  1
  O  O8  1  0.067926  0.392422  0.204523  1
  O  O9  1  0.932073  0.607578  0.795476  1
  O  O10  1  0.607578  0.932073  0.795476  1
  O  O11  1  0.255911  0.255911  0.796609  1
