# generated using pymatgen
data_SbBr35
_symmetry_space_group_name_H-M   'P 1'
_cell_length_a   15.98197694
_cell_length_b   11.40028128
_cell_length_c   10.79188300
_cell_angle_alpha   88.81408278
_cell_angle_beta   66.02770512
_cell_angle_gamma   92.31545406
_symmetry_Int_Tables_number   1
_chemical_formula_structural   SbBr35
_chemical_formula_sum   'Sb1 Br35'
_cell_volume   1793.71352310
_cell_formula_units_Z   1
loop_
 _symmetry_equiv_pos_site_id
 _symmetry_equiv_pos_as_xyz
  1  'x, y, z'
loop_
 _atom_site_type_symbol
 _atom_site_label
 _atom_site_symmetry_multiplicity
 _atom_site_fract_x
 _atom_site_fract_y
 _atom_site_fract_z
 _atom_site_occupancy
  Sb  Sb0  1  0.229423  0.446523  0.458138  1
  Br  Br1  1  0.519038  0.259311  0.519788  1
  Br  Br2  1  0.764934  0.578391  0.556765  1
  Br  Br3  1  0.489833  0.682913  0.747573  1
  Br  Br4  1  0.048202  0.887192  0.868813  1
  Br  Br5  1  0.889158  0.159762  0.007040  1
  Br  Br6  1  0.653870  0.317980  0.287922  1
  Br  Br7  1  0.624369  0.348672  0.833877  1
  Br  Br8  1  0.353357  0.755630  0.709433  1
  Br  Br9  1  0.339173  0.586441  0.213717  1
  Br  Br10  1  0.642808  0.143326  0.810264  1
  Br  Br11  1  0.904035  0.541344  0.352826  1
  Br  Br12  1  0.050367  0.952072  0.642463  1
  Br  Br13  1  0.898009  0.109813  0.240720  1
  Br  Br14  1  0.880855  0.215003  0.789056  1
  Br  Br15  1  0.649140  0.046066  0.232545  1
  Br  Br16  1  0.022471  0.817187  0.112577  1
  Br  Br17  1  0.370978  0.975369  0.725811  1
  Br  Br18  1  0.898973  0.319771  0.305756  1
  Br  Br19  1  0.867945  0.926661  0.720900  1
  Br  Br20  1  0.893174  0.660738  0.796979  1
  Br  Br21  1  0.317183  0.025190  0.295767  1
  Br  Br22  1  0.338435  0.306479  0.280880  1
  Br  Br23  1  0.626560  0.613029  0.790998  1
  Br  Br24  1  0.115268  0.415933  0.348965  1
  Br  Br25  1  0.701250  0.906523  0.797027  1
  Br  Br26  1  0.867858  0.452164  0.803125  1
  Br  Br27  1  0.487893  0.034865  0.265822  1
  Br  Br28  1  0.151954  0.289949  0.642552  1
  Br  Br29  1  0.674165  0.770139  0.270548  1
  Br  Br30  1  0.848186  0.797113  0.194009  1
  Br  Br31  1  0.386263  0.200665  0.738384  1
  Br  Br32  1  0.359441  0.492640  0.534977  1
  Br  Br33  1  0.656662  0.541180  0.267265  1
  Br  Br34  1  0.146145  0.623675  0.580244  1
  Br  Br35  1  0.332627  0.800291  0.256478  1
