# generated using pymatgen
data_YbSmRh2O7
_symmetry_space_group_name_H-M   'P 1'
_cell_length_a   7.27581829
_cell_length_b   7.25498092
_cell_length_c   7.25502258
_cell_angle_alpha   59.88153499
_cell_angle_beta   59.90473971
_cell_angle_gamma   59.90532777
_symmetry_Int_Tables_number   1
_chemical_formula_structural   YbSmRh2O7
_chemical_formula_sum   'Yb2 Sm2 Rh4 O14'
_cell_volume   270.16419318
_cell_formula_units_Z   2
loop_
 _symmetry_equiv_pos_site_id
 _symmetry_equiv_pos_as_xyz
  1  'x, y, z'
loop_
 _atom_site_type_symbol
 _atom_site_label
 _atom_site_symmetry_multiplicity
 _atom_site_fract_x
 _atom_site_fract_y
 _atom_site_fract_z
 _atom_site_occupancy
  Yb  Yb0  1  0.625000  0.625000  0.125000  1
  Yb  Yb1  1  0.625000  0.125000  0.625000  1
  Sm  Sm2  1  0.625000  0.625000  0.625000  1
  Sm  Sm3  1  0.125000  0.625000  0.625000  1
  Rh  Rh4  1  0.125000  0.125000  0.125000  1
  Rh  Rh5  1  0.625000  0.125000  0.125000  1
  Rh  Rh6  1  0.125000  0.125000  0.625000  1
  Rh  Rh7  1  0.125000  0.625000  0.125000  1
  O  O8  1  0.500601  0.499399  0.499399  1
  O  O9  1  0.749399  0.750601  0.750601  1
  O  O10  1  0.045969  0.044718  0.455221  1
  O  O11  1  0.795908  0.794779  0.205282  1
  O  O12  1  0.454092  0.044717  0.455220  1
  O  O13  1  0.451713  0.048287  0.048287  1
  O  O14  1  0.042937  0.457063  0.457063  1
  O  O15  1  0.045970  0.455220  0.044717  1
  O  O16  1  0.454092  0.455221  0.044718  1
  O  O17  1  0.207063  0.792937  0.792937  1
  O  O18  1  0.798287  0.201713  0.201713  1
  O  O19  1  0.204031  0.205282  0.794779  1
  O  O20  1  0.204030  0.794780  0.205283  1
  O  O21  1  0.795908  0.205283  0.794780  1
