# generated using pymatgen
data_Pr6Y4In5BiBr2
_symmetry_space_group_name_H-M   'P 1'
_cell_length_a   9.52049944
_cell_length_b   9.52049963
_cell_length_c   6.87616100
_cell_angle_alpha   90.00000000
_cell_angle_beta   90.00000000
_cell_angle_gamma   120.09953969
_symmetry_Int_Tables_number   1
_chemical_formula_structural   Pr6Y4In5BiBr2
_chemical_formula_sum   'Pr6 Y4 In5 Bi1 Br2'
_cell_volume   539.21213421
_cell_formula_units_Z   1
loop_
 _symmetry_equiv_pos_site_id
 _symmetry_equiv_pos_as_xyz
  1  'x, y, z'
loop_
 _atom_site_type_symbol
 _atom_site_label
 _atom_site_symmetry_multiplicity
 _atom_site_fract_x
 _atom_site_fract_y
 _atom_site_fract_z
 _atom_site_occupancy
  Pr  Pr0  1  0.269941  0.002930  0.750000  1
  Pr  Pr1  1  0.734717  0.005746  0.250000  1
  Pr  Pr2  1  0.002930  0.269941  0.750000  1
  Pr  Pr3  1  0.005746  0.734717  0.250000  1
  Pr  Pr4  1  0.732455  0.732455  0.750000  1
  Pr  Pr5  1  0.262596  0.262596  0.250000  1
  Y  Y6  1  0.330163  0.667315  0.502608  1
  Y  Y7  1  0.667315  0.330163  0.502608  1
  Y  Y8  1  0.667315  0.330163  0.997392  1
  Y  Y9  1  0.330163  0.667315  0.997392  1
  In  In10  1  0.605703  0.999364  0.750000  1
  In  In11  1  0.395921  0.000483  0.250000  1
  In  In12  1  0.999364  0.605703  0.750000  1
  In  In13  1  0.000483  0.395921  0.250000  1
  In  In14  1  0.391781  0.391781  0.750000  1
  Bi  Bi15  1  0.607246  0.607246  0.250000  1
  Br  Br16  1  0.998078  0.998078  0.499560  1
  Br  Br17  1  0.998078  0.998078  0.000440  1
