# generated using pymatgen
data_Li2AcZn9
_symmetry_space_group_name_H-M   'P 1'
_cell_length_a   8.46492825
_cell_length_b   8.41768179
_cell_length_c   8.41768189
_cell_angle_alpha   99.65941058
_cell_angle_beta   99.47714643
_cell_angle_gamma   131.52216733
_symmetry_Int_Tables_number   1
_chemical_formula_structural   Li2AcZn9
_chemical_formula_sum   'Li4 Ac2 Zn18'
_cell_volume   410.61586292
_cell_formula_units_Z   2
loop_
 _symmetry_equiv_pos_site_id
 _symmetry_equiv_pos_as_xyz
  1  'x, y, z'
loop_
 _atom_site_type_symbol
 _atom_site_label
 _atom_site_symmetry_multiplicity
 _atom_site_fract_x
 _atom_site_fract_y
 _atom_site_fract_z
 _atom_site_occupancy
  Li  Li0  1  0.745195  0.246525  0.498670  1
  Li  Li1  1  0.506843  0.503800  0.003043  1
  Li  Li2  1  0.185604  0.520064  0.079484  1
  Li  Li3  1  0.185604  0.106119  0.665539  1
  Ac  Ac4  1  0.000828  0.998268  0.002559  1
  Ac  Ac5  1  0.246346  0.746247  0.500099  1
  Zn  Zn6  1  0.118762  0.374823  0.743940  1
  Zn  Zn7  1  0.621869  0.872858  0.251403  1
  Zn  Zn8  1  0.621869  0.370466  0.749012  1
  Zn  Zn9  1  0.624913  0.376510  0.248403  1
  Zn  Zn10  1  0.765817  0.935031  0.586455  1
  Zn  Zn11  1  0.765817  0.179364  0.830787  1
  Zn  Zn12  1  0.433399  0.516822  0.330163  1
  Zn  Zn13  1  0.433399  0.103236  0.916576  1
  Zn  Zn14  1  0.355364  0.936118  0.171260  1
  Zn  Zn15  1  0.355364  0.184102  0.419245  1
  Zn  Zn16  1  0.064676  0.235514  0.413597  1
  Zn  Zn17  1  0.064676  0.651078  0.829161  1
  Zn  Zn18  1  0.481548  0.809808  0.918918  1
  Zn  Zn19  1  0.481548  0.562630  0.671740  1
  Zn  Zn20  1  0.819629  0.235129  0.169254  1
  Zn  Zn21  1  0.819629  0.650375  0.584501  1
  Zn  Zn22  1  0.900652  0.816854  0.332391  1
  Zn  Zn23  1  0.900652  0.568261  0.083798  1
