# generated using pymatgen
data_Y18Ho2Ir11Au
_symmetry_space_group_name_H-M   'P 1'
_cell_length_a   10.98915834
_cell_length_b   10.98915823
_cell_length_c   6.37046304
_cell_angle_alpha   89.94179344
_cell_angle_beta   89.94179240
_cell_angle_gamma   89.61273092
_symmetry_Int_Tables_number   1
_chemical_formula_structural   Y18Ho2Ir11Au
_chemical_formula_sum   'Y18 Ho2 Ir11 Au1'
_cell_volume   769.28894648
_cell_formula_units_Z   1
loop_
 _symmetry_equiv_pos_site_id
 _symmetry_equiv_pos_as_xyz
  1  'x, y, z'
loop_
 _atom_site_type_symbol
 _atom_site_label
 _atom_site_symmetry_multiplicity
 _atom_site_fract_x
 _atom_site_fract_y
 _atom_site_fract_z
 _atom_site_occupancy
  Y  Y0  1  0.290458  0.088162  0.376867  1
  Y  Y1  1  0.292612  0.911142  0.876015  1
  Y  Y2  1  0.704205  0.084871  0.866747  1
  Y  Y3  1  0.705831  0.905397  0.379991  1
  Y  Y4  1  0.587812  0.790886  0.878777  1
  Y  Y5  1  0.580085  0.210005  0.378813  1
  Y  Y6  1  0.411228  0.791166  0.377590  1
  Y  Y7  1  0.410648  0.208664  0.877758  1
  Y  Y8  1  0.209114  0.412188  0.621223  1
  Y  Y9  1  0.208834  0.588772  0.122410  1
  Y  Y10  1  0.789995  0.419915  0.121187  1
  Y  Y11  1  0.791336  0.589352  0.622242  1
  Y  Y12  1  0.911838  0.709542  0.123133  1
  Y  Y13  1  0.915129  0.295795  0.633253  1
  Y  Y14  1  0.088858  0.707388  0.623985  1
  Y  Y15  1  0.094603  0.294169  0.120009  1
  Y  Y16  1  0.003649  0.996106  0.501737  1
  Y  Y17  1  0.003894  0.996351  0.998263  1
  Ho  Ho18  1  0.499267  0.499770  0.999090  1
  Ho  Ho19  1  0.500230  0.500733  0.500910  1
  Ir  Ir20  1  0.846384  0.847781  0.749583  1
  Ir  Ir21  1  0.152219  0.153616  0.750417  1
  Ir  Ir22  1  0.154979  0.845021  0.250000  1
  Ir  Ir23  1  0.654434  0.345566  0.750000  1
  Ir  Ir24  1  0.653009  0.651874  0.248853  1
  Ir  Ir25  1  0.348126  0.346991  0.251147  1
  Ir  Ir26  1  0.347066  0.652934  0.750000  1
  Ir  Ir27  1  0.500660  0.000243  0.124944  1
  Ir  Ir28  1  0.499938  0.000556  0.621712  1
  Ir  Ir29  1  0.999444  0.500062  0.878288  1
  Ir  Ir30  1  0.999757  0.499340  0.375056  1
  Au  Au31  1  0.844357  0.155643  0.250000  1
