# generated using pymatgen
data_Sr2ErNpO6
_symmetry_space_group_name_H-M   'P 1'
_cell_length_a   6.07849400
_cell_length_b   5.93353232
_cell_length_c   10.34909136
_cell_angle_alpha   55.16370561
_cell_angle_beta   90.00000000
_cell_angle_gamma   90.00000000
_symmetry_Int_Tables_number   1
_chemical_formula_structural   Sr2ErNpO6
_chemical_formula_sum   'Sr4 Er2 Np2 O12'
_cell_volume   306.36720260
_cell_formula_units_Z   2
loop_
 _symmetry_equiv_pos_site_id
 _symmetry_equiv_pos_as_xyz
  1  'x, y, z'
loop_
 _atom_site_type_symbol
 _atom_site_label
 _atom_site_symmetry_multiplicity
 _atom_site_fract_x
 _atom_site_fract_y
 _atom_site_fract_z
 _atom_site_occupancy
  Sr  Sr0  1  0.454728  0.260854  0.749824  1
  Sr  Sr1  1  0.954728  0.739146  0.750176  1
  Sr  Sr2  1  0.045272  0.260854  0.249824  1
  Sr  Sr3  1  0.545272  0.739146  0.250176  1
  Er  Er4  1  0.500000  0.000000  0.500000  1
  Er  Er5  1  0.000000  0.000000  0.000000  1
  Np  Np6  1  0.000000  0.500000  0.500000  1
  Np  Np7  1  0.500000  0.500000  0.000000  1
  O  O8  1  0.197690  0.737410  0.548826  1
  O  O9  1  0.697690  0.262590  0.951174  1
  O  O10  1  0.802310  0.262590  0.451174  1
  O  O11  1  0.302310  0.737410  0.048826  1
  O  O12  1  0.710574  0.645740  0.553993  1
  O  O13  1  0.210574  0.354260  0.946007  1
  O  O14  1  0.289426  0.354260  0.446007  1
  O  O15  1  0.789426  0.645740  0.053993  1
  O  O16  1  0.036564  0.157698  0.745154  1
  O  O17  1  0.536564  0.842302  0.754846  1
  O  O18  1  0.963436  0.842302  0.254846  1
  O  O19  1  0.463436  0.157698  0.245154  1
