# generated using pymatgen
data_YbDy(OsRu)2
_symmetry_space_group_name_H-M   'P 1'
_cell_length_a   5.21456738
_cell_length_b   5.31585434
_cell_length_c   8.97251745
_cell_angle_alpha   90.00000111
_cell_angle_beta   90.16378077
_cell_angle_gamma   120.64464437
_symmetry_Int_Tables_number   1
_chemical_formula_structural   YbDy(OsRu)2
_chemical_formula_sum   'Yb2 Dy2 Os4 Ru4'
_cell_volume   213.98137454
_cell_formula_units_Z   2
loop_
 _symmetry_equiv_pos_site_id
 _symmetry_equiv_pos_as_xyz
  1  'x, y, z'
loop_
 _atom_site_type_symbol
 _atom_site_label
 _atom_site_symmetry_multiplicity
 _atom_site_fract_x
 _atom_site_fract_y
 _atom_site_fract_z
 _atom_site_occupancy
  Yb  Yb0  1  0.669736  0.334867  0.940922  1
  Yb  Yb1  1  0.336674  0.668337  0.061156  1
  Dy  Dy2  1  0.332781  0.666391  0.427671  1
  Dy  Dy3  1  0.666074  0.333037  0.571067  1
  Os  Os4  1  0.331477  0.165739  0.248172  1
  Os  Os5  1  0.170209  0.829667  0.750359  1
  Os  Os6  1  0.170209  0.340540  0.750359  1
  Os  Os7  1  0.657487  0.828743  0.749008  1
  Ru  Ru8  1  0.009450  0.004725  0.498905  1
  Ru  Ru9  1  0.015741  0.007870  0.000435  1
  Ru  Ru10  1  0.820082  0.166896  0.250974  1
  Ru  Ru11  1  0.820082  0.653187  0.250974  1
