# generated using pymatgen
data_TmLu2GeTe2
_symmetry_space_group_name_H-M   'P 1'
_cell_length_a   7.34778150
_cell_length_b   7.34778101
_cell_length_c   7.34778100
_cell_angle_alpha   146.49270493
_cell_angle_beta   132.36305688
_cell_angle_gamma   59.49313259
_symmetry_Int_Tables_number   1
_chemical_formula_structural   TmLu2GeTe2
_chemical_formula_sum   'Tm1 Lu2 Ge1 Te2'
_cell_volume   160.38084690
_cell_formula_units_Z   1
loop_
 _symmetry_equiv_pos_site_id
 _symmetry_equiv_pos_as_xyz
  1  'x, y, z'
loop_
 _atom_site_type_symbol
 _atom_site_label
 _atom_site_symmetry_multiplicity
 _atom_site_fract_x
 _atom_site_fract_y
 _atom_site_fract_z
 _atom_site_occupancy
  Tm  Tm0  1  0.500000  0.000000  0.500000  1
  Lu  Lu1  1  0.856771  0.356771  0.500000  1
  Lu  Lu2  1  0.143229  0.643229  0.500000  1
  Ge  Ge3  1  0.000000  0.000000  0.000000  1
  Te  Te4  1  0.674915  0.674915  0.000000  1
  Te  Te5  1  0.325085  0.325085  0.000000  1
