# generated using pymatgen
data_SrCaAs4F24
_symmetry_space_group_name_H-M   'P 1'
_cell_length_a   9.90472568
_cell_length_b   9.90472578
_cell_length_c   9.90472491
_cell_angle_alpha   131.67727191
_cell_angle_beta   131.67727628
_cell_angle_gamma   70.73922168
_symmetry_Int_Tables_number   1
_chemical_formula_structural   SrCaAs4F24
_chemical_formula_sum   'Sr1 Ca1 As4 F24'
_cell_volume   530.97832328
_cell_formula_units_Z   1
loop_
 _symmetry_equiv_pos_site_id
 _symmetry_equiv_pos_as_xyz
  1  'x, y, z'
loop_
 _atom_site_type_symbol
 _atom_site_label
 _atom_site_symmetry_multiplicity
 _atom_site_fract_x
 _atom_site_fract_y
 _atom_site_fract_z
 _atom_site_occupancy
  Sr  Sr0  1  0.750000  0.250000  0.500000  1
  Ca  Ca1  1  0.000000  0.000000  0.000000  1
  As  As2  1  0.782838  0.782838  0.000000  1
  As  As3  1  0.217162  0.217162  0.000000  1
  As  As4  1  0.975611  0.475611  0.500000  1
  As  As5  1  0.524389  0.024389  0.500000  1
  F  F6  1  0.860317  0.757926  0.197707  1
  F  F7  1  0.560218  0.662610  0.802293  1
  F  F8  1  0.417659  0.798588  0.312840  1
  F  F9  1  0.337390  0.139683  0.897609  1
  F  F10  1  0.242074  0.439782  0.102391  1
  F  F11  1  0.201412  0.514251  0.619070  1
  F  F12  1  0.638635  0.252337  0.677283  1
  F  F13  1  0.747663  0.424946  0.386299  1
  F  F14  1  0.038648  0.361365  0.613701  1
  F  F15  1  0.091546  0.275643  0.099278  1
  F  F16  1  0.176365  0.992268  0.900722  1
  F  F17  1  0.575054  0.961352  0.322717  1
  F  F18  1  0.724357  0.823635  0.815904  1
  F  F19  1  0.007732  0.908454  0.184096  1
  F  F20  1  0.309409  0.075472  0.329053  1
  F  F21  1  0.924528  0.253581  0.233938  1
  F  F22  1  0.019644  0.690591  0.766062  1
  F  F23  1  0.426205  0.279818  0.277639  1
  F  F24  1  0.002179  0.148565  0.722361  1
  F  F25  1  0.746419  0.980356  0.670947  1
  F  F26  1  0.720182  0.997821  0.146386  1
  F  F27  1  0.851435  0.573795  0.853614  1
  F  F28  1  0.485749  0.104817  0.687160  1
  F  F29  1  0.895183  0.582341  0.380930  1
