# generated using pymatgen
data_Tm3Sc3Cr2(Co4P3)4
_symmetry_space_group_name_H-M   'P 1'
_cell_length_a   3.61910200
_cell_length_b   10.36320960
_cell_length_c   11.99118278
_cell_angle_alpha   89.98830589
_cell_angle_beta   90.00000000
_cell_angle_gamma   90.00000000
_symmetry_Int_Tables_number   1
_chemical_formula_structural   Tm3Sc3Cr2(Co4P3)4
_chemical_formula_sum   'Tm3 Sc3 Cr2 Co16 P12'
_cell_volume   449.73544714
_cell_formula_units_Z   1
loop_
 _symmetry_equiv_pos_site_id
 _symmetry_equiv_pos_as_xyz
  1  'x, y, z'
loop_
 _atom_site_type_symbol
 _atom_site_label
 _atom_site_symmetry_multiplicity
 _atom_site_fract_x
 _atom_site_fract_y
 _atom_site_fract_z
 _atom_site_occupancy
  Tm  Tm0  1  0.000000  0.500783  0.523455  1
  Tm  Tm1  1  0.500000  0.999824  0.475117  1
  Tm  Tm2  1  0.000000  0.319118  0.795802  1
  Sc  Sc3  1  0.500000  0.818444  0.203871  1
  Sc  Sc4  1  0.500000  0.181190  0.203104  1
  Sc  Sc5  1  0.000000  0.682587  0.797160  1
  Cr  Cr6  1  0.500000  0.500636  0.155945  1
  Cr  Cr7  1  0.000000  0.999155  0.844538  1
  Co  Co8  1  0.500000  0.501682  0.702444  1
  Co  Co9  1  0.000000  0.999362  0.296952  1
  Co  Co10  1  0.000000  0.501450  0.987659  1
  Co  Co11  1  0.500000  0.998583  0.014553  1
  Co  Co12  1  0.500000  0.332511  0.992921  1
  Co  Co13  1  0.500000  0.668600  0.992420  1
  Co  Co14  1  0.000000  0.166332  0.010229  1
  Co  Co15  1  0.000000  0.832252  0.009111  1
  Co  Co16  1  0.500000  0.296381  0.428820  1
  Co  Co17  1  0.500000  0.703674  0.430579  1
  Co  Co18  1  0.000000  0.202974  0.567295  1
  Co  Co19  1  0.000000  0.796564  0.569526  1
  Co  Co20  1  0.500000  0.876968  0.709443  1
  Co  Co21  1  0.500000  0.121193  0.707859  1
  Co  Co22  1  0.000000  0.622807  0.291421  1
  Co  Co23  1  0.000000  0.377211  0.290502  1
  P  P24  1  0.500000  0.502842  0.880368  1
  P  P25  1  0.000000  0.998935  0.121657  1
  P  P26  1  0.500000  0.499992  0.345016  1
  P  P27  1  0.000000  0.999855  0.654744  1
  P  P28  1  0.500000  0.313542  0.615642  1
  P  P29  1  0.500000  0.687582  0.619052  1
  P  P30  1  0.000000  0.186135  0.379185  1
  P  P31  1  0.000000  0.813299  0.380781  1
  P  P32  1  0.500000  0.845383  0.890289  1
  P  P33  1  0.500000  0.151519  0.891500  1
  P  P34  1  0.000000  0.655348  0.110972  1
  P  P35  1  0.000000  0.345285  0.110070  1
