# generated using pymatgen
data_RbNaV2P2(O4F)2
_symmetry_space_group_name_H-M   'P 1'
_cell_length_a   6.37621600
_cell_length_b   10.79749800
_cell_length_c   12.88533500
_cell_angle_alpha   90.00000000
_cell_angle_beta   90.00000000
_cell_angle_gamma   90.00000000
_symmetry_Int_Tables_number   1
_chemical_formula_structural   RbNaV2P2(O4F)2
_chemical_formula_sum   'Rb4 Na4 V8 P8 O32 F8'
_cell_volume   887.11897176
_cell_formula_units_Z   4
loop_
 _symmetry_equiv_pos_site_id
 _symmetry_equiv_pos_as_xyz
  1  'x, y, z'
loop_
 _atom_site_type_symbol
 _atom_site_label
 _atom_site_symmetry_multiplicity
 _atom_site_fract_x
 _atom_site_fract_y
 _atom_site_fract_z
 _atom_site_occupancy
  Rb  Rb0  1  0.816531  0.346296  0.402461  1
  Rb  Rb1  1  0.183469  0.846296  0.597539  1
  Rb  Rb2  1  0.683469  0.346296  0.902461  1
  Rb  Rb3  1  0.316531  0.846296  0.097539  1
  Na  Na4  1  0.793020  0.057810  0.115995  1
  Na  Na5  1  0.206980  0.557810  0.884005  1
  Na  Na6  1  0.706980  0.057810  0.615995  1
  Na  Na7  1  0.293020  0.557810  0.384005  1
  V  V8  1  0.532667  0.009944  0.383699  1
  V  V9  1  0.467333  0.509944  0.616301  1
  V  V10  1  0.967330  0.009948  0.883699  1
  V  V11  1  0.032670  0.509948  0.116301  1
  V  V12  1  0.278553  0.242114  0.232439  1
  V  V13  1  0.721447  0.742114  0.767561  1
  V  V14  1  0.221448  0.242113  0.732438  1
  V  V15  1  0.778552  0.742113  0.267562  1
  P  P16  1  0.338088  0.256513  0.489053  1
  P  P17  1  0.661912  0.756513  0.510947  1
  P  P18  1  0.161912  0.256514  0.989053  1
  P  P19  1  0.838088  0.756514  0.010947  1
  P  P20  1  0.529841  0.502304  0.180547  1
  P  P21  1  0.470159  0.002304  0.819453  1
  P  P22  1  0.970160  0.502304  0.680547  1
  P  P23  1  0.029840  0.002304  0.319453  1
  O  O24  1  0.518195  0.158823  0.484810  1
  O  O25  1  0.481805  0.658823  0.515190  1
  O  O26  1  0.981805  0.158823  0.984810  1
  O  O27  1  0.018195  0.658823  0.015190  1
  O  O28  1  0.436788  0.388239  0.500126  1
  O  O29  1  0.563212  0.888239  0.499874  1
  O  O30  1  0.063212  0.388239  0.000127  1
  O  O31  1  0.936788  0.888239  0.999873  1
  O  O32  1  0.218708  0.258917  0.385262  1
  O  O33  1  0.781292  0.758917  0.614738  1
  O  O34  1  0.281292  0.258917  0.885262  1
  O  O35  1  0.718708  0.758917  0.114738  1
  O  O36  1  0.183450  0.227414  0.578166  1
  O  O37  1  0.816550  0.727414  0.421834  1
  O  O38  1  0.316550  0.227414  0.078166  1
  O  O39  1  0.683450  0.727414  0.921834  1
  O  O40  1  0.342106  0.538604  0.110633  1
  O  O41  1  0.657894  0.038604  0.889367  1
  O  O42  1  0.157894  0.538604  0.610633  1
  O  O43  1  0.842106  0.038604  0.389367  1
  O  O44  1  0.722572  0.485280  0.110127  1
  O  O45  1  0.277428  0.985280  0.889873  1
  O  O46  1  0.777428  0.485279  0.610127  1
  O  O47  1  0.222572  0.985279  0.389873  1
  O  O48  1  0.565167  0.603705  0.265467  1
  O  O49  1  0.434833  0.103705  0.734533  1
  O  O50  1  0.934832  0.603705  0.765467  1
  O  O51  1  0.065168  0.103705  0.234533  1
  O  O52  1  0.483258  0.381927  0.242744  1
  O  O53  1  0.516742  0.881927  0.757256  1
  O  O54  1  0.016742  0.381927  0.742744  1
  O  O55  1  0.983258  0.881927  0.257256  1
  F  F56  1  0.548480  0.869594  0.282661  1
  F  F57  1  0.451520  0.369594  0.717339  1
  F  F58  1  0.951520  0.869594  0.782661  1
  F  F59  1  0.048480  0.369594  0.217339  1
  F  F60  1  0.517222  0.117513  0.253478  1
  F  F61  1  0.482778  0.617513  0.746522  1
  F  F62  1  0.982778  0.117514  0.753478  1
  F  F63  1  0.017222  0.617514  0.246522  1
