# generated using pymatgen
data_Tm5Lu11MgCd3Pt4
_symmetry_space_group_name_H-M   'P 1'
_cell_length_a   9.53314069
_cell_length_b   9.53010677
_cell_length_c   9.53010565
_cell_angle_alpha   59.83029102
_cell_angle_beta   59.81508706
_cell_angle_gamma   59.81508565
_symmetry_Int_Tables_number   1
_chemical_formula_structural   Tm5Lu11MgCd3Pt4
_chemical_formula_sum   'Tm5 Lu11 Mg1 Cd3 Pt4'
_cell_volume   609.73340476
_cell_formula_units_Z   1
loop_
 _symmetry_equiv_pos_site_id
 _symmetry_equiv_pos_as_xyz
  1  'x, y, z'
loop_
 _atom_site_type_symbol
 _atom_site_label
 _atom_site_symmetry_multiplicity
 _atom_site_fract_x
 _atom_site_fract_y
 _atom_site_fract_z
 _atom_site_occupancy
  Tm  Tm0  1  0.563038  0.936987  0.936987  1
  Tm  Tm1  1  0.566229  0.934919  0.565974  1
  Tm  Tm2  1  0.936901  0.563058  0.936575  1
  Tm  Tm3  1  0.566229  0.565974  0.934919  1
  Tm  Tm4  1  0.936901  0.936575  0.563058  1
  Lu  Lu5  1  0.350362  0.350508  0.350508  1
  Lu  Lu6  1  0.353780  0.353881  0.941956  1
  Lu  Lu7  1  0.353780  0.941956  0.353881  1
  Lu  Lu8  1  0.942037  0.353816  0.353816  1
  Lu  Lu9  1  0.810043  0.190492  0.190492  1
  Lu  Lu10  1  0.188887  0.812108  0.812108  1
  Lu  Lu11  1  0.190142  0.810135  0.190620  1
  Lu  Lu12  1  0.812025  0.189341  0.811897  1
  Lu  Lu13  1  0.190142  0.190620  0.810135  1
  Lu  Lu14  1  0.812025  0.811897  0.189341  1
  Lu  Lu15  1  0.935438  0.565817  0.565817  1
  Mg  Mg16  1  0.577503  0.577135  0.577135  1
  Cd  Cd17  1  0.581526  0.581437  0.252705  1
  Cd  Cd18  1  0.581526  0.252705  0.581437  1
  Cd  Cd19  1  0.252544  0.581446  0.581446  1
  Pt  Pt20  1  0.143683  0.143654  0.143654  1
  Pt  Pt21  1  0.141794  0.142126  0.571526  1
  Pt  Pt22  1  0.141794  0.571526  0.142126  1
  Pt  Pt23  1  0.571672  0.141889  0.141889  1
