# generated using pymatgen
data_Sm4SbIO12
_symmetry_space_group_name_H-M   'P 1'
_cell_length_a   5.56577000
_cell_length_b   7.85539769
_cell_length_c   11.77651828
_cell_angle_alpha   76.55682943
_cell_angle_beta   90.00000000
_cell_angle_gamma   90.00000000
_symmetry_Int_Tables_number   1
_chemical_formula_structural   Sm4SbIO12
_chemical_formula_sum   'Sm8 Sb2 I2 O24'
_cell_volume   500.77777789
_cell_formula_units_Z   2
loop_
 _symmetry_equiv_pos_site_id
 _symmetry_equiv_pos_as_xyz
  1  'x, y, z'
loop_
 _atom_site_type_symbol
 _atom_site_label
 _atom_site_symmetry_multiplicity
 _atom_site_fract_x
 _atom_site_fract_y
 _atom_site_fract_z
 _atom_site_occupancy
  Sm  Sm0  1  0.742089  0.985632  0.756882  1
  Sm  Sm1  1  0.257911  0.985632  0.256882  1
  Sm  Sm2  1  0.189614  0.786514  0.575516  1
  Sm  Sm3  1  0.810386  0.786514  0.075516  1
  Sm  Sm4  1  0.687688  0.515494  0.745599  1
  Sm  Sm5  1  0.312312  0.515494  0.245599  1
  Sm  Sm6  1  0.199912  0.212364  0.924023  1
  Sm  Sm7  1  0.800088  0.212364  0.424023  1
  Sb  Sb8  1  0.255881  0.725511  0.885995  1
  Sb  Sb9  1  0.744119  0.725511  0.385995  1
  I  I10  1  0.252198  0.271013  0.617127  1
  I  I11  1  0.747802  0.271013  0.117127  1
  O  O12  1  0.045789  0.944164  0.898862  1
  O  O13  1  0.536921  0.853977  0.929720  1
  O  O14  1  0.954211  0.944164  0.398862  1
  O  O15  1  0.458611  0.786881  0.726698  1
  O  O16  1  0.463079  0.853977  0.429720  1
  O  O17  1  0.978553  0.712868  0.773356  1
  O  O18  1  0.541389  0.786881  0.226698  1
  O  O19  1  0.844907  0.641784  0.552368  1
  O  O20  1  0.369706  0.489398  0.879449  1
  O  O21  1  0.021447  0.712868  0.273356  1
  O  O22  1  0.371303  0.495265  0.610672  1
  O  O23  1  0.858815  0.356112  0.962005  1
  O  O24  1  0.155093  0.641784  0.052368  1
  O  O25  1  0.630294  0.489398  0.379449  1
  O  O26  1  0.987034  0.299523  0.720443  1
  O  O27  1  0.628697  0.495265  0.110672  1
  O  O28  1  0.141185  0.356112  0.462005  1
  O  O29  1  0.434057  0.201179  0.763265  1
  O  O30  1  0.012966  0.299523  0.220443  1
  O  O31  1  0.519921  0.158842  0.566872  1
  O  O32  1  0.565943  0.201179  0.263265  1
  O  O33  1  0.064176  0.063482  0.611148  1
  O  O34  1  0.480079  0.158842  0.066872  1
  O  O35  1  0.935824  0.063482  0.111148  1
