# generated using pymatgen
data_Dy3Ho13In3HgRh4
_symmetry_space_group_name_H-M   'P 1'
_cell_length_a   9.61678230
_cell_length_b   9.61935979
_cell_length_c   9.61002627
_cell_angle_alpha   59.91786477
_cell_angle_beta   59.93990092
_cell_angle_gamma   59.98579188
_symmetry_Int_Tables_number   1
_chemical_formula_structural   Dy3Ho13In3HgRh4
_chemical_formula_sum   'Dy3 Ho13 In3 Hg1 Rh4'
_cell_volume   627.87221936
_cell_formula_units_Z   1
loop_
 _symmetry_equiv_pos_site_id
 _symmetry_equiv_pos_as_xyz
  1  'x, y, z'
loop_
 _atom_site_type_symbol
 _atom_site_label
 _atom_site_symmetry_multiplicity
 _atom_site_fract_x
 _atom_site_fract_y
 _atom_site_fract_z
 _atom_site_occupancy
  Dy  Dy0  1  0.188034  0.188257  0.811896  1
  Dy  Dy1  1  0.602190  0.602009  0.197486  1
  Dy  Dy2  1  0.440067  0.059382  0.439505  1
  Ho  Ho3  1  0.439612  0.439846  0.059203  1
  Ho  Ho4  1  0.813064  0.184619  0.813608  1
  Ho  Ho5  1  0.188210  0.811482  0.188477  1
  Ho  Ho6  1  0.436772  0.061004  0.060698  1
  Ho  Ho7  1  0.184578  0.812892  0.813682  1
  Ho  Ho8  1  0.061107  0.436711  0.060911  1
  Ho  Ho9  1  0.813646  0.813401  0.184332  1
  Ho  Ho10  1  0.197499  0.602267  0.602076  1
  Ho  Ho11  1  0.059147  0.440335  0.439515  1
  Ho  Ho12  1  0.060758  0.060856  0.436594  1
  Ho  Ho13  1  0.811753  0.188209  0.188220  1
  Ho  Ho14  1  0.602295  0.197753  0.601961  1
  Ho  Ho15  1  0.598321  0.598073  0.598575  1
  In  In16  1  0.832260  0.832231  0.502621  1
  In  In17  1  0.502796  0.832136  0.832081  1
  In  In18  1  0.832119  0.502799  0.832067  1
  Hg  Hg19  1  0.836328  0.836298  0.835939  1
  Rh  Rh20  1  0.391374  0.822912  0.392042  1
  Rh  Rh21  1  0.392897  0.393393  0.393537  1
  Rh  Rh22  1  0.823291  0.391321  0.392129  1
  Rh  Rh23  1  0.391883  0.391814  0.822848  1
