# generated using pymatgen
data_Tb5Dy9Th2(CdNi)4
_symmetry_space_group_name_H-M   'P 1'
_cell_length_a   9.61345185
_cell_length_b   9.61327491
_cell_length_c   9.62357400
_cell_angle_alpha   59.96422389
_cell_angle_beta   59.96223126
_cell_angle_gamma   59.91416505
_symmetry_Int_Tables_number   1
_chemical_formula_structural   Tb5Dy9Th2(CdNi)4
_chemical_formula_sum   'Tb5 Dy9 Th2 Cd4 Ni4'
_cell_volume   628.12820279
_cell_formula_units_Z   1
loop_
 _symmetry_equiv_pos_site_id
 _symmetry_equiv_pos_as_xyz
  1  'x, y, z'
loop_
 _atom_site_type_symbol
 _atom_site_label
 _atom_site_symmetry_multiplicity
 _atom_site_fract_x
 _atom_site_fract_y
 _atom_site_fract_z
 _atom_site_occupancy
  Tb  Tb0  1  0.564102  0.937090  0.933142  1
  Tb  Tb1  1  0.564416  0.936985  0.565656  1
  Tb  Tb2  1  0.937090  0.564082  0.932981  1
  Tb  Tb3  1  0.564324  0.564132  0.935801  1
  Tb  Tb4  1  0.935368  0.935147  0.564450  1
  Dy  Dy5  1  0.347994  0.951263  0.350426  1
  Dy  Dy6  1  0.951287  0.348091  0.350529  1
  Dy  Dy7  1  0.811991  0.189452  0.188053  1
  Dy  Dy8  1  0.189424  0.812139  0.810731  1
  Dy  Dy9  1  0.189236  0.811957  0.188176  1
  Dy  Dy10  1  0.812172  0.189592  0.810647  1
  Dy  Dy11  1  0.188735  0.189090  0.811082  1
  Dy  Dy12  1  0.811691  0.811580  0.188569  1
  Dy  Dy13  1  0.937258  0.564087  0.565511  1
  Th  Th14  1  0.343646  0.343762  0.350167  1
  Th  Th15  1  0.343736  0.343712  0.962068  1
  Cd  Cd16  1  0.582436  0.582238  0.579852  1
  Cd  Cd17  1  0.582199  0.582239  0.255709  1
  Cd  Cd18  1  0.583151  0.256186  0.580298  1
  Cd  Cd19  1  0.255925  0.583176  0.580307  1
  Ni  Ni20  1  0.143845  0.143853  0.140333  1
  Ni  Ni21  1  0.143677  0.143906  0.571857  1
  Ni  Ni22  1  0.146471  0.569762  0.141917  1
  Ni  Ni23  1  0.569826  0.146482  0.141738  1
