# generated using pymatgen
data_ErTm2Sc3MnSb2
_symmetry_space_group_name_H-M   'P 1'
_cell_length_a   7.76445600
_cell_length_b   7.76615645
_cell_length_c   4.18711800
_cell_angle_alpha   90.00000000
_cell_angle_beta   90.00000000
_cell_angle_gamma   119.99276578
_symmetry_Int_Tables_number   1
_chemical_formula_structural   ErTm2Sc3MnSb2
_chemical_formula_sum   'Er1 Tm2 Sc3 Mn1 Sb2'
_cell_volume   218.67274375
_cell_formula_units_Z   1
loop_
 _symmetry_equiv_pos_site_id
 _symmetry_equiv_pos_as_xyz
  1  'x, y, z'
loop_
 _atom_site_type_symbol
 _atom_site_label
 _atom_site_symmetry_multiplicity
 _atom_site_fract_x
 _atom_site_fract_y
 _atom_site_fract_z
 _atom_site_occupancy
  Er  Er0  1  0.607046  0.000000  0.500000  1
  Tm  Tm1  1  0.391884  0.392082  0.500000  1
  Tm  Tm2  1  0.999802  0.607918  0.500000  1
  Sc  Sc3  1  0.229404  0.000000  0.000000  1
  Sc  Sc4  1  0.771277  0.771108  0.000000  1
  Sc  Sc5  1  0.000169  0.228892  0.000000  1
  Mn  Mn6  1  0.000919  0.000000  0.500000  1
  Sb  Sb7  1  0.332700  0.665901  0.000000  1
  Sb  Sb8  1  0.666799  0.334099  0.000000  1
