# generated using pymatgen
data_Sc5Cr2C7
_symmetry_space_group_name_H-M   'P 1'
_cell_length_a   7.79457669
_cell_length_b   7.79457716
_cell_length_c   3.20251000
_cell_angle_alpha   90.00000000
_cell_angle_beta   90.00000000
_cell_angle_gamma   121.88237201
_symmetry_Int_Tables_number   1
_chemical_formula_structural   Sc5Cr2C7
_chemical_formula_sum   'Sc5 Cr2 C7'
_cell_volume   165.21593694
_cell_formula_units_Z   1
loop_
 _symmetry_equiv_pos_site_id
 _symmetry_equiv_pos_as_xyz
  1  'x, y, z'
loop_
 _atom_site_type_symbol
 _atom_site_label
 _atom_site_symmetry_multiplicity
 _atom_site_fract_x
 _atom_site_fract_y
 _atom_site_fract_z
 _atom_site_occupancy
  Sc  Sc0  1  0.079836  0.339629  0.500000  1
  Sc  Sc1  1  0.339629  0.079836  0.500000  1
  Sc  Sc2  1  0.500000  0.500000  0.000000  1
  Sc  Sc3  1  0.920164  0.660371  0.500000  1
  Sc  Sc4  1  0.660371  0.920164  0.500000  1
  Cr  Cr5  1  0.711351  0.288649  0.000000  1
  Cr  Cr6  1  0.288649  0.711351  0.000000  1
  C  C7  1  0.000000  0.000000  0.000000  1
  C  C8  1  0.000000  0.500000  0.000000  1
  C  C9  1  0.500000  0.000000  0.000000  1
  C  C10  1  0.177743  0.177743  0.000000  1
  C  C11  1  0.822257  0.822257  0.000000  1
  C  C12  1  0.623066  0.376934  0.500000  1
  C  C13  1  0.376934  0.623066  0.500000  1
