# generated using pymatgen
data_SmTh2(GaRh)3
_symmetry_space_group_name_H-M   'P 1'
_cell_length_a   7.33272690
_cell_length_b   7.26028144
_cell_length_c   3.99420700
_cell_angle_alpha   90.00000000
_cell_angle_beta   90.00000000
_cell_angle_gamma   119.67371603
_symmetry_Int_Tables_number   1
_chemical_formula_structural   SmTh2(GaRh)3
_chemical_formula_sum   'Sm1 Th2 Ga3 Rh3'
_cell_volume   184.75606095
_cell_formula_units_Z   1
loop_
 _symmetry_equiv_pos_site_id
 _symmetry_equiv_pos_as_xyz
  1  'x, y, z'
loop_
 _atom_site_type_symbol
 _atom_site_label
 _atom_site_symmetry_multiplicity
 _atom_site_fract_x
 _atom_site_fract_y
 _atom_site_fract_z
 _atom_site_occupancy
  Sm  Sm0  1  0.000000  0.412740  0.500000  1
  Th  Th1  1  0.585775  0.587703  0.500000  1
  Th  Th2  1  0.414225  0.001928  0.500000  1
  Ga  Ga3  1  0.000000  0.746950  0.000000  1
  Ga  Ga4  1  0.229260  0.239837  0.000000  1
  Ga  Ga5  1  0.770740  0.010577  0.000000  1
  Rh  Rh6  1  0.355261  0.685386  0.000000  1
  Rh  Rh7  1  0.644739  0.330124  0.000000  1
  Rh  Rh8  1  0.000000  0.984754  0.500000  1
