# generated using pymatgen
data_Zr8Pa2Co2Bi5Sb
_symmetry_space_group_name_H-M   'P 1'
_cell_length_a   5.96126360
_cell_length_b   9.01510526
_cell_length_c   9.03390621
_cell_angle_alpha   122.21744980
_cell_angle_beta   89.98316879
_cell_angle_gamma   89.98127454
_symmetry_Int_Tables_number   1
_chemical_formula_structural   Zr8Pa2Co2Bi5Sb
_chemical_formula_sum   'Zr8 Pa2 Co2 Bi5 Sb1'
_cell_volume   410.74360259
_cell_formula_units_Z   1
loop_
 _symmetry_equiv_pos_site_id
 _symmetry_equiv_pos_as_xyz
  1  'x, y, z'
loop_
 _atom_site_type_symbol
 _atom_site_label
 _atom_site_symmetry_multiplicity
 _atom_site_fract_x
 _atom_site_fract_y
 _atom_site_fract_z
 _atom_site_occupancy
  Zr  Zr0  1  0.750001  0.993752  0.255586  1
  Zr  Zr1  1  0.250003  0.011768  0.747937  1
  Zr  Zr2  1  0.749992  0.257297  0.993354  1
  Zr  Zr3  1  0.250005  0.740291  0.006079  1
  Zr  Zr4  1  0.001272  0.660595  0.332407  1
  Zr  Zr5  1  0.001291  0.337101  0.667480  1
  Zr  Zr6  1  0.498705  0.337113  0.667475  1
  Zr  Zr7  1  0.498733  0.660585  0.332416  1
  Pa  Pa8  1  0.749891  0.780690  0.780860  1
  Pa  Pa9  1  0.250114  0.221172  0.216958  1
  Co  Co10  1  0.000076  0.999681  0.999769  1
  Co  Co11  1  0.499924  0.999683  0.999770  1
  Bi  Bi12  1  0.750024  0.389145  0.390124  1
  Bi  Bi13  1  0.249974  0.611695  0.610966  1
  Bi  Bi14  1  0.749992  0.003998  0.604628  1
  Bi  Bi15  1  0.250009  0.995018  0.393805  1
  Bi  Bi16  1  0.749993  0.605748  0.005427  1
  Sb  Sb17  1  0.250002  0.394669  0.994955  1
