# generated using pymatgen
data_HfMg2Ta2WN6
_symmetry_space_group_name_H-M   'P 1'
_cell_length_a   5.22442617
_cell_length_b   5.22442531
_cell_length_c   10.61823100
_cell_angle_alpha   90.00000000
_cell_angle_beta   90.00000000
_cell_angle_gamma   119.87372246
_symmetry_Int_Tables_number   1
_chemical_formula_structural   HfMg2Ta2WN6
_chemical_formula_sum   'Hf2 Mg4 Ta4 W2 N12'
_cell_volume   251.31079129
_cell_formula_units_Z   2
loop_
 _symmetry_equiv_pos_site_id
 _symmetry_equiv_pos_as_xyz
  1  'x, y, z'
loop_
 _atom_site_type_symbol
 _atom_site_label
 _atom_site_symmetry_multiplicity
 _atom_site_fract_x
 _atom_site_fract_y
 _atom_site_fract_z
 _atom_site_occupancy
  Hf  Hf0  1  0.000031  0.999969  0.500000  1
  Hf  Hf1  1  0.000031  0.999969  0.000000  1
  Mg  Mg2  1  0.333304  0.666696  0.000000  1
  Mg  Mg3  1  0.333304  0.666696  0.500000  1
  Mg  Mg4  1  0.666740  0.333260  0.500000  1
  Mg  Mg5  1  0.666740  0.333260  0.000000  1
  Ta  Ta6  1  0.335222  0.335191  0.750000  1
  Ta  Ta7  1  0.664809  0.664778  0.250000  1
  Ta  Ta8  1  0.335261  0.000260  0.250000  1
  Ta  Ta9  1  0.999740  0.664739  0.750000  1
  W  W10  1  0.000230  0.335011  0.250000  1
  W  W11  1  0.664989  0.999770  0.750000  1
  N  N12  1  0.665867  0.666975  0.623940  1
  N  N13  1  0.665867  0.666975  0.876060  1
  N  N14  1  0.333025  0.334133  0.123940  1
  N  N15  1  0.333025  0.334133  0.376060  1
  N  N16  1  0.334828  0.000056  0.876147  1
  N  N17  1  0.334828  0.000056  0.623853  1
  N  N18  1  0.999944  0.665172  0.376147  1
  N  N19  1  0.999944  0.665172  0.123853  1
  N  N20  1  0.667240  0.001105  0.123696  1
  N  N21  1  0.667240  0.001105  0.376304  1
  N  N22  1  0.998895  0.332760  0.876304  1
  N  N23  1  0.998895  0.332760  0.623696  1
