# generated using pymatgen
data_Y16TlCd2InPd4
_symmetry_space_group_name_H-M   'P 1'
_cell_length_a   9.76386563
_cell_length_b   9.76386547
_cell_length_c   9.78326452
_cell_angle_alpha   59.88203365
_cell_angle_beta   59.88203352
_cell_angle_gamma   59.92949136
_symmetry_Int_Tables_number   1
_chemical_formula_structural   Y16TlCd2InPd4
_chemical_formula_sum   'Y16 Tl1 Cd2 In1 Pd4'
_cell_volume   657.96769534
_cell_formula_units_Z   1
loop_
 _symmetry_equiv_pos_site_id
 _symmetry_equiv_pos_as_xyz
  1  'x, y, z'
loop_
 _atom_site_type_symbol
 _atom_site_label
 _atom_site_symmetry_multiplicity
 _atom_site_fract_x
 _atom_site_fract_y
 _atom_site_fract_z
 _atom_site_occupancy
  Y  Y0  1  0.351350  0.351350  0.352462  1
  Y  Y1  1  0.354004  0.354004  0.939092  1
  Y  Y2  1  0.354702  0.937815  0.354553  1
  Y  Y3  1  0.937815  0.354702  0.354553  1
  Y  Y4  1  0.809980  0.191391  0.189658  1
  Y  Y5  1  0.189312  0.810041  0.810080  1
  Y  Y6  1  0.191391  0.809980  0.189658  1
  Y  Y7  1  0.810041  0.189312  0.810080  1
  Y  Y8  1  0.189267  0.189267  0.811657  1
  Y  Y9  1  0.808883  0.808883  0.190384  1
  Y  Y10  1  0.938100  0.566536  0.564631  1
  Y  Y11  1  0.563472  0.937363  0.934493  1
  Y  Y12  1  0.566536  0.938100  0.564631  1
  Y  Y13  1  0.937363  0.563472  0.934493  1
  Y  Y14  1  0.565619  0.565619  0.935292  1
  Y  Y15  1  0.937157  0.937157  0.561831  1
  Tl  Tl16  1  0.584805  0.584805  0.587501  1
  Cd  Cd17  1  0.580525  0.250472  0.582398  1
  Cd  Cd18  1  0.250472  0.580525  0.582398  1
  In  In19  1  0.581586  0.581586  0.249834  1
  Pd  Pd20  1  0.144289  0.144289  0.145191  1
  Pd  Pd21  1  0.142743  0.142743  0.568112  1
  Pd  Pd22  1  0.142218  0.568366  0.143508  1
  Pd  Pd23  1  0.568366  0.142218  0.143508  1
