# generated using pymatgen
data_LuHf3(GaRh5)2
_symmetry_space_group_name_H-M   'P 1'
_cell_length_a   4.11643300
_cell_length_b   5.54760695
_cell_length_c   10.96516285
_cell_angle_alpha   90.09604539
_cell_angle_beta   90.00000000
_cell_angle_gamma   90.00000000
_symmetry_Int_Tables_number   1
_chemical_formula_structural   LuHf3(GaRh5)2
_chemical_formula_sum   'Lu1 Hf3 Ga2 Rh10'
_cell_volume   250.40397024
_cell_formula_units_Z   1
loop_
 _symmetry_equiv_pos_site_id
 _symmetry_equiv_pos_as_xyz
  1  'x, y, z'
loop_
 _atom_site_type_symbol
 _atom_site_label
 _atom_site_symmetry_multiplicity
 _atom_site_fract_x
 _atom_site_fract_y
 _atom_site_fract_z
 _atom_site_occupancy
  Lu  Lu0  1  0.500000  0.186456  0.637866  1
  Hf  Hf1  1  0.500000  0.815336  0.361306  1
  Hf  Hf2  1  0.500000  0.685667  0.860068  1
  Hf  Hf3  1  0.500000  0.315722  0.138532  1
  Ga  Ga4  1  0.000000  0.499339  0.498946  1
  Ga  Ga5  1  0.000000  0.998666  0.000730  1
  Rh  Rh6  1  0.500000  0.191956  0.895287  1
  Rh  Rh7  1  0.500000  0.808221  0.109676  1
  Rh  Rh8  1  0.500000  0.688926  0.609188  1
  Rh  Rh9  1  0.500000  0.309462  0.385698  1
  Rh  Rh10  1  0.000000  0.440924  0.751245  1
  Rh  Rh11  1  0.000000  0.565894  0.252194  1
  Rh  Rh12  1  0.000000  0.992382  0.495974  1
  Rh  Rh13  1  0.000000  0.500452  0.001495  1
  Rh  Rh14  1  0.000000  0.065105  0.245233  1
  Rh  Rh15  1  0.000000  0.935492  0.756563  1
