# generated using pymatgen
data_Tm6MgZn22Si
_symmetry_space_group_name_H-M   'P 1'
_cell_length_a   9.05855583
_cell_length_b   9.05855472
_cell_length_c   9.05855600
_cell_angle_alpha   60.00000262
_cell_angle_beta   60.00000669
_cell_angle_gamma   60.00000039
_symmetry_Int_Tables_number   1
_chemical_formula_structural   Tm6MgZn22Si
_chemical_formula_sum   'Tm6 Mg1 Zn22 Si1'
_cell_volume   525.60790096
_cell_formula_units_Z   1
loop_
 _symmetry_equiv_pos_site_id
 _symmetry_equiv_pos_as_xyz
  1  'x, y, z'
loop_
 _atom_site_type_symbol
 _atom_site_label
 _atom_site_symmetry_multiplicity
 _atom_site_fract_x
 _atom_site_fract_y
 _atom_site_fract_z
 _atom_site_occupancy
  Tm  Tm0  1  0.715635  0.284365  0.284365  1
  Tm  Tm1  1  0.284365  0.715635  0.715635  1
  Tm  Tm2  1  0.284365  0.715635  0.284365  1
  Tm  Tm3  1  0.715635  0.284365  0.715635  1
  Tm  Tm4  1  0.284365  0.284365  0.715635  1
  Tm  Tm5  1  0.715635  0.715635  0.284365  1
  Mg  Mg6  1  0.000000  0.000000  0.000000  1
  Zn  Zn7  1  0.128694  0.128694  0.128694  1
  Zn  Zn8  1  0.871306  0.871306  0.871306  1
  Zn  Zn9  1  0.128694  0.128694  0.613920  1
  Zn  Zn10  1  0.128694  0.613920  0.128694  1
  Zn  Zn11  1  0.871306  0.871306  0.386080  1
  Zn  Zn12  1  0.871306  0.386080  0.871306  1
  Zn  Zn13  1  0.613920  0.128694  0.128694  1
  Zn  Zn14  1  0.386080  0.871306  0.871306  1
  Zn  Zn15  1  0.500000  0.000000  0.000000  1
  Zn  Zn16  1  0.000000  0.500000  0.500000  1
  Zn  Zn17  1  0.000000  0.500000  0.000000  1
  Zn  Zn18  1  0.500000  0.000000  0.500000  1
  Zn  Zn19  1  0.000000  0.000000  0.500000  1
  Zn  Zn20  1  0.500000  0.500000  0.000000  1
  Zn  Zn21  1  0.332966  0.332966  0.332966  1
  Zn  Zn22  1  0.667034  0.667034  0.667034  1
  Zn  Zn23  1  0.332966  0.332966  0.001104  1
  Zn  Zn24  1  0.332966  0.001104  0.332966  1
  Zn  Zn25  1  0.667034  0.667034  0.998896  1
  Zn  Zn26  1  0.667034  0.998896  0.667034  1
  Zn  Zn27  1  0.001104  0.332966  0.332966  1
  Zn  Zn28  1  0.998896  0.667034  0.667034  1
  Si  Si29  1  0.500000  0.500000  0.500000  1
