# generated using pymatgen
data_Cs2RbYBi2
_symmetry_space_group_name_H-M   'P 1'
_cell_length_a   10.73244029
_cell_length_b   10.73244228
_cell_length_c   10.73244149
_cell_angle_alpha   129.41369667
_cell_angle_beta   68.65964491
_cell_angle_gamma   136.80197182
_symmetry_Int_Tables_number   1
_chemical_formula_structural   Cs2RbYBi2
_chemical_formula_sum   'Cs4 Rb2 Y2 Bi4'
_cell_volume   642.23028036
_cell_formula_units_Z   2
loop_
 _symmetry_equiv_pos_site_id
 _symmetry_equiv_pos_as_xyz
  1  'x, y, z'
loop_
 _atom_site_type_symbol
 _atom_site_label
 _atom_site_symmetry_multiplicity
 _atom_site_fract_x
 _atom_site_fract_y
 _atom_site_fract_z
 _atom_site_occupancy
  Cs  Cs0  1  0.314358  0.798431  0.112787  1
  Cs  Cs1  1  0.185642  0.298430  0.484073  1
  Cs  Cs2  1  0.814358  0.701570  0.515928  1
  Cs  Cs3  1  0.685642  0.201569  0.887212  1
  Rb  Rb4  1  0.250000  0.250000  0.000000  1
  Rb  Rb5  1  0.750000  0.750000  0.000000  1
  Y  Y6  1  0.750000  0.250000  0.500000  1
  Y  Y7  1  0.250000  0.749999  0.499999  1
  Bi  Bi8  1  0.905416  0.304841  0.210255  1
  Bi  Bi9  1  0.594584  0.804841  0.399426  1
  Bi  Bi10  1  0.405416  0.195159  0.600574  1
  Bi  Bi11  1  0.094584  0.695159  0.789744  1
