# generated using pymatgen
data_Pr4DySi4
_symmetry_space_group_name_H-M   'P 1'
_cell_length_a   7.83606000
_cell_length_b   7.83606000
_cell_length_c   15.35457500
_cell_angle_alpha   90.00000000
_cell_angle_beta   90.00000000
_cell_angle_gamma   90.00000000
_symmetry_Int_Tables_number   1
_chemical_formula_structural   Pr4DySi4
_chemical_formula_sum   'Pr16 Dy4 Si16'
_cell_volume   942.82981012
_cell_formula_units_Z   4
loop_
 _symmetry_equiv_pos_site_id
 _symmetry_equiv_pos_as_xyz
  1  'x, y, z'
loop_
 _atom_site_type_symbol
 _atom_site_label
 _atom_site_symmetry_multiplicity
 _atom_site_fract_x
 _atom_site_fract_y
 _atom_site_fract_z
 _atom_site_occupancy
  Pr  Pr0  1  0.378186  0.013265  0.445401  1
  Pr  Pr1  1  0.486735  0.878186  0.695401  1
  Pr  Pr2  1  0.513265  0.121814  0.195401  1
  Pr  Pr3  1  0.878186  0.486735  0.304599  1
  Pr  Pr4  1  0.121814  0.513265  0.804599  1
  Pr  Pr5  1  0.621814  0.986735  0.945401  1
  Pr  Pr6  1  0.013265  0.378186  0.554599  1
  Pr  Pr7  1  0.986735  0.621814  0.054599  1
  Pr  Pr8  1  0.125297  0.975407  0.878950  1
  Pr  Pr9  1  0.524593  0.625297  0.128950  1
  Pr  Pr10  1  0.475407  0.374703  0.628950  1
  Pr  Pr11  1  0.625297  0.524593  0.871050  1
  Pr  Pr12  1  0.374703  0.475407  0.371050  1
  Pr  Pr13  1  0.874703  0.024593  0.378950  1
  Pr  Pr14  1  0.975407  0.125297  0.121050  1
  Pr  Pr15  1  0.024593  0.874703  0.621050  1
  Dy  Dy16  1  0.310145  0.310145  0.000000  1
  Dy  Dy17  1  0.189855  0.810145  0.250000  1
  Dy  Dy18  1  0.810145  0.189855  0.750000  1
  Dy  Dy19  1  0.689855  0.689855  0.500000  1
  Si  Si20  1  0.187412  0.171631  0.709139  1
  Si  Si21  1  0.328369  0.687412  0.959139  1
  Si  Si22  1  0.671631  0.312588  0.459139  1
  Si  Si23  1  0.687412  0.328369  0.040861  1
  Si  Si24  1  0.312588  0.671631  0.540861  1
  Si  Si25  1  0.812588  0.828369  0.209139  1
  Si  Si26  1  0.171631  0.187412  0.290861  1
  Si  Si27  1  0.828369  0.812588  0.790861  1
  Si  Si28  1  0.286977  0.921191  0.063685  1
  Si  Si29  1  0.578809  0.786977  0.313685  1
  Si  Si30  1  0.421191  0.213023  0.813685  1
  Si  Si31  1  0.786977  0.578809  0.686315  1
  Si  Si32  1  0.213023  0.421191  0.186315  1
  Si  Si33  1  0.713023  0.078809  0.563685  1
  Si  Si34  1  0.921191  0.286977  0.936315  1
  Si  Si35  1  0.078809  0.713023  0.436315  1
