# generated using pymatgen
data_Ho3HfCo8(SiP2)2
_symmetry_space_group_name_H-M   'P 1'
_cell_length_a   3.74344400
_cell_length_b   10.72795800
_cell_length_c   12.45259900
_cell_angle_alpha   90.00000000
_cell_angle_beta   90.00000000
_cell_angle_gamma   90.00000000
_symmetry_Int_Tables_number   1
_chemical_formula_structural   Ho3HfCo8(SiP2)2
_chemical_formula_sum   'Ho6 Hf2 Co16 Si4 P8'
_cell_volume   500.09027416
_cell_formula_units_Z   2
loop_
 _symmetry_equiv_pos_site_id
 _symmetry_equiv_pos_as_xyz
  1  'x, y, z'
loop_
 _atom_site_type_symbol
 _atom_site_label
 _atom_site_symmetry_multiplicity
 _atom_site_fract_x
 _atom_site_fract_y
 _atom_site_fract_z
 _atom_site_occupancy
  Ho  Ho0  1  0.000000  0.500000  0.531594  1
  Ho  Ho1  1  0.500000  0.000000  0.468406  1
  Ho  Ho2  1  0.500000  0.821388  0.207230  1
  Ho  Ho3  1  0.500000  0.178612  0.207230  1
  Ho  Ho4  1  0.000000  0.678612  0.792770  1
  Ho  Ho5  1  0.000000  0.321388  0.792770  1
  Hf  Hf6  1  0.500000  0.500000  0.154289  1
  Hf  Hf7  1  0.000000  0.000000  0.845711  1
  Co  Co8  1  0.000000  0.500000  0.990783  1
  Co  Co9  1  0.500000  0.000000  0.009217  1
  Co  Co10  1  0.500000  0.293221  0.434255  1
  Co  Co11  1  0.500000  0.706779  0.434255  1
  Co  Co12  1  0.000000  0.206779  0.565745  1
  Co  Co13  1  0.000000  0.793221  0.565745  1
  Co  Co14  1  0.500000  0.877542  0.703586  1
  Co  Co15  1  0.500000  0.122458  0.703586  1
  Co  Co16  1  0.000000  0.622458  0.296414  1
  Co  Co17  1  0.000000  0.377542  0.296414  1
  Co  Co18  1  0.500000  0.329443  0.996221  1
  Co  Co19  1  0.500000  0.670557  0.996221  1
  Co  Co20  1  0.000000  0.170557  0.003779  1
  Co  Co21  1  0.000000  0.829443  0.003779  1
  Co  Co22  1  0.500000  0.500000  0.698716  1
  Co  Co23  1  0.000000  0.000000  0.301284  1
  Si  Si24  1  0.500000  0.500000  0.884725  1
  Si  Si25  1  0.000000  0.000000  0.115275  1
  Si  Si26  1  0.500000  0.500000  0.360871  1
  Si  Si27  1  0.000000  0.000000  0.639129  1
  P  P28  1  0.500000  0.307327  0.615600  1
  P  P29  1  0.500000  0.692673  0.615600  1
  P  P30  1  0.000000  0.192673  0.384400  1
  P  P31  1  0.000000  0.807327  0.384400  1
  P  P32  1  0.500000  0.837971  0.893811  1
  P  P33  1  0.500000  0.162029  0.893811  1
  P  P34  1  0.000000  0.662029  0.106189  1
  P  P35  1  0.000000  0.337971  0.106189  1
