# generated using pymatgen
data_Sc4TaCo10SnB4
_symmetry_space_group_name_H-M   'P 1'
_cell_length_a   8.82301000
_cell_length_b   8.82301000
_cell_length_c   3.06211800
_cell_angle_alpha   90.00000000
_cell_angle_beta   90.00000000
_cell_angle_gamma   90.00000000
_symmetry_Int_Tables_number   1
_chemical_formula_structural   Sc4TaCo10SnB4
_chemical_formula_sum   'Sc4 Ta1 Co10 Sn1 B4'
_cell_volume   238.37212349
_cell_formula_units_Z   1
loop_
 _symmetry_equiv_pos_site_id
 _symmetry_equiv_pos_as_xyz
  1  'x, y, z'
loop_
 _atom_site_type_symbol
 _atom_site_label
 _atom_site_symmetry_multiplicity
 _atom_site_fract_x
 _atom_site_fract_y
 _atom_site_fract_z
 _atom_site_occupancy
  Sc  Sc0  1  0.823756  0.326077  0.000000  1
  Sc  Sc1  1  0.176244  0.673923  0.000000  1
  Sc  Sc2  1  0.326077  0.176244  0.000000  1
  Sc  Sc3  1  0.673923  0.823756  0.000000  1
  Ta  Ta4  1  0.000000  0.000000  0.000000  1
  Co  Co5  1  0.500000  0.000000  0.500000  1
  Co  Co6  1  0.000000  0.500000  0.500000  1
  Co  Co7  1  0.730986  0.573131  0.500000  1
  Co  Co8  1  0.269014  0.426869  0.500000  1
  Co  Co9  1  0.223947  0.932410  0.500000  1
  Co  Co10  1  0.776053  0.067590  0.500000  1
  Co  Co11  1  0.426869  0.730986  0.500000  1
  Co  Co12  1  0.573131  0.269014  0.500000  1
  Co  Co13  1  0.067590  0.223947  0.500000  1
  Co  Co14  1  0.932410  0.776053  0.500000  1
  Sn  Sn15  1  0.500000  0.500000  0.000000  1
  B  B16  1  0.618030  0.118559  0.000000  1
  B  B17  1  0.381970  0.881441  0.000000  1
  B  B18  1  0.118559  0.381970  0.000000  1
  B  B19  1  0.881441  0.618030  0.000000  1
