# generated using pymatgen
data_Li3La2NdPd3
_symmetry_space_group_name_H-M   'P 1'
_cell_length_a   7.42687800
_cell_length_b   7.43773279
_cell_length_c   4.22370400
_cell_angle_alpha   90.00000000
_cell_angle_beta   90.00000000
_cell_angle_gamma   119.95173446
_symmetry_Int_Tables_number   1
_chemical_formula_structural   Li3La2NdPd3
_chemical_formula_sum   'Li3 La2 Nd1 Pd3'
_cell_volume   202.15383483
_cell_formula_units_Z   1
loop_
 _symmetry_equiv_pos_site_id
 _symmetry_equiv_pos_as_xyz
  1  'x, y, z'
loop_
 _atom_site_type_symbol
 _atom_site_label
 _atom_site_symmetry_multiplicity
 _atom_site_fract_x
 _atom_site_fract_y
 _atom_site_fract_z
 _atom_site_occupancy
  Li  Li0  1  0.768873  0.773412  0.500000  1
  Li  Li1  1  0.995462  0.226588  0.500000  1
  Li  Li2  1  0.236052  0.000000  0.500000  1
  La  La3  1  0.999834  0.591545  0.000000  1
  La  La4  1  0.408289  0.408455  0.000000  1
  Nd  Nd5  1  0.591235  0.000000  0.000000  1
  Pd  Pd6  1  0.333453  0.667658  0.500000  1
  Pd  Pd7  1  0.001007  0.000000  0.000000  1
  Pd  Pd8  1  0.665795  0.332342  0.500000  1
