# generated using pymatgen
data_Dy2Th2Ga12Tc
_symmetry_space_group_name_H-M   'P 1'
_cell_length_a   7.53300514
_cell_length_b   7.61995147
_cell_length_c   7.53300437
_cell_angle_alpha   109.40372595
_cell_angle_beta   109.14049237
_cell_angle_gamma   109.40373310
_symmetry_Int_Tables_number   1
_chemical_formula_structural   Dy2Th2Ga12Tc
_chemical_formula_sum   'Dy2 Th2 Ga12 Tc1'
_cell_volume   334.76167356
_cell_formula_units_Z   1
loop_
 _symmetry_equiv_pos_site_id
 _symmetry_equiv_pos_as_xyz
  1  'x, y, z'
loop_
 _atom_site_type_symbol
 _atom_site_label
 _atom_site_symmetry_multiplicity
 _atom_site_fract_x
 _atom_site_fract_y
 _atom_site_fract_z
 _atom_site_occupancy
  Dy  Dy0  1  0.000000  0.500000  0.000000  1
  Dy  Dy1  1  0.500000  0.500000  0.500000  1
  Th  Th2  1  0.000000  0.000000  0.500000  1
  Th  Th3  1  0.500000  0.000000  0.000000  1
  Ga  Ga4  1  0.750077  0.256563  0.506486  1
  Ga  Ga5  1  0.750000  0.500000  0.250000  1
  Ga  Ga6  1  0.506486  0.256563  0.750077  1
  Ga  Ga7  1  0.250000  0.500000  0.750000  1
  Ga  Ga8  1  0.249923  0.743437  0.493514  1
  Ga  Ga9  1  0.493514  0.743437  0.249923  1
  Ga  Ga10  1  0.708320  0.703616  0.995296  1
  Ga  Ga11  1  0.292018  0.000000  0.292018  1
  Ga  Ga12  1  0.004704  0.296384  0.291680  1
  Ga  Ga13  1  0.291680  0.296384  0.004704  1
  Ga  Ga14  1  0.707982  0.000000  0.707982  1
  Ga  Ga15  1  0.995296  0.703616  0.708320  1
  Tc  Tc16  1  0.000000  0.000000  0.000000  1
