# generated using pymatgen
data_Dy2Tm3Co2
_symmetry_space_group_name_H-M   'P 1'
_cell_length_a   6.25046797
_cell_length_b   6.86581275
_cell_length_c   8.40401577
_cell_angle_alpha   96.45590574
_cell_angle_beta   111.83123630
_cell_angle_gamma   89.99999536
_symmetry_Int_Tables_number   1
_chemical_formula_structural   Dy2Tm3Co2
_chemical_formula_sum   'Dy4 Tm6 Co4'
_cell_volume   332.32454100
_cell_formula_units_Z   2
loop_
 _symmetry_equiv_pos_site_id
 _symmetry_equiv_pos_as_xyz
  1  'x, y, z'
loop_
 _atom_site_type_symbol
 _atom_site_label
 _atom_site_symmetry_multiplicity
 _atom_site_fract_x
 _atom_site_fract_y
 _atom_site_fract_z
 _atom_site_occupancy
  Dy  Dy0  1  0.978795  0.913609  0.189036  1
  Dy  Dy1  1  0.789758  0.586391  0.810964  1
  Dy  Dy2  1  0.021205  0.086391  0.810964  1
  Dy  Dy3  1  0.210242  0.413609  0.189036  1
  Tm  Tm4  1  0.649368  0.816546  0.434469  1
  Tm  Tm5  1  0.214898  0.683454  0.565531  1
  Tm  Tm6  1  0.350632  0.183454  0.565531  1
  Tm  Tm7  1  0.785102  0.316546  0.434469  1
  Tm  Tm8  1  0.426766  0.750000  0.000000  1
  Tm  Tm9  1  0.573234  0.250000  0.000000  1
  Co  Co10  1  0.821735  0.570116  0.220811  1
  Co  Co11  1  0.600924  0.929884  0.779189  1
  Co  Co12  1  0.178266  0.429884  0.779189  1
  Co  Co13  1  0.399076  0.070116  0.220811  1
