# generated using pymatgen
data_Yb6Pr14Si15Ir
_symmetry_space_group_name_H-M   'P 1'
_cell_length_a   7.95165598
_cell_length_b   7.90472508
_cell_length_c   15.02496162
_cell_angle_alpha   89.91330795
_cell_angle_beta   89.89041812
_cell_angle_gamma   90.25353861
_symmetry_Int_Tables_number   1
_chemical_formula_structural   Yb6Pr14Si15Ir
_chemical_formula_sum   'Yb6 Pr14 Si15 Ir1'
_cell_volume   944.39173021
_cell_formula_units_Z   1
loop_
 _symmetry_equiv_pos_site_id
 _symmetry_equiv_pos_as_xyz
  1  'x, y, z'
loop_
 _atom_site_type_symbol
 _atom_site_label
 _atom_site_symmetry_multiplicity
 _atom_site_fract_x
 _atom_site_fract_y
 _atom_site_fract_z
 _atom_site_occupancy
  Yb  Yb0  1  0.309921  0.308503  0.999763  1
  Yb  Yb1  1  0.193379  0.811304  0.253225  1
  Yb  Yb2  1  0.817019  0.189799  0.746624  1
  Yb  Yb3  1  0.683807  0.697956  0.503961  1
  Yb  Yb4  1  0.374462  0.013024  0.454008  1
  Yb  Yb5  1  0.484015  0.886341  0.698367  1
  Pr  Pr6  1  0.509662  0.122949  0.200949  1
  Pr  Pr7  1  0.875383  0.491438  0.300032  1
  Pr  Pr8  1  0.125731  0.503323  0.797314  1
  Pr  Pr9  1  0.623562  0.993036  0.947211  1
  Pr  Pr10  1  0.000159  0.374927  0.550904  1
  Pr  Pr11  1  0.991662  0.624187  0.049120  1
  Pr  Pr12  1  0.130328  0.992105  0.871323  1
  Pr  Pr13  1  0.510459  0.627015  0.124393  1
  Pr  Pr14  1  0.479496  0.361510  0.627338  1
  Pr  Pr15  1  0.627325  0.510495  0.873690  1
  Pr  Pr16  1  0.371859  0.486921  0.377058  1
  Pr  Pr17  1  0.875847  0.010890  0.376029  1
  Pr  Pr18  1  0.991292  0.123021  0.123787  1
  Pr  Pr19  1  0.026249  0.885282  0.625928  1
  Si  Si20  1  0.332230  0.698141  0.946563  1
  Si  Si21  1  0.662424  0.298093  0.446048  1
  Si  Si22  1  0.705653  0.335407  0.054725  1
  Si  Si23  1  0.292258  0.658771  0.553862  1
  Si  Si24  1  0.798705  0.833660  0.198059  1
  Si  Si25  1  0.164329  0.202776  0.300978  1
  Si  Si26  1  0.837444  0.797086  0.801520  1
  Si  Si27  1  0.286593  0.916715  0.057414  1
  Si  Si28  1  0.583047  0.782990  0.307297  1
  Si  Si29  1  0.424398  0.212414  0.813733  1
  Si  Si30  1  0.788591  0.580875  0.690489  1
  Si  Si31  1  0.210424  0.422752  0.191388  1
  Si  Si32  1  0.715379  0.081736  0.556339  1
  Si  Si33  1  0.918837  0.285734  0.941376  1
  Si  Si34  1  0.074075  0.708534  0.442910  1
  Ir  Ir35  1  0.203993  0.170291  0.696275  1
