# generated using pymatgen
data_Sm8Ho3Pa9Rh16
_symmetry_space_group_name_H-M   'P 1'
_cell_length_a   7.41866648
_cell_length_b   7.50506318
_cell_length_c   14.57531700
_cell_angle_alpha   90.00000000
_cell_angle_beta   90.00000000
_cell_angle_gamma   89.67182384
_symmetry_Int_Tables_number   1
_chemical_formula_structural   Sm8Ho3Pa9Rh16
_chemical_formula_sum   'Sm8 Ho3 Pa9 Rh16'
_cell_volume   811.50478448
_cell_formula_units_Z   1
loop_
 _symmetry_equiv_pos_site_id
 _symmetry_equiv_pos_as_xyz
  1  'x, y, z'
loop_
 _atom_site_type_symbol
 _atom_site_label
 _atom_site_symmetry_multiplicity
 _atom_site_fract_x
 _atom_site_fract_y
 _atom_site_fract_z
 _atom_site_occupancy
  Sm  Sm0  1  0.502015  0.675306  0.593099  1
  Sm  Sm1  1  0.004467  0.824971  0.909809  1
  Sm  Sm2  1  0.495137  0.323599  0.093884  1
  Sm  Sm3  1  0.995165  0.179330  0.405540  1
  Sm  Sm4  1  0.495137  0.323599  0.406116  1
  Sm  Sm5  1  0.995165  0.179330  0.094460  1
  Sm  Sm6  1  0.502015  0.675306  0.906901  1
  Sm  Sm7  1  0.004467  0.824971  0.590191  1
  Ho  Ho8  1  0.311901  0.971428  0.750000  1
  Ho  Ho9  1  0.188787  0.476328  0.250000  1
  Ho  Ho10  1  0.688693  0.025329  0.250000  1
  Pa  Pa11  1  0.654970  0.156601  0.620023  1
  Pa  Pa12  1  0.162812  0.336246  0.879471  1
  Pa  Pa13  1  0.344981  0.843216  0.120957  1
  Pa  Pa14  1  0.841993  0.658441  0.378039  1
  Pa  Pa15  1  0.344981  0.843216  0.379043  1
  Pa  Pa16  1  0.841993  0.658441  0.121961  1
  Pa  Pa17  1  0.654970  0.156601  0.879977  1
  Pa  Pa18  1  0.162812  0.336246  0.620529  1
  Pa  Pa19  1  0.811442  0.529916  0.750000  1
  Rh  Rh20  1  0.681317  0.950348  0.460288  1
  Rh  Rh21  1  0.177634  0.550228  0.041528  1
  Rh  Rh22  1  0.323410  0.051395  0.961463  1
  Rh  Rh23  1  0.825889  0.450396  0.543573  1
  Rh  Rh24  1  0.323410  0.051395  0.538537  1
  Rh  Rh25  1  0.825889  0.450396  0.956427  1
  Rh  Rh26  1  0.681317  0.950348  0.039712  1
  Rh  Rh27  1  0.177634  0.550228  0.458472  1
  Rh  Rh28  1  0.459896  0.358677  0.750000  1
  Rh  Rh29  1  0.942459  0.159700  0.750000  1
  Rh  Rh30  1  0.544069  0.654339  0.250000  1
  Rh  Rh31  1  0.045293  0.846539  0.250000  1
  Rh  Rh32  1  0.700920  0.863891  0.750000  1
  Rh  Rh33  1  0.165404  0.612832  0.750000  1
  Rh  Rh34  1  0.310777  0.111504  0.250000  1
  Rh  Rh35  1  0.810771  0.389366  0.250000  1
