# generated using pymatgen
data_TbY4Ti3(Co4As3)4
_symmetry_space_group_name_H-M   'P 1'
_cell_length_a   12.58485002
_cell_length_b   12.58485097
_cell_length_c   3.80663900
_cell_angle_alpha   90.00000000
_cell_angle_beta   90.00000000
_cell_angle_gamma   120.00690765
_symmetry_Int_Tables_number   1
_chemical_formula_structural   TbY4Ti3(Co4As3)4
_chemical_formula_sum   'Tb1 Y4 Ti3 Co16 As12'
_cell_volume   522.08138912
_cell_formula_units_Z   1
loop_
 _symmetry_equiv_pos_site_id
 _symmetry_equiv_pos_as_xyz
  1  'x, y, z'
loop_
 _atom_site_type_symbol
 _atom_site_label
 _atom_site_symmetry_multiplicity
 _atom_site_fract_x
 _atom_site_fract_y
 _atom_site_fract_z
 _atom_site_occupancy
  Tb  Tb0  1  0.186032  0.186032  0.500000  1
  Y  Y1  1  0.813945  0.000034  0.500000  1
  Y  Y2  1  0.000034  0.813945  0.500000  1
  Y  Y3  1  0.333336  0.666687  0.000000  1
  Y  Y4  1  0.666687  0.333336  0.000000  1
  Ti  Ti5  1  0.564190  0.564190  0.000000  1
  Ti  Ti6  1  0.435806  0.999986  0.000000  1
  Ti  Ti7  1  0.999986  0.435806  0.000000  1
  Co  Co8  1  0.716501  0.716501  0.500000  1
  Co  Co9  1  0.283494  0.999964  0.500000  1
  Co  Co10  1  0.999964  0.283494  0.500000  1
  Co  Co11  1  0.177111  0.376098  0.000000  1
  Co  Co12  1  0.623921  0.801039  0.000000  1
  Co  Co13  1  0.198950  0.822881  0.000000  1
  Co  Co14  1  0.801039  0.623921  0.000000  1
  Co  Co15  1  0.822881  0.198950  0.000000  1
  Co  Co16  1  0.376098  0.177111  0.000000  1
  Co  Co17  1  0.356315  0.479909  0.500000  1
  Co  Co18  1  0.520101  0.876406  0.500000  1
  Co  Co19  1  0.123600  0.643707  0.500000  1
  Co  Co20  1  0.876406  0.520101  0.500000  1
  Co  Co21  1  0.643707  0.123600  0.500000  1
  Co  Co22  1  0.479909  0.356315  0.500000  1
  Co  Co23  1  0.999973  0.999973  0.000000  1
  As  As24  1  0.821690  0.821690  0.000000  1
  As  As25  1  0.178334  0.999943  0.000000  1
  As  As26  1  0.999943  0.178334  0.000000  1
  As  As27  1  0.168773  0.482668  0.500000  1
  As  As28  1  0.517317  0.686094  0.500000  1
  As  As29  1  0.313911  0.831225  0.500000  1
  As  As30  1  0.686094  0.517317  0.500000  1
  As  As31  1  0.831225  0.313911  0.500000  1
  As  As32  1  0.482668  0.168773  0.500000  1
  As  As33  1  0.360047  0.360047  0.000000  1
  As  As34  1  0.640017  0.999996  0.000000  1
  As  As35  1  0.999996  0.640017  0.000000  1
