# generated using pymatgen
data_TbNd7TmPd24
_symmetry_space_group_name_H-M   'P 1'
_cell_length_a   8.53806117
_cell_length_b   8.53806133
_cell_length_c   8.53806200
_cell_angle_alpha   89.93695361
_cell_angle_beta   89.93695361
_cell_angle_gamma   89.93695809
_symmetry_Int_Tables_number   1
_chemical_formula_structural   TbNd7TmPd24
_chemical_formula_sum   'Tb1 Nd7 Tm1 Pd24'
_cell_volume   622.41069662
_cell_formula_units_Z   1
loop_
 _symmetry_equiv_pos_site_id
 _symmetry_equiv_pos_as_xyz
  1  'x, y, z'
loop_
 _atom_site_type_symbol
 _atom_site_label
 _atom_site_symmetry_multiplicity
 _atom_site_fract_x
 _atom_site_fract_y
 _atom_site_fract_z
 _atom_site_occupancy
  Tb  Tb0  1  0.252925  0.252925  0.252925  1
  Nd  Nd1  1  0.747157  0.747157  0.747157  1
  Nd  Nd2  1  0.747018  0.747018  0.252850  1
  Nd  Nd3  1  0.747018  0.252850  0.747018  1
  Nd  Nd4  1  0.252825  0.252825  0.747715  1
  Nd  Nd5  1  0.252825  0.747715  0.252825  1
  Nd  Nd6  1  0.252850  0.747018  0.747018  1
  Nd  Nd7  1  0.747715  0.252825  0.252825  1
  Tm  Tm8  1  0.000493  0.000493  0.000493  1
  Pd  Pd9  1  0.268049  0.498613  0.002942  1
  Pd  Pd10  1  0.731832  0.499417  0.999991  1
  Pd  Pd11  1  0.002942  0.268049  0.498613  1
  Pd  Pd12  1  0.498613  0.268049  0.002942  1
  Pd  Pd13  1  0.999991  0.731832  0.499417  1
  Pd  Pd14  1  0.499417  0.731832  0.999991  1
  Pd  Pd15  1  0.498613  0.002942  0.268049  1
  Pd  Pd16  1  0.268049  0.002942  0.498613  1
  Pd  Pd17  1  0.499417  0.999991  0.731832  1
  Pd  Pd18  1  0.731832  0.999991  0.499417  1
  Pd  Pd19  1  0.002942  0.498613  0.268049  1
  Pd  Pd20  1  0.999991  0.499417  0.731832  1
  Pd  Pd21  1  0.255034  0.497797  0.497797  1
  Pd  Pd22  1  0.745081  0.499753  0.499753  1
  Pd  Pd23  1  0.497797  0.255034  0.497797  1
  Pd  Pd24  1  0.499753  0.745081  0.499753  1
  Pd  Pd25  1  0.497797  0.497797  0.255034  1
  Pd  Pd26  1  0.499753  0.499753  0.745081  1
  Pd  Pd27  1  0.317795  0.001906  0.001906  1
  Pd  Pd28  1  0.681401  0.999629  0.999629  1
  Pd  Pd29  1  0.001906  0.317795  0.001906  1
  Pd  Pd30  1  0.999629  0.681401  0.999629  1
  Pd  Pd31  1  0.001906  0.001906  0.317795  1
  Pd  Pd32  1  0.999629  0.999629  0.681401  1
