# generated using pymatgen
data_Li7Dy7HoZnSn8
_symmetry_space_group_name_H-M   'P 1'
_cell_length_a   9.38844300
_cell_length_b   9.38638475
_cell_length_c   7.25696904
_cell_angle_alpha   89.93989041
_cell_angle_beta   90.00000000
_cell_angle_gamma   120.00725751
_symmetry_Int_Tables_number   1
_chemical_formula_structural   Li7Dy7HoZnSn8
_chemical_formula_sum   'Li7 Dy7 Ho1 Zn1 Sn8'
_cell_volume   553.79080999
_cell_formula_units_Z   1
loop_
 _symmetry_equiv_pos_site_id
 _symmetry_equiv_pos_as_xyz
  1  'x, y, z'
loop_
 _atom_site_type_symbol
 _atom_site_label
 _atom_site_symmetry_multiplicity
 _atom_site_fract_x
 _atom_site_fract_y
 _atom_site_fract_z
 _atom_site_occupancy
  Li  Li0  1  0.165223  0.832402  0.288969  1
  Li  Li1  1  0.667178  0.832402  0.288969  1
  Li  Li2  1  0.833163  0.666325  0.789263  1
  Li  Li3  1  0.831993  0.166126  0.788425  1
  Li  Li4  1  0.334134  0.166126  0.788425  1
  Li  Li5  1  0.334053  0.668107  0.679269  1
  Li  Li6  1  0.668251  0.336501  0.175654  1
  Dy  Dy7  1  0.511398  0.022796  0.496650  1
  Dy  Dy8  1  0.511334  0.488649  0.493078  1
  Dy  Dy9  1  0.977316  0.488649  0.493078  1
  Dy  Dy10  1  0.488870  0.977741  0.990105  1
  Dy  Dy11  1  0.486914  0.510139  0.992665  1
  Dy  Dy12  1  0.023224  0.510139  0.992665  1
  Dy  Dy13  1  0.999409  0.998819  0.498578  1
  Ho  Ho14  1  0.001007  0.002014  0.997768  1
  Zn  Zn15  1  0.166539  0.333080  0.299943  1
  Sn  Sn16  1  0.166150  0.332300  0.729758  1
  Sn  Sn17  1  0.165585  0.832713  0.728603  1
  Sn  Sn18  1  0.667127  0.832713  0.728603  1
  Sn  Sn19  1  0.833896  0.667790  0.229766  1
  Sn  Sn20  1  0.831724  0.165696  0.227029  1
  Sn  Sn21  1  0.333973  0.165696  0.227029  1
  Sn  Sn22  1  0.334444  0.668889  0.257664  1
  Sn  Sn23  1  0.667093  0.334186  0.760010  1
