# generated using pymatgen
data_TbLu9Si5As
_symmetry_space_group_name_H-M   'P 1'
_cell_length_a   8.24535800
_cell_length_b   8.27658838
_cell_length_c   6.15525500
_cell_angle_alpha   90.00000000
_cell_angle_beta   90.00000000
_cell_angle_gamma   119.87526522
_symmetry_Int_Tables_number   1
_chemical_formula_structural   TbLu9Si5As
_chemical_formula_sum   'Tb1 Lu9 Si5 As1'
_cell_volume   364.23531652
_cell_formula_units_Z   1
loop_
 _symmetry_equiv_pos_site_id
 _symmetry_equiv_pos_as_xyz
  1  'x, y, z'
loop_
 _atom_site_type_symbol
 _atom_site_label
 _atom_site_symmetry_multiplicity
 _atom_site_fract_x
 _atom_site_fract_y
 _atom_site_fract_z
 _atom_site_occupancy
  Tb  Tb0  1  0.759362  0.000000  0.750000  1
  Lu  Lu1  1  0.669163  0.336682  0.001159  1
  Lu  Lu2  1  0.332480  0.663318  0.498841  1
  Lu  Lu3  1  0.332480  0.663318  0.001159  1
  Lu  Lu4  1  0.669163  0.336682  0.498841  1
  Lu  Lu5  1  0.757096  0.755774  0.250000  1
  Lu  Lu6  1  0.001322  0.244226  0.250000  1
  Lu  Lu7  1  0.996243  0.753618  0.750000  1
  Lu  Lu8  1  0.242625  0.246382  0.750000  1
  Lu  Lu9  1  0.241231  0.000000  0.250000  1
  Si  Si10  1  0.394847  0.393226  0.250000  1
  Si  Si11  1  0.001621  0.606774  0.250000  1
  Si  Si12  1  0.002224  0.397997  0.750000  1
  Si  Si13  1  0.604228  0.602003  0.750000  1
  Si  Si14  1  0.607071  0.000000  0.250000  1
  As  As15  1  0.388845  0.000000  0.750000  1
