# generated using pymatgen
data_Pa4V2Ge6Os5
_symmetry_space_group_name_H-M   'P 1'
_cell_length_a   7.29299421
_cell_length_b   7.29299459
_cell_length_c   7.29299473
_cell_angle_alpha   109.39945016
_cell_angle_beta   109.39944981
_cell_angle_gamma   109.61485105
_symmetry_Int_Tables_number   1
_chemical_formula_structural   Pa4V2Ge6Os5
_chemical_formula_sum   'Pa4 V2 Ge6 Os5'
_cell_volume   298.60271756
_cell_formula_units_Z   1
loop_
 _symmetry_equiv_pos_site_id
 _symmetry_equiv_pos_as_xyz
  1  'x, y, z'
loop_
 _atom_site_type_symbol
 _atom_site_label
 _atom_site_symmetry_multiplicity
 _atom_site_fract_x
 _atom_site_fract_y
 _atom_site_fract_z
 _atom_site_occupancy
  Pa  Pa0  1  0.001746  0.998254  0.500000  1
  Pa  Pa1  1  0.001746  0.501746  0.003493  1
  Pa  Pa2  1  0.498254  0.998254  0.996507  1
  Pa  Pa3  1  0.498254  0.501746  0.500000  1
  V  V4  1  0.750000  0.250000  0.500000  1
  V  V5  1  0.000000  0.000000  0.000000  1
  Ge  Ge6  1  0.691605  0.691605  0.000000  1
  Ge  Ge7  1  0.308332  0.001177  0.307156  1
  Ge  Ge8  1  0.998823  0.305979  0.307156  1
  Ge  Ge9  1  0.308395  0.308395  0.000000  1
  Ge  Ge10  1  0.694021  0.001177  0.692844  1
  Ge  Ge11  1  0.998823  0.691668  0.692844  1
  Os  Os12  1  0.748356  0.497413  0.250943  1
  Os  Os13  1  0.502587  0.251644  0.749057  1
  Os  Os14  1  0.246471  0.497413  0.749057  1
  Os  Os15  1  0.250000  0.750000  0.500000  1
  Os  Os16  1  0.502587  0.753529  0.250943  1
