# generated using pymatgen
data_Li8TbY7Sn7Sb
_symmetry_space_group_name_H-M   'P 1'
_cell_length_a   9.37654596
_cell_length_b   9.37654640
_cell_length_c   7.30865301
_cell_angle_alpha   90.07252731
_cell_angle_beta   89.92748167
_cell_angle_gamma   119.97691794
_symmetry_Int_Tables_number   1
_chemical_formula_structural   Li8TbY7Sn7Sb
_chemical_formula_sum   'Li8 Tb1 Y7 Sn7 Sb1'
_cell_volume   556.61418566
_cell_formula_units_Z   1
loop_
 _symmetry_equiv_pos_site_id
 _symmetry_equiv_pos_as_xyz
  1  'x, y, z'
loop_
 _atom_site_type_symbol
 _atom_site_label
 _atom_site_symmetry_multiplicity
 _atom_site_fract_x
 _atom_site_fract_y
 _atom_site_fract_z
 _atom_site_occupancy
  Li  Li0  1  0.166886  0.833114  0.191671  1
  Li  Li1  1  0.334172  0.167705  0.690665  1
  Li  Li2  1  0.832295  0.665828  0.690665  1
  Li  Li3  1  0.166768  0.333840  0.191324  1
  Li  Li4  1  0.666160  0.833232  0.191324  1
  Li  Li5  1  0.833141  0.166859  0.691420  1
  Li  Li6  1  0.333696  0.666304  0.815357  1
  Li  Li7  1  0.666755  0.333245  0.314810  1
  Tb  Tb8  1  0.513187  0.486813  0.991739  1
  Y  Y9  1  0.024760  0.511244  0.490432  1
  Y  Y10  1  0.488756  0.975240  0.490432  1
  Y  Y11  1  0.515829  0.027060  0.993518  1
  Y  Y12  1  0.972940  0.484171  0.993518  1
  Y  Y13  1  0.486809  0.513191  0.491188  1
  Y  Y14  1  0.998958  0.001042  0.987455  1
  Y  Y15  1  0.999087  0.000913  0.484769  1
  Sn  Sn16  1  0.333128  0.165921  0.257717  1
  Sn  Sn17  1  0.834079  0.666872  0.257717  1
  Sn  Sn18  1  0.166052  0.333258  0.757831  1
  Sn  Sn19  1  0.666742  0.833948  0.757831  1
  Sn  Sn20  1  0.833432  0.166568  0.256888  1
  Sn  Sn21  1  0.332799  0.667201  0.223164  1
  Sn  Sn22  1  0.666957  0.333043  0.722834  1
  Sb  Sb23  1  0.166612  0.833388  0.755738  1
