# generated using pymatgen
data_Li3Sm3TeWO12
_symmetry_space_group_name_H-M   'P 1'
_cell_length_a   10.86972699
_cell_length_b   10.86972673
_cell_length_c   10.86972800
_cell_angle_alpha   109.47121927
_cell_angle_beta   109.47121879
_cell_angle_gamma   109.47122031
_symmetry_Int_Tables_number   1
_chemical_formula_structural   Li3Sm3TeWO12
_chemical_formula_sum   'Li12 Sm12 Te4 W4 O48'
_cell_volume   988.63064184
_cell_formula_units_Z   4
loop_
 _symmetry_equiv_pos_site_id
 _symmetry_equiv_pos_as_xyz
  1  'x, y, z'
loop_
 _atom_site_type_symbol
 _atom_site_label
 _atom_site_symmetry_multiplicity
 _atom_site_fract_x
 _atom_site_fract_y
 _atom_site_fract_z
 _atom_site_occupancy
  Li  Li0  1  0.750000  0.374863  0.124862  1
  Li  Li1  1  0.875137  0.750000  0.125137  1
  Li  Li2  1  0.125137  0.375137  0.250000  1
  Li  Li3  1  0.625137  0.875137  0.250000  1
  Li  Li4  1  0.624863  0.250000  0.374863  1
  Li  Li5  1  0.250000  0.125137  0.375137  1
  Li  Li6  1  0.750000  0.874863  0.624863  1
  Li  Li7  1  0.375137  0.750000  0.625138  1
  Li  Li8  1  0.374863  0.124862  0.750000  1
  Li  Li9  1  0.874863  0.624863  0.750000  1
  Li  Li10  1  0.250000  0.625137  0.875137  1
  Li  Li11  1  0.124863  0.250001  0.874863  1
  Sm  Sm12  1  0.250001  0.873842  0.123842  1
  Sm  Sm13  1  0.376158  0.250000  0.126158  1
  Sm  Sm14  1  0.373842  0.623842  0.250000  1
  Sm  Sm15  1  0.873842  0.123842  0.250001  1
  Sm  Sm16  1  0.750000  0.626159  0.376158  1
  Sm  Sm17  1  0.123841  0.750000  0.373842  1
  Sm  Sm18  1  0.876158  0.250000  0.626158  1
  Sm  Sm19  1  0.250000  0.373842  0.623842  1
  Sm  Sm20  1  0.126158  0.876158  0.750000  1
  Sm  Sm21  1  0.626159  0.376158  0.750000  1
  Sm  Sm22  1  0.750000  0.126158  0.876158  1
  Sm  Sm23  1  0.623842  0.750000  0.873842  1
  Te  Te24  1  0.000000  0.000000  0.000000  1
  Te  Te25  1  0.500000  0.500000  0.000000  1
  Te  Te26  1  0.500000  0.000000  0.500000  1
  Te  Te27  1  0.000000  0.500000  0.500000  1
  W  W28  1  0.500000  0.000000  0.000000  1
  W  W29  1  0.000000  0.500000  0.000000  1
  W  W30  1  0.000000  0.000000  0.500000  1
  W  W31  1  0.500000  0.500000  0.500000  1
  O  O32  1  0.196879  0.617149  0.024546  1
  O  O33  1  0.328467  0.407340  0.025230  1
  O  O34  1  0.696879  0.172333  0.079730  1
  O  O35  1  0.882110  0.907340  0.078873  1
  O  O36  1  0.617149  0.920270  0.092604  1
  O  O37  1  0.974770  0.171533  0.092661  1
  O  O38  1  0.024546  0.696879  0.117148  1
  O  O39  1  0.592661  0.421127  0.117891  1
  O  O40  1  0.196763  0.078873  0.171533  1
  O  O41  1  0.475455  0.092604  0.172334  1
  O  O42  1  0.117149  0.524546  0.196879  1
  O  O43  1  0.578874  0.671533  0.196763  1
  O  O44  1  0.474770  0.882110  0.303237  1
  O  O45  1  0.327666  0.420270  0.303121  1
  O  O46  1  0.907339  0.525230  0.328467  1
  O  O47  1  0.920270  0.803120  0.327666  1
  O  O48  1  0.303237  0.974770  0.382109  1
  O  O49  1  0.579731  0.407397  0.382851  1
  O  O50  1  0.827666  0.024546  0.407396  1
  O  O51  1  0.078873  0.382109  0.407340  1
  O  O52  1  0.828466  0.303237  0.421125  1
  O  O53  1  0.092604  0.117149  0.420270  1
  O  O54  1  0.382109  0.803237  0.474770  1
  O  O55  1  0.592603  0.672333  0.475455  1
  O  O56  1  0.617890  0.196763  0.525229  1
  O  O57  1  0.407397  0.327666  0.524546  1
  O  O58  1  0.171533  0.696763  0.578873  1
  O  O59  1  0.907396  0.882851  0.579731  1
  O  O60  1  0.172334  0.975454  0.592603  1
  O  O61  1  0.921126  0.617890  0.592661  1
  O  O62  1  0.420270  0.592603  0.617149  1
  O  O63  1  0.696763  0.025230  0.617890  1
  O  O64  1  0.079730  0.196879  0.672333  1
  O  O65  1  0.092661  0.474770  0.671533  1
  O  O66  1  0.672333  0.579731  0.696879  1
  O  O67  1  0.525230  0.117891  0.696763  1
  O  O68  1  0.882851  0.475455  0.803120  1
  O  O69  1  0.421127  0.328467  0.803237  1
  O  O70  1  0.803237  0.921126  0.828466  1
  O  O71  1  0.524546  0.907396  0.827666  1
  O  O72  1  0.975454  0.303121  0.882851  1
  O  O73  1  0.407340  0.578874  0.882110  1
  O  O74  1  0.382850  0.079730  0.907396  1
  O  O75  1  0.025230  0.828468  0.907340  1
  O  O76  1  0.117889  0.092661  0.921126  1
  O  O77  1  0.303121  0.827666  0.920270  1
  O  O78  1  0.803120  0.382851  0.975454  1
  O  O79  1  0.671533  0.592661  0.974770  1
