# generated using pymatgen
data_Tb4Bi3Sb3Rh7
_symmetry_space_group_name_H-M   'P 1'
_cell_length_a   7.75390524
_cell_length_b   7.71973693
_cell_length_c   7.71973546
_cell_angle_alpha   109.38138430
_cell_angle_beta   109.56090733
_cell_angle_gamma   109.56090518
_symmetry_Int_Tables_number   1
_chemical_formula_structural   Tb4Bi3Sb3Rh7
_chemical_formula_sum   'Tb4 Bi3 Sb3 Rh7'
_cell_volume   355.32162194
_cell_formula_units_Z   1
loop_
 _symmetry_equiv_pos_site_id
 _symmetry_equiv_pos_as_xyz
  1  'x, y, z'
loop_
 _atom_site_type_symbol
 _atom_site_label
 _atom_site_symmetry_multiplicity
 _atom_site_fract_x
 _atom_site_fract_y
 _atom_site_fract_z
 _atom_site_occupancy
  Tb  Tb0  1  0.465410  0.000000  0.000000  1
  Tb  Tb1  1  0.004574  0.514017  0.000000  1
  Tb  Tb2  1  0.004574  0.000000  0.514017  1
  Tb  Tb3  1  0.490557  0.485983  0.485983  1
  Bi  Bi4  1  0.988294  0.298193  0.298193  1
  Bi  Bi5  1  0.690101  0.000000  0.701807  1
  Bi  Bi6  1  0.690101  0.701807  0.000000  1
  Sb  Sb7  1  0.989210  0.665079  0.665079  1
  Sb  Sb8  1  0.324131  0.000000  0.334921  1
  Sb  Sb9  1  0.324131  0.334921  0.000000  1
  Rh  Rh10  1  0.064046  0.000000  0.000000  1
  Rh  Rh11  1  0.496197  0.752816  0.253340  1
  Rh  Rh12  1  0.743381  0.500524  0.247184  1
  Rh  Rh13  1  0.242857  0.746660  0.499476  1
  Rh  Rh14  1  0.242857  0.499476  0.746660  1
  Rh  Rh15  1  0.496197  0.253340  0.752816  1
  Rh  Rh16  1  0.743381  0.247184  0.500524  1
