# generated using pymatgen
data_GaReSb12RuPt2
_symmetry_space_group_name_H-M   'P 1'
_cell_length_a   8.22687337
_cell_length_b   8.16708885
_cell_length_c   8.23309604
_cell_angle_alpha   109.39051900
_cell_angle_beta   109.63828836
_cell_angle_gamma   109.35034346
_symmetry_Int_Tables_number   1
_chemical_formula_structural   GaReSb12RuPt2
_chemical_formula_sum   'Ga1 Re1 Sb12 Ru1 Pt2'
_cell_volume   426.01589417
_cell_formula_units_Z   1
loop_
 _symmetry_equiv_pos_site_id
 _symmetry_equiv_pos_as_xyz
  1  'x, y, z'
loop_
 _atom_site_type_symbol
 _atom_site_label
 _atom_site_symmetry_multiplicity
 _atom_site_fract_x
 _atom_site_fract_y
 _atom_site_fract_z
 _atom_site_occupancy
  Ga  Ga0  1  0.000000  0.000000  0.000000  1
  Re  Re1  1  0.000000  0.500000  0.000000  1
  Sb  Sb2  1  0.158571  0.491415  0.334501  1
  Sb  Sb3  1  0.505876  0.655065  0.840074  1
  Sb  Sb4  1  0.336894  0.842878  0.186524  1
  Sb  Sb5  1  0.813439  0.655456  0.149998  1
  Sb  Sb6  1  0.656284  0.841666  0.505675  1
  Sb  Sb7  1  0.186561  0.344544  0.850002  1
  Sb  Sb8  1  0.663106  0.157122  0.813476  1
  Sb  Sb9  1  0.343716  0.158334  0.494325  1
  Sb  Sb10  1  0.494124  0.344935  0.159926  1
  Sb  Sb11  1  0.841429  0.508585  0.665499  1
  Sb  Sb12  1  0.848364  0.193119  0.343984  1
  Sb  Sb13  1  0.151636  0.806881  0.656016  1
  Ru  Ru14  1  0.500000  0.500000  0.500000  1
  Pt  Pt15  1  0.500000  0.000000  0.000000  1
  Pt  Pt16  1  0.000000  0.000000  0.500000  1
