# generated using pymatgen
data_Tb7Dy3Ho6(CdIr)4
_symmetry_space_group_name_H-M   'P 1'
_cell_length_a   9.64401889
_cell_length_b   9.64581875
_cell_length_c   9.64663650
_cell_angle_alpha   59.97602833
_cell_angle_beta   59.96149057
_cell_angle_gamma   59.99333578
_symmetry_Int_Tables_number   1
_chemical_formula_structural   Tb7Dy3Ho6(CdIr)4
_chemical_formula_sum   'Tb7 Dy3 Ho6 Cd4 Ir4'
_cell_volume   634.20689409
_cell_formula_units_Z   1
loop_
 _symmetry_equiv_pos_site_id
 _symmetry_equiv_pos_as_xyz
  1  'x, y, z'
loop_
 _atom_site_type_symbol
 _atom_site_label
 _atom_site_symmetry_multiplicity
 _atom_site_fract_x
 _atom_site_fract_y
 _atom_site_fract_z
 _atom_site_occupancy
  Tb  Tb0  1  0.061033  0.060961  0.437167  1
  Tb  Tb1  1  0.189233  0.811262  0.811872  1
  Tb  Tb2  1  0.810749  0.188746  0.188211  1
  Tb  Tb3  1  0.811417  0.189158  0.811904  1
  Tb  Tb4  1  0.188845  0.810545  0.188352  1
  Tb  Tb5  1  0.811608  0.811485  0.189060  1
  Tb  Tb6  1  0.188437  0.188491  0.811098  1
  Dy  Dy7  1  0.598669  0.598645  0.598772  1
  Dy  Dy8  1  0.599564  0.599694  0.203105  1
  Dy  Dy9  1  0.598827  0.203675  0.599788  1
  Ho  Ho10  1  0.204376  0.598559  0.599566  1
  Ho  Ho11  1  0.060508  0.439238  0.438768  1
  Ho  Ho12  1  0.437566  0.061212  0.060792  1
  Ho  Ho13  1  0.439100  0.060464  0.438847  1
  Ho  Ho14  1  0.061142  0.437756  0.060654  1
  Ho  Ho15  1  0.438578  0.438789  0.060599  1
  Cd  Cd16  1  0.830171  0.830052  0.830453  1
  Cd  Cd17  1  0.830697  0.830562  0.507146  1
  Cd  Cd18  1  0.830810  0.507199  0.830661  1
  Cd  Cd19  1  0.507195  0.830699  0.830688  1
  Ir  Ir20  1  0.391207  0.391893  0.392093  1
  Ir  Ir21  1  0.391934  0.392498  0.825763  1
  Ir  Ir22  1  0.393146  0.824968  0.392448  1
  Ir  Ir23  1  0.825192  0.393455  0.392195  1
