# generated using pymatgen
data_Er6Al24IrOs7
_symmetry_space_group_name_H-M   'P 1'
_cell_length_a   8.80446058
_cell_length_b   8.80446068
_cell_length_c   9.53099040
_cell_angle_alpha   89.80984685
_cell_angle_beta   90.19015362
_cell_angle_gamma   119.84778911
_symmetry_Int_Tables_number   1
_chemical_formula_structural   Er6Al24IrOs7
_chemical_formula_sum   'Er6 Al24 Ir1 Os7'
_cell_volume   640.81851529
_cell_formula_units_Z   1
loop_
 _symmetry_equiv_pos_site_id
 _symmetry_equiv_pos_as_xyz
  1  'x, y, z'
loop_
 _atom_site_type_symbol
 _atom_site_label
 _atom_site_symmetry_multiplicity
 _atom_site_fract_x
 _atom_site_fract_y
 _atom_site_fract_z
 _atom_site_occupancy
  Er  Er0  1  0.191847  0.388373  0.251305  1
  Er  Er1  1  0.808153  0.611627  0.748695  1
  Er  Er2  1  0.611627  0.808153  0.251305  1
  Er  Er3  1  0.388373  0.191847  0.748695  1
  Er  Er4  1  0.195039  0.804961  0.250602  1
  Er  Er5  1  0.804961  0.195039  0.749398  1
  Al  Al6  1  0.332973  0.667027  0.019453  1
  Al  Al7  1  0.667027  0.332973  0.980547  1
  Al  Al8  1  0.666649  0.333351  0.517350  1
  Al  Al9  1  0.333351  0.666649  0.482650  1
  Al  Al10  1  0.163518  0.325048  0.577164  1
  Al  Al11  1  0.836482  0.674952  0.422836  1
  Al  Al12  1  0.674952  0.836482  0.577164  1
  Al  Al13  1  0.838519  0.675050  0.076593  1
  Al  Al14  1  0.325048  0.163518  0.422836  1
  Al  Al15  1  0.161481  0.324950  0.923407  1
  Al  Al16  1  0.163272  0.836728  0.575640  1
  Al  Al17  1  0.324950  0.161481  0.076593  1
  Al  Al18  1  0.836728  0.163272  0.424360  1
  Al  Al19  1  0.675050  0.838519  0.923407  1
  Al  Al20  1  0.836836  0.163164  0.075628  1
  Al  Al21  1  0.163164  0.836836  0.924372  1
  Al  Al22  1  0.560048  0.121953  0.249475  1
  Al  Al23  1  0.439952  0.878047  0.750525  1
  Al  Al24  1  0.878047  0.439952  0.249475  1
  Al  Al25  1  0.121953  0.560048  0.750525  1
  Al  Al26  1  0.560194  0.439806  0.250060  1
  Al  Al27  1  0.439806  0.560194  0.749940  1
  Al  Al28  1  0.999813  0.000187  0.250065  1
  Al  Al29  1  0.000187  0.999813  0.749935  1
  Ir  Ir30  1  0.500000  0.500000  0.000000  1
  Os  Os31  1  0.500000  0.000000  0.000000  1
  Os  Os32  1  0.000000  0.500000  0.000000  1
  Os  Os33  1  0.500000  0.000000  0.500000  1
  Os  Os34  1  0.000000  0.500000  0.500000  1
  Os  Os35  1  0.500000  0.500000  0.500000  1
  Os  Os36  1  0.000000  0.000000  0.000000  1
  Os  Os37  1  0.000000  0.000000  0.500000  1
