# generated using pymatgen
data_HfZr2NiN
_symmetry_space_group_name_H-M   'P 1'
_cell_length_a   5.78176360
_cell_length_b   5.78176480
_cell_length_c   8.81387000
_cell_angle_alpha   90.00000000
_cell_angle_beta   90.00000000
_cell_angle_gamma   146.75858871
_symmetry_Int_Tables_number   1
_chemical_formula_structural   HfZr2NiN
_chemical_formula_sum   'Hf2 Zr4 Ni2 N2'
_cell_volume   161.51057491
_cell_formula_units_Z   2
loop_
 _symmetry_equiv_pos_site_id
 _symmetry_equiv_pos_as_xyz
  1  'x, y, z'
loop_
 _atom_site_type_symbol
 _atom_site_label
 _atom_site_symmetry_multiplicity
 _atom_site_fract_x
 _atom_site_fract_y
 _atom_site_fract_z
 _atom_site_occupancy
  Hf  Hf0  1  0.368742  0.631260  0.061688  1
  Hf  Hf1  1  0.368742  0.631260  0.438312  1
  Zr  Zr2  1  0.063344  0.936658  0.250000  1
  Zr  Zr3  1  0.632659  0.367343  0.559957  1
  Zr  Zr4  1  0.936121  0.063881  0.750000  1
  Zr  Zr5  1  0.632659  0.367343  0.940043  1
  Ni  Ni6  1  0.753782  0.246220  0.250000  1
  Ni  Ni7  1  0.249942  0.750060  0.750000  1
  N  N8  1  0.997009  0.002991  0.001218  1
  N  N9  1  0.997009  0.002991  0.498782  1
