# generated using pymatgen
data_DyYMn(Co2B)3
_symmetry_space_group_name_H-M   'P 1'
_cell_length_a   5.08346400
_cell_length_b   5.08410664
_cell_length_c   12.67478700
_cell_angle_alpha   89.99993012
_cell_angle_beta   90.00016231
_cell_angle_gamma   119.99581878
_symmetry_Int_Tables_number   1
_chemical_formula_structural   DyYMn(Co2B)3
_chemical_formula_sum   'Dy2 Y2 Mn2 Co12 B6'
_cell_volume   283.70304773
_cell_formula_units_Z   2
loop_
 _symmetry_equiv_pos_site_id
 _symmetry_equiv_pos_as_xyz
  1  'x, y, z'
loop_
 _atom_site_type_symbol
 _atom_site_label
 _atom_site_symmetry_multiplicity
 _atom_site_fract_x
 _atom_site_fract_y
 _atom_site_fract_z
 _atom_site_occupancy
  Dy  Dy0  1  0.999987  0.000000  0.260267  1
  Dy  Dy1  1  0.000000  0.000000  0.739722  1
  Y  Y2  1  0.999989  0.000000  0.000005  1
  Y  Y3  1  0.999991  0.000000  0.499970  1
  Mn  Mn4  1  0.333312  0.666644  0.000024  1
  Mn  Mn5  1  0.666667  0.333356  0.000024  1
  Co  Co6  1  0.499986  0.000000  0.158171  1
  Co  Co7  1  0.499986  0.500000  0.158148  1
  Co  Co8  1  0.999985  0.500000  0.158148  1
  Co  Co9  1  0.499999  0.000000  0.841900  1
  Co  Co10  1  0.499998  0.500001  0.841872  1
  Co  Co11  1  0.999998  0.499999  0.841872  1
  Co  Co12  1  0.499988  0.000000  0.385224  1
  Co  Co13  1  0.499988  0.500000  0.385237  1
  Co  Co14  1  0.999988  0.500000  0.385237  1
  Co  Co15  1  0.499995  0.000000  0.614728  1
  Co  Co16  1  0.499995  0.500000  0.614730  1
  Co  Co17  1  0.999994  0.500000  0.614730  1
  B  B18  1  0.333320  0.666659  0.499977  1
  B  B19  1  0.666661  0.333341  0.499977  1
  B  B20  1  0.333309  0.666641  0.269087  1
  B  B21  1  0.666668  0.333359  0.269087  1
  B  B22  1  0.666671  0.333348  0.730931  1
  B  B23  1  0.333324  0.666652  0.730931  1
