# generated using pymatgen
data_Tb4As6Ir5Ru2
_symmetry_space_group_name_H-M   'P 1'
_cell_length_a   7.28533210
_cell_length_b   7.28533121
_cell_length_c   7.28533172
_cell_angle_alpha   109.48391105
_cell_angle_beta   109.44584456
_cell_angle_gamma   109.48390140
_symmetry_Int_Tables_number   1
_chemical_formula_structural   Tb4As6Ir5Ru2
_chemical_formula_sum   'Tb4 As6 Ir5 Ru2'
_cell_volume   297.66383533
_cell_formula_units_Z   1
loop_
 _symmetry_equiv_pos_site_id
 _symmetry_equiv_pos_as_xyz
  1  'x, y, z'
loop_
 _atom_site_type_symbol
 _atom_site_label
 _atom_site_symmetry_multiplicity
 _atom_site_fract_x
 _atom_site_fract_y
 _atom_site_fract_z
 _atom_site_occupancy
  Tb  Tb0  1  0.000108  0.000215  0.500108  1
  Tb  Tb1  1  0.499892  0.999785  0.999892  1
  Tb  Tb2  1  0.000108  0.500000  0.999892  1
  Tb  Tb3  1  0.499892  0.500000  0.500108  1
  As  As4  1  0.679393  0.682182  0.997210  1
  As  As5  1  0.315028  0.317818  0.997210  1
  As  As6  1  0.002790  0.682182  0.684972  1
  As  As7  1  0.002790  0.317818  0.320607  1
  As  As8  1  0.683918  0.000000  0.683918  1
  As  As9  1  0.316082  0.000000  0.316082  1
  Ir  Ir10  1  0.749397  0.249359  0.500037  1
  Ir  Ir11  1  0.499963  0.249359  0.749322  1
  Ir  Ir12  1  0.499963  0.750641  0.250603  1
  Ir  Ir13  1  0.750000  0.500000  0.250000  1
  Ir  Ir14  1  0.250678  0.750641  0.500037  1
  Ru  Ru15  1  0.000000  0.000000  0.000000  1
  Ru  Ru16  1  0.250000  0.500000  0.750000  1
