# generated using pymatgen
data_ScFe4SbO8
_symmetry_space_group_name_H-M   'P 1'
_cell_length_a   6.22742041
_cell_length_b   6.22752779
_cell_length_c   6.28306449
_cell_angle_alpha   61.16096451
_cell_angle_beta   61.16437106
_cell_angle_gamma   58.64749410
_symmetry_Int_Tables_number   1
_chemical_formula_structural   ScFe4SbO8
_chemical_formula_sum   'Sc1 Fe4 Sb1 O8'
_cell_volume   173.34501483
_cell_formula_units_Z   1
loop_
 _symmetry_equiv_pos_site_id
 _symmetry_equiv_pos_as_xyz
  1  'x, y, z'
loop_
 _atom_site_type_symbol
 _atom_site_label
 _atom_site_symmetry_multiplicity
 _atom_site_fract_x
 _atom_site_fract_y
 _atom_site_fract_z
 _atom_site_occupancy
  Sc  Sc0  1  0.000000  0.000000  0.500000  1
  Fe  Fe1  1  0.361985  0.361954  0.908470  1
  Fe  Fe2  1  0.638015  0.638046  0.091530  1
  Fe  Fe3  1  0.000000  0.500000  0.500000  1
  Fe  Fe4  1  0.500000  0.000000  0.500000  1
  Sb  Sb5  1  0.000000  0.000000  0.000000  1
  O  O6  1  0.230182  0.230208  0.296641  1
  O  O7  1  0.221896  0.221908  0.776267  1
  O  O8  1  0.230683  0.773501  0.760263  1
  O  O9  1  0.773489  0.230689  0.760248  1
  O  O10  1  0.769818  0.769792  0.703359  1
  O  O11  1  0.778104  0.778092  0.223733  1
  O  O12  1  0.769317  0.226499  0.239737  1
  O  O13  1  0.226511  0.769311  0.239752  1
