# generated using pymatgen
data_Tb2Er5Co2Sn23Os4
_symmetry_space_group_name_H-M   'P 1'
_cell_length_a   9.78217957
_cell_length_b   9.83541928
_cell_length_c   10.05151408
_cell_angle_alpha   89.99999979
_cell_angle_beta   89.76494597
_cell_angle_gamma   120.18020958
_symmetry_Int_Tables_number   1
_chemical_formula_structural   Tb2Er5Co2Sn23Os4
_chemical_formula_sum   'Tb2 Er5 Co2 Sn23 Os4'
_cell_volume   835.97680508
_cell_formula_units_Z   1
loop_
 _symmetry_equiv_pos_site_id
 _symmetry_equiv_pos_as_xyz
  1  'x, y, z'
loop_
 _atom_site_type_symbol
 _atom_site_label
 _atom_site_symmetry_multiplicity
 _atom_site_fract_x
 _atom_site_fract_y
 _atom_site_fract_z
 _atom_site_occupancy
  Tb  Tb0  1  0.000193  0.000097  0.000068  1
  Tb  Tb1  1  0.964903  0.482451  0.695503  1
  Er  Er2  1  0.484927  0.518524  0.305306  1
  Er  Er3  1  0.515283  0.481631  0.694652  1
  Er  Er4  1  0.484927  0.966403  0.305306  1
  Er  Er5  1  0.515283  0.033652  0.694652  1
  Er  Er6  1  0.033235  0.516618  0.303755  1
  Co  Co7  1  0.339387  0.169693  0.199827  1
  Co  Co8  1  0.660401  0.830201  0.800392  1
  Sn  Sn9  1  0.349704  0.002969  0.005103  1
  Sn  Sn10  1  0.650446  0.997133  0.995120  1
  Sn  Sn11  1  0.000164  0.349879  0.000037  1
  Sn  Sn12  1  0.000164  0.650285  0.000037  1
  Sn  Sn13  1  0.650446  0.653313  0.995120  1
  Sn  Sn14  1  0.349704  0.346734  0.005103  1
  Sn  Sn15  1  0.336826  0.668414  0.822170  1
  Sn  Sn16  1  0.663334  0.331666  0.177980  1
  Sn  Sn17  1  0.000137  0.000069  0.499906  1
  Sn  Sn18  1  0.779587  0.220099  0.461626  1
  Sn  Sn19  1  0.220744  0.780272  0.537656  1
  Sn  Sn20  1  0.779587  0.559489  0.461626  1
  Sn  Sn21  1  0.220744  0.440472  0.537656  1
  Sn  Sn22  1  0.437949  0.218974  0.454624  1
  Sn  Sn23  1  0.562203  0.781101  0.545341  1
  Sn  Sn24  1  0.335123  0.667562  0.125993  1
  Sn  Sn25  1  0.663233  0.331616  0.874933  1
  Sn  Sn26  1  0.121429  0.888622  0.275885  1
  Sn  Sn27  1  0.878615  0.110860  0.724328  1
  Sn  Sn28  1  0.121429  0.232809  0.275885  1
  Sn  Sn29  1  0.878615  0.767753  0.724328  1
  Sn  Sn30  1  0.762927  0.881464  0.277503  1
  Sn  Sn31  1  0.237208  0.118603  0.722315  1
  Os  Os32  1  0.829002  0.168511  0.201173  1
  Os  Os33  1  0.171568  0.832372  0.798959  1
  Os  Os34  1  0.829002  0.660491  0.201173  1
  Os  Os35  1  0.171568  0.339197  0.798959  1
