# generated using pymatgen
data_Yb3TmIrRu3O14
_symmetry_space_group_name_H-M   'P 1'
_cell_length_a   7.21236088
_cell_length_b   7.19212736
_cell_length_c   7.21236100
_cell_angle_alpha   59.90689753
_cell_angle_beta   60.00000405
_cell_angle_gamma   59.90689883
_symmetry_Int_Tables_number   1
_chemical_formula_structural   Yb3TmIrRu3O14
_chemical_formula_sum   'Yb3 Tm1 Ir1 Ru3 O14'
_cell_volume   264.17073275
_cell_formula_units_Z   1
loop_
 _symmetry_equiv_pos_site_id
 _symmetry_equiv_pos_as_xyz
  1  'x, y, z'
loop_
 _atom_site_type_symbol
 _atom_site_label
 _atom_site_symmetry_multiplicity
 _atom_site_fract_x
 _atom_site_fract_y
 _atom_site_fract_z
 _atom_site_occupancy
  Yb  Yb0  1  0.125000  0.125000  0.625000  1
  Yb  Yb1  1  0.125000  0.125000  0.125000  1
  Yb  Yb2  1  0.625000  0.125000  0.125000  1
  Tm  Tm3  1  0.125000  0.625000  0.125000  1
  Ir  Ir4  1  0.625000  0.125000  0.625000  1
  Ru  Ru5  1  0.625000  0.625000  0.625000  1
  Ru  Ru6  1  0.125000  0.625000  0.625000  1
  Ru  Ru7  1  0.625000  0.625000  0.125000  1
  O  O8  1  0.544617  0.552759  0.951311  1
  O  O9  1  0.951311  0.552759  0.951311  1
  O  O10  1  0.298109  0.300207  0.700843  1
  O  O11  1  0.004202  0.987393  0.004202  1
  O  O12  1  0.298689  0.697241  0.705383  1
  O  O13  1  0.705383  0.697241  0.298689  1
  O  O14  1  0.700843  0.300207  0.298109  1
  O  O15  1  0.549157  0.949793  0.549157  1
  O  O16  1  0.700843  0.300207  0.700843  1
  O  O17  1  0.549157  0.949793  0.951891  1
  O  O18  1  0.951891  0.949793  0.549157  1
  O  O19  1  0.245798  0.262607  0.245798  1
  O  O20  1  0.298689  0.697241  0.298689  1
  O  O21  1  0.951311  0.552759  0.544617  1
