# generated using pymatgen
data_Tb4Al18FePd3Rh2
_symmetry_space_group_name_H-M   'P 1'
_cell_length_a   7.57201318
_cell_length_b   7.57198808
_cell_length_c   9.46775001
_cell_angle_alpha   89.98171931
_cell_angle_beta   89.98138004
_cell_angle_gamma   119.47361316
_symmetry_Int_Tables_number   1
_chemical_formula_structural   Tb4Al18FePd3Rh2
_chemical_formula_sum   'Tb4 Al18 Fe1 Pd3 Rh2'
_cell_volume   472.58273414
_cell_formula_units_Z   1
loop_
 _symmetry_equiv_pos_site_id
 _symmetry_equiv_pos_as_xyz
  1  'x, y, z'
loop_
 _atom_site_type_symbol
 _atom_site_label
 _atom_site_symmetry_multiplicity
 _atom_site_fract_x
 _atom_site_fract_y
 _atom_site_fract_z
 _atom_site_occupancy
  Tb  Tb0  1  0.998910  0.674402  0.249552  1
  Tb  Tb1  1  0.007897  0.330377  0.750219  1
  Tb  Tb2  1  0.669625  0.992103  0.249780  1
  Tb  Tb3  1  0.325594  0.001088  0.750447  1
  Al  Al4  1  0.129525  0.132405  0.251791  1
  Al  Al5  1  0.867591  0.870469  0.748209  1
  Al  Al6  1  0.987691  0.334749  0.075070  1
  Al  Al7  1  0.987395  0.653248  0.924304  1
  Al  Al8  1  0.994118  0.664192  0.575978  1
  Al  Al9  1  0.335808  0.005879  0.424019  1
  Al  Al10  1  0.995930  0.331286  0.424946  1
  Al  Al11  1  0.668712  0.004072  0.575050  1
  Al  Al12  1  0.665252  0.012314  0.924928  1
  Al  Al13  1  0.346747  0.012606  0.075696  1
  Al  Al14  1  0.333958  0.330475  0.552593  1
  Al  Al15  1  0.669529  0.666047  0.447403  1
  Al  Al16  1  0.667040  0.657536  0.051296  1
  Al  Al17  1  0.342463  0.332957  0.948701  1
  Al  Al18  1  0.339117  0.543717  0.249594  1
  Al  Al19  1  0.658851  0.442775  0.755034  1
  Al  Al20  1  0.557217  0.341147  0.244972  1
  Al  Al21  1  0.456283  0.660880  0.750403  1
  Fe  Fe22  1  0.670412  0.329590  0.000014  1
  Pd  Pd23  1  0.326387  0.673631  0.999999  1
  Pd  Pd24  1  0.327048  0.672946  0.500000  1
  Pd  Pd25  1  0.999689  0.000301  0.999995  1
  Rh  Rh26  1  0.671292  0.328705  0.499997  1
  Rh  Rh27  1  0.999919  0.000103  0.500009  1
