# generated using pymatgen
data_Li3CoH6
_symmetry_space_group_name_H-M   'P 1'
_cell_length_a   4.67904116
_cell_length_b   4.66932274
_cell_length_c   6.59362722
_cell_angle_alpha   47.61045137
_cell_angle_beta   109.52570690
_cell_angle_gamma   119.94434729
_symmetry_Int_Tables_number   1
_chemical_formula_structural   Li3CoH6
_chemical_formula_sum   'Li3 Co1 H6'
_cell_volume   92.19403966
_cell_formula_units_Z   1
loop_
 _symmetry_equiv_pos_site_id
 _symmetry_equiv_pos_as_xyz
  1  'x, y, z'
loop_
 _atom_site_type_symbol
 _atom_site_label
 _atom_site_symmetry_multiplicity
 _atom_site_fract_x
 _atom_site_fract_y
 _atom_site_fract_z
 _atom_site_occupancy
  Li  Li0  1  0.676891  0.948678  0.498583  1
  Li  Li1  1  0.008355  0.109854  0.002134  1
  Li  Li2  1  0.340377  0.273604  0.505508  1
  Co  Co3  1  0.008636  0.611010  0.502090  1
  H  H4  1  0.012065  0.532019  0.310068  1
  H  H5  1  0.276948  0.437330  0.686691  1
  H  H6  1  0.005249  0.689610  0.694346  1
  H  H7  1  0.275091  0.056977  0.316741  1
  H  H8  1  0.740528  0.785007  0.317508  1
  H  H9  1  0.741905  0.165150  0.687359  1
