# generated using pymatgen
data_CaEu2In7Au4
_symmetry_space_group_name_H-M   'P 1'
_cell_length_a   4.69141200
_cell_length_b   7.65555400
_cell_length_c   19.22521200
_cell_angle_alpha   90.00000000
_cell_angle_beta   90.00000000
_cell_angle_gamma   90.00000000
_symmetry_Int_Tables_number   1
_chemical_formula_structural   CaEu2In7Au4
_chemical_formula_sum   'Ca2 Eu4 In14 Au8'
_cell_volume   690.48036973
_cell_formula_units_Z   2
loop_
 _symmetry_equiv_pos_site_id
 _symmetry_equiv_pos_as_xyz
  1  'x, y, z'
loop_
 _atom_site_type_symbol
 _atom_site_label
 _atom_site_symmetry_multiplicity
 _atom_site_fract_x
 _atom_site_fract_y
 _atom_site_fract_z
 _atom_site_occupancy
  Ca  Ca0  1  0.250000  0.992546  0.569676  1
  Ca  Ca1  1  0.250000  0.507454  0.069676  1
  Eu  Eu2  1  0.750000  0.966138  0.857855  1
  Eu  Eu3  1  0.750000  0.533862  0.357855  1
  Eu  Eu4  1  0.250000  0.027704  0.141874  1
  Eu  Eu5  1  0.250000  0.472296  0.641874  1
  In  In6  1  0.750000  0.995753  0.431227  1
  In  In7  1  0.750000  0.504247  0.931227  1
  In  In8  1  0.250000  0.156584  0.965187  1
  In  In9  1  0.250000  0.343416  0.465187  1
  In  In10  1  0.750000  0.848890  0.033864  1
  In  In11  1  0.750000  0.651110  0.533864  1
  In  In12  1  0.250000  0.264193  0.813015  1
  In  In13  1  0.250000  0.235807  0.313015  1
  In  In14  1  0.750000  0.733145  0.187095  1
  In  In15  1  0.750000  0.766855  0.687095  1
  In  In16  1  0.250000  0.664620  0.814116  1
  In  In17  1  0.250000  0.835380  0.314116  1
  In  In18  1  0.750000  0.331136  0.185283  1
  In  In19  1  0.750000  0.168864  0.685283  1
  Au  Au20  1  0.250000  0.964872  0.726296  1
  Au  Au21  1  0.250000  0.535128  0.226296  1
  Au  Au22  1  0.750000  0.035630  0.279064  1
  Au  Au23  1  0.750000  0.464370  0.779064  1
  Au  Au24  1  0.250000  0.773139  0.953374  1
  Au  Au25  1  0.250000  0.726861  0.453374  1
  Au  Au26  1  0.750000  0.235111  0.042073  1
  Au  Au27  1  0.750000  0.264889  0.542073  1
