# generated using pymatgen
data_Lu5Cr3(Co4P3)4
_symmetry_space_group_name_H-M   'P 1'
_cell_length_a   11.91394800
_cell_length_b   11.91394882
_cell_length_c   3.63689100
_cell_angle_alpha   90.00000000
_cell_angle_beta   90.00000000
_cell_angle_gamma   120.00000327
_symmetry_Int_Tables_number   1
_chemical_formula_structural   Lu5Cr3(Co4P3)4
_chemical_formula_sum   'Lu5 Cr3 Co16 P12'
_cell_volume   447.06671090
_cell_formula_units_Z   1
loop_
 _symmetry_equiv_pos_site_id
 _symmetry_equiv_pos_as_xyz
  1  'x, y, z'
loop_
 _atom_site_type_symbol
 _atom_site_label
 _atom_site_symmetry_multiplicity
 _atom_site_fract_x
 _atom_site_fract_y
 _atom_site_fract_z
 _atom_site_occupancy
  Lu  Lu0  1  0.666667  0.333333  0.000000  1
  Lu  Lu1  1  0.333333  0.666667  0.000000  1
  Lu  Lu2  1  0.813038  0.813038  0.500000  1
  Lu  Lu3  1  0.186962  0.000000  0.500000  1
  Lu  Lu4  1  0.000000  0.186962  0.500000  1
  Cr  Cr5  1  0.446064  0.446064  0.000000  1
  Cr  Cr6  1  0.553936  0.000000  0.000000  1
  Cr  Cr7  1  0.000000  0.553936  0.000000  1
  Co  Co8  1  0.872844  0.355310  0.500000  1
  Co  Co9  1  0.644690  0.517534  0.500000  1
  Co  Co10  1  0.482466  0.127156  0.500000  1
  Co  Co11  1  0.355310  0.872844  0.500000  1
  Co  Co12  1  0.517534  0.644690  0.500000  1
  Co  Co13  1  0.127156  0.482466  0.500000  1
  Co  Co14  1  0.800886  0.177297  0.000000  1
  Co  Co15  1  0.822703  0.623587  0.000000  1
  Co  Co16  1  0.376413  0.199114  0.000000  1
  Co  Co17  1  0.177297  0.800886  0.000000  1
  Co  Co18  1  0.623587  0.822703  0.000000  1
  Co  Co19  1  0.199114  0.376413  0.000000  1
  Co  Co20  1  0.281775  0.281775  0.500000  1
  Co  Co21  1  0.718225  0.000000  0.500000  1
  Co  Co22  1  0.000000  0.718225  0.500000  1
  Co  Co23  1  0.000000  0.000000  0.000000  1
  P  P24  1  0.682228  0.163463  0.500000  1
  P  P25  1  0.836537  0.518764  0.500000  1
  P  P26  1  0.481236  0.317772  0.500000  1
  P  P27  1  0.163463  0.682228  0.500000  1
  P  P28  1  0.518764  0.836537  0.500000  1
  P  P29  1  0.317772  0.481236  0.500000  1
  P  P30  1  0.178111  0.178111  0.000000  1
  P  P31  1  0.821889  0.000000  0.000000  1
  P  P32  1  0.000000  0.821889  0.000000  1
  P  P33  1  0.634566  0.634566  0.000000  1
  P  P34  1  0.365434  0.000000  0.000000  1
  P  P35  1  0.000000  0.365434  0.000000  1
