# generated using pymatgen
data_ScNb8SnSe16
_symmetry_space_group_name_H-M   'P 1'
_cell_length_a   7.02973100
_cell_length_b   7.02973107
_cell_length_c   14.31826900
_cell_angle_alpha   90.00000000
_cell_angle_beta   90.00000000
_cell_angle_gamma   119.99999495
_symmetry_Int_Tables_number   1
_chemical_formula_structural   ScNb8SnSe16
_chemical_formula_sum   'Sc1 Nb8 Sn1 Se16'
_cell_volume   612.77154336
_cell_formula_units_Z   1
loop_
 _symmetry_equiv_pos_site_id
 _symmetry_equiv_pos_as_xyz
  1  'x, y, z'
loop_
 _atom_site_type_symbol
 _atom_site_label
 _atom_site_symmetry_multiplicity
 _atom_site_fract_x
 _atom_site_fract_y
 _atom_site_fract_z
 _atom_site_occupancy
  Sc  Sc0  1  0.000000  0.000000  0.500000  1
  Nb  Nb1  1  0.987228  0.493614  0.261400  1
  Nb  Nb2  1  0.012772  0.506386  0.738600  1
  Nb  Nb3  1  0.493614  0.506386  0.738600  1
  Nb  Nb4  1  0.506386  0.012772  0.261400  1
  Nb  Nb5  1  0.000000  0.000000  0.737538  1
  Nb  Nb6  1  0.000000  0.000000  0.262462  1
  Nb  Nb7  1  0.506386  0.493614  0.261400  1
  Nb  Nb8  1  0.493614  0.987228  0.738600  1
  Sn  Sn9  1  0.000000  0.000000  0.000000  1
  Se  Se10  1  0.333333  0.666667  0.618855  1
  Se  Se11  1  0.666667  0.333333  0.141714  1
  Se  Se12  1  0.666667  0.333333  0.381145  1
  Se  Se13  1  0.333333  0.666667  0.858286  1
  Se  Se14  1  0.168678  0.337356  0.377589  1
  Se  Se15  1  0.831391  0.168609  0.853478  1
  Se  Se16  1  0.337218  0.168609  0.853478  1
  Se  Se17  1  0.662644  0.831322  0.377589  1
  Se  Se18  1  0.168678  0.831322  0.377589  1
  Se  Se19  1  0.831391  0.662782  0.853478  1
  Se  Se20  1  0.168609  0.337218  0.146522  1
  Se  Se21  1  0.831322  0.168678  0.622411  1
  Se  Se22  1  0.337356  0.168678  0.622411  1
  Se  Se23  1  0.662782  0.831391  0.146522  1
  Se  Se24  1  0.168609  0.831391  0.146522  1
  Se  Se25  1  0.831322  0.662644  0.622411  1
