# generated using pymatgen
data_Er9TmRu4
_symmetry_space_group_name_H-M   'P 1'
_cell_length_a   6.26474810
_cell_length_b   7.24819835
_cell_length_c   8.37760263
_cell_angle_alpha   96.79747118
_cell_angle_beta   111.95626236
_cell_angle_gamma   90.00000237
_symmetry_Int_Tables_number   1
_chemical_formula_structural   Er9TmRu4
_chemical_formula_sum   'Er9 Tm1 Ru4'
_cell_volume   349.93513200
_cell_formula_units_Z   1
loop_
 _symmetry_equiv_pos_site_id
 _symmetry_equiv_pos_as_xyz
  1  'x, y, z'
loop_
 _atom_site_type_symbol
 _atom_site_label
 _atom_site_symmetry_multiplicity
 _atom_site_fract_x
 _atom_site_fract_y
 _atom_site_fract_z
 _atom_site_occupancy
  Er  Er0  1  0.791282  0.084198  0.813700  1
  Er  Er1  1  0.977583  0.415802  0.186300  1
  Er  Er2  1  0.208607  0.915509  0.186265  1
  Er  Er3  1  0.022342  0.584491  0.813735  1
  Er  Er4  1  0.205898  0.184375  0.565264  1
  Er  Er5  1  0.640634  0.315625  0.434736  1
  Er  Er6  1  0.794017  0.815510  0.434579  1
  Er  Er7  1  0.359438  0.684490  0.565421  1
  Er  Er8  1  0.419034  0.250000  0.000000  1
  Tm  Tm9  1  0.580708  0.750000  0.000000  1
  Ru  Ru10  1  0.603048  0.423866  0.780114  1
  Ru  Ru11  1  0.822933  0.076134  0.219886  1
  Ru  Ru12  1  0.397213  0.576622  0.219952  1
  Ru  Ru13  1  0.177262  0.923378  0.780048  1
