# generated using pymatgen
data_Ca5LaU2O12
_symmetry_space_group_name_H-M   'P 1'
_cell_length_a   6.89017386
_cell_length_b   6.81390556
_cell_length_c   6.87242090
_cell_angle_alpha   91.06992781
_cell_angle_beta   90.15479492
_cell_angle_gamma   90.81497775
_symmetry_Int_Tables_number   1
_chemical_formula_structural   Ca5LaU2O12
_chemical_formula_sum   'Ca5 La1 U2 O12'
_cell_volume   322.56293857
_cell_formula_units_Z   1
loop_
 _symmetry_equiv_pos_site_id
 _symmetry_equiv_pos_as_xyz
  1  'x, y, z'
loop_
 _atom_site_type_symbol
 _atom_site_label
 _atom_site_symmetry_multiplicity
 _atom_site_fract_x
 _atom_site_fract_y
 _atom_site_fract_z
 _atom_site_occupancy
  Ca  Ca0  1  0.751591  0.942727  0.444575  1
  Ca  Ca1  1  0.552323  0.246530  0.060493  1
  Ca  Ca2  1  0.250077  0.055134  0.553420  1
  Ca  Ca3  1  0.061658  0.558332  0.249662  1
  Ca  Ca4  1  0.446095  0.752256  0.941462  1
  La  La5  1  0.940082  0.445548  0.750138  1
  U  U6  1  0.001486  0.999410  0.005592  1
  U  U7  1  0.497084  0.501661  0.494027  1
  O  O8  1  0.291002  0.064614  0.930998  1
  O  O9  1  0.062375  0.926163  0.296305  1
  O  O10  1  0.921726  0.298693  0.066081  1
  O  O11  1  0.710078  0.934493  0.073190  1
  O  O12  1  0.938646  0.075329  0.710315  1
  O  O13  1  0.082092  0.700104  0.938795  1
  O  O14  1  0.198671  0.406249  0.532236  1
  O  O15  1  0.413221  0.541815  0.202249  1
  O  O16  1  0.455872  0.794288  0.586272  1
  O  O17  1  0.585000  0.457580  0.791716  1
  O  O18  1  0.797390  0.592257  0.460430  1
  O  O19  1  0.543531  0.206816  0.412046  1
