# generated using pymatgen
data_Dy3Ni6B2Ru
_symmetry_space_group_name_H-M   'P 1'
_cell_length_a   5.15934546
_cell_length_b   5.15929406
_cell_length_c   14.34883667
_cell_angle_alpha   89.96948461
_cell_angle_beta   90.03046748
_cell_angle_gamma   121.90252936
_symmetry_Int_Tables_number   1
_chemical_formula_structural   Dy3Ni6B2Ru
_chemical_formula_sum   'Dy6 Ni12 B4 Ru2'
_cell_volume   324.25208265
_cell_formula_units_Z   2
loop_
 _symmetry_equiv_pos_site_id
 _symmetry_equiv_pos_as_xyz
  1  'x, y, z'
loop_
 _atom_site_type_symbol
 _atom_site_label
 _atom_site_symmetry_multiplicity
 _atom_site_fract_x
 _atom_site_fract_y
 _atom_site_fract_z
 _atom_site_occupancy
  Dy  Dy0  1  0.332831  0.667164  0.250726  1
  Dy  Dy1  1  0.667190  0.332804  0.750668  1
  Dy  Dy2  1  0.332825  0.667166  0.033393  1
  Dy  Dy3  1  0.667179  0.332821  0.533314  1
  Dy  Dy4  1  0.662760  0.337242  0.967175  1
  Dy  Dy5  1  0.337208  0.662782  0.467153  1
  Ni  Ni6  1  0.834609  0.667552  0.148996  1
  Ni  Ni7  1  0.332445  0.165391  0.148997  1
  Ni  Ni8  1  0.667443  0.834580  0.648999  1
  Ni  Ni9  1  0.165416  0.332551  0.648999  1
  Ni  Ni10  1  0.668828  0.833043  0.851534  1
  Ni  Ni11  1  0.166951  0.331165  0.851534  1
  Ni  Ni12  1  0.165939  0.834055  0.850324  1
  Ni  Ni13  1  0.834028  0.165966  0.350349  1
  Ni  Ni14  1  0.833014  0.668786  0.351514  1
  Ni  Ni15  1  0.331210  0.166981  0.351513  1
  Ni  Ni16  1  0.003394  0.996603  0.997913  1
  Ni  Ni17  1  0.996605  0.003391  0.497914  1
  B  B18  1  0.000147  0.999849  0.251172  1
  B  B19  1  0.999845  0.000148  0.751164  1
  B  B20  1  0.335391  0.664604  0.751371  1
  B  B21  1  0.664587  0.335410  0.251405  1
  Ru  Ru22  1  0.835629  0.164365  0.146961  1
  Ru  Ru23  1  0.164425  0.835579  0.646912  1
