# generated using pymatgen
data_Nd5Y5(ThIn10)2
_symmetry_space_group_name_H-M   'P 1'
_cell_length_a   6.67874397
_cell_length_b   10.48619638
_cell_length_c   12.44394212
_cell_angle_alpha   90.26336874
_cell_angle_beta   90.02209351
_cell_angle_gamma   90.08740468
_symmetry_Int_Tables_number   1
_chemical_formula_structural   Nd5Y5(ThIn10)2
_chemical_formula_sum   'Nd5 Y5 Th2 In20'
_cell_volume   871.49648035
_cell_formula_units_Z   1
loop_
 _symmetry_equiv_pos_site_id
 _symmetry_equiv_pos_as_xyz
  1  'x, y, z'
loop_
 _atom_site_type_symbol
 _atom_site_label
 _atom_site_symmetry_multiplicity
 _atom_site_fract_x
 _atom_site_fract_y
 _atom_site_fract_z
 _atom_site_occupancy
  Nd  Nd0  1  0.887412  0.488053  0.145530  1
  Nd  Nd1  1  0.612558  0.011450  0.646035  1
  Nd  Nd2  1  0.111443  0.989182  0.853553  1
  Nd  Nd3  1  0.387154  0.512379  0.355239  1
  Nd  Nd4  1  0.111675  0.510443  0.855225  1
  Y  Y5  1  0.353840  0.751513  0.061131  1
  Y  Y6  1  0.149075  0.753644  0.561535  1
  Y  Y7  1  0.647768  0.247924  0.938660  1
  Y  Y8  1  0.854965  0.248290  0.439349  1
  Y  Y9  1  0.612116  0.488621  0.643841  1
  Th  Th10  1  0.387377  0.988801  0.354292  1
  Th  Th11  1  0.886555  0.009753  0.146396  1
  In  In12  1  0.612229  0.747960  0.509226  1
  In  In13  1  0.885267  0.747692  0.004734  1
  In  In14  1  0.388637  0.252344  0.494363  1
  In  In15  1  0.110682  0.249686  0.994467  1
  In  In16  1  0.655673  0.747316  0.246505  1
  In  In17  1  0.842020  0.745265  0.743333  1
  In  In18  1  0.344140  0.253833  0.754520  1
  In  In19  1  0.156531  0.251774  0.254028  1
  In  In20  1  0.108856  0.749038  0.282809  1
  In  In21  1  0.388477  0.748180  0.784435  1
  In  In22  1  0.886083  0.255014  0.714295  1
  In  In23  1  0.610037  0.250830  0.217724  1
  In  In24  1  0.871544  0.545576  0.406570  1
  In  In25  1  0.629212  0.951277  0.904593  1
  In  In26  1  0.129532  0.050464  0.595514  1
  In  In27  1  0.373496  0.453909  0.094355  1
  In  In28  1  0.131750  0.456513  0.595942  1
  In  In29  1  0.373796  0.048044  0.093470  1
  In  In30  1  0.873430  0.951338  0.407153  1
  In  In31  1  0.626670  0.543893  0.901180  1
