# generated using pymatgen
data_PrHo3(Rh2O7)2
_symmetry_space_group_name_H-M   'P 1'
_cell_length_a   7.27802194
_cell_length_b   7.27802258
_cell_length_c   7.27802267
_cell_angle_alpha   59.54843504
_cell_angle_beta   59.54843474
_cell_angle_gamma   59.54843381
_symmetry_Int_Tables_number   1
_chemical_formula_structural   PrHo3(Rh2O7)2
_chemical_formula_sum   'Pr1 Ho3 Rh4 O14'
_cell_volume   269.80084727
_cell_formula_units_Z   1
loop_
 _symmetry_equiv_pos_site_id
 _symmetry_equiv_pos_as_xyz
  1  'x, y, z'
loop_
 _atom_site_type_symbol
 _atom_site_label
 _atom_site_symmetry_multiplicity
 _atom_site_fract_x
 _atom_site_fract_y
 _atom_site_fract_z
 _atom_site_occupancy
  Pr  Pr0  1  0.125000  0.125000  0.125000  1
  Ho  Ho1  1  0.125000  0.625000  0.125000  1
  Ho  Ho2  1  0.625000  0.125000  0.125000  1
  Ho  Ho3  1  0.125000  0.125000  0.625000  1
  Rh  Rh4  1  0.625000  0.625000  0.625000  1
  Rh  Rh5  1  0.625000  0.625000  0.125000  1
  Rh  Rh6  1  0.125000  0.625000  0.625000  1
  Rh  Rh7  1  0.625000  0.125000  0.625000  1
  O  O8  1  0.254515  0.254515  0.254515  1
  O  O9  1  0.289667  0.701368  0.289667  1
  O  O10  1  0.960333  0.960333  0.548632  1
  O  O11  1  0.539049  0.960301  0.539049  1
  O  O12  1  0.710951  0.710951  0.289699  1
  O  O13  1  0.960301  0.539049  0.539049  1
  O  O14  1  0.710951  0.289699  0.710951  1
  O  O15  1  0.289667  0.289667  0.701368  1
  O  O16  1  0.701368  0.289667  0.289667  1
  O  O17  1  0.289699  0.710951  0.710951  1
  O  O18  1  0.960333  0.548632  0.960333  1
  O  O19  1  0.539049  0.539049  0.960301  1
  O  O20  1  0.995485  0.995485  0.995485  1
  O  O21  1  0.548632  0.960333  0.960333  1
