# generated using pymatgen
data_Th5Os4
_symmetry_space_group_name_H-M   'P 1'
_cell_length_a   7.50756500
_cell_length_b   7.58109200
_cell_length_c   15.30756300
_cell_angle_alpha   90.00000000
_cell_angle_beta   90.00000000
_cell_angle_gamma   90.00000000
_symmetry_Int_Tables_number   1
_chemical_formula_structural   Th5Os4
_chemical_formula_sum   'Th20 Os16'
_cell_volume   871.23822894
_cell_formula_units_Z   4
loop_
 _symmetry_equiv_pos_site_id
 _symmetry_equiv_pos_as_xyz
  1  'x, y, z'
loop_
 _atom_site_type_symbol
 _atom_site_label
 _atom_site_symmetry_multiplicity
 _atom_site_fract_x
 _atom_site_fract_y
 _atom_site_fract_z
 _atom_site_occupancy
  Th  Th0  1  0.359450  0.828350  0.877370  1
  Th  Th1  1  0.859450  0.671650  0.622630  1
  Th  Th2  1  0.640550  0.171650  0.377370  1
  Th  Th3  1  0.140550  0.328350  0.122630  1
  Th  Th4  1  0.640550  0.171650  0.122630  1
  Th  Th5  1  0.140550  0.328350  0.377370  1
  Th  Th6  1  0.359450  0.828350  0.622630  1
  Th  Th7  1  0.859450  0.671650  0.877370  1
  Th  Th8  1  0.501137  0.317164  0.911403  1
  Th  Th9  1  0.001137  0.182836  0.588597  1
  Th  Th10  1  0.498863  0.682836  0.411403  1
  Th  Th11  1  0.998863  0.817164  0.088597  1
  Th  Th12  1  0.498863  0.682836  0.088597  1
  Th  Th13  1  0.998863  0.817164  0.411403  1
  Th  Th14  1  0.501137  0.317164  0.588597  1
  Th  Th15  1  0.001137  0.182836  0.911403  1
  Th  Th16  1  0.193862  0.482424  0.750000  1
  Th  Th17  1  0.693862  0.017576  0.750000  1
  Th  Th18  1  0.806138  0.517576  0.250000  1
  Th  Th19  1  0.306138  0.982424  0.250000  1
  Os  Os20  1  0.307370  0.030487  0.037797  1
  Os  Os21  1  0.807370  0.469513  0.462203  1
  Os  Os22  1  0.692630  0.969513  0.537797  1
  Os  Os23  1  0.192630  0.530487  0.962203  1
  Os  Os24  1  0.692630  0.969513  0.962203  1
  Os  Os25  1  0.192630  0.530487  0.537797  1
  Os  Os26  1  0.307370  0.030487  0.462203  1
  Os  Os27  1  0.807370  0.469513  0.037797  1
  Os  Os28  1  0.564437  0.593597  0.750000  1
  Os  Os29  1  0.064437  0.906403  0.750000  1
  Os  Os30  1  0.435563  0.406403  0.250000  1
  Os  Os31  1  0.935563  0.093597  0.250000  1
  Os  Os32  1  0.323862  0.138270  0.750000  1
  Os  Os33  1  0.823862  0.361730  0.750000  1
  Os  Os34  1  0.676138  0.861730  0.250000  1
  Os  Os35  1  0.176138  0.638270  0.250000  1
