# generated using pymatgen
data_Lu3ZnSn3IrRu
_symmetry_space_group_name_H-M   'P 1'
_cell_length_a   7.56622400
_cell_length_b   7.56622420
_cell_length_c   3.79999400
_cell_angle_alpha   90.00000000
_cell_angle_beta   90.00000000
_cell_angle_gamma   119.99999039
_symmetry_Int_Tables_number   1
_chemical_formula_structural   Lu3ZnSn3IrRu
_chemical_formula_sum   'Lu3 Zn1 Sn3 Ir1 Ru1'
_cell_volume   188.39613334
_cell_formula_units_Z   1
loop_
 _symmetry_equiv_pos_site_id
 _symmetry_equiv_pos_as_xyz
  1  'x, y, z'
loop_
 _atom_site_type_symbol
 _atom_site_label
 _atom_site_symmetry_multiplicity
 _atom_site_fract_x
 _atom_site_fract_y
 _atom_site_fract_z
 _atom_site_occupancy
  Lu  Lu0  1  0.977758  0.387640  0.500000  1
  Lu  Lu1  1  0.612360  0.590119  0.500000  1
  Lu  Lu2  1  0.409881  0.022242  0.500000  1
  Zn  Zn3  1  0.333333  0.666667  0.000000  1
  Sn  Sn4  1  0.005528  0.740469  0.000000  1
  Sn  Sn5  1  0.259531  0.265058  0.000000  1
  Sn  Sn6  1  0.734942  0.994472  0.000000  1
  Ir  Ir7  1  0.666667  0.333333  0.000000  1
  Ru  Ru8  1  0.000000  0.000000  0.500000  1
