# generated using pymatgen
data_DyHo5Co16(MoP6)2
_symmetry_space_group_name_H-M   'P 1'
_cell_length_a   3.71488600
_cell_length_b   10.55548600
_cell_length_c   12.22040600
_cell_angle_alpha   90.00000000
_cell_angle_beta   90.00000000
_cell_angle_gamma   90.00000000
_symmetry_Int_Tables_number   1
_chemical_formula_structural   DyHo5Co16(MoP6)2
_chemical_formula_sum   'Dy1 Ho5 Co16 Mo2 P12'
_cell_volume   479.19178020
_cell_formula_units_Z   1
loop_
 _symmetry_equiv_pos_site_id
 _symmetry_equiv_pos_as_xyz
  1  'x, y, z'
loop_
 _atom_site_type_symbol
 _atom_site_label
 _atom_site_symmetry_multiplicity
 _atom_site_fract_x
 _atom_site_fract_y
 _atom_site_fract_z
 _atom_site_occupancy
  Dy  Dy0  1  0.000000  0.500000  0.524400  1
  Ho  Ho1  1  0.500000  0.000000  0.475644  1
  Ho  Ho2  1  0.500000  0.819075  0.205121  1
  Ho  Ho3  1  0.500000  0.180925  0.205121  1
  Ho  Ho4  1  0.000000  0.680956  0.794867  1
  Ho  Ho5  1  0.000000  0.319044  0.794867  1
  Co  Co6  1  0.000000  0.500000  0.986380  1
  Co  Co7  1  0.500000  0.000000  0.013625  1
  Co  Co8  1  0.500000  0.295874  0.431462  1
  Co  Co9  1  0.500000  0.704126  0.431462  1
  Co  Co10  1  0.000000  0.204081  0.568541  1
  Co  Co11  1  0.000000  0.795919  0.568541  1
  Co  Co12  1  0.500000  0.877934  0.706669  1
  Co  Co13  1  0.500000  0.122066  0.706669  1
  Co  Co14  1  0.000000  0.622082  0.293311  1
  Co  Co15  1  0.000000  0.377918  0.293311  1
  Co  Co16  1  0.500000  0.332426  0.990164  1
  Co  Co17  1  0.500000  0.667574  0.990164  1
  Co  Co18  1  0.000000  0.167565  0.009832  1
  Co  Co19  1  0.000000  0.832435  0.009832  1
  Co  Co20  1  0.500000  0.500000  0.701345  1
  Co  Co21  1  0.000000  0.000000  0.298701  1
  Mo  Mo22  1  0.500000  0.500000  0.156434  1
  Mo  Mo23  1  0.000000  0.000000  0.843547  1
  P  P24  1  0.500000  0.311494  0.616013  1
  P  P25  1  0.500000  0.688506  0.616013  1
  P  P26  1  0.000000  0.188445  0.384010  1
  P  P27  1  0.000000  0.811555  0.384010  1
  P  P28  1  0.500000  0.500000  0.880679  1
  P  P29  1  0.000000  0.000000  0.119317  1
  P  P30  1  0.500000  0.844485  0.892791  1
  P  P31  1  0.500000  0.155515  0.892791  1
  P  P32  1  0.000000  0.655497  0.107220  1
  P  P33  1  0.000000  0.344503  0.107220  1
  P  P34  1  0.500000  0.500000  0.349647  1
  P  P35  1  0.000000  0.000000  0.650278  1
