# generated using pymatgen
data_Be4(MoW)3
_symmetry_space_group_name_H-M   'P 1'
_cell_length_a   6.25026020
_cell_length_b   6.25026020
_cell_length_c   3.22212500
_cell_angle_alpha   90.00000000
_cell_angle_beta   90.00000000
_cell_angle_gamma   89.97130747
_symmetry_Int_Tables_number   1
_chemical_formula_structural   Be4(MoW)3
_chemical_formula_sum   'Be4 Mo3 W3'
_cell_volume   125.87472204
_cell_formula_units_Z   1
loop_
 _symmetry_equiv_pos_site_id
 _symmetry_equiv_pos_as_xyz
  1  'x, y, z'
loop_
 _atom_site_type_symbol
 _atom_site_label
 _atom_site_symmetry_multiplicity
 _atom_site_fract_x
 _atom_site_fract_y
 _atom_site_fract_z
 _atom_site_occupancy
  Be  Be0  1  0.882318  0.382318  0.000000  1
  Be  Be1  1  0.382421  0.118098  0.000000  1
  Be  Be2  1  0.618098  0.882421  0.000000  1
  Be  Be3  1  0.117294  0.617294  0.000000  1
  Mo  Mo4  1  0.677098  0.177098  0.500000  1
  Mo  Mo5  1  0.177550  0.322690  0.500000  1
  Mo  Mo6  1  0.822690  0.677550  0.500000  1
  W  W7  1  0.000203  0.999992  0.000000  1
  W  W8  1  0.499992  0.500203  0.000000  1
  W  W9  1  0.322337  0.822337  0.500000  1
