# generated using pymatgen
data_Yb(ReO3)9
_symmetry_space_group_name_H-M   'P 1'
_cell_length_a   8.50991067
_cell_length_b   8.50990946
_cell_length_c   8.50991004
_cell_angle_alpha   66.48476529
_cell_angle_beta   66.48476851
_cell_angle_gamma   66.48476523
_symmetry_Int_Tables_number   1
_chemical_formula_structural   Yb(ReO3)9
_chemical_formula_sum   'Yb1 Re9 O27'
_cell_volume   496.64681076
_cell_formula_units_Z   1
loop_
 _symmetry_equiv_pos_site_id
 _symmetry_equiv_pos_as_xyz
  1  'x, y, z'
loop_
 _atom_site_type_symbol
 _atom_site_label
 _atom_site_symmetry_multiplicity
 _atom_site_fract_x
 _atom_site_fract_y
 _atom_site_fract_z
 _atom_site_occupancy
  Yb  Yb0  1  0.000000  0.000000  0.000000  1
  Re  Re1  1  0.500000  0.500000  0.500000  1
  Re  Re2  1  0.942515  0.607937  0.280948  1
  Re  Re3  1  0.831807  0.831807  0.831807  1
  Re  Re4  1  0.719052  0.057485  0.392063  1
  Re  Re5  1  0.168193  0.168193  0.168193  1
  Re  Re6  1  0.280948  0.942515  0.607937  1
  Re  Re7  1  0.392063  0.719052  0.057485  1
  Re  Re8  1  0.607937  0.280948  0.942515  1
  Re  Re9  1  0.057485  0.392063  0.719052  1
  O  O10  1  0.443800  0.611438  0.277646  1
  O  O11  1  0.162670  0.672817  0.164026  1
  O  O12  1  0.000000  0.500000  0.500000  1
  O  O13  1  0.722354  0.556200  0.388562  1
  O  O14  1  0.944494  0.611305  0.777728  1
  O  O15  1  0.835974  0.837330  0.327183  1
  O  O16  1  0.500000  0.500000  0.000000  1
  O  O17  1  0.388562  0.722354  0.556200  1
  O  O18  1  0.890486  0.728019  0.054631  1
  O  O19  1  0.054631  0.890486  0.728019  1
  O  O20  1  0.327183  0.835974  0.837330  1
  O  O21  1  0.222272  0.055506  0.388695  1
  O  O22  1  0.672817  0.164026  0.162670  1
  O  O23  1  0.777728  0.944494  0.611305  1
  O  O24  1  0.945369  0.109514  0.271981  1
  O  O25  1  0.500000  0.000000  0.500000  1
  O  O26  1  0.611305  0.777728  0.944494  1
  O  O27  1  0.728019  0.054631  0.890486  1
  O  O28  1  0.055506  0.388695  0.222272  1
  O  O29  1  0.611438  0.277646  0.443800  1
  O  O30  1  0.271981  0.945369  0.109514  1
  O  O31  1  0.164026  0.162670  0.672817  1
  O  O32  1  0.837330  0.327183  0.835974  1
  O  O33  1  0.277646  0.443800  0.611438  1
  O  O34  1  0.388695  0.222272  0.055506  1
  O  O35  1  0.109514  0.271981  0.945369  1
  O  O36  1  0.556200  0.388562  0.722354  1
