# generated using pymatgen
data_Ta4Co4BP3
_symmetry_space_group_name_H-M   'P 1'
_cell_length_a   3.52236200
_cell_length_b   6.04601769
_cell_length_c   6.92910360
_cell_angle_alpha   90.40822859
_cell_angle_beta   90.00000000
_cell_angle_gamma   90.00000000
_symmetry_Int_Tables_number   1
_chemical_formula_structural   Ta4Co4BP3
_chemical_formula_sum   'Ta4 Co4 B1 P3'
_cell_volume   147.56026683
_cell_formula_units_Z   1
loop_
 _symmetry_equiv_pos_site_id
 _symmetry_equiv_pos_as_xyz
  1  'x, y, z'
loop_
 _atom_site_type_symbol
 _atom_site_label
 _atom_site_symmetry_multiplicity
 _atom_site_fract_x
 _atom_site_fract_y
 _atom_site_fract_z
 _atom_site_occupancy
  Ta  Ta0  1  0.250000  0.035170  0.833864  1
  Ta  Ta1  1  0.250000  0.525647  0.675184  1
  Ta  Ta2  1  0.750000  0.989371  0.172021  1
  Ta  Ta3  1  0.750000  0.464618  0.313185  1
  Co  Co4  1  0.250000  0.147749  0.433077  1
  Co  Co5  1  0.250000  0.635987  0.063536  1
  Co  Co6  1  0.750000  0.854607  0.561507  1
  Co  Co7  1  0.750000  0.355672  0.947125  1
  B  B8  1  0.250000  0.269454  0.121519  1
  P  P9  1  0.250000  0.772678  0.375107  1
  P  P10  1  0.750000  0.724867  0.882134  1
  P  P11  1  0.750000  0.224180  0.621741  1
