# generated using pymatgen
data_Lu12Mn2In2Au
_symmetry_space_group_name_H-M   'P 1'
_cell_length_a   8.26175399
_cell_length_b   8.26175494
_cell_length_c   8.26175440
_cell_angle_alpha   108.99660087
_cell_angle_beta   108.99660599
_cell_angle_gamma   110.42468429
_symmetry_Int_Tables_number   1
_chemical_formula_structural   Lu12Mn2In2Au
_chemical_formula_sum   'Lu12 Mn2 In2 Au1'
_cell_volume   434.01482909
_cell_formula_units_Z   1
loop_
 _symmetry_equiv_pos_site_id
 _symmetry_equiv_pos_as_xyz
  1  'x, y, z'
loop_
 _atom_site_type_symbol
 _atom_site_label
 _atom_site_symmetry_multiplicity
 _atom_site_fract_x
 _atom_site_fract_y
 _atom_site_fract_z
 _atom_site_occupancy
  Lu  Lu0  1  0.307466  0.307466  0.614932  1
  Lu  Lu1  1  0.692534  0.692534  0.385068  1
  Lu  Lu2  1  0.692534  0.307466  0.000000  1
  Lu  Lu3  1  0.307466  0.692534  0.000000  1
  Lu  Lu4  1  0.200972  0.444223  0.243252  1
  Lu  Lu5  1  0.799028  0.555777  0.756748  1
  Lu  Lu6  1  0.200972  0.957718  0.756748  1
  Lu  Lu7  1  0.957718  0.200972  0.756748  1
  Lu  Lu8  1  0.799028  0.042282  0.243252  1
  Lu  Lu9  1  0.042282  0.799028  0.243252  1
  Lu  Lu10  1  0.444223  0.200972  0.243252  1
  Lu  Lu11  1  0.555777  0.799028  0.756748  1
  Mn  Mn12  1  0.388309  0.388309  0.000000  1
  Mn  Mn13  1  0.611691  0.611691  0.000000  1
  In  In14  1  0.000000  0.500000  0.500000  1
  In  In15  1  0.500000  0.000000  0.500000  1
  Au  Au16  1  0.000000  0.000000  0.000000  1
