# generated using pymatgen
data_YErNi7
_symmetry_space_group_name_H-M   'P 1'
_cell_length_a   4.93076016
_cell_length_b   4.93075857
_cell_length_c   12.35010440
_cell_angle_alpha   78.48502310
_cell_angle_beta   78.48502547
_cell_angle_gamma   60.00000767
_symmetry_Int_Tables_number   1
_chemical_formula_structural   YErNi7
_chemical_formula_sum   'Y2 Er2 Ni14'
_cell_volume   253.03080418
_cell_formula_units_Z   2
loop_
 _symmetry_equiv_pos_site_id
 _symmetry_equiv_pos_as_xyz
  1  'x, y, z'
loop_
 _atom_site_type_symbol
 _atom_site_label
 _atom_site_symmetry_multiplicity
 _atom_site_fract_x
 _atom_site_fract_y
 _atom_site_fract_z
 _atom_site_occupancy
  Y  Y0  1  0.949180  0.949180  0.152461  1
  Y  Y1  1  0.050820  0.050820  0.847539  1
  Er  Er2  1  0.852564  0.852564  0.442307  1
  Er  Er3  1  0.147436  0.147436  0.557693  1
  Ni  Ni4  1  0.500000  0.500000  0.500000  1
  Ni  Ni5  1  0.721917  0.721917  0.834251  1
  Ni  Ni6  1  0.278083  0.278083  0.165749  1
  Ni  Ni7  1  0.611560  0.611560  0.165318  1
  Ni  Ni8  1  0.388440  0.388440  0.834682  1
  Ni  Ni9  1  0.000000  0.500000  0.000000  1
  Ni  Ni10  1  0.500000  0.000000  0.000000  1
  Ni  Ni11  1  0.500000  0.500000  0.000000  1
  Ni  Ni12  1  0.389157  0.389157  0.330426  1
  Ni  Ni13  1  0.891259  0.389157  0.330426  1
  Ni  Ni14  1  0.389157  0.891259  0.330426  1
  Ni  Ni15  1  0.610843  0.610843  0.669574  1
  Ni  Ni16  1  0.108741  0.610843  0.669574  1
  Ni  Ni17  1  0.610843  0.108741  0.669574  1
