# generated using pymatgen
data_Ba5Sm8Ni4O21
_symmetry_space_group_name_H-M   'P 1'
_cell_length_a   10.36889043
_cell_length_b   10.36889014
_cell_length_c   10.36889081
_cell_angle_alpha   94.52450114
_cell_angle_beta   94.52450194
_cell_angle_gamma   147.37626258
_symmetry_Int_Tables_number   1
_chemical_formula_structural   Ba5Sm8Ni4O21
_chemical_formula_sum   'Ba5 Sm8 Ni4 O21'
_cell_volume   576.81819902
_cell_formula_units_Z   1
loop_
 _symmetry_equiv_pos_site_id
 _symmetry_equiv_pos_as_xyz
  1  'x, y, z'
loop_
 _atom_site_type_symbol
 _atom_site_label
 _atom_site_symmetry_multiplicity
 _atom_site_fract_x
 _atom_site_fract_y
 _atom_site_fract_z
 _atom_site_occupancy
  Ba  Ba0  1  0.000000  0.000000  0.000000  1
  Ba  Ba1  1  0.136278  0.534970  0.671247  1
  Ba  Ba2  1  0.863722  0.465030  0.328753  1
  Ba  Ba3  1  0.465030  0.136278  0.601307  1
  Ba  Ba4  1  0.534970  0.863722  0.398693  1
  Sm  Sm5  1  0.166047  0.249750  0.415798  1
  Sm  Sm6  1  0.833953  0.750250  0.584202  1
  Sm  Sm7  1  0.750250  0.166047  0.916297  1
  Sm  Sm8  1  0.249750  0.833953  0.083703  1
  Sm  Sm9  1  0.356210  0.411048  0.767259  1
  Sm  Sm10  1  0.643790  0.588952  0.232741  1
  Sm  Sm11  1  0.588952  0.356210  0.945162  1
  Sm  Sm12  1  0.411048  0.643790  0.054838  1
  Ni  Ni13  1  0.247414  0.040657  0.288072  1
  Ni  Ni14  1  0.752586  0.959343  0.711928  1
  Ni  Ni15  1  0.959343  0.247414  0.206757  1
  Ni  Ni16  1  0.040657  0.752586  0.793243  1
  O  O17  1  0.500000  0.500000  0.000000  1
  O  O18  1  0.966025  0.628618  0.594642  1
  O  O19  1  0.033975  0.371382  0.405358  1
  O  O20  1  0.371382  0.966025  0.337409  1
  O  O21  1  0.628618  0.033975  0.662591  1
  O  O22  1  0.291772  0.426130  0.225026  1
  O  O23  1  0.201104  0.066745  0.774974  1
  O  O24  1  0.066745  0.291772  0.865642  1
  O  O25  1  0.426130  0.201104  0.134358  1
  O  O26  1  0.708228  0.573870  0.774974  1
  O  O27  1  0.798896  0.933255  0.225026  1
  O  O28  1  0.933255  0.708228  0.134358  1
  O  O29  1  0.573870  0.798896  0.865642  1
  O  O30  1  0.498505  0.612621  0.594224  1
  O  O31  1  0.018399  0.904283  0.405776  1
  O  O32  1  0.904283  0.498505  0.885884  1
  O  O33  1  0.612621  0.018399  0.114116  1
  O  O34  1  0.501495  0.387379  0.405776  1
  O  O35  1  0.981601  0.095717  0.594224  1
  O  O36  1  0.095717  0.501495  0.114116  1
  O  O37  1  0.387379  0.981601  0.885884  1
