# generated using pymatgen
data_Y14Ho2In4PdRh3
_symmetry_space_group_name_H-M   'P 1'
_cell_length_a   9.72716064
_cell_length_b   9.74275642
_cell_length_c   9.72716063
_cell_angle_alpha   59.73905474
_cell_angle_beta   59.79661245
_cell_angle_gamma   59.73905686
_symmetry_Int_Tables_number   1
_chemical_formula_structural   Y14Ho2In4PdRh3
_chemical_formula_sum   'Y14 Ho2 In4 Pd1 Rh3'
_cell_volume   648.25829062
_cell_formula_units_Z   1
loop_
 _symmetry_equiv_pos_site_id
 _symmetry_equiv_pos_as_xyz
  1  'x, y, z'
loop_
 _atom_site_type_symbol
 _atom_site_label
 _atom_site_symmetry_multiplicity
 _atom_site_fract_x
 _atom_site_fract_y
 _atom_site_fract_z
 _atom_site_occupancy
  Y  Y0  1  0.188863  0.187485  0.812607  1
  Y  Y1  1  0.604330  0.598507  0.196036  1
  Y  Y2  1  0.440302  0.063158  0.440302  1
  Y  Y3  1  0.440028  0.439531  0.059305  1
  Y  Y4  1  0.812214  0.186593  0.812214  1
  Y  Y5  1  0.188115  0.811367  0.188115  1
  Y  Y6  1  0.440011  0.064352  0.055310  1
  Y  Y7  1  0.187275  0.810785  0.813507  1
  Y  Y8  1  0.060599  0.439159  0.060599  1
  Y  Y9  1  0.813507  0.810785  0.187275  1
  Y  Y10  1  0.196036  0.598507  0.604330  1
  Y  Y11  1  0.059305  0.439531  0.440028  1
  Y  Y12  1  0.055310  0.064352  0.440011  1
  Y  Y13  1  0.812607  0.187485  0.188863  1
  Ho  Ho14  1  0.600069  0.202859  0.600069  1
  Ho  Ho15  1  0.601277  0.595734  0.601277  1
  In  In16  1  0.833378  0.833671  0.833378  1
  In  In17  1  0.832550  0.833196  0.500933  1
  In  In18  1  0.500933  0.833196  0.832550  1
  In  In19  1  0.833040  0.500514  0.833040  1
  Pd  Pd20  1  0.393323  0.820405  0.393323  1
  Rh  Rh21  1  0.393375  0.392222  0.393375  1
  Rh  Rh22  1  0.819100  0.393307  0.394452  1
  Rh  Rh23  1  0.394452  0.393307  0.819100  1
