# generated using pymatgen
data_Dy4Zn2MoRu5
_symmetry_space_group_name_H-M   'P 1'
_cell_length_a   5.53578899
_cell_length_b   5.17749529
_cell_length_c   8.93463500
_cell_angle_alpha   90.00000000
_cell_angle_beta   90.00000000
_cell_angle_gamma   120.83435904
_symmetry_Int_Tables_number   1
_chemical_formula_structural   Dy4Zn2MoRu5
_chemical_formula_sum   'Dy4 Zn2 Mo1 Ru5'
_cell_volume   219.88397812
_cell_formula_units_Z   1
loop_
 _symmetry_equiv_pos_site_id
 _symmetry_equiv_pos_as_xyz
  1  'x, y, z'
loop_
 _atom_site_type_symbol
 _atom_site_label
 _atom_site_symmetry_multiplicity
 _atom_site_fract_x
 _atom_site_fract_y
 _atom_site_fract_z
 _atom_site_occupancy
  Dy  Dy0  1  0.676203  0.346155  0.565301  1
  Dy  Dy1  1  0.337298  0.669630  0.439749  1
  Dy  Dy2  1  0.337298  0.669630  0.060251  1
  Dy  Dy3  1  0.676203  0.346155  0.934699  1
  Zn  Zn4  1  0.813750  0.654383  0.250000  1
  Zn  Zn5  1  0.819783  0.162395  0.250000  1
  Mo  Mo6  1  0.155817  0.314385  0.750000  1
  Ru  Ru7  1  0.022767  0.023220  0.497319  1
  Ru  Ru8  1  0.022767  0.023220  0.002681  1
  Ru  Ru9  1  0.171366  0.819294  0.750000  1
  Ru  Ru10  1  0.647681  0.817632  0.750000  1
  Ru  Ru11  1  0.319066  0.153899  0.250000  1
