# generated using pymatgen
data_La12Ge(OsI4)3
_symmetry_space_group_name_H-M   'P 1'
_cell_length_a   11.14349256
_cell_length_b   11.14349176
_cell_length_c   11.14349285
_cell_angle_alpha   110.07394140
_cell_angle_beta   110.07394150
_cell_angle_gamma   110.07394045
_symmetry_Int_Tables_number   1
_chemical_formula_structural   La12Ge(OsI4)3
_chemical_formula_sum   'La12 Ge1 Os3 I12'
_cell_volume   1040.77803572
_cell_formula_units_Z   1
loop_
 _symmetry_equiv_pos_site_id
 _symmetry_equiv_pos_as_xyz
  1  'x, y, z'
loop_
 _atom_site_type_symbol
 _atom_site_label
 _atom_site_symmetry_multiplicity
 _atom_site_fract_x
 _atom_site_fract_y
 _atom_site_fract_z
 _atom_site_occupancy
  La  La0  1  0.461923  0.492421  0.222604  1
  La  La1  1  0.750000  0.228837  0.271163  1
  La  La2  1  0.750000  0.022030  0.477970  1
  La  La3  1  0.222604  0.461923  0.492421  1
  La  La4  1  0.271163  0.750000  0.228837  1
  La  La5  1  0.038077  0.277396  0.007579  1
  La  La6  1  0.007579  0.038077  0.277396  1
  La  La7  1  0.477970  0.750000  0.022030  1
  La  La8  1  0.492421  0.222604  0.461923  1
  La  La9  1  0.022030  0.477970  0.750000  1
  La  La10  1  0.277396  0.007579  0.038077  1
  La  La11  1  0.228837  0.271163  0.750000  1
  Ge  Ge12  1  0.250000  0.250000  0.250000  1
  Os  Os13  1  0.499186  0.000814  0.250000  1
  Os  Os14  1  0.000814  0.250000  0.499186  1
  Os  Os15  1  0.250000  0.499186  0.000814  1
  I  I16  1  0.250000  0.761420  0.738580  1
  I  I17  1  0.515924  0.505139  0.755028  1
  I  I18  1  0.984076  0.744972  0.994861  1
  I  I19  1  0.738580  0.250000  0.761420  1
  I  I20  1  0.994861  0.984076  0.744972  1
  I  I21  1  0.250000  0.994026  0.505974  1
  I  I22  1  0.755028  0.515924  0.505139  1
  I  I23  1  0.505974  0.250000  0.994026  1
  I  I24  1  0.761420  0.738580  0.250000  1
  I  I25  1  0.744972  0.994861  0.984076  1
  I  I26  1  0.994026  0.505974  0.250000  1
  I  I27  1  0.505139  0.755028  0.515924  1
