# generated using pymatgen
data_Tm3Lu2InPb2
_symmetry_space_group_name_H-M   'P 1'
_cell_length_a   6.54168202
_cell_length_b   8.88647816
_cell_length_c   8.89608300
_cell_angle_alpha   120.04371354
_cell_angle_beta   89.99810915
_cell_angle_gamma   90.00708262
_symmetry_Int_Tables_number   1
_chemical_formula_structural   Tm3Lu2InPb2
_chemical_formula_sum   'Tm6 Lu4 In2 Pb4'
_cell_volume   447.66907348
_cell_formula_units_Z   2
loop_
 _symmetry_equiv_pos_site_id
 _symmetry_equiv_pos_as_xyz
  1  'x, y, z'
loop_
 _atom_site_type_symbol
 _atom_site_label
 _atom_site_symmetry_multiplicity
 _atom_site_fract_x
 _atom_site_fract_y
 _atom_site_fract_z
 _atom_site_occupancy
  Tm  Tm0  1  0.750061  0.239713  0.005460  1
  Tm  Tm1  1  0.750132  0.760433  0.765758  1
  Tm  Tm2  1  0.750115  0.000021  0.235217  1
  Tm  Tm3  1  0.250177  0.764420  0.999285  1
  Tm  Tm4  1  0.250092  0.235456  0.234773  1
  Tm  Tm5  1  0.250069  0.999877  0.764055  1
  Lu  Lu6  1  0.504190  0.337176  0.666907  1
  Lu  Lu7  1  0.504221  0.662876  0.329732  1
  Lu  Lu8  1  0.995767  0.662875  0.329851  1
  Lu  Lu9  1  0.995740  0.337185  0.666846  1
  In  In10  1  0.750034  0.602935  0.001002  1
  In  In11  1  0.749905  0.397135  0.398162  1
  Pb  Pb12  1  0.749736  0.000034  0.606775  1
  Pb  Pb13  1  0.249839  0.397296  0.997957  1
  Pb  Pb14  1  0.250140  0.602566  0.600552  1
  Pb  Pb15  1  0.249781  0.000001  0.397667  1
