# generated using pymatgen
data_Tm15Lu(In3Ni)2
_symmetry_space_group_name_H-M   'P 1'
_cell_length_a   10.27743200
_cell_length_b   10.27743046
_cell_length_c   6.80489800
_cell_angle_alpha   90.00000000
_cell_angle_beta   90.00000000
_cell_angle_gamma   119.99999851
_symmetry_Int_Tables_number   1
_chemical_formula_structural   Tm15Lu(In3Ni)2
_chemical_formula_sum   'Tm15 Lu1 In6 Ni2'
_cell_volume   622.47428794
_cell_formula_units_Z   1
loop_
 _symmetry_equiv_pos_site_id
 _symmetry_equiv_pos_as_xyz
  1  'x, y, z'
loop_
 _atom_site_type_symbol
 _atom_site_label
 _atom_site_symmetry_multiplicity
 _atom_site_fract_x
 _atom_site_fract_y
 _atom_site_fract_z
 _atom_site_occupancy
  Tm  Tm0  1  0.531826  0.063652  0.524687  1
  Tm  Tm1  1  0.936348  0.468174  0.524687  1
  Tm  Tm2  1  0.531826  0.468174  0.524687  1
  Tm  Tm3  1  0.468169  0.936337  0.024693  1
  Tm  Tm4  1  0.063663  0.531831  0.024693  1
  Tm  Tm5  1  0.468169  0.531831  0.024693  1
  Tm  Tm6  1  0.177554  0.355108  0.731476  1
  Tm  Tm7  1  0.644892  0.822446  0.731476  1
  Tm  Tm8  1  0.177554  0.822446  0.731476  1
  Tm  Tm9  1  0.822530  0.645059  0.230684  1
  Tm  Tm10  1  0.354941  0.177470  0.230684  1
  Tm  Tm11  1  0.822530  0.177470  0.230684  1
  Tm  Tm12  1  0.666667  0.333333  0.907362  1
  Tm  Tm13  1  0.333333  0.666667  0.407317  1
  Tm  Tm14  1  0.000000  0.000000  0.506016  1
  Lu  Lu15  1  0.000000  0.000000  0.005830  1
  In  In16  1  0.837533  0.675067  0.766792  1
  In  In17  1  0.324933  0.162467  0.766792  1
  In  In18  1  0.837533  0.162467  0.766792  1
  In  In19  1  0.162490  0.324978  0.266490  1
  In  In20  1  0.675022  0.837510  0.266490  1
  In  In21  1  0.162490  0.837510  0.266490  1
  Ni  Ni22  1  0.666667  0.333333  0.297513  1
  Ni  Ni23  1  0.333333  0.666667  0.797174  1
