# generated using pymatgen
data_Gd17(MgIr4)3
_symmetry_space_group_name_H-M   'P 1'
_cell_length_a   10.72944800
_cell_length_b   10.72944800
_cell_length_c   6.31560800
_cell_angle_alpha   90.00000000
_cell_angle_beta   90.00000000
_cell_angle_gamma   90.00000000
_symmetry_Int_Tables_number   1
_chemical_formula_structural   Gd17(MgIr4)3
_chemical_formula_sum   'Gd17 Mg3 Ir12'
_cell_volume   727.05945204
_cell_formula_units_Z   1
loop_
 _symmetry_equiv_pos_site_id
 _symmetry_equiv_pos_as_xyz
  1  'x, y, z'
loop_
 _atom_site_type_symbol
 _atom_site_label
 _atom_site_symmetry_multiplicity
 _atom_site_fract_x
 _atom_site_fract_y
 _atom_site_fract_z
 _atom_site_occupancy
  Gd  Gd0  1  0.282685  0.087407  0.381636  1
  Gd  Gd1  1  0.282500  0.914509  0.880389  1
  Gd  Gd2  1  0.717500  0.085491  0.880389  1
  Gd  Gd3  1  0.717315  0.912593  0.381636  1
  Gd  Gd4  1  0.587248  0.784289  0.878463  1
  Gd  Gd5  1  0.590604  0.208351  0.378725  1
  Gd  Gd6  1  0.409396  0.791649  0.378725  1
  Gd  Gd7  1  0.412752  0.215711  0.878463  1
  Gd  Gd8  1  0.208351  0.409396  0.621275  1
  Gd  Gd9  1  0.215711  0.587248  0.121537  1
  Gd  Gd10  1  0.784289  0.412752  0.121537  1
  Gd  Gd11  1  0.791649  0.590604  0.621275  1
  Gd  Gd12  1  0.914509  0.717500  0.119611  1
  Gd  Gd13  1  0.912593  0.282685  0.618364  1
  Gd  Gd14  1  0.087407  0.717315  0.618364  1
  Gd  Gd15  1  0.085491  0.282500  0.119611  1
  Gd  Gd16  1  0.500000  0.500000  0.500000  1
  Mg  Mg17  1  0.000000  0.000000  0.500000  1
  Mg  Mg18  1  0.000000  0.000000  0.000000  1
  Mg  Mg19  1  0.500000  0.500000  0.000000  1
  Ir  Ir20  1  0.848511  0.151737  0.247953  1
  Ir  Ir21  1  0.848263  0.848511  0.752047  1
  Ir  Ir22  1  0.151737  0.151489  0.752047  1
  Ir  Ir23  1  0.151489  0.848263  0.247953  1
  Ir  Ir24  1  0.655192  0.345915  0.748509  1
  Ir  Ir25  1  0.654085  0.655192  0.251491  1
  Ir  Ir26  1  0.345915  0.344808  0.251491  1
  Ir  Ir27  1  0.344808  0.654085  0.748509  1
  Ir  Ir28  1  0.500000  0.000000  0.118758  1
  Ir  Ir29  1  0.500000  0.000000  0.624288  1
  Ir  Ir30  1  0.000000  0.500000  0.881242  1
  Ir  Ir31  1  0.000000  0.500000  0.375712  1
