# generated using pymatgen
data_Li5Eu4(P4Rh5)3
_symmetry_space_group_name_H-M   'P 1'
_cell_length_a   3.97544200
_cell_length_b   10.84112234
_cell_length_c   12.84668800
_cell_angle_alpha   89.91354726
_cell_angle_beta   90.00000000
_cell_angle_gamma   90.00000000
_symmetry_Int_Tables_number   1
_chemical_formula_structural   Li5Eu4(P4Rh5)3
_chemical_formula_sum   'Li5 Eu4 P12 Rh15'
_cell_volume   553.66918041
_cell_formula_units_Z   1
loop_
 _symmetry_equiv_pos_site_id
 _symmetry_equiv_pos_as_xyz
  1  'x, y, z'
loop_
 _atom_site_type_symbol
 _atom_site_label
 _atom_site_symmetry_multiplicity
 _atom_site_fract_x
 _atom_site_fract_y
 _atom_site_fract_z
 _atom_site_occupancy
  Li  Li0  1  0.250000  0.706475  0.992946  1
  Li  Li1  1  0.250000  0.794312  0.493252  1
  Li  Li2  1  0.750000  0.293642  0.007451  1
  Li  Li3  1  0.750000  0.203230  0.514179  1
  Li  Li4  1  0.250000  0.409390  0.494391  1
  Eu  Eu5  1  0.250000  0.576102  0.705367  1
  Eu  Eu6  1  0.250000  0.926687  0.202032  1
  Eu  Eu7  1  0.750000  0.426065  0.298663  1
  Eu  Eu8  1  0.750000  0.073168  0.795224  1
  P  P9  1  0.250000  0.431583  0.115031  1
  P  P10  1  0.250000  0.071994  0.615115  1
  P  P11  1  0.750000  0.569831  0.885432  1
  P  P12  1  0.750000  0.931909  0.384290  1
  P  P13  1  0.250000  0.261663  0.858692  1
  P  P14  1  0.250000  0.232488  0.344733  1
  P  P15  1  0.750000  0.737525  0.143753  1
  P  P16  1  0.750000  0.763127  0.643083  1
  P  P17  1  0.250000  0.611142  0.390932  1
  P  P18  1  0.250000  0.892840  0.890091  1
  P  P19  1  0.750000  0.395426  0.617246  1
  P  P20  1  0.750000  0.102543  0.102210  1
  Rh  Rh21  1  0.250000  0.091484  0.977698  1
  Rh  Rh22  1  0.750000  0.586506  0.517459  1
  Rh  Rh23  1  0.750000  0.903631  0.018458  1
  Rh  Rh24  1  0.250000  0.229239  0.164174  1
  Rh  Rh25  1  0.250000  0.276007  0.670701  1
  Rh  Rh26  1  0.750000  0.770612  0.827960  1
  Rh  Rh27  1  0.750000  0.730347  0.329768  1
  Rh  Rh28  1  0.250000  0.872673  0.697726  1
  Rh  Rh29  1  0.250000  0.626728  0.201073  1
  Rh  Rh30  1  0.750000  0.126790  0.297218  1
  Rh  Rh31  1  0.750000  0.370015  0.803749  1
  Rh  Rh32  1  0.250000  0.461125  0.934437  1
  Rh  Rh33  1  0.250000  0.042408  0.432945  1
  Rh  Rh34  1  0.750000  0.540437  0.067401  1
  Rh  Rh35  1  0.750000  0.960853  0.565120  1
