# generated using pymatgen
data_Pr16Sm4Si15Sn
_symmetry_space_group_name_H-M   'P 1'
_cell_length_a   7.96038808
_cell_length_b   7.93946200
_cell_length_c   15.27638394
_cell_angle_alpha   90.12290178
_cell_angle_beta   89.71401216
_cell_angle_gamma   89.76093081
_symmetry_Int_Tables_number   1
_chemical_formula_structural   Pr16Sm4Si15Sn
_chemical_formula_sum   'Pr16 Sm4 Si15 Sn1'
_cell_volume   965.46307960
_cell_formula_units_Z   1
loop_
 _symmetry_equiv_pos_site_id
 _symmetry_equiv_pos_as_xyz
  1  'x, y, z'
loop_
 _atom_site_type_symbol
 _atom_site_label
 _atom_site_symmetry_multiplicity
 _atom_site_fract_x
 _atom_site_fract_y
 _atom_site_fract_z
 _atom_site_occupancy
  Pr  Pr0  1  0.375676  0.013431  0.449171  1
  Pr  Pr1  1  0.495559  0.871182  0.698079  1
  Pr  Pr2  1  0.509907  0.121458  0.197417  1
  Pr  Pr3  1  0.877739  0.489304  0.301084  1
  Pr  Pr4  1  0.119948  0.516331  0.805504  1
  Pr  Pr5  1  0.623508  0.987275  0.949652  1
  Pr  Pr6  1  0.004491  0.383529  0.546676  1
  Pr  Pr7  1  0.989103  0.621976  0.053664  1
  Pr  Pr8  1  0.127577  0.980624  0.879731  1
  Pr  Pr9  1  0.519454  0.627014  0.127373  1
  Pr  Pr10  1  0.490766  0.382563  0.626016  1
  Pr  Pr11  1  0.628368  0.521270  0.875851  1
  Pr  Pr12  1  0.373770  0.481109  0.372152  1
  Pr  Pr13  1  0.872469  0.019033  0.376316  1
  Pr  Pr14  1  0.981319  0.127682  0.124373  1
  Pr  Pr15  1  0.008053  0.858670  0.620134  1
  Sm  Sm16  1  0.309374  0.309741  0.000773  1
  Sm  Sm17  1  0.191129  0.809681  0.249784  1
  Sm  Sm18  1  0.801044  0.189238  0.752276  1
  Sm  Sm19  1  0.687536  0.691485  0.496852  1
  Si  Si20  1  0.330367  0.693436  0.954437  1
  Si  Si21  1  0.667330  0.305326  0.451529  1
  Si  Si22  1  0.694734  0.330418  0.048256  1
  Si  Si23  1  0.306657  0.670775  0.545626  1
  Si  Si24  1  0.806016  0.831026  0.202735  1
  Si  Si25  1  0.168751  0.194282  0.298149  1
  Si  Si26  1  0.833730  0.805964  0.798254  1
  Si  Si27  1  0.287358  0.922729  0.061831  1
  Si  Si28  1  0.577360  0.788963  0.310507  1
  Si  Si29  1  0.432413  0.211884  0.815386  1
  Si  Si30  1  0.789060  0.576010  0.690725  1
  Si  Si31  1  0.212361  0.421827  0.189519  1
  Si  Si32  1  0.710843  0.078990  0.560753  1
  Si  Si33  1  0.923671  0.288299  0.939945  1
  Si  Si34  1  0.078881  0.713390  0.437073  1
  Sn  Sn35  1  0.193679  0.164089  0.692400  1
