# generated using pymatgen
data_Ce8Be3Si12Ni
_symmetry_space_group_name_H-M   'P 1'
_cell_length_a   7.92592900
_cell_length_b   7.92592974
_cell_length_c   8.46136300
_cell_angle_alpha   90.00000000
_cell_angle_beta   90.00000000
_cell_angle_gamma   119.99999276
_symmetry_Int_Tables_number   1
_chemical_formula_structural   Ce8Be3Si12Ni
_chemical_formula_sum   'Ce8 Be3 Si12 Ni1'
_cell_volume   460.33223324
_cell_formula_units_Z   1
loop_
 _symmetry_equiv_pos_site_id
 _symmetry_equiv_pos_as_xyz
  1  'x, y, z'
loop_
 _atom_site_type_symbol
 _atom_site_label
 _atom_site_symmetry_multiplicity
 _atom_site_fract_x
 _atom_site_fract_y
 _atom_site_fract_z
 _atom_site_occupancy
  Ce  Ce0  1  0.000000  0.000000  0.250056  1
  Ce  Ce1  1  0.000000  0.000000  0.749853  1
  Ce  Ce2  1  0.499369  0.500631  0.249654  1
  Ce  Ce3  1  0.499369  0.998739  0.249654  1
  Ce  Ce4  1  0.001261  0.500631  0.249654  1
  Ce  Ce5  1  0.499203  0.500797  0.750278  1
  Ce  Ce6  1  0.499203  0.998406  0.750278  1
  Ce  Ce7  1  0.001594  0.500797  0.750278  1
  Be  Be8  1  0.333333  0.666667  0.499053  1
  Be  Be9  1  0.666667  0.333333  0.500782  1
  Be  Be10  1  0.666667  0.333333  0.999824  1
  Si  Si11  1  0.172276  0.827724  0.499748  1
  Si  Si12  1  0.172276  0.344552  0.499748  1
  Si  Si13  1  0.655448  0.827724  0.499748  1
  Si  Si14  1  0.827090  0.172910  0.499928  1
  Si  Si15  1  0.827090  0.654179  0.499928  1
  Si  Si16  1  0.345821  0.172910  0.499928  1
  Si  Si17  1  0.827381  0.172619  0.000072  1
  Si  Si18  1  0.827381  0.654760  0.000072  1
  Si  Si19  1  0.345240  0.172619  0.000072  1
  Si  Si20  1  0.169932  0.830068  0.000106  1
  Si  Si21  1  0.169932  0.339866  0.000106  1
  Si  Si22  1  0.660134  0.830068  0.000106  1
  Ni  Ni23  1  0.333333  0.666667  0.001077  1
