# generated using pymatgen
data_Tb3SmHf2(SnRh)6
_symmetry_space_group_name_H-M   'P 1'
_cell_length_a   7.55035939
_cell_length_b   7.48032826
_cell_length_c   7.64187500
_cell_angle_alpha   90.00000000
_cell_angle_beta   90.00000000
_cell_angle_gamma   119.70277167
_symmetry_Int_Tables_number   1
_chemical_formula_structural   Tb3SmHf2(SnRh)6
_chemical_formula_sum   'Tb3 Sm1 Hf2 Sn6 Rh6'
_cell_volume   374.89686433
_cell_formula_units_Z   1
loop_
 _symmetry_equiv_pos_site_id
 _symmetry_equiv_pos_as_xyz
  1  'x, y, z'
loop_
 _atom_site_type_symbol
 _atom_site_label
 _atom_site_symmetry_multiplicity
 _atom_site_fract_x
 _atom_site_fract_y
 _atom_site_fract_z
 _atom_site_occupancy
  Tb  Tb0  1  0.001644  0.405319  0.750000  1
  Tb  Tb1  1  0.589130  0.593065  0.250000  1
  Tb  Tb2  1  0.411220  0.003911  0.250000  1
  Sm  Sm3  1  0.999686  0.404331  0.250000  1
  Hf  Hf4  1  0.603893  0.600593  0.750000  1
  Hf  Hf5  1  0.395088  0.994893  0.750000  1
  Sn  Sn6  1  0.263378  0.261841  0.509781  1
  Sn  Sn7  1  0.999281  0.735998  0.498827  1
  Sn  Sn8  1  0.999281  0.735998  0.001173  1
  Sn  Sn9  1  0.737188  0.999692  0.510391  1
  Sn  Sn10  1  0.737188  0.999692  0.989609  1
  Sn  Sn11  1  0.263378  0.261841  0.990219  1
  Rh  Rh12  1  0.345348  0.676757  0.530235  1
  Rh  Rh13  1  0.654543  0.331199  0.533046  1
  Rh  Rh14  1  0.345348  0.676757  0.969765  1
  Rh  Rh15  1  0.000147  0.986601  0.750000  1
  Rh  Rh16  1  0.999719  0.000318  0.250000  1
  Rh  Rh17  1  0.654543  0.331199  0.966954  1
