# generated using pymatgen
data_Tb4Ho3Er(B6Os)4
_symmetry_space_group_name_H-M   'P 1'
_cell_length_a   3.65426600
_cell_length_b   9.14995502
_cell_length_c   11.53751802
_cell_angle_alpha   90.00734432
_cell_angle_beta   90.00000000
_cell_angle_gamma   90.00000000
_symmetry_Int_Tables_number   1
_chemical_formula_structural   Tb4Ho3Er(B6Os)4
_chemical_formula_sum   'Tb4 Ho3 Er1 B24 Os4'
_cell_volume   385.77271289
_cell_formula_units_Z   1
loop_
 _symmetry_equiv_pos_site_id
 _symmetry_equiv_pos_as_xyz
  1  'x, y, z'
loop_
 _atom_site_type_symbol
 _atom_site_label
 _atom_site_symmetry_multiplicity
 _atom_site_fract_x
 _atom_site_fract_y
 _atom_site_fract_z
 _atom_site_occupancy
  Tb  Tb0  1  0.000000  0.322386  0.413882  1
  Tb  Tb1  1  0.000000  0.677617  0.586216  1
  Tb  Tb2  1  0.000000  0.822273  0.086063  1
  Tb  Tb3  1  0.000000  0.177745  0.913820  1
  Ho  Ho4  1  0.000000  0.944170  0.372883  1
  Ho  Ho5  1  0.000000  0.055827  0.627195  1
  Ho  Ho6  1  0.000000  0.444229  0.126952  1
  Er  Er7  1  0.000000  0.555885  0.872777  1
  B  B8  1  0.500000  0.554303  0.432738  1
  B  B9  1  0.500000  0.445732  0.567367  1
  B  B10  1  0.500000  0.054278  0.067249  1
  B  B11  1  0.500000  0.945559  0.932708  1
  B  B12  1  0.500000  0.748353  0.419608  1
  B  B13  1  0.500000  0.251696  0.580445  1
  B  B14  1  0.500000  0.248418  0.080361  1
  B  B15  1  0.500000  0.751299  0.919580  1
  B  B16  1  0.500000  0.791201  0.266669  1
  B  B17  1  0.500000  0.208912  0.733379  1
  B  B18  1  0.500000  0.291241  0.233297  1
  B  B19  1  0.500000  0.708479  0.766774  1
  B  B20  1  0.500000  0.631760  0.185324  1
  B  B21  1  0.500000  0.368489  0.814761  1
  B  B22  1  0.500000  0.131809  0.314618  1
  B  B23  1  0.500000  0.868104  0.685439  1
  B  B24  1  0.500000  0.983748  0.213260  1
  B  B25  1  0.500000  0.016177  0.786770  1
  B  B26  1  0.500000  0.483726  0.286714  1
  B  B27  1  0.500000  0.516437  0.713508  1
  B  B28  1  0.500000  0.606859  0.029275  1
  B  B29  1  0.500000  0.393381  0.970203  1
  B  B30  1  0.500000  0.107149  0.470387  1
  B  B31  1  0.500000  0.892836  0.529665  1
  Os  Os32  1  0.000000  0.637786  0.321038  1
  Os  Os33  1  0.000000  0.362423  0.679105  1
  Os  Os34  1  0.000000  0.137857  0.178856  1
  Os  Os35  1  0.000000  0.861856  0.821113  1
