# generated using pymatgen
data_Sc4MnCo(SeO3)8
_symmetry_space_group_name_H-M   'P 1'
_cell_length_a   8.43122922
_cell_length_b   8.49839274
_cell_length_c   8.59424575
_cell_angle_alpha   86.99657106
_cell_angle_beta   90.38002207
_cell_angle_gamma   89.97389345
_symmetry_Int_Tables_number   1
_chemical_formula_structural   Sc4MnCo(SeO3)8
_chemical_formula_sum   'Sc4 Mn1 Co1 Se8 O24'
_cell_volume   614.93443384
_cell_formula_units_Z   1
loop_
 _symmetry_equiv_pos_site_id
 _symmetry_equiv_pos_as_xyz
  1  'x, y, z'
loop_
 _atom_site_type_symbol
 _atom_site_label
 _atom_site_symmetry_multiplicity
 _atom_site_fract_x
 _atom_site_fract_y
 _atom_site_fract_z
 _atom_site_occupancy
  Sc  Sc0  1  0.764175  0.750190  0.002872  1
  Sc  Sc1  1  0.734342  0.246680  0.506815  1
  Sc  Sc2  1  0.237899  0.249139  0.003377  1
  Sc  Sc3  1  0.261742  0.744938  0.510244  1
  Mn  Mn4  1  0.397753  0.842277  0.158861  1
  Co  Co5  1  0.602597  0.337178  0.149046  1
  Se  Se6  1  0.098335  0.548365  0.200370  1
  Se  Se7  1  0.900424  0.052557  0.199893  1
  Se  Se8  1  0.567036  0.457014  0.824676  1
  Se  Se9  1  0.328518  0.158419  0.406283  1
  Se  Se10  1  0.053086  0.424637  0.681970  1
  Se  Se11  1  0.435929  0.956428  0.821045  1
  Se  Se12  1  0.671266  0.649652  0.404857  1
  Se  Se13  1  0.944989  0.923654  0.679410  1
  O  O14  1  0.961357  0.680850  0.124620  1
  O  O15  1  0.314649  0.010659  0.976407  1
  O  O16  1  0.157303  0.272801  0.780034  1
  O  O17  1  0.656405  0.452224  0.355644  1
  O  O18  1  0.757669  0.187054  0.263064  1
  O  O19  1  0.192463  0.488729  0.037600  1
  O  O20  1  0.207165  0.517969  0.583448  1
  O  O21  1  0.625342  0.746197  0.225024  1
  O  O22  1  0.697946  0.362507  0.714484  1
  O  O23  1  0.332985  0.958718  0.362503  1
  O  O24  1  0.966367  0.325306  0.532977  1
  O  O25  1  0.483869  0.302065  0.940842  1
  O  O26  1  0.840506  0.773790  0.778717  1
  O  O27  1  0.504463  0.678239  0.508058  1
  O  O28  1  0.301703  0.859590  0.714394  1
  O  O29  1  0.238925  0.681047  0.268775  1
  O  O30  1  0.385995  0.243357  0.224745  1
  O  O31  1  0.042378  0.181087  0.128025  1
  O  O32  1  0.028745  0.821078  0.532251  1
  O  O33  1  0.521014  0.802810  0.936627  1
  O  O34  1  0.688831  0.506808  0.983676  1
  O  O35  1  0.792130  0.019193  0.578504  1
  O  O36  1  0.493298  0.177362  0.516665  1
  O  O37  1  0.810403  0.990831  0.035002  1
