# generated using pymatgen
data_Co8IrS8
_symmetry_space_group_name_H-M   'P 1'
_cell_length_a   6.99460558
_cell_length_b   6.99460533
_cell_length_c   6.99460600
_cell_angle_alpha   59.99999682
_cell_angle_beta   59.99999801
_cell_angle_gamma   59.99999475
_symmetry_Int_Tables_number   1
_chemical_formula_structural   Co8IrS8
_chemical_formula_sum   'Co8 Ir1 S8'
_cell_volume   241.97732334
_cell_formula_units_Z   1
loop_
 _symmetry_equiv_pos_site_id
 _symmetry_equiv_pos_as_xyz
  1  'x, y, z'
loop_
 _atom_site_type_symbol
 _atom_site_label
 _atom_site_symmetry_multiplicity
 _atom_site_fract_x
 _atom_site_fract_y
 _atom_site_fract_z
 _atom_site_occupancy
  Co  Co0  1  0.620768  0.126411  0.126411  1
  Co  Co1  1  0.126411  0.620768  0.126411  1
  Co  Co2  1  0.126411  0.126411  0.620768  1
  Co  Co3  1  0.126411  0.126411  0.126411  1
  Co  Co4  1  0.379232  0.873589  0.873589  1
  Co  Co5  1  0.873589  0.379232  0.873589  1
  Co  Co6  1  0.873589  0.873589  0.379232  1
  Co  Co7  1  0.873589  0.873589  0.873589  1
  Ir  Ir8  1  0.500000  0.500000  0.500000  1
  S  S9  1  0.250000  0.250000  0.250000  1
  S  S10  1  0.750000  0.750000  0.750000  1
  S  S11  1  0.742826  0.257174  0.257174  1
  S  S12  1  0.742826  0.257174  0.742826  1
  S  S13  1  0.742826  0.742826  0.257174  1
  S  S14  1  0.257174  0.742826  0.742826  1
  S  S15  1  0.257174  0.742826  0.257174  1
  S  S16  1  0.257174  0.257174  0.742826  1
