# generated using pymatgen
data_La6TcRhCl6
_symmetry_space_group_name_H-M   'P 1'
_cell_length_a   10.36214785
_cell_length_b   10.41657003
_cell_length_c   10.36214700
_cell_angle_alpha   110.15460271
_cell_angle_beta   107.89488840
_cell_angle_gamma   110.15460595
_symmetry_Int_Tables_number   1
_chemical_formula_structural   La6TcRhCl6
_chemical_formula_sum   'La12 Tc2 Rh2 Cl12'
_cell_volume   862.88421120
_cell_formula_units_Z   2
loop_
 _symmetry_equiv_pos_site_id
 _symmetry_equiv_pos_as_xyz
  1  'x, y, z'
loop_
 _atom_site_type_symbol
 _atom_site_label
 _atom_site_symmetry_multiplicity
 _atom_site_fract_x
 _atom_site_fract_y
 _atom_site_fract_z
 _atom_site_occupancy
  La  La0  1  0.261846  0.750000  0.238154  1
  La  La1  1  0.488154  0.750000  0.011846  1
  La  La2  1  0.236949  0.473897  0.486949  1
  La  La3  1  0.013051  0.026103  0.263051  1
  La  La4  1  0.245392  0.267449  0.762913  1
  La  La5  1  0.010344  0.488291  0.749821  1
  La  La6  1  0.495463  0.232551  0.477943  1
  La  La7  1  0.261530  0.011709  0.022053  1
  La  La8  1  0.737087  0.232551  0.254608  1
  La  La9  1  0.750179  0.011709  0.489656  1
  La  La10  1  0.477947  0.488291  0.238470  1
  La  La11  1  0.022057  0.267449  0.004537  1
  Tc  Tc12  1  0.510085  0.020169  0.260085  1
  Tc  Tc13  1  0.239915  0.479831  0.989915  1
  Rh  Rh14  1  0.001477  0.250000  0.498523  1
  Rh  Rh15  1  0.248523  0.250000  0.251477  1
  Cl  Cl16  1  0.247898  0.995390  0.498437  1
  Cl  Cl17  1  0.503048  0.504610  0.752508  1
  Cl  Cl18  1  0.251645  0.751355  0.749543  1
  Cl  Cl19  1  0.998187  0.748645  0.000289  1
  Cl  Cl20  1  0.001563  0.504610  0.252102  1
  Cl  Cl21  1  0.747492  0.995390  0.996952  1
  Cl  Cl22  1  0.750457  0.748645  0.248355  1
  Cl  Cl23  1  0.499711  0.751355  0.501813  1
  Cl  Cl24  1  0.503933  0.250000  0.996067  1
  Cl  Cl25  1  0.752278  0.504557  0.502278  1
  Cl  Cl26  1  0.746067  0.250000  0.753933  1
  Cl  Cl27  1  0.997722  0.995443  0.747722  1
