# generated using pymatgen
data_GeSe23
_symmetry_space_group_name_H-M   'P 1'
_cell_length_a   5.83088778
_cell_length_b   10.54881529
_cell_length_c   16.56983065
_cell_angle_alpha   89.10824401
_cell_angle_beta   87.08539243
_cell_angle_gamma   90.44174847
_symmetry_Int_Tables_number   1
_chemical_formula_structural   GeSe23
_chemical_formula_sum   'Ge1 Se23'
_cell_volume   1017.71445347
_cell_formula_units_Z   1
loop_
 _symmetry_equiv_pos_site_id
 _symmetry_equiv_pos_as_xyz
  1  'x, y, z'
loop_
 _atom_site_type_symbol
 _atom_site_label
 _atom_site_symmetry_multiplicity
 _atom_site_fract_x
 _atom_site_fract_y
 _atom_site_fract_z
 _atom_site_occupancy
  Ge  Ge0  1  0.474782  0.183794  0.414480  1
  Se  Se1  1  0.535391  0.807768  0.383977  1
  Se  Se2  1  0.000693  0.312651  0.118424  1
  Se  Se3  1  0.801711  0.289254  0.480551  1
  Se  Se4  1  0.290609  0.774505  0.500503  1
  Se  Se5  1  0.212880  0.267343  0.997207  1
  Se  Se6  1  0.776600  0.729367  0.004699  1
  Se  Se7  1  0.231522  0.372852  0.387999  1
  Se  Se8  1  0.720010  0.609898  0.364105  1
  Se  Se9  1  0.780573  0.130158  0.156413  1
  Se  Se10  1  0.219128  0.865850  0.139201  1
  Se  Se11  1  0.712103  0.623010  0.639865  1
  Se  Se12  1  0.266249  0.373060  0.614266  1
  Se  Se13  1  0.221616  0.873422  0.854735  1
  Se  Se14  1  0.776687  0.132968  0.857684  1
  Se  Se15  1  0.998257  0.682520  0.116505  1
  Se  Se16  1  0.502292  0.809213  0.615975  1
  Se  Se17  1  0.518697  0.202034  0.574969  1
  Se  Se18  1  0.003709  0.687914  0.885969  1
  Se  Se19  1  0.992316  0.316817  0.885312  1
  Se  Se20  1  0.481484  0.479095  0.290639  1
  Se  Se21  1  0.010596  0.993886  0.232271  1
  Se  Se22  1  0.466434  0.477937  0.713294  1
  Se  Se23  1  0.005659  0.004683  0.770959  1
