# generated using pymatgen
data_Mg2GaPdPt4
_symmetry_space_group_name_H-M   'P 1'
_cell_length_a   4.13599200
_cell_length_b   5.51510600
_cell_length_c   10.81446500
_cell_angle_alpha   90.00000000
_cell_angle_beta   90.00000000
_cell_angle_gamma   90.00000000
_symmetry_Int_Tables_number   1
_chemical_formula_structural   Mg2GaPdPt4
_chemical_formula_sum   'Mg4 Ga2 Pd2 Pt8'
_cell_volume   246.68264332
_cell_formula_units_Z   2
loop_
 _symmetry_equiv_pos_site_id
 _symmetry_equiv_pos_as_xyz
  1  'x, y, z'
loop_
 _atom_site_type_symbol
 _atom_site_label
 _atom_site_symmetry_multiplicity
 _atom_site_fract_x
 _atom_site_fract_y
 _atom_site_fract_z
 _atom_site_occupancy
  Mg  Mg0  1  0.500000  0.170398  0.360416  1
  Mg  Mg1  1  0.500000  0.829602  0.639584  1
  Mg  Mg2  1  0.500000  0.670398  0.139584  1
  Mg  Mg3  1  0.500000  0.329602  0.860416  1
  Ga  Ga4  1  0.000000  0.000000  0.000000  1
  Ga  Ga5  1  0.000000  0.500000  0.500000  1
  Pd  Pd6  1  0.000000  0.000000  0.500000  1
  Pd  Pd7  1  0.000000  0.500000  0.000000  1
  Pt  Pt8  1  0.500000  0.183673  0.107950  1
  Pt  Pt9  1  0.500000  0.816327  0.892050  1
  Pt  Pt10  1  0.500000  0.683673  0.392050  1
  Pt  Pt11  1  0.500000  0.316327  0.607950  1
  Pt  Pt12  1  0.000000  0.922173  0.240489  1
  Pt  Pt13  1  0.000000  0.077827  0.759511  1
  Pt  Pt14  1  0.000000  0.422173  0.259511  1
  Pt  Pt15  1  0.000000  0.577827  0.740489  1
