# generated using pymatgen
data_Tb4In2CuNiAg2
_symmetry_space_group_name_H-M   'P 1'
_cell_length_a   7.85378700
_cell_length_b   7.85378662
_cell_length_c   3.66857400
_cell_angle_alpha   90.00000000
_cell_angle_beta   90.00000000
_cell_angle_gamma   88.03662557
_symmetry_Int_Tables_number   1
_chemical_formula_structural   Tb4In2CuNiAg2
_chemical_formula_sum   'Tb4 In2 Cu1 Ni1 Ag2'
_cell_volume   226.15201664
_cell_formula_units_Z   1
loop_
 _symmetry_equiv_pos_site_id
 _symmetry_equiv_pos_as_xyz
  1  'x, y, z'
loop_
 _atom_site_type_symbol
 _atom_site_label
 _atom_site_symmetry_multiplicity
 _atom_site_fract_x
 _atom_site_fract_y
 _atom_site_fract_z
 _atom_site_occupancy
  Tb  Tb0  1  0.653835  0.166607  0.500000  1
  Tb  Tb1  1  0.333393  0.846165  0.500000  1
  Tb  Tb2  1  0.195528  0.304472  0.500000  1
  Tb  Tb3  1  0.813079  0.686921  0.500000  1
  In  In4  1  0.499535  0.500932  0.000000  1
  In  In5  1  0.999068  0.000465  0.000000  1
  Cu  Cu6  1  0.617069  0.882931  0.000000  1
  Ni  Ni7  1  0.383968  0.116032  0.000000  1
  Ag  Ag8  1  0.127422  0.622896  0.000000  1
  Ag  Ag9  1  0.877104  0.372578  0.000000  1
