# generated using pymatgen
data_HoTmTh(AlNi)3
_symmetry_space_group_name_H-M   'P 1'
_cell_length_a   7.00961483
_cell_length_b   7.13360583
_cell_length_c   3.84385500
_cell_angle_alpha   90.00000000
_cell_angle_beta   90.00000000
_cell_angle_gamma   120.54189607
_symmetry_Int_Tables_number   1
_chemical_formula_structural   HoTmTh(AlNi)3
_chemical_formula_sum   'Ho1 Tm1 Th1 Al3 Ni3'
_cell_volume   165.54018297
_cell_formula_units_Z   1
loop_
 _symmetry_equiv_pos_site_id
 _symmetry_equiv_pos_as_xyz
  1  'x, y, z'
loop_
 _atom_site_type_symbol
 _atom_site_label
 _atom_site_symmetry_multiplicity
 _atom_site_fract_x
 _atom_site_fract_y
 _atom_site_fract_z
 _atom_site_occupancy
  Ho  Ho0  1  0.583641  0.582860  0.500000  1
  Tm  Tm1  1  0.415716  0.999069  0.500000  1
  Th  Th2  1  0.999733  0.422196  0.500000  1
  Al  Al3  1  0.001021  0.775730  0.000000  1
  Al  Al4  1  0.245984  0.235053  0.000000  1
  Al  Al5  1  0.753659  0.990086  0.000000  1
  Ni  Ni6  1  0.326209  0.659594  0.000000  1
  Ni  Ni7  1  0.673036  0.330751  0.000000  1
  Ni  Ni8  1  0.001001  0.004661  0.500000  1
