# generated using pymatgen
data_PrGa2IrPd2
_symmetry_space_group_name_H-M   'P 1'
_cell_length_a   5.62719100
_cell_length_b   5.70911709
_cell_length_c   3.95234400
_cell_angle_alpha   90.00000000
_cell_angle_beta   90.00000000
_cell_angle_gamma   119.52643460
_symmetry_Int_Tables_number   1
_chemical_formula_structural   PrGa2IrPd2
_chemical_formula_sum   'Pr1 Ga2 Ir1 Pd2'
_cell_volume   110.48382330
_cell_formula_units_Z   1
loop_
 _symmetry_equiv_pos_site_id
 _symmetry_equiv_pos_as_xyz
  1  'x, y, z'
loop_
 _atom_site_type_symbol
 _atom_site_label
 _atom_site_symmetry_multiplicity
 _atom_site_fract_x
 _atom_site_fract_y
 _atom_site_fract_z
 _atom_site_occupancy
  Pr  Pr0  1  0.000000  0.000000  0.000000  1
  Ga  Ga1  1  0.661142  0.322283  0.000000  1
  Ga  Ga2  1  0.338859  0.677717  0.000000  1
  Ir  Ir3  1  0.500001  0.000000  0.500000  1
  Pd  Pd4  1  0.000000  0.499999  0.500000  1
  Pd  Pd5  1  0.500000  0.499999  0.500000  1
