# generated using pymatgen
data_Dy3Sn3IrRuPt
_symmetry_space_group_name_H-M   'P 1'
_cell_length_a   7.65423600
_cell_length_b   7.65423565
_cell_length_c   3.82057800
_cell_angle_alpha   90.00000000
_cell_angle_beta   90.00000000
_cell_angle_gamma   119.99999285
_symmetry_Int_Tables_number   1
_chemical_formula_structural   Dy3Sn3IrRuPt
_chemical_formula_sum   'Dy3 Sn3 Ir1 Ru1 Pt1'
_cell_volume   193.84893124
_cell_formula_units_Z   1
loop_
 _symmetry_equiv_pos_site_id
 _symmetry_equiv_pos_as_xyz
  1  'x, y, z'
loop_
 _atom_site_type_symbol
 _atom_site_label
 _atom_site_symmetry_multiplicity
 _atom_site_fract_x
 _atom_site_fract_y
 _atom_site_fract_z
 _atom_site_occupancy
  Dy  Dy0  1  0.409915  0.402237  0.500000  1
  Dy  Dy1  1  0.597763  0.007678  0.500000  1
  Dy  Dy2  1  0.992322  0.590085  0.500000  1
  Sn  Sn3  1  0.740553  0.738740  0.000000  1
  Sn  Sn4  1  0.261260  0.001814  0.000000  1
  Sn  Sn5  1  0.998186  0.259447  0.000000  1
  Ir  Ir6  1  0.666667  0.333333  0.000000  1
  Ru  Ru7  1  0.000000  0.000000  0.500000  1
  Pt  Pt8  1  0.333333  0.666667  0.000000  1
