# generated using pymatgen
data_Y8BeGeBr12
_symmetry_space_group_name_H-M   'P 1'
_cell_length_a   4.03244400
_cell_length_b   13.29592499
_cell_length_c   14.06783042
_cell_angle_alpha   90.23060419
_cell_angle_beta   90.00000000
_cell_angle_gamma   90.00000000
_symmetry_Int_Tables_number   1
_chemical_formula_structural   Y8BeGeBr12
_chemical_formula_sum   'Y8 Be1 Ge1 Br12'
_cell_volume   754.24164489
_cell_formula_units_Z   1
loop_
 _symmetry_equiv_pos_site_id
 _symmetry_equiv_pos_as_xyz
  1  'x, y, z'
loop_
 _atom_site_type_symbol
 _atom_site_label
 _atom_site_symmetry_multiplicity
 _atom_site_fract_x
 _atom_site_fract_y
 _atom_site_fract_z
 _atom_site_occupancy
  Y  Y0  1  0.500000  0.114768  0.345555  1
  Y  Y1  1  0.500000  0.885232  0.654445  1
  Y  Y2  1  0.500000  0.619168  0.160502  1
  Y  Y3  1  0.500000  0.380832  0.839498  1
  Y  Y4  1  0.000000  0.116674  0.577415  1
  Y  Y5  1  0.000000  0.883326  0.422585  1
  Y  Y6  1  0.000000  0.620520  0.920018  1
  Y  Y7  1  0.000000  0.379480  0.079982  1
  Be  Be8  1  0.500000  0.000000  0.500000  1
  Ge  Ge9  1  0.500000  0.500000  0.000000  1
  Br  Br10  1  0.500000  0.244753  0.163692  1
  Br  Br11  1  0.500000  0.755247  0.836308  1
  Br  Br12  1  0.500000  0.746251  0.336488  1
  Br  Br13  1  0.500000  0.253749  0.663512  1
  Br  Br14  1  0.000000  0.255858  0.411169  1
  Br  Br15  1  0.000000  0.744142  0.588831  1
  Br  Br16  1  0.000000  0.755514  0.088675  1
  Br  Br17  1  0.000000  0.244486  0.911325  1
  Br  Br18  1  0.000000  0.001706  0.242480  1
  Br  Br19  1  0.000000  0.998294  0.757520  1
  Br  Br20  1  0.000000  0.501451  0.257263  1
  Br  Br21  1  0.000000  0.498549  0.742737  1
