# generated using pymatgen
data_NdGe2(AsRh3)2
_symmetry_space_group_name_H-M   'P 1'
_cell_length_a   7.24740906
_cell_length_b   7.24740941
_cell_length_c   3.87477300
_cell_angle_alpha   90.00000000
_cell_angle_beta   90.00000000
_cell_angle_gamma   119.48831833
_symmetry_Int_Tables_number   1
_chemical_formula_structural   NdGe2(AsRh3)2
_chemical_formula_sum   'Nd1 Ge2 As2 Rh6'
_cell_volume   177.15715417
_cell_formula_units_Z   1
loop_
 _symmetry_equiv_pos_site_id
 _symmetry_equiv_pos_as_xyz
  1  'x, y, z'
loop_
 _atom_site_type_symbol
 _atom_site_label
 _atom_site_symmetry_multiplicity
 _atom_site_fract_x
 _atom_site_fract_y
 _atom_site_fract_z
 _atom_site_occupancy
  Nd  Nd0  1  0.999527  0.000473  0.000000  1
  Ge  Ge1  1  0.804948  0.195052  0.500000  1
  Ge  Ge2  1  0.333617  0.666383  0.000000  1
  As  As3  1  0.387148  0.192238  0.500000  1
  As  As4  1  0.807762  0.612852  0.500000  1
  Rh  Rh5  1  0.199438  0.800562  0.500000  1
  Rh  Rh6  1  0.199187  0.398434  0.500000  1
  Rh  Rh7  1  0.534292  0.069078  0.000000  1
  Rh  Rh8  1  0.930922  0.465708  0.000000  1
  Rh  Rh9  1  0.534923  0.465077  0.000000  1
  Rh  Rh10  1  0.601566  0.800813  0.500000  1
