# generated using pymatgen
data_Ho19Mg(Ir3Au)3
_symmetry_space_group_name_H-M   'P 1'
_cell_length_a   10.95306080
_cell_length_b   10.99260453
_cell_length_c   6.31095828
_cell_angle_alpha   89.70628348
_cell_angle_beta   90.06454984
_cell_angle_gamma   90.45971672
_symmetry_Int_Tables_number   1
_chemical_formula_structural   Ho19Mg(Ir3Au)3
_chemical_formula_sum   'Ho19 Mg1 Ir9 Au3'
_cell_volume   759.82130949
_cell_formula_units_Z   1
loop_
 _symmetry_equiv_pos_site_id
 _symmetry_equiv_pos_as_xyz
  1  'x, y, z'
loop_
 _atom_site_type_symbol
 _atom_site_label
 _atom_site_symmetry_multiplicity
 _atom_site_fract_x
 _atom_site_fract_y
 _atom_site_fract_z
 _atom_site_occupancy
  Ho  Ho0  1  0.290887  0.079490  0.365351  1
  Ho  Ho1  1  0.294687  0.903275  0.880358  1
  Ho  Ho2  1  0.701937  0.092358  0.869036  1
  Ho  Ho3  1  0.702623  0.911450  0.367882  1
  Ho  Ho4  1  0.582267  0.788831  0.880895  1
  Ho  Ho5  1  0.578727  0.211341  0.380152  1
  Ho  Ho6  1  0.411093  0.790111  0.378167  1
  Ho  Ho7  1  0.415709  0.211023  0.881098  1
  Ho  Ho8  1  0.210841  0.422865  0.621966  1
  Ho  Ho9  1  0.209417  0.592128  0.118314  1
  Ho  Ho10  1  0.789654  0.417207  0.119676  1
  Ho  Ho11  1  0.789308  0.580675  0.621540  1
  Ho  Ho12  1  0.914904  0.703596  0.134103  1
  Ho  Ho13  1  0.911713  0.295447  0.633026  1
  Ho  Ho14  1  0.091993  0.712030  0.620895  1
  Ho  Ho15  1  0.093208  0.301551  0.132597  1
  Ho  Ho16  1  0.006322  0.995594  0.006377  1
  Ho  Ho17  1  0.499425  0.499652  0.000302  1
  Ho  Ho18  1  0.499812  0.500853  0.498462  1
  Mg  Mg19  1  0.003693  0.996200  0.499969  1
  Ir  Ir20  1  0.150759  0.844667  0.244587  1
  Ir  Ir21  1  0.654515  0.345195  0.748305  1
  Ir  Ir22  1  0.655763  0.654896  0.250573  1
  Ir  Ir23  1  0.345110  0.343782  0.253186  1
  Ir  Ir24  1  0.347188  0.653519  0.748355  1
  Ir  Ir25  1  0.500757  0.999950  0.120850  1
  Ir  Ir26  1  0.499946  0.999787  0.623488  1
  Ir  Ir27  1  0.999514  0.500392  0.873814  1
  Ir  Ir28  1  0.999827  0.499352  0.380029  1
  Au  Au29  1  0.849270  0.152059  0.255628  1
  Au  Au30  1  0.845663  0.847031  0.746196  1
  Au  Au31  1  0.153467  0.153694  0.744824  1
