# generated using pymatgen
data_Ba6Sn8AsCl
_symmetry_space_group_name_H-M   'P 1'
_cell_length_a   9.21280333
_cell_length_b   9.21280488
_cell_length_c   9.26354276
_cell_angle_alpha   119.81897602
_cell_angle_beta   119.81898173
_cell_angle_gamma   90.00000920
_symmetry_Int_Tables_number   1
_chemical_formula_structural   Ba6Sn8AsCl
_chemical_formula_sum   'Ba6 Sn8 As1 Cl1'
_cell_volume   558.99138208
_cell_formula_units_Z   1
loop_
 _symmetry_equiv_pos_site_id
 _symmetry_equiv_pos_as_xyz
  1  'x, y, z'
loop_
 _atom_site_type_symbol
 _atom_site_label
 _atom_site_symmetry_multiplicity
 _atom_site_fract_x
 _atom_site_fract_y
 _atom_site_fract_z
 _atom_site_occupancy
  Ba  Ba0  1  0.246975  0.246975  0.493950  1
  Ba  Ba1  1  0.753025  0.753025  0.506050  1
  Ba  Ba2  1  0.676824  0.159461  0.000000  1
  Ba  Ba3  1  0.323176  0.840539  0.000000  1
  Ba  Ba4  1  0.840539  0.676824  0.000000  1
  Ba  Ba5  1  0.159461  0.323176  0.000000  1
  Sn  Sn6  1  0.332945  0.832670  0.385973  1
  Sn  Sn7  1  0.667055  0.167330  0.614027  1
  Sn  Sn8  1  0.053028  0.553304  0.385973  1
  Sn  Sn9  1  0.553304  0.332945  0.385973  1
  Sn  Sn10  1  0.167330  0.946972  0.614027  1
  Sn  Sn11  1  0.946972  0.446696  0.614027  1
  Sn  Sn12  1  0.446696  0.667055  0.614027  1
  Sn  Sn13  1  0.832670  0.053028  0.385973  1
  As  As14  1  0.000000  0.000000  0.000000  1
  Cl  Cl15  1  0.500000  0.500000  0.000000  1
