# generated using pymatgen
data_HfNb8CrSe16
_symmetry_space_group_name_H-M   'P 1'
_cell_length_a   7.01121000
_cell_length_b   7.01120916
_cell_length_c   13.08680000
_cell_angle_alpha   90.00000000
_cell_angle_beta   90.00000000
_cell_angle_gamma   120.00000397
_symmetry_Int_Tables_number   1
_chemical_formula_structural   HfNb8CrSe16
_chemical_formula_sum   'Hf1 Nb8 Cr1 Se16'
_cell_volume   557.12157624
_cell_formula_units_Z   1
loop_
 _symmetry_equiv_pos_site_id
 _symmetry_equiv_pos_as_xyz
  1  'x, y, z'
loop_
 _atom_site_type_symbol
 _atom_site_label
 _atom_site_symmetry_multiplicity
 _atom_site_fract_x
 _atom_site_fract_y
 _atom_site_fract_z
 _atom_site_occupancy
  Hf  Hf0  1  0.000000  0.000000  0.500000  1
  Nb  Nb1  1  0.000000  0.000000  0.246653  1
  Nb  Nb2  1  0.000000  0.000000  0.753347  1
  Nb  Nb3  1  0.507896  0.015791  0.244304  1
  Nb  Nb4  1  0.984209  0.492104  0.244304  1
  Nb  Nb5  1  0.507896  0.492104  0.244304  1
  Nb  Nb6  1  0.492104  0.984209  0.755696  1
  Nb  Nb7  1  0.015791  0.507896  0.755696  1
  Nb  Nb8  1  0.492104  0.507896  0.755696  1
  Cr  Cr9  1  0.000000  0.000000  0.000000  1
  Se  Se10  1  0.333333  0.666667  0.887511  1
  Se  Se11  1  0.666667  0.333333  0.112489  1
  Se  Se12  1  0.666667  0.333333  0.376822  1
  Se  Se13  1  0.333333  0.666667  0.623178  1
  Se  Se14  1  0.170147  0.829853  0.372996  1
  Se  Se15  1  0.170147  0.340294  0.372996  1
  Se  Se16  1  0.659706  0.829853  0.372996  1
  Se  Se17  1  0.829853  0.170147  0.627004  1
  Se  Se18  1  0.829853  0.659706  0.627004  1
  Se  Se19  1  0.340294  0.170147  0.627004  1
  Se  Se20  1  0.832699  0.167301  0.882337  1
  Se  Se21  1  0.832699  0.665400  0.882337  1
  Se  Se22  1  0.334600  0.167301  0.882337  1
  Se  Se23  1  0.167301  0.832699  0.117663  1
  Se  Se24  1  0.167301  0.334600  0.117663  1
  Se  Se25  1  0.665400  0.832699  0.117663  1
