# generated using pymatgen
data_LaSbPdO6
_symmetry_space_group_name_H-M   'P 1'
_cell_length_a   5.30276898
_cell_length_b   5.30275805
_cell_length_c   5.24486914
_cell_angle_alpha   90.04158237
_cell_angle_beta   90.04093930
_cell_angle_gamma   119.94133839
_symmetry_Int_Tables_number   1
_chemical_formula_structural   LaSbPdO6
_chemical_formula_sum   'La1 Sb1 Pd1 O6'
_cell_volume   127.79850431
_cell_formula_units_Z   1
loop_
 _symmetry_equiv_pos_site_id
 _symmetry_equiv_pos_as_xyz
  1  'x, y, z'
loop_
 _atom_site_type_symbol
 _atom_site_label
 _atom_site_symmetry_multiplicity
 _atom_site_fract_x
 _atom_site_fract_y
 _atom_site_fract_z
 _atom_site_occupancy
  La  La0  1  0.482542  0.517461  0.499999  1
  Sb  Sb1  1  0.149255  0.850752  0.999998  1
  Pd  Pd2  1  0.815662  0.184337  0.000001  1
  O  O3  1  0.118385  0.151785  0.212972  1
  O  O4  1  0.481259  0.882972  0.213592  1
  O  O5  1  0.849724  0.519916  0.213618  1
  O  O6  1  0.480085  0.150278  0.786373  1
  O  O7  1  0.117027  0.518741  0.786396  1
  O  O8  1  0.848216  0.881618  0.787019  1
