# generated using pymatgen
data_Ca3Si6(Pd9Pt)2
_symmetry_space_group_name_H-M   'P 1'
_cell_length_a   8.73764690
_cell_length_b   8.73764668
_cell_length_c   8.73764700
_cell_angle_alpha   59.72850775
_cell_angle_beta   59.72850861
_cell_angle_gamma   59.72850322
_symmetry_Int_Tables_number   1
_chemical_formula_structural   Ca3Si6(Pd9Pt)2
_chemical_formula_sum   'Ca3 Si6 Pd18 Pt2'
_cell_volume   468.79435950
_cell_formula_units_Z   1
loop_
 _symmetry_equiv_pos_site_id
 _symmetry_equiv_pos_as_xyz
  1  'x, y, z'
loop_
 _atom_site_type_symbol
 _atom_site_label
 _atom_site_symmetry_multiplicity
 _atom_site_fract_x
 _atom_site_fract_y
 _atom_site_fract_z
 _atom_site_occupancy
  Ca  Ca0  1  0.250504  0.250504  0.250504  1
  Ca  Ca1  1  0.749496  0.749496  0.749496  1
  Ca  Ca2  1  0.000000  0.000000  0.000000  1
  Si  Si3  1  0.730084  0.268940  0.268940  1
  Si  Si4  1  0.269916  0.731060  0.731060  1
  Si  Si5  1  0.268940  0.730084  0.268940  1
  Si  Si6  1  0.731060  0.269916  0.731060  1
  Si  Si7  1  0.268940  0.268940  0.730084  1
  Si  Si8  1  0.731060  0.731060  0.269916  1
  Pd  Pd9  1  0.383019  0.383019  0.847335  1
  Pd  Pd10  1  0.383019  0.847335  0.383019  1
  Pd  Pd11  1  0.616981  0.616981  0.152665  1
  Pd  Pd12  1  0.616981  0.152665  0.616981  1
  Pd  Pd13  1  0.847335  0.383019  0.383019  1
  Pd  Pd14  1  0.152665  0.616981  0.616981  1
  Pd  Pd15  1  0.344696  0.000118  0.000118  1
  Pd  Pd16  1  0.655304  0.999882  0.999882  1
  Pd  Pd17  1  0.000000  0.344239  0.655761  1
  Pd  Pd18  1  0.000000  0.655761  0.344239  1
  Pd  Pd19  1  0.000118  0.344696  0.000118  1
  Pd  Pd20  1  0.655761  0.000000  0.344239  1
  Pd  Pd21  1  0.999882  0.655304  0.999882  1
  Pd  Pd22  1  0.344239  0.000000  0.655761  1
  Pd  Pd23  1  0.000118  0.000118  0.344696  1
  Pd  Pd24  1  0.999882  0.999882  0.655304  1
  Pd  Pd25  1  0.655761  0.344239  0.000000  1
  Pd  Pd26  1  0.344239  0.655761  0.000000  1
  Pt  Pt27  1  0.385845  0.385845  0.385845  1
  Pt  Pt28  1  0.614155  0.614155  0.614155  1
