# generated using pymatgen
data_Hf9ZrGeSb6
_symmetry_space_group_name_H-M   'P 1'
_cell_length_a   5.84277599
_cell_length_b   8.54944401
_cell_length_c   8.54033600
_cell_angle_alpha   119.96598754
_cell_angle_beta   89.79339146
_cell_angle_gamma   90.10307053
_symmetry_Int_Tables_number   1
_chemical_formula_structural   Hf9ZrGeSb6
_chemical_formula_sum   'Hf9 Zr1 Ge1 Sb6'
_cell_volume   369.58013390
_cell_formula_units_Z   1
loop_
 _symmetry_equiv_pos_site_id
 _symmetry_equiv_pos_as_xyz
  1  'x, y, z'
loop_
 _atom_site_type_symbol
 _atom_site_label
 _atom_site_symmetry_multiplicity
 _atom_site_fract_x
 _atom_site_fract_y
 _atom_site_fract_z
 _atom_site_occupancy
  Hf  Hf0  1  0.500076  0.333565  0.666474  1
  Hf  Hf1  1  0.500075  0.666423  0.332901  1
  Hf  Hf2  1  0.999719  0.666695  0.333151  1
  Hf  Hf3  1  0.999728  0.333309  0.666469  1
  Hf  Hf4  1  0.764539  0.258910  0.000735  1
  Hf  Hf5  1  0.764542  0.741114  0.741800  1
  Hf  Hf6  1  0.767366  0.999988  0.257655  1
  Hf  Hf7  1  0.234852  0.741805  0.999895  1
  Hf  Hf8  1  0.234884  0.258205  0.258083  1
  Zr  Zr9  1  0.233511  0.999983  0.742082  1
  Ge  Ge10  1  0.501071  0.999998  0.001014  1
  Sb  Sb11  1  0.748179  0.609414  0.999833  1
  Sb  Sb12  1  0.748225  0.390591  0.390438  1
  Sb  Sb13  1  0.747174  0.000009  0.610016  1
  Sb  Sb14  1  0.251713  0.391489  0.000662  1
  Sb  Sb15  1  0.251725  0.608496  0.609171  1
  Sb  Sb16  1  0.252618  0.000004  0.389620  1
