# generated using pymatgen
data_Ac6Mg2Cd21Se
_symmetry_space_group_name_H-M   'P 1'
_cell_length_a   10.42790861
_cell_length_b   10.42790938
_cell_length_c   10.40793600
_cell_angle_alpha   60.06333997
_cell_angle_beta   60.06333752
_cell_angle_gamma   60.21383342
_symmetry_Int_Tables_number   1
_chemical_formula_structural   Ac6Mg2Cd21Se
_chemical_formula_sum   'Ac6 Mg2 Cd21 Se1'
_cell_volume   802.33819948
_cell_formula_units_Z   1
loop_
 _symmetry_equiv_pos_site_id
 _symmetry_equiv_pos_as_xyz
  1  'x, y, z'
loop_
 _atom_site_type_symbol
 _atom_site_label
 _atom_site_symmetry_multiplicity
 _atom_site_fract_x
 _atom_site_fract_y
 _atom_site_fract_z
 _atom_site_occupancy
  Ac  Ac0  1  0.784750  0.784750  0.215250  1
  Ac  Ac1  1  0.213780  0.786220  0.215800  1
  Ac  Ac2  1  0.786220  0.213780  0.215800  1
  Ac  Ac3  1  0.215250  0.215250  0.784750  1
  Ac  Ac4  1  0.786220  0.213780  0.784200  1
  Ac  Ac5  1  0.213780  0.786220  0.784200  1
  Mg  Mg6  1  0.500000  0.500000  0.000000  1
  Mg  Mg7  1  0.500000  0.500000  0.500000  1
  Cd  Cd8  1  0.829572  0.829572  0.509429  1
  Cd  Cd9  1  0.827316  0.508804  0.831940  1
  Cd  Cd10  1  0.508804  0.827316  0.831940  1
  Cd  Cd11  1  0.829572  0.829572  0.831428  1
  Cd  Cd12  1  0.170428  0.170428  0.490571  1
  Cd  Cd13  1  0.172684  0.491196  0.168060  1
  Cd  Cd14  1  0.491196  0.172684  0.168060  1
  Cd  Cd15  1  0.170428  0.170428  0.168572  1
  Cd  Cd16  1  0.621577  0.621577  0.132055  1
  Cd  Cd17  1  0.621166  0.133965  0.622433  1
  Cd  Cd18  1  0.133965  0.621166  0.622433  1
  Cd  Cd19  1  0.621577  0.621577  0.624791  1
  Cd  Cd20  1  0.378423  0.378423  0.867945  1
  Cd  Cd21  1  0.378834  0.866035  0.377567  1
  Cd  Cd22  1  0.866035  0.378834  0.377567  1
  Cd  Cd23  1  0.378423  0.378423  0.375209  1
  Cd  Cd24  1  0.000000  0.000000  0.500000  1
  Cd  Cd25  1  0.500000  0.000000  0.500000  1
  Cd  Cd26  1  0.000000  0.500000  0.500000  1
  Cd  Cd27  1  0.000000  0.500000  0.000000  1
  Cd  Cd28  1  0.500000  0.000000  0.000000  1
  Se  Se29  1  0.000000  0.000000  0.000000  1
