# generated using pymatgen
data_K3Dy(Si2O5)3
_symmetry_space_group_name_H-M   'P 1'
_cell_length_a   7.38990200
_cell_length_b   14.81145300
_cell_length_c   16.03808200
_cell_angle_alpha   90.00000000
_cell_angle_beta   90.00000000
_cell_angle_gamma   90.00000000
_symmetry_Int_Tables_number   1
_chemical_formula_structural   K3Dy(Si2O5)3
_chemical_formula_sum   'K12 Dy4 Si24 O60'
_cell_volume   1755.45125076
_cell_formula_units_Z   4
loop_
 _symmetry_equiv_pos_site_id
 _symmetry_equiv_pos_as_xyz
  1  'x, y, z'
loop_
 _atom_site_type_symbol
 _atom_site_label
 _atom_site_symmetry_multiplicity
 _atom_site_fract_x
 _atom_site_fract_y
 _atom_site_fract_z
 _atom_site_occupancy
  K  K0  1  0.500000  0.537645  0.384639  1
  K  K1  1  0.500000  0.594158  0.939429  1
  K  K2  1  0.500000  0.405842  0.060571  1
  K  K3  1  0.500000  0.094158  0.560571  1
  K  K4  1  0.000000  0.620962  0.709033  1
  K  K5  1  0.000000  0.379038  0.290967  1
  K  K6  1  0.000000  0.120962  0.790967  1
  K  K7  1  0.000000  0.879038  0.209033  1
  K  K8  1  0.500000  0.905842  0.439429  1
  K  K9  1  0.500000  0.037645  0.115361  1
  K  K10  1  0.500000  0.462355  0.615361  1
  K  K11  1  0.500000  0.962355  0.884639  1
  Dy  Dy12  1  0.000000  0.500000  0.000000  1
  Dy  Dy13  1  0.000000  0.000000  0.500000  1
  Dy  Dy14  1  0.000000  0.500000  0.500000  1
  Dy  Dy15  1  0.000000  0.000000  0.000000  1
  Si  Si16  1  0.716947  0.197535  0.961375  1
  Si  Si17  1  0.716947  0.802465  0.038625  1
  Si  Si18  1  0.283053  0.697535  0.538625  1
  Si  Si19  1  0.283053  0.302465  0.461374  1
  Si  Si20  1  0.283053  0.802465  0.038625  1
  Si  Si21  1  0.283053  0.197535  0.961375  1
  Si  Si22  1  0.716947  0.302465  0.461374  1
  Si  Si23  1  0.716947  0.697535  0.538625  1
  Si  Si24  1  0.000000  0.782468  0.411059  1
  Si  Si25  1  0.000000  0.217532  0.588941  1
  Si  Si26  1  0.000000  0.282468  0.088941  1
  Si  Si27  1  0.000000  0.717532  0.911059  1
  Si  Si28  1  0.714922  0.366453  0.854470  1
  Si  Si29  1  0.714922  0.633547  0.145530  1
  Si  Si30  1  0.285078  0.866453  0.645530  1
  Si  Si31  1  0.000000  0.874937  0.791630  1
  Si  Si32  1  0.285078  0.133547  0.354470  1
  Si  Si33  1  0.000000  0.125063  0.208370  1
  Si  Si34  1  0.285078  0.366453  0.854470  1
  Si  Si35  1  0.714922  0.133547  0.354470  1
  Si  Si36  1  0.285078  0.633547  0.145530  1
  Si  Si37  1  0.000000  0.625063  0.291630  1
  Si  Si38  1  0.000000  0.374937  0.708370  1
  Si  Si39  1  0.714922  0.866453  0.645530  1
  O  O40  1  0.756755  0.257646  0.875859  1
  O  O41  1  0.500000  0.791946  0.014386  1
  O  O42  1  0.500000  0.208054  0.985614  1
  O  O43  1  0.500000  0.291946  0.485614  1
  O  O44  1  0.500000  0.708054  0.514386  1
  O  O45  1  0.774605  0.093766  0.948899  1
  O  O46  1  0.774605  0.906234  0.051101  1
  O  O47  1  0.225395  0.593766  0.551101  1
  O  O48  1  0.225395  0.406234  0.448899  1
  O  O49  1  0.225395  0.906234  0.051101  1
  O  O50  1  0.225395  0.093766  0.948899  1
  O  O51  1  0.774605  0.406234  0.448899  1
  O  O52  1  0.774605  0.593766  0.551101  1
  O  O53  1  0.756755  0.742354  0.124141  1
  O  O54  1  0.243245  0.757646  0.624141  1
  O  O55  1  0.243245  0.242354  0.375859  1
  O  O56  1  0.243245  0.742354  0.124141  1
  O  O57  1  0.500000  0.624781  0.171969  1
  O  O58  1  0.756755  0.242354  0.375859  1
  O  O59  1  0.756755  0.757646  0.624141  1
  O  O60  1  0.764174  0.431704  0.930843  1
  O  O61  1  0.764174  0.568296  0.069157  1
  O  O62  1  0.235826  0.931704  0.569157  1
  O  O63  1  0.235826  0.068296  0.430843  1
  O  O64  1  0.235826  0.568296  0.069157  1
  O  O65  1  0.243245  0.257646  0.875859  1
  O  O66  1  0.764174  0.068296  0.430843  1
  O  O67  1  0.764174  0.931704  0.569157  1
  O  O68  1  0.816385  0.754195  0.958811  1
  O  O69  1  0.816385  0.245805  0.041189  1
  O  O70  1  0.183615  0.254195  0.541189  1
  O  O71  1  0.183615  0.745805  0.458811  1
  O  O72  1  0.183615  0.245805  0.041189  1
  O  O73  1  0.183615  0.754195  0.958811  1
  O  O74  1  0.816385  0.745805  0.458811  1
  O  O75  1  0.816385  0.254195  0.541189  1
  O  O76  1  0.000000  0.610528  0.899826  1
  O  O77  1  0.000000  0.389472  0.100174  1
  O  O78  1  0.000000  0.110528  0.600174  1
  O  O79  1  0.000000  0.889472  0.399826  1
  O  O80  1  0.000000  0.766620  0.817863  1
  O  O81  1  0.000000  0.233380  0.182137  1
  O  O82  1  0.000000  0.266620  0.682137  1
  O  O83  1  0.000000  0.733380  0.317863  1
  O  O84  1  0.000000  0.942474  0.869597  1
  O  O85  1  0.000000  0.057526  0.130403  1
  O  O86  1  0.000000  0.442474  0.630403  1
  O  O87  1  0.000000  0.557526  0.369597  1
  O  O88  1  0.818812  0.891310  0.733522  1
  O  O89  1  0.818812  0.108690  0.266478  1
  O  O90  1  0.181188  0.391310  0.766478  1
  O  O91  1  0.181188  0.608690  0.233522  1
  O  O92  1  0.181188  0.108690  0.266478  1
  O  O93  1  0.181188  0.891310  0.733522  1
  O  O94  1  0.818812  0.608690  0.233522  1
  O  O95  1  0.818812  0.391310  0.766478  1
  O  O96  1  0.500000  0.875219  0.671969  1
  O  O97  1  0.500000  0.124781  0.328031  1
  O  O98  1  0.500000  0.375219  0.828031  1
  O  O99  1  0.235826  0.431704  0.930843  1
