# generated using pymatgen
data_MgMn3Fe2(B2Rh5)2
_symmetry_space_group_name_H-M   'P 1'
_cell_length_a   9.33461893
_cell_length_b   9.33461893
_cell_length_c   2.93923700
_cell_angle_alpha   90.00000000
_cell_angle_beta   90.00000000
_cell_angle_gamma   89.71471830
_symmetry_Int_Tables_number   1
_chemical_formula_structural   MgMn3Fe2(B2Rh5)2
_chemical_formula_sum   'Mg1 Mn3 Fe2 B4 Rh10'
_cell_volume   256.10756616
_cell_formula_units_Z   1
loop_
 _symmetry_equiv_pos_site_id
 _symmetry_equiv_pos_as_xyz
  1  'x, y, z'
loop_
 _atom_site_type_symbol
 _atom_site_label
 _atom_site_symmetry_multiplicity
 _atom_site_fract_x
 _atom_site_fract_y
 _atom_site_fract_z
 _atom_site_occupancy
  Mg  Mg0  1  0.823644  0.323644  0.000000  1
  Mn  Mn1  1  0.323505  0.177422  0.000000  1
  Mn  Mn2  1  0.677422  0.823505  0.000000  1
  Mn  Mn3  1  0.177562  0.677562  0.000000  1
  Fe  Fe4  1  0.999129  0.001843  0.000000  1
  Fe  Fe5  1  0.501843  0.499129  0.000000  1
  B  B6  1  0.624596  0.124596  0.000000  1
  B  B7  1  0.127930  0.373729  0.000000  1
  B  B8  1  0.873729  0.627930  0.000000  1
  B  B9  1  0.371653  0.871653  0.000000  1
  Rh  Rh10  1  0.074911  0.214245  0.500000  1
  Rh  Rh11  1  0.213651  0.929163  0.500000  1
  Rh  Rh12  1  0.782836  0.066025  0.500000  1
  Rh  Rh13  1  0.930578  0.786452  0.500000  1
  Rh  Rh14  1  0.429163  0.713651  0.500000  1
  Rh  Rh15  1  0.566025  0.282836  0.500000  1
  Rh  Rh16  1  0.714245  0.574911  0.500000  1
  Rh  Rh17  1  0.286452  0.430578  0.500000  1
  Rh  Rh18  1  0.498395  0.998395  0.500000  1
  Rh  Rh19  1  0.002730  0.502730  0.500000  1
