# generated using pymatgen
data_Tb4HfW3F28
_symmetry_space_group_name_H-M   'P 1'
_cell_length_a   5.68195701
_cell_length_b   9.01920821
_cell_length_c   12.12873100
_cell_angle_alpha   62.43525129
_cell_angle_beta   90.00265204
_cell_angle_gamma   90.03668132
_symmetry_Int_Tables_number   1
_chemical_formula_structural   Tb4HfW3F28
_chemical_formula_sum   'Tb4 Hf1 W3 F28'
_cell_volume   551.00393151
_cell_formula_units_Z   1
loop_
 _symmetry_equiv_pos_site_id
 _symmetry_equiv_pos_as_xyz
  1  'x, y, z'
loop_
 _atom_site_type_symbol
 _atom_site_label
 _atom_site_symmetry_multiplicity
 _atom_site_fract_x
 _atom_site_fract_y
 _atom_site_fract_z
 _atom_site_occupancy
  Tb  Tb0  1  0.253213  0.813629  0.267918  1
  Tb  Tb1  1  0.746578  0.185284  0.733598  1
  Tb  Tb2  1  0.754326  0.186983  0.233530  1
  Tb  Tb3  1  0.244692  0.814377  0.765749  1
  Hf  Hf4  1  0.753876  0.725615  0.044388  1
  W  W5  1  0.246130  0.273014  0.955855  1
  W  W6  1  0.254634  0.273335  0.456438  1
  W  W7  1  0.744512  0.726316  0.544539  1
  F  F8  1  0.960692  0.706706  0.416388  1
  F  F9  1  0.035933  0.294983  0.580766  1
  F  F10  1  0.465715  0.293758  0.082167  1
  F  F11  1  0.534484  0.709259  0.921644  1
  F  F12  1  0.482506  0.732173  0.147375  1
  F  F13  1  0.526705  0.268113  0.858786  1
  F  F14  1  0.972021  0.267814  0.359313  1
  F  F15  1  0.026992  0.732203  0.640059  1
  F  F16  1  0.964836  0.748345  0.169111  1
  F  F17  1  0.035567  0.254066  0.825722  1
  F  F18  1  0.466228  0.254186  0.328163  1
  F  F19  1  0.537609  0.744414  0.676693  1
  F  F20  1  0.775734  0.477108  0.141698  1
  F  F21  1  0.228278  0.521066  0.857688  1
  F  F22  1  0.266383  0.521882  0.357551  1
  F  F23  1  0.728323  0.478511  0.642485  1
  F  F24  1  0.954063  0.280835  0.046229  1
  F  F25  1  0.043227  0.717979  0.950491  1
  F  F26  1  0.452079  0.716611  0.455122  1
  F  F27  1  0.548472  0.282446  0.546477  1
  F  F28  1  0.738091  0.974296  0.447251  1
  F  F29  1  0.263968  0.024343  0.552708  1
  F  F30  1  0.239892  0.024825  0.053993  1
  F  F31  1  0.758717  0.974539  0.942345  1
  F  F32  1  0.575829  0.968913  0.235920  1
  F  F33  1  0.421269  0.030737  0.765332  1
  F  F34  1  0.076654  0.031117  0.266547  1
  F  F35  1  0.921776  0.970219  0.729960  1
