# generated using pymatgen
data_Y2Th3Ir2Ru
_symmetry_space_group_name_H-M   'P 1'
_cell_length_a   11.26323300
_cell_length_b   11.13638300
_cell_length_c   6.41349500
_cell_angle_alpha   90.00000000
_cell_angle_beta   90.00000000
_cell_angle_gamma   90.00000000
_symmetry_Int_Tables_number   1
_chemical_formula_structural   Y2Th3Ir2Ru
_chemical_formula_sum   'Y8 Th12 Ir8 Ru4'
_cell_volume   804.45543011
_cell_formula_units_Z   4
loop_
 _symmetry_equiv_pos_site_id
 _symmetry_equiv_pos_as_xyz
  1  'x, y, z'
loop_
 _atom_site_type_symbol
 _atom_site_label
 _atom_site_symmetry_multiplicity
 _atom_site_fract_x
 _atom_site_fract_y
 _atom_site_fract_z
 _atom_site_occupancy
  Y  Y0  1  0.912797  0.713841  0.114233  1
  Y  Y1  1  0.912797  0.286159  0.614233  1
  Y  Y2  1  0.087203  0.713841  0.614233  1
  Y  Y3  1  0.087203  0.286159  0.114233  1
  Y  Y4  1  0.000000  0.000000  0.493071  1
  Y  Y5  1  0.000000  0.000000  0.993071  1
  Y  Y6  1  0.500000  0.500000  0.020255  1
  Y  Y7  1  0.500000  0.500000  0.520255  1
  Th  Th8  1  0.290363  0.091108  0.381805  1
  Th  Th9  1  0.290363  0.908892  0.881805  1
  Th  Th10  1  0.709637  0.091108  0.881805  1
  Th  Th11  1  0.709637  0.908892  0.381805  1
  Th  Th12  1  0.591270  0.787787  0.885480  1
  Th  Th13  1  0.591270  0.212213  0.385480  1
  Th  Th14  1  0.408730  0.787787  0.385480  1
  Th  Th15  1  0.408730  0.212213  0.885480  1
  Th  Th16  1  0.199895  0.411018  0.613186  1
  Th  Th17  1  0.199895  0.588982  0.113186  1
  Th  Th18  1  0.800105  0.411018  0.113186  1
  Th  Th19  1  0.800105  0.588982  0.613186  1
  Ir  Ir20  1  0.843178  0.152402  0.241028  1
  Ir  Ir21  1  0.843178  0.847598  0.741028  1
  Ir  Ir22  1  0.156822  0.152402  0.741028  1
  Ir  Ir23  1  0.156822  0.847598  0.241028  1
  Ir  Ir24  1  0.654101  0.342128  0.762445  1
  Ir  Ir25  1  0.654101  0.657872  0.262445  1
  Ir  Ir26  1  0.345899  0.342128  0.262445  1
  Ir  Ir27  1  0.345899  0.657872  0.762445  1
  Ru  Ru28  1  0.500000  0.000000  0.116053  1
  Ru  Ru29  1  0.500000  0.000000  0.616053  1
  Ru  Ru30  1  0.000000  0.500000  0.874268  1
  Ru  Ru31  1  0.000000  0.500000  0.374268  1
