# generated using pymatgen
data_Pr17Pa3Rh16
_symmetry_space_group_name_H-M   'P 1'
_cell_length_a   7.65176322
_cell_length_b   7.69198484
_cell_length_c   14.87376100
_cell_angle_alpha   90.06985453
_cell_angle_beta   89.95639036
_cell_angle_gamma   90.10985543
_symmetry_Int_Tables_number   1
_chemical_formula_structural   Pr17Pa3Rh16
_chemical_formula_sum   'Pr17 Pa3 Rh16'
_cell_volume   875.42610836
_cell_formula_units_Z   1
loop_
 _symmetry_equiv_pos_site_id
 _symmetry_equiv_pos_as_xyz
  1  'x, y, z'
loop_
 _atom_site_type_symbol
 _atom_site_label
 _atom_site_symmetry_multiplicity
 _atom_site_fract_x
 _atom_site_fract_y
 _atom_site_fract_z
 _atom_site_occupancy
  Pr  Pr0  1  0.834411  0.660194  0.379547  1
  Pr  Pr1  1  0.334226  0.837837  0.379459  1
  Pr  Pr2  1  0.836125  0.661401  0.118270  1
  Pr  Pr3  1  0.662118  0.159976  0.880910  1
  Pr  Pr4  1  0.164207  0.336623  0.621400  1
  Pr  Pr5  1  0.513036  0.681184  0.593008  1
  Pr  Pr6  1  0.016011  0.818052  0.906402  1
  Pr  Pr7  1  0.486134  0.320665  0.094949  1
  Pr  Pr8  1  0.987260  0.187438  0.406690  1
  Pr  Pr9  1  0.485552  0.319271  0.408956  1
  Pr  Pr10  1  0.985430  0.179235  0.092007  1
  Pr  Pr11  1  0.510984  0.676734  0.909289  1
  Pr  Pr12  1  0.013031  0.821089  0.591713  1
  Pr  Pr13  1  0.814943  0.516560  0.748660  1
  Pr  Pr14  1  0.318141  0.982301  0.752260  1
  Pr  Pr15  1  0.173591  0.487119  0.249360  1
  Pr  Pr16  1  0.685087  0.011138  0.252460  1
  Pa  Pa17  1  0.660725  0.153439  0.625544  1
  Pa  Pa18  1  0.159862  0.344950  0.876855  1
  Pa  Pa19  1  0.336484  0.844935  0.121598  1
  Rh  Rh20  1  0.694387  0.975915  0.474058  1
  Rh  Rh21  1  0.202191  0.545231  0.028844  1
  Rh  Rh22  1  0.296127  0.052186  0.967821  1
  Rh  Rh23  1  0.796589  0.427810  0.543740  1
  Rh  Rh24  1  0.345911  0.035673  0.549484  1
  Rh  Rh25  1  0.857119  0.457643  0.950334  1
  Rh  Rh26  1  0.634616  0.957576  0.050341  1
  Rh  Rh27  1  0.169017  0.529813  0.455767  1
  Rh  Rh28  1  0.459655  0.362183  0.751541  1
  Rh  Rh29  1  0.965611  0.138787  0.756433  1
  Rh  Rh30  1  0.526684  0.632877  0.238160  1
  Rh  Rh31  1  0.063594  0.879568  0.233128  1
  Rh  Rh32  1  0.705686  0.887646  0.737878  1
  Rh  Rh33  1  0.200840  0.615939  0.761704  1
  Rh  Rh34  1  0.317072  0.133960  0.243053  1
  Rh  Rh35  1  0.787542  0.367052  0.248372  1
