# generated using pymatgen
data_Dy9ErRu6
_symmetry_space_group_name_H-M   'P 1'
_cell_length_a   10.80292000
_cell_length_b   10.80292000
_cell_length_c   6.37322200
_cell_angle_alpha   90.00000000
_cell_angle_beta   90.00000000
_cell_angle_gamma   90.00000000
_symmetry_Int_Tables_number   1
_chemical_formula_structural   Dy9ErRu6
_chemical_formula_sum   'Dy18 Er2 Ru12'
_cell_volume   743.77464028
_cell_formula_units_Z   2
loop_
 _symmetry_equiv_pos_site_id
 _symmetry_equiv_pos_as_xyz
  1  'x, y, z'
loop_
 _atom_site_type_symbol
 _atom_site_label
 _atom_site_symmetry_multiplicity
 _atom_site_fract_x
 _atom_site_fract_y
 _atom_site_fract_z
 _atom_site_occupancy
  Dy  Dy0  1  0.291507  0.086747  0.378792  1
  Dy  Dy1  1  0.291507  0.913253  0.878792  1
  Dy  Dy2  1  0.708493  0.086747  0.878792  1
  Dy  Dy3  1  0.708493  0.913253  0.378792  1
  Dy  Dy4  1  0.586795  0.791990  0.878857  1
  Dy  Dy5  1  0.586795  0.208010  0.378857  1
  Dy  Dy6  1  0.413205  0.791990  0.378857  1
  Dy  Dy7  1  0.413205  0.208010  0.878857  1
  Dy  Dy8  1  0.208010  0.413205  0.621143  1
  Dy  Dy9  1  0.208010  0.586795  0.121143  1
  Dy  Dy10  1  0.791990  0.413205  0.121143  1
  Dy  Dy11  1  0.791990  0.586795  0.621143  1
  Dy  Dy12  1  0.913253  0.708493  0.121208  1
  Dy  Dy13  1  0.913253  0.291507  0.621208  1
  Dy  Dy14  1  0.086747  0.708493  0.621208  1
  Dy  Dy15  1  0.086747  0.291507  0.121208  1
  Dy  Dy16  1  0.500000  0.500000  0.000000  1
  Dy  Dy17  1  0.500000  0.500000  0.500000  1
  Er  Er18  1  0.000000  0.000000  0.500000  1
  Er  Er19  1  0.000000  0.000000  0.000000  1
  Ru  Ru20  1  0.847584  0.152416  0.250000  1
  Ru  Ru21  1  0.847584  0.847584  0.750000  1
  Ru  Ru22  1  0.152416  0.152416  0.750000  1
  Ru  Ru23  1  0.152416  0.847584  0.250000  1
  Ru  Ru24  1  0.653195  0.346805  0.750000  1
  Ru  Ru25  1  0.653195  0.653195  0.250000  1
  Ru  Ru26  1  0.346805  0.346805  0.250000  1
  Ru  Ru27  1  0.346805  0.653195  0.750000  1
  Ru  Ru28  1  0.500000  0.000000  0.126734  1
  Ru  Ru29  1  0.500000  0.000000  0.626734  1
  Ru  Ru30  1  0.000000  0.500000  0.873266  1
  Ru  Ru31  1  0.000000  0.500000  0.373266  1
