# generated using pymatgen
data_Mn6Nb6Al5Ir
_symmetry_space_group_name_H-M   'P 1'
_cell_length_a   8.59197600
_cell_length_b   8.59197458
_cell_length_c   8.09569900
_cell_angle_alpha   90.00000000
_cell_angle_beta   90.00000000
_cell_angle_gamma   119.99999007
_symmetry_Int_Tables_number   1
_chemical_formula_structural   Mn6Nb6Al5Ir
_chemical_formula_sum   'Mn12 Nb12 Al10 Ir2'
_cell_volume   517.57234919
_cell_formula_units_Z   2
loop_
 _symmetry_equiv_pos_site_id
 _symmetry_equiv_pos_as_xyz
  1  'x, y, z'
loop_
 _atom_site_type_symbol
 _atom_site_label
 _atom_site_symmetry_multiplicity
 _atom_site_fract_x
 _atom_site_fract_y
 _atom_site_fract_z
 _atom_site_occupancy
  Mn  Mn0  1  0.166106  0.505986  0.750000  1
  Mn  Mn1  1  0.833894  0.494014  0.250000  1
  Mn  Mn2  1  0.494014  0.660121  0.750000  1
  Mn  Mn3  1  0.505986  0.166106  0.750000  1
  Mn  Mn4  1  0.505986  0.339879  0.250000  1
  Mn  Mn5  1  0.494014  0.833894  0.250000  1
  Mn  Mn6  1  0.339879  0.833894  0.750000  1
  Mn  Mn7  1  0.660121  0.494014  0.750000  1
  Mn  Mn8  1  0.660121  0.166106  0.250000  1
  Mn  Mn9  1  0.339879  0.505986  0.250000  1
  Mn  Mn10  1  0.833894  0.339879  0.750000  1
  Mn  Mn11  1  0.166106  0.660121  0.250000  1
  Nb  Nb12  1  0.338569  0.000000  0.058907  1
  Nb  Nb13  1  0.661431  0.000000  0.941093  1
  Nb  Nb14  1  0.000000  0.338569  0.058907  1
  Nb  Nb15  1  0.661431  0.000000  0.558907  1
  Nb  Nb16  1  0.000000  0.338569  0.441093  1
  Nb  Nb17  1  0.000000  0.661431  0.941093  1
  Nb  Nb18  1  0.338569  0.000000  0.441093  1
  Nb  Nb19  1  0.000000  0.661431  0.558907  1
  Nb  Nb20  1  0.661431  0.661431  0.058907  1
  Nb  Nb21  1  0.338569  0.338569  0.941093  1
  Nb  Nb22  1  0.338569  0.338569  0.558907  1
  Nb  Nb23  1  0.661431  0.661431  0.441093  1
  Al  Al24  1  0.333333  0.666667  0.500000  1
  Al  Al25  1  0.666667  0.333333  0.500000  1
  Al  Al26  1  0.666667  0.333333  0.000000  1
  Al  Al27  1  0.333333  0.666667  0.000000  1
  Al  Al28  1  0.179777  0.000000  0.750000  1
  Al  Al29  1  0.820223  0.000000  0.250000  1
  Al  Al30  1  0.000000  0.179777  0.750000  1
  Al  Al31  1  0.000000  0.820223  0.250000  1
  Al  Al32  1  0.820223  0.820223  0.750000  1
  Al  Al33  1  0.179777  0.179777  0.250000  1
  Ir  Ir34  1  0.000000  0.000000  0.500000  1
  Ir  Ir35  1  0.000000  0.000000  0.000000  1
