# generated using pymatgen
data_Tb4Al18(CoPt)3
_symmetry_space_group_name_H-M   'P 1'
_cell_length_a   7.52063545
_cell_length_b   7.52063752
_cell_length_c   9.39223402
_cell_angle_alpha   90.12250587
_cell_angle_beta   90.12250061
_cell_angle_gamma   119.57094021
_symmetry_Int_Tables_number   1
_chemical_formula_structural   Tb4Al18(CoPt)3
_chemical_formula_sum   'Tb4 Al18 Co3 Pt3'
_cell_volume   462.02586707
_cell_formula_units_Z   1
loop_
 _symmetry_equiv_pos_site_id
 _symmetry_equiv_pos_as_xyz
  1  'x, y, z'
loop_
 _atom_site_type_symbol
 _atom_site_label
 _atom_site_symmetry_multiplicity
 _atom_site_fract_x
 _atom_site_fract_y
 _atom_site_fract_z
 _atom_site_occupancy
  Tb  Tb0  1  0.505537  0.829898  0.750970  1
  Tb  Tb1  1  0.495541  0.170718  0.249468  1
  Tb  Tb2  1  0.170102  0.494463  0.249030  1
  Tb  Tb3  1  0.829282  0.504459  0.750532  1
  Al  Al4  1  0.160297  0.950210  0.744049  1
  Al  Al5  1  0.839935  0.049670  0.241065  1
  Al  Al6  1  0.049790  0.839703  0.255951  1
  Al  Al7  1  0.950330  0.160065  0.758935  1
  Al  Al8  1  0.626982  0.626572  0.241678  1
  Al  Al9  1  0.373428  0.373018  0.758322  1
  Al  Al10  1  0.168930  0.174378  0.047801  1
  Al  Al11  1  0.840599  0.834261  0.553323  1
  Al  Al12  1  0.825622  0.831070  0.952199  1
  Al  Al13  1  0.165739  0.159401  0.446677  1
  Al  Al14  1  0.506032  0.834450  0.071255  1
  Al  Al15  1  0.490304  0.156919  0.574573  1
  Al  Al16  1  0.165550  0.493968  0.928745  1
  Al  Al17  1  0.843081  0.509696  0.425427  1
  Al  Al18  1  0.510098  0.172446  0.928639  1
  Al  Al19  1  0.490435  0.834553  0.424774  1
  Al  Al20  1  0.827554  0.489902  0.071361  1
  Al  Al21  1  0.165447  0.509565  0.575226  1
  Co  Co22  1  0.500500  0.499500  0.000000  1
  Co  Co23  1  0.829490  0.170510  0.000000  1
  Co  Co24  1  0.170154  0.829846  0.500000  1
  Pt  Pt25  1  0.172288  0.827712  0.000000  1
  Pt  Pt26  1  0.499436  0.500564  0.500000  1
  Pt  Pt27  1  0.827517  0.172483  0.500000  1
