# generated using pymatgen
data_Ho2Be25Ni
_symmetry_space_group_name_H-M   'P 1'
_cell_length_a   7.22223670
_cell_length_b   7.24733145
_cell_length_c   7.20182914
_cell_angle_alpha   59.97755059
_cell_angle_beta   59.83119348
_cell_angle_gamma   59.69856135
_symmetry_Int_Tables_number   1
_chemical_formula_structural   Ho2Be25Ni
_chemical_formula_sum   'Ho2 Be25 Ni1'
_cell_volume   265.55267389
_cell_formula_units_Z   1
loop_
 _symmetry_equiv_pos_site_id
 _symmetry_equiv_pos_as_xyz
  1  'x, y, z'
loop_
 _atom_site_type_symbol
 _atom_site_label
 _atom_site_symmetry_multiplicity
 _atom_site_fract_x
 _atom_site_fract_y
 _atom_site_fract_z
 _atom_site_occupancy
  Ho  Ho0  1  0.249205  0.252321  0.250527  1
  Ho  Ho1  1  0.749473  0.752053  0.750795  1
  Be  Be2  1  0.500995  0.500567  0.499005  1
  Be  Be3  1  0.999507  0.002034  0.000493  1
  Be  Be4  1  0.203109  0.440346  0.796891  1
  Be  Be5  1  0.565784  0.790490  0.434216  1
  Be  Be6  1  0.435119  0.206858  0.564881  1
  Be  Be7  1  0.291429  0.935445  0.708571  1
  Be  Be8  1  0.707877  0.063958  0.292123  1
  Be  Be9  1  0.934874  0.288260  0.065126  1
  Be  Be10  1  0.067165  0.714779  0.932835  1
  Be  Be11  1  0.206649  0.795985  0.560816  1
  Be  Be12  1  0.792854  0.204174  0.439186  1
  Be  Be13  1  0.439184  0.563451  0.793351  1
  Be  Be14  1  0.560814  0.436213  0.207146  1
  Be  Be15  1  0.710800  0.285835  0.935698  1
  Be  Be16  1  0.287963  0.711712  0.064642  1
  Be  Be17  1  0.064302  0.932334  0.289200  1
  Be  Be18  1  0.935358  0.064317  0.712037  1
  Be  Be19  1  0.560667  0.208893  0.792614  1
  Be  Be20  1  0.436281  0.791423  0.207996  1
  Be  Be21  1  0.792004  0.435700  0.563719  1
  Be  Be22  1  0.207386  0.562174  0.439333  1
  Be  Be23  1  0.937118  0.710576  0.289503  1
  Be  Be24  1  0.064816  0.289221  0.709776  1
  Be  Be25  1  0.290224  0.063813  0.935184  1
  Be  Be26  1  0.710497  0.937196  0.062882  1
  Ni  Ni27  1  0.798546  0.559870  0.201454  1
