# generated using pymatgen
data_NaYAlPt3
_symmetry_space_group_name_H-M   'P 1'
_cell_length_a   5.55045969
_cell_length_b   5.55045881
_cell_length_c   5.17630200
_cell_angle_alpha   57.57864549
_cell_angle_beta   57.57863909
_cell_angle_gamma   59.99999080
_symmetry_Int_Tables_number   1
_chemical_formula_structural   NaYAlPt3
_chemical_formula_sum   'Na1 Y1 Al1 Pt3'
_cell_volume   108.45706272
_cell_formula_units_Z   1
loop_
 _symmetry_equiv_pos_site_id
 _symmetry_equiv_pos_as_xyz
  1  'x, y, z'
loop_
 _atom_site_type_symbol
 _atom_site_label
 _atom_site_symmetry_multiplicity
 _atom_site_fract_x
 _atom_site_fract_y
 _atom_site_fract_z
 _atom_site_occupancy
  Na  Na0  1  0.750548  0.750548  0.748358  1
  Y  Y1  1  0.502624  0.502624  0.492128  1
  Al  Al2  1  0.124169  0.124169  0.627493  1
  Pt  Pt3  1  0.123221  0.123221  0.127340  1
  Pt  Pt4  1  0.626219  0.123221  0.127340  1
  Pt  Pt5  1  0.123221  0.626219  0.127340  1
