# generated using pymatgen
data_Pr3AgSn3Ir2
_symmetry_space_group_name_H-M   'P 1'
_cell_length_a   7.69208700
_cell_length_b   7.69208783
_cell_length_c   4.17780000
_cell_angle_alpha   90.00000000
_cell_angle_beta   90.00000000
_cell_angle_gamma   119.99999212
_symmetry_Int_Tables_number   1
_chemical_formula_structural   Pr3AgSn3Ir2
_chemical_formula_sum   'Pr3 Ag1 Sn3 Ir2'
_cell_volume   214.07538510
_cell_formula_units_Z   1
loop_
 _symmetry_equiv_pos_site_id
 _symmetry_equiv_pos_as_xyz
  1  'x, y, z'
loop_
 _atom_site_type_symbol
 _atom_site_label
 _atom_site_symmetry_multiplicity
 _atom_site_fract_x
 _atom_site_fract_y
 _atom_site_fract_z
 _atom_site_occupancy
  Pr  Pr0  1  0.599876  0.016371  0.000000  1
  Pr  Pr1  1  0.983629  0.583505  0.000000  1
  Pr  Pr2  1  0.416495  0.400124  0.000000  1
  Ag  Ag3  1  0.333333  0.666667  0.500000  1
  Sn  Sn4  1  0.248896  0.003274  0.500000  1
  Sn  Sn5  1  0.996726  0.245622  0.500000  1
  Sn  Sn6  1  0.754378  0.751104  0.500000  1
  Ir  Ir7  1  0.666667  0.333333  0.500000  1
  Ir  Ir8  1  0.000000  0.000000  0.000000  1
