# generated using pymatgen
data_TbCeMnN3
_symmetry_space_group_name_H-M   'P 1'
_cell_length_a   3.42934052
_cell_length_b   3.78114961
_cell_length_c   6.66776414
_cell_angle_alpha   106.47155682
_cell_angle_beta   104.89980280
_cell_angle_gamma   90.00001776
_symmetry_Int_Tables_number   1
_chemical_formula_structural   TbCeMnN3
_chemical_formula_sum   'Tb1 Ce1 Mn1 N3'
_cell_volume   79.87555335
_cell_formula_units_Z   1
loop_
 _symmetry_equiv_pos_site_id
 _symmetry_equiv_pos_as_xyz
  1  'x, y, z'
loop_
 _atom_site_type_symbol
 _atom_site_label
 _atom_site_symmetry_multiplicity
 _atom_site_fract_x
 _atom_site_fract_y
 _atom_site_fract_z
 _atom_site_occupancy
  Tb  Tb0  1  0.644547  0.644533  0.289067  1
  Ce  Ce1  1  0.352651  0.352629  0.705258  1
  Mn  Mn2  1  0.002334  0.002319  0.004637  1
  N  N3  1  0.998686  0.498699  0.997400  1
  N  N4  1  0.163948  0.163960  0.327919  1
  N  N5  1  0.837835  0.837859  0.675719  1
