# generated using pymatgen
data_Nd8Hf12Si15As
_symmetry_space_group_name_H-M   'P 1'
_cell_length_a   7.38210179
_cell_length_b   7.39168331
_cell_length_c   13.60927608
_cell_angle_alpha   89.71086897
_cell_angle_beta   89.95414097
_cell_angle_gamma   89.89950651
_symmetry_Int_Tables_number   1
_chemical_formula_structural   Nd8Hf12Si15As
_chemical_formula_sum   'Nd8 Hf12 Si15 As1'
_cell_volume   742.59508632
_cell_formula_units_Z   1
loop_
 _symmetry_equiv_pos_site_id
 _symmetry_equiv_pos_as_xyz
  1  'x, y, z'
loop_
 _atom_site_type_symbol
 _atom_site_label
 _atom_site_symmetry_multiplicity
 _atom_site_fract_x
 _atom_site_fract_y
 _atom_site_fract_z
 _atom_site_occupancy
  Nd  Nd0  1  0.995234  0.343570  0.215708  1
  Nd  Nd1  1  0.006571  0.657746  0.715421  1
  Nd  Nd2  1  0.154121  0.497537  0.466450  1
  Nd  Nd3  1  0.508649  0.840835  0.033856  1
  Nd  Nd4  1  0.843014  0.504756  0.965019  1
  Nd  Nd5  1  0.494716  0.156552  0.535003  1
  Nd  Nd6  1  0.343606  0.994576  0.785070  1
  Nd  Nd7  1  0.655414  0.005947  0.284141  1
  Hf  Hf8  1  0.174421  0.175219  0.000114  1
  Hf  Hf9  1  0.826077  0.826584  0.499970  1
  Hf  Hf10  1  0.324453  0.678090  0.249782  1
  Hf  Hf11  1  0.674316  0.325445  0.750077  1
  Hf  Hf12  1  0.151621  0.994253  0.372433  1
  Hf  Hf13  1  0.849145  0.005716  0.874163  1
  Hf  Hf14  1  0.504827  0.652022  0.624156  1
  Hf  Hf15  1  0.349145  0.494470  0.875990  1
  Hf  Hf16  1  0.493040  0.345701  0.124754  1
  Hf  Hf17  1  0.655278  0.508544  0.377586  1
  Hf  Hf18  1  0.994844  0.151963  0.626103  1
  Hf  Hf19  1  0.002209  0.845529  0.124686  1
  Si  Si20  1  0.634524  0.703593  0.814271  1
  Si  Si21  1  0.202825  0.866941  0.563981  1
  Si  Si22  1  0.134382  0.795947  0.934723  1
  Si  Si23  1  0.796155  0.135127  0.065198  1
  Si  Si24  1  0.865984  0.203139  0.434844  1
  Si  Si25  1  0.296933  0.365294  0.685154  1
  Si  Si26  1  0.701586  0.632664  0.186282  1
  Si  Si27  1  0.289328  0.038526  0.179553  1
  Si  Si28  1  0.708739  0.950360  0.685578  1
  Si  Si29  1  0.450648  0.792484  0.435728  1
  Si  Si30  1  0.208255  0.548364  0.064614  1
  Si  Si31  1  0.549818  0.207813  0.935810  1
  Si  Si32  1  0.791099  0.450805  0.565406  1
  Si  Si33  1  0.050171  0.291882  0.814187  1
  Si  Si34  1  0.950785  0.708902  0.314606  1
  As  As35  1  0.368068  0.303104  0.319580  1
