# generated using pymatgen
data_Nd5AlTl2
_symmetry_space_group_name_H-M   'P 1'
_cell_length_a   9.41693754
_cell_length_b   9.41693773
_cell_length_c   9.41693817
_cell_angle_alpha   96.09321804
_cell_angle_beta   96.09322292
_cell_angle_gamma   141.97176574
_symmetry_Int_Tables_number   1
_chemical_formula_structural   Nd5AlTl2
_chemical_formula_sum   'Nd10 Al2 Tl4'
_cell_volume   486.38262343
_cell_formula_units_Z   2
loop_
 _symmetry_equiv_pos_site_id
 _symmetry_equiv_pos_as_xyz
  1  'x, y, z'
loop_
 _atom_site_type_symbol
 _atom_site_label
 _atom_site_symmetry_multiplicity
 _atom_site_fract_x
 _atom_site_fract_y
 _atom_site_fract_z
 _atom_site_occupancy
  Nd  Nd0  1  0.214060  0.916671  0.130731  1
  Nd  Nd1  1  0.416671  0.714060  0.130731  1
  Nd  Nd2  1  0.083329  0.214060  0.297389  1
  Nd  Nd3  1  0.714060  0.583329  0.297389  1
  Nd  Nd4  1  0.749999  0.249999  0.500000  1
  Nd  Nd5  1  0.249999  0.749999  0.500000  1
  Nd  Nd6  1  0.285940  0.416671  0.702611  1
  Nd  Nd7  1  0.916671  0.785940  0.702611  1
  Nd  Nd8  1  0.785940  0.083329  0.869269  1
  Nd  Nd9  1  0.583328  0.285940  0.869268  1
  Al  Al10  1  0.249999  0.249999  0.000000  1
  Al  Al11  1  0.749999  0.749999  0.000000  1
  Tl  Tl12  1  0.839182  0.339182  0.178364  1
  Tl  Tl13  1  0.339182  0.160818  0.499999  1
  Tl  Tl14  1  0.660818  0.839182  0.499999  1
  Tl  Tl15  1  0.160818  0.660818  0.821636  1
