# generated using pymatgen
data_Pr2Ga7Co2Ag
_symmetry_space_group_name_H-M   'P 1'
_cell_length_a   4.18699846
_cell_length_b   6.55507366
_cell_length_c   8.27847923
_cell_angle_alpha   90.90225457
_cell_angle_beta   104.64828713
_cell_angle_gamma   89.99999174
_symmetry_Int_Tables_number   1
_chemical_formula_structural   Pr2Ga7Co2Ag
_chemical_formula_sum   'Pr2 Ga7 Co2 Ag1'
_cell_volume   219.79750877
_cell_formula_units_Z   1
loop_
 _symmetry_equiv_pos_site_id
 _symmetry_equiv_pos_as_xyz
  1  'x, y, z'
loop_
 _atom_site_type_symbol
 _atom_site_label
 _atom_site_symmetry_multiplicity
 _atom_site_fract_x
 _atom_site_fract_y
 _atom_site_fract_z
 _atom_site_occupancy
  Pr  Pr0  1  0.880794  0.762054  0.761588  1
  Pr  Pr1  1  0.119206  0.237946  0.238412  1
  Ga  Ga2  1  0.500000  0.000000  0.000000  1
  Ga  Ga3  1  0.075093  0.736917  0.150186  1
  Ga  Ga4  1  0.924907  0.263083  0.849814  1
  Ga  Ga5  1  0.690008  0.549265  0.380017  1
  Ga  Ga6  1  0.309992  0.450735  0.619983  1
  Ga  Ga7  1  0.691196  0.945565  0.382393  1
  Ga  Ga8  1  0.308804  0.054435  0.617607  1
  Co  Co9  1  0.222265  0.749223  0.444531  1
  Co  Co10  1  0.777735  0.250777  0.555469  1
  Ag  Ag11  1  0.500000  0.500000  0.000000  1
