# generated using pymatgen
data_Be3NbCuRu
_symmetry_space_group_name_H-M   'P 1'
_cell_length_a   4.52619371
_cell_length_b   4.52619313
_cell_length_c   4.52619316
_cell_angle_alpha   60.55297947
_cell_angle_beta   60.55298645
_cell_angle_gamma   60.55298093
_symmetry_Int_Tables_number   1
_chemical_formula_structural   Be3NbCuRu
_chemical_formula_sum   'Be3 Nb1 Cu1 Ru1'
_cell_volume   66.38597483
_cell_formula_units_Z   1
loop_
 _symmetry_equiv_pos_site_id
 _symmetry_equiv_pos_as_xyz
  1  'x, y, z'
loop_
 _atom_site_type_symbol
 _atom_site_label
 _atom_site_symmetry_multiplicity
 _atom_site_fract_x
 _atom_site_fract_y
 _atom_site_fract_z
 _atom_site_occupancy
  Be  Be0  1  0.621433  0.125156  0.125156  1
  Be  Be1  1  0.125156  0.621433  0.125156  1
  Be  Be2  1  0.125156  0.125156  0.621433  1
  Nb  Nb3  1  0.748221  0.748221  0.748221  1
  Cu  Cu4  1  0.122856  0.122856  0.122856  1
  Ru  Ru5  1  0.507179  0.507179  0.507179  1
