# generated using pymatgen
data_Tm4ScPPb3
_symmetry_space_group_name_H-M   'P 1'
_cell_length_a   8.99146900
_cell_length_b   8.99146826
_cell_length_c   6.57858900
_cell_angle_alpha   90.00000000
_cell_angle_beta   90.00000000
_cell_angle_gamma   119.99999906
_symmetry_Int_Tables_number   1
_chemical_formula_structural   Tm4ScPPb3
_chemical_formula_sum   'Tm8 Sc2 P2 Pb6'
_cell_volume   460.60076713
_cell_formula_units_Z   2
loop_
 _symmetry_equiv_pos_site_id
 _symmetry_equiv_pos_as_xyz
  1  'x, y, z'
loop_
 _atom_site_type_symbol
 _atom_site_label
 _atom_site_symmetry_multiplicity
 _atom_site_fract_x
 _atom_site_fract_y
 _atom_site_fract_z
 _atom_site_occupancy
  Tm  Tm0  1  0.760678  0.760678  0.249083  1
  Tm  Tm1  1  0.239322  0.000000  0.249083  1
  Tm  Tm2  1  0.000000  0.239322  0.249083  1
  Tm  Tm3  1  0.239322  0.239322  0.750917  1
  Tm  Tm4  1  0.760678  0.000000  0.750917  1
  Tm  Tm5  1  0.000000  0.760678  0.750917  1
  Tm  Tm6  1  0.666667  0.333333  0.500000  1
  Tm  Tm7  1  0.333333  0.666667  0.500000  1
  Sc  Sc8  1  0.333333  0.666667  0.000000  1
  Sc  Sc9  1  0.666667  0.333333  0.000000  1
  P  P10  1  0.000000  0.000000  0.500000  1
  P  P11  1  0.000000  0.000000  0.000000  1
  Pb  Pb12  1  0.402033  0.402033  0.245556  1
  Pb  Pb13  1  0.597967  0.000000  0.245556  1
  Pb  Pb14  1  0.000000  0.597967  0.245556  1
  Pb  Pb15  1  0.597967  0.597967  0.754444  1
  Pb  Pb16  1  0.402033  0.000000  0.754444  1
  Pb  Pb17  1  0.000000  0.402033  0.754444  1
