# generated using pymatgen
data_DyHo15(CoAg)4
_symmetry_space_group_name_H-M   'P 1'
_cell_length_a   9.35437320
_cell_length_b   9.35437395
_cell_length_c   9.35437400
_cell_angle_alpha   59.99824762
_cell_angle_beta   59.99824427
_cell_angle_gamma   59.99824486
_symmetry_Int_Tables_number   1
_chemical_formula_structural   DyHo15(CoAg)4
_chemical_formula_sum   'Dy1 Ho15 Co4 Ag4'
_cell_volume   578.77781520
_cell_formula_units_Z   1
loop_
 _symmetry_equiv_pos_site_id
 _symmetry_equiv_pos_as_xyz
  1  'x, y, z'
loop_
 _atom_site_type_symbol
 _atom_site_label
 _atom_site_symmetry_multiplicity
 _atom_site_fract_x
 _atom_site_fract_y
 _atom_site_fract_z
 _atom_site_occupancy
  Dy  Dy0  1  0.348192  0.348192  0.348192  1
  Ho  Ho1  1  0.348115  0.348115  0.955728  1
  Ho  Ho2  1  0.348115  0.955728  0.348115  1
  Ho  Ho3  1  0.955728  0.348115  0.348115  1
  Ho  Ho4  1  0.811461  0.188604  0.188604  1
  Ho  Ho5  1  0.188763  0.811267  0.811267  1
  Ho  Ho6  1  0.188604  0.811461  0.188604  1
  Ho  Ho7  1  0.811267  0.188763  0.811267  1
  Ho  Ho8  1  0.188604  0.188604  0.811461  1
  Ho  Ho9  1  0.811267  0.811267  0.188763  1
  Ho  Ho10  1  0.937262  0.562619  0.562619  1
  Ho  Ho11  1  0.562620  0.937476  0.937476  1
  Ho  Ho12  1  0.562619  0.937262  0.562619  1
  Ho  Ho13  1  0.937476  0.562620  0.937476  1
  Ho  Ho14  1  0.562619  0.562619  0.937262  1
  Ho  Ho15  1  0.937476  0.937476  0.562620  1
  Co  Co16  1  0.141211  0.141211  0.141211  1
  Co  Co17  1  0.140872  0.140872  0.576659  1
  Co  Co18  1  0.140872  0.576659  0.140872  1
  Co  Co19  1  0.576659  0.140872  0.140872  1
  Ag  Ag20  1  0.581232  0.581232  0.581232  1
  Ag  Ag21  1  0.581388  0.581388  0.256190  1
  Ag  Ag22  1  0.581388  0.256190  0.581388  1
  Ag  Ag23  1  0.256190  0.581388  0.581388  1
