# generated using pymatgen
data_Ti10Ga3As3O
_symmetry_space_group_name_H-M   'P 1'
_cell_length_a   7.55902800
_cell_length_b   7.55902913
_cell_length_c   5.18705900
_cell_angle_alpha   90.00000000
_cell_angle_beta   90.00000000
_cell_angle_gamma   120.00000382
_symmetry_Int_Tables_number   1
_chemical_formula_structural   Ti10Ga3As3O
_chemical_formula_sum   'Ti10 Ga3 As3 O1'
_cell_volume   256.67512117
_cell_formula_units_Z   1
loop_
 _symmetry_equiv_pos_site_id
 _symmetry_equiv_pos_as_xyz
  1  'x, y, z'
loop_
 _atom_site_type_symbol
 _atom_site_label
 _atom_site_symmetry_multiplicity
 _atom_site_fract_x
 _atom_site_fract_y
 _atom_site_fract_z
 _atom_site_occupancy
  Ti  Ti0  1  0.000000  0.762248  0.255036  1
  Ti  Ti1  1  0.237752  0.237752  0.255036  1
  Ti  Ti2  1  0.762248  0.000000  0.255036  1
  Ti  Ti3  1  0.000000  0.238412  0.746190  1
  Ti  Ti4  1  0.761588  0.761588  0.746190  1
  Ti  Ti5  1  0.238412  0.000000  0.746190  1
  Ti  Ti6  1  0.333333  0.666667  0.500429  1
  Ti  Ti7  1  0.666667  0.333333  0.500429  1
  Ti  Ti8  1  0.666667  0.333333  0.999693  1
  Ti  Ti9  1  0.333333  0.666667  0.999693  1
  Ga  Ga10  1  0.000000  0.602914  0.753947  1
  Ga  Ga11  1  0.397086  0.397086  0.753947  1
  Ga  Ga12  1  0.602914  0.000000  0.753947  1
  As  As13  1  0.000000  0.398108  0.244761  1
  As  As14  1  0.601892  0.601892  0.244761  1
  As  As15  1  0.398108  0.000000  0.244761  1
  O  O16  1  0.000000  0.000000  0.499952  1
