# generated using pymatgen
data_DyTl2Ag(Pt2O7)2
_symmetry_space_group_name_H-M   'P 1'
_cell_length_a   7.33582333
_cell_length_b   7.33582169
_cell_length_c   7.24017596
_cell_angle_alpha   59.43834238
_cell_angle_beta   59.43834842
_cell_angle_gamma   59.71519990
_symmetry_Int_Tables_number   1
_chemical_formula_structural   DyTl2Ag(Pt2O7)2
_chemical_formula_sum   'Dy1 Tl2 Ag1 Pt4 O14'
_cell_volume   272.56171804
_cell_formula_units_Z   1
loop_
 _symmetry_equiv_pos_site_id
 _symmetry_equiv_pos_as_xyz
  1  'x, y, z'
loop_
 _atom_site_type_symbol
 _atom_site_label
 _atom_site_symmetry_multiplicity
 _atom_site_fract_x
 _atom_site_fract_y
 _atom_site_fract_z
 _atom_site_occupancy
  Dy  Dy0  1  0.125000  0.125000  0.125000  1
  Tl  Tl1  1  0.125000  0.625000  0.125000  1
  Tl  Tl2  1  0.625000  0.125000  0.125000  1
  Ag  Ag3  1  0.125000  0.125000  0.625000  1
  Pt  Pt4  1  0.625000  0.625000  0.625000  1
  Pt  Pt5  1  0.125000  0.625000  0.625000  1
  Pt  Pt6  1  0.625000  0.125000  0.625000  1
  Pt  Pt7  1  0.625000  0.625000  0.125000  1
  O  O8  1  0.292299  0.702843  0.710779  1
  O  O9  1  0.530146  0.962001  0.965275  1
  O  O10  1  0.702843  0.292299  0.710779  1
  O  O11  1  0.292609  0.292609  0.721799  1
  O  O12  1  0.711584  0.711584  0.286263  1
  O  O13  1  0.008840  0.008840  0.977168  1
  O  O14  1  0.287999  0.719854  0.284725  1
  O  O15  1  0.962001  0.530146  0.965275  1
  O  O16  1  0.957391  0.957391  0.528201  1
  O  O17  1  0.538416  0.538416  0.963737  1
  O  O18  1  0.241160  0.241160  0.272832  1
  O  O19  1  0.547157  0.957701  0.539221  1
  O  O20  1  0.719854  0.287999  0.284725  1
  O  O21  1  0.957701  0.547157  0.539221  1
