# generated using pymatgen
data_La7Nd3Ru3Rh
_symmetry_space_group_name_H-M   'P 1'
_cell_length_a   9.16236577
_cell_length_b   9.19526288
_cell_length_c   7.35394087
_cell_angle_alpha   85.20851459
_cell_angle_beta   85.28075724
_cell_angle_gamma   42.64091988
_symmetry_Int_Tables_number   1
_chemical_formula_structural   La7Nd3Ru3Rh
_chemical_formula_sum   'La7 Nd3 Ru3 Rh1'
_cell_volume   418.03327758
_cell_formula_units_Z   1
loop_
 _symmetry_equiv_pos_site_id
 _symmetry_equiv_pos_as_xyz
  1  'x, y, z'
loop_
 _atom_site_type_symbol
 _atom_site_label
 _atom_site_symmetry_multiplicity
 _atom_site_fract_x
 _atom_site_fract_y
 _atom_site_fract_z
 _atom_site_occupancy
  La  La0  1  0.011598  0.804368  0.913780  1
  La  La1  1  0.196635  0.988940  0.592767  1
  La  La2  1  0.986643  0.198109  0.091993  1
  La  La3  1  0.795733  0.020296  0.405230  1
  La  La4  1  0.363710  0.209418  0.818289  1
  La  La5  1  0.784912  0.638556  0.681885  1
  La  La6  1  0.641820  0.785790  0.184941  1
  Nd  Nd7  1  0.210939  0.357704  0.314722  1
  Nd  Nd8  1  0.571028  0.429444  0.750108  1
  Nd  Nd9  1  0.426578  0.573569  0.248101  1
  Ru  Ru10  1  0.396124  0.829586  0.916657  1
  Ru  Ru11  1  0.830942  0.395818  0.420831  1
  Ru  Ru12  1  0.606575  0.168951  0.079932  1
  Rh  Rh13  1  0.176763  0.599452  0.580764  1
