# generated using pymatgen
data_Nd2Er4Ga17Pd5
_symmetry_space_group_name_H-M   'P 1'
_cell_length_a   8.19444620
_cell_length_b   8.19444716
_cell_length_c   15.81024548
_cell_angle_alpha   76.29228560
_cell_angle_beta   76.29228325
_cell_angle_gamma   30.30571128
_symmetry_Int_Tables_number   1
_chemical_formula_structural   Nd2Er4Ga17Pd5
_chemical_formula_sum   'Nd2 Er4 Ga17 Pd5'
_cell_volume   519.32336107
_cell_formula_units_Z   1
loop_
 _symmetry_equiv_pos_site_id
 _symmetry_equiv_pos_as_xyz
  1  'x, y, z'
loop_
 _atom_site_type_symbol
 _atom_site_label
 _atom_site_symmetry_multiplicity
 _atom_site_fract_x
 _atom_site_fract_y
 _atom_site_fract_z
 _atom_site_occupancy
  Nd  Nd0  1  0.753274  0.753274  0.750366  1
  Nd  Nd1  1  0.246726  0.246726  0.249634  1
  Er  Er2  1  0.599377  0.599377  0.596810  1
  Er  Er3  1  0.090385  0.090385  0.092631  1
  Er  Er4  1  0.909615  0.909615  0.907369  1
  Er  Er5  1  0.400623  0.400623  0.403190  1
  Ga  Ga6  1  0.821781  0.821781  0.538595  1
  Ga  Ga7  1  0.326797  0.326797  0.042106  1
  Ga  Ga8  1  0.673203  0.673203  0.957894  1
  Ga  Ga9  1  0.178219  0.178219  0.461405  1
  Ga  Ga10  1  0.544037  0.544037  0.826436  1
  Ga  Ga11  1  0.037878  0.037878  0.322688  1
  Ga  Ga12  1  0.962122  0.962122  0.677312  1
  Ga  Ga13  1  0.455963  0.455963  0.173564  1
  Ga  Ga14  1  0.269478  0.269478  0.898696  1
  Ga  Ga15  1  0.761914  0.761914  0.395838  1
  Ga  Ga16  1  0.238086  0.238086  0.604162  1
  Ga  Ga17  1  0.730522  0.730522  0.101304  1
  Ga  Ga18  1  0.400474  0.400474  0.764973  1
  Ga  Ga19  1  0.894312  0.894312  0.266747  1
  Ga  Ga20  1  0.105688  0.105688  0.733253  1
  Ga  Ga21  1  0.599526  0.599526  0.235027  1
  Ga  Ga22  1  0.000000  0.000000  0.500000  1
  Pd  Pd23  1  0.105763  0.105763  0.896430  1
  Pd  Pd24  1  0.593146  0.593146  0.405071  1
  Pd  Pd25  1  0.406854  0.406854  0.594929  1
  Pd  Pd26  1  0.894237  0.894237  0.103570  1
  Pd  Pd27  1  0.500000  0.500000  0.000000  1
