# generated using pymatgen
data_Lu20GaBi10Ir
_symmetry_space_group_name_H-M   'P 1'
_cell_length_a   7.97742969
_cell_length_b   9.33055000
_cell_length_c   11.81379758
_cell_angle_alpha   90.00000000
_cell_angle_beta   90.03100973
_cell_angle_gamma   90.00000000
_symmetry_Int_Tables_number   1
_chemical_formula_structural   Lu20GaBi10Ir
_chemical_formula_sum   'Lu20 Ga1 Bi10 Ir1'
_cell_volume   879.34579573
_cell_formula_units_Z   1
loop_
 _symmetry_equiv_pos_site_id
 _symmetry_equiv_pos_as_xyz
  1  'x, y, z'
loop_
 _atom_site_type_symbol
 _atom_site_label
 _atom_site_symmetry_multiplicity
 _atom_site_fract_x
 _atom_site_fract_y
 _atom_site_fract_z
 _atom_site_occupancy
  Lu  Lu0  1  0.036990  0.250000  0.507760  1
  Lu  Lu1  1  0.982192  0.750000  0.489658  1
  Lu  Lu2  1  0.487951  0.750000  0.006394  1
  Lu  Lu3  1  0.554840  0.250000  0.992754  1
  Lu  Lu4  1  0.353370  0.250000  0.295644  1
  Lu  Lu5  1  0.646062  0.750000  0.718971  1
  Lu  Lu6  1  0.161430  0.750000  0.779266  1
  Lu  Lu7  1  0.852789  0.250000  0.200450  1
  Lu  Lu8  1  0.146148  0.250000  0.798339  1
  Lu  Lu9  1  0.811946  0.750000  0.218425  1
  Lu  Lu10  1  0.310007  0.750000  0.281720  1
  Lu  Lu11  1  0.681229  0.250000  0.710588  1
  Lu  Lu12  1  0.180350  0.074011  0.057140  1
  Lu  Lu13  1  0.816971  0.968321  0.939788  1
  Lu  Lu14  1  0.310715  0.951026  0.557365  1
  Lu  Lu15  1  0.816971  0.531679  0.939788  1
  Lu  Lu16  1  0.684692  0.072559  0.442175  1
  Lu  Lu17  1  0.180350  0.425989  0.057140  1
  Lu  Lu18  1  0.684692  0.427441  0.442175  1
  Lu  Lu19  1  0.310715  0.548974  0.557365  1
  Ga  Ga20  1  0.411215  0.250000  0.539525  1
  Bi  Bi21  1  0.596425  0.750000  0.457619  1
  Bi  Bi22  1  0.095266  0.750000  0.038059  1
  Bi  Bi23  1  0.059318  0.002262  0.323905  1
  Bi  Bi24  1  0.935540  0.994826  0.672728  1
  Bi  Bi25  1  0.433063  0.002631  0.823680  1
  Bi  Bi26  1  0.935540  0.505174  0.672728  1
  Bi  Bi27  1  0.555313  0.999865  0.177600  1
  Bi  Bi28  1  0.059318  0.497738  0.323905  1
  Bi  Bi29  1  0.555313  0.500135  0.177600  1
  Bi  Bi30  1  0.433063  0.497369  0.823680  1
  Ir  Ir31  1  0.920216  0.250000  0.976067  1
