# generated using pymatgen
data_Dy3YLu4(WO6)4
_symmetry_space_group_name_H-M   'P 1'
_cell_length_a   5.36820900
_cell_length_b   7.65089397
_cell_length_c   11.33804203
_cell_angle_alpha   75.57265436
_cell_angle_beta   90.00000000
_cell_angle_gamma   90.00000000
_symmetry_Int_Tables_number   1
_chemical_formula_structural   Dy3YLu4(WO6)4
_chemical_formula_sum   'Dy3 Y1 Lu4 W4 O24'
_cell_volume   450.98625337
_cell_formula_units_Z   1
loop_
 _symmetry_equiv_pos_site_id
 _symmetry_equiv_pos_as_xyz
  1  'x, y, z'
loop_
 _atom_site_type_symbol
 _atom_site_label
 _atom_site_symmetry_multiplicity
 _atom_site_fract_x
 _atom_site_fract_y
 _atom_site_fract_z
 _atom_site_occupancy
  Dy  Dy0  1  0.256774  0.000000  0.750000  1
  Dy  Dy1  1  0.743120  0.000000  0.250000  1
  Dy  Dy2  1  0.684314  0.500000  0.250000  1
  Y  Y3  1  0.315735  0.500000  0.750000  1
  Lu  Lu4  1  0.182498  0.793195  0.079332  1
  Lu  Lu5  1  0.182498  0.206805  0.420668  1
  Lu  Lu6  1  0.817420  0.206656  0.920780  1
  Lu  Lu7  1  0.817420  0.793344  0.579220  1
  W  W8  1  0.743541  0.724150  0.886193  1
  W  W9  1  0.256439  0.724042  0.386020  1
  W  W10  1  0.743541  0.275850  0.613807  1
  W  W11  1  0.256439  0.275958  0.113980  1
  O  O12  1  0.540776  0.157652  0.066857  1
  O  O13  1  0.048629  0.057926  0.102517  1
  O  O14  1  0.018260  0.713469  0.770101  1
  O  O15  1  0.458992  0.157651  0.566790  1
  O  O16  1  0.357381  0.487886  0.386364  1
  O  O17  1  0.951372  0.058027  0.602348  1
  O  O18  1  0.545112  0.792699  0.725197  1
  O  O19  1  0.455202  0.792219  0.225180  1
  O  O20  1  0.145516  0.635428  0.549618  1
  O  O21  1  0.048629  0.942074  0.397483  1
  O  O22  1  0.458992  0.842349  0.933210  1
  O  O23  1  0.455202  0.207781  0.274820  1
  O  O24  1  0.854096  0.364656  0.449938  1
  O  O25  1  0.643611  0.487860  0.886759  1
  O  O26  1  0.357381  0.512114  0.113636  1
  O  O27  1  0.951372  0.941973  0.897652  1
  O  O28  1  0.540776  0.842348  0.433143  1
  O  O29  1  0.981184  0.287182  0.229868  1
  O  O30  1  0.545112  0.207301  0.774803  1
  O  O31  1  0.854096  0.635344  0.050062  1
  O  O32  1  0.018260  0.286531  0.729899  1
  O  O33  1  0.145516  0.364572  0.950382  1
  O  O34  1  0.981184  0.712818  0.270132  1
  O  O35  1  0.643611  0.512140  0.613241  1
