# generated using pymatgen
data_HoTm7(Si4W3)4
_symmetry_space_group_name_H-M   'P 1'
_cell_length_a   6.72972313
_cell_length_b   6.91119001
_cell_length_c   12.86095931
_cell_angle_alpha   90.01277820
_cell_angle_beta   90.00136434
_cell_angle_gamma   90.01469106
_symmetry_Int_Tables_number   1
_chemical_formula_structural   HoTm7(Si4W3)4
_chemical_formula_sum   'Ho1 Tm7 Si16 W12'
_cell_volume   598.16826670
_cell_formula_units_Z   1
loop_
 _symmetry_equiv_pos_site_id
 _symmetry_equiv_pos_as_xyz
  1  'x, y, z'
loop_
 _atom_site_type_symbol
 _atom_site_label
 _atom_site_symmetry_multiplicity
 _atom_site_fract_x
 _atom_site_fract_y
 _atom_site_fract_z
 _atom_site_occupancy
  Ho  Ho0  1  0.996433  0.167954  0.093042  1
  Tm  Tm1  1  0.495816  0.331855  0.093168  1
  Tm  Tm2  1  0.995829  0.168219  0.406781  1
  Tm  Tm3  1  0.504170  0.668239  0.593237  1
  Tm  Tm4  1  0.004297  0.831811  0.906478  1
  Tm  Tm5  1  0.504313  0.667999  0.906567  1
  Tm  Tm6  1  0.004171  0.831765  0.593212  1
  Tm  Tm7  1  0.495852  0.331819  0.407112  1
  Si  Si8  1  0.662281  0.040968  0.546695  1
  Si  Si9  1  0.162298  0.459378  0.953032  1
  Si  Si10  1  0.338700  0.958407  0.046466  1
  Si  Si11  1  0.837672  0.540923  0.453482  1
  Si  Si12  1  0.337610  0.959050  0.453557  1
  Si  Si13  1  0.837388  0.541788  0.046442  1
  Si  Si14  1  0.662063  0.040913  0.953019  1
  Si  Si15  1  0.162285  0.458983  0.546673  1
  Si  Si16  1  0.534460  0.372150  0.749813  1
  Si  Si17  1  0.034541  0.127979  0.749963  1
  Si  Si18  1  0.465321  0.627693  0.250190  1
  Si  Si19  1  0.965179  0.871560  0.250295  1
  Si  Si20  1  0.801559  0.635712  0.749815  1
  Si  Si21  1  0.301716  0.864422  0.749913  1
  Si  Si22  1  0.198885  0.364910  0.250403  1
  Si  Si23  1  0.697885  0.135560  0.250309  1
  W  W24  1  0.830611  0.336507  0.625143  1
  W  W25  1  0.330830  0.163652  0.874646  1
  W  W26  1  0.169319  0.663531  0.125144  1
  W  W27  1  0.669146  0.836295  0.375105  1
  W  W28  1  0.169426  0.663540  0.375122  1
  W  W29  1  0.668992  0.836158  0.125349  1
  W  W30  1  0.830393  0.336861  0.874552  1
  W  W31  1  0.330563  0.163605  0.625149  1
  W  W32  1  0.665873  0.998489  0.749853  1
  W  W33  1  0.165696  0.501551  0.749860  1
  W  W34  1  0.334254  0.001046  0.250236  1
  W  W35  1  0.834175  0.498711  0.250174  1
