# generated using pymatgen
data_Ho3Er4Sn23Ru6
_symmetry_space_group_name_H-M   'P 1'
_cell_length_a   9.83272190
_cell_length_b   9.83272185
_cell_length_c   10.06944700
_cell_angle_alpha   89.99730491
_cell_angle_beta   90.00269426
_cell_angle_gamma   119.95091444
_symmetry_Int_Tables_number   1
_chemical_formula_structural   Ho3Er4Sn23Ru6
_chemical_formula_sum   'Ho3 Er4 Sn23 Ru6'
_cell_volume   843.52577918
_cell_formula_units_Z   1
loop_
 _symmetry_equiv_pos_site_id
 _symmetry_equiv_pos_as_xyz
  1  'x, y, z'
loop_
 _atom_site_type_symbol
 _atom_site_label
 _atom_site_symmetry_multiplicity
 _atom_site_fract_x
 _atom_site_fract_y
 _atom_site_fract_z
 _atom_site_occupancy
  Ho  Ho0  1  0.484725  0.515275  0.302844  1
  Ho  Ho1  1  0.515275  0.484725  0.697156  1
  Ho  Ho2  1  0.000000  0.000000  0.000000  1
  Er  Er3  1  0.484869  0.969762  0.302790  1
  Er  Er4  1  0.515131  0.030238  0.697210  1
  Er  Er5  1  0.030238  0.515131  0.302790  1
  Er  Er6  1  0.969762  0.484869  0.697210  1
  Sn  Sn7  1  0.118779  0.881221  0.274034  1
  Sn  Sn8  1  0.881221  0.118779  0.725966  1
  Sn  Sn9  1  0.118632  0.237461  0.274001  1
  Sn  Sn10  1  0.881368  0.762539  0.725999  1
  Sn  Sn11  1  0.762539  0.881368  0.274001  1
  Sn  Sn12  1  0.237461  0.118632  0.725999  1
  Sn  Sn13  1  0.779840  0.220160  0.462596  1
  Sn  Sn14  1  0.220160  0.779840  0.537404  1
  Sn  Sn15  1  0.780043  0.559728  0.462595  1
  Sn  Sn16  1  0.219957  0.440272  0.537405  1
  Sn  Sn17  1  0.440272  0.219957  0.462595  1
  Sn  Sn18  1  0.559728  0.780043  0.537405  1
  Sn  Sn19  1  0.348917  0.999966  0.999985  1
  Sn  Sn20  1  0.651083  0.000034  0.000015  1
  Sn  Sn21  1  0.999966  0.348917  0.000015  1
  Sn  Sn22  1  0.000034  0.651083  0.999985  1
  Sn  Sn23  1  0.651145  0.651145  0.000000  1
  Sn  Sn24  1  0.348855  0.348855  0.000000  1
  Sn  Sn25  1  0.333221  0.666779  0.128922  1
  Sn  Sn26  1  0.666779  0.333221  0.871078  1
  Sn  Sn27  1  0.333295  0.666705  0.822146  1
  Sn  Sn28  1  0.666705  0.333295  0.177854  1
  Sn  Sn29  1  0.000000  0.000000  0.500000  1
  Ru  Ru30  1  0.829845  0.170155  0.202440  1
  Ru  Ru31  1  0.170155  0.829845  0.797560  1
  Ru  Ru32  1  0.830078  0.659790  0.202386  1
  Ru  Ru33  1  0.169922  0.340210  0.797614  1
  Ru  Ru34  1  0.340210  0.169922  0.202386  1
  Ru  Ru35  1  0.659790  0.830078  0.797614  1
