# generated using pymatgen
data_GaSnBO4
_symmetry_space_group_name_H-M   'P 1'
_cell_length_a   5.93002100
_cell_length_b   7.39303400
_cell_length_c   8.04300600
_cell_angle_alpha   90.00000000
_cell_angle_beta   90.00000000
_cell_angle_gamma   90.00000000
_symmetry_Int_Tables_number   1
_chemical_formula_structural   GaSnBO4
_chemical_formula_sum   'Ga4 Sn4 B4 O16'
_cell_volume   352.61219445
_cell_formula_units_Z   4
loop_
 _symmetry_equiv_pos_site_id
 _symmetry_equiv_pos_as_xyz
  1  'x, y, z'
loop_
 _atom_site_type_symbol
 _atom_site_label
 _atom_site_symmetry_multiplicity
 _atom_site_fract_x
 _atom_site_fract_y
 _atom_site_fract_z
 _atom_site_occupancy
  Ga  Ga0  1  0.000000  0.000000  0.000000  1
  Ga  Ga1  1  0.500000  0.000000  0.000000  1
  Ga  Ga2  1  0.500000  0.500000  0.500000  1
  Ga  Ga3  1  0.000000  0.500000  0.500000  1
  Sn  Sn4  1  0.750000  0.906158  0.357958  1
  Sn  Sn5  1  0.250000  0.093842  0.642042  1
  Sn  Sn6  1  0.750000  0.406158  0.142042  1
  Sn  Sn7  1  0.250000  0.593842  0.857958  1
  B  B8  1  0.750000  0.220918  0.730254  1
  B  B9  1  0.250000  0.779082  0.269746  1
  B  B10  1  0.750000  0.720918  0.769746  1
  B  B11  1  0.250000  0.279082  0.230254  1
  O  O12  1  0.250000  0.168836  0.091841  1
  O  O13  1  0.750000  0.831164  0.908159  1
  O  O14  1  0.250000  0.668836  0.408159  1
  O  O15  1  0.750000  0.331164  0.591841  1
  O  O16  1  0.250000  0.903234  0.874625  1
  O  O17  1  0.750000  0.096766  0.125375  1
  O  O18  1  0.250000  0.403234  0.625375  1
  O  O19  1  0.750000  0.596766  0.374625  1
  O  O20  1  0.047220  0.836089  0.199724  1
  O  O21  1  0.547220  0.163911  0.800276  1
  O  O22  1  0.452780  0.336089  0.300276  1
  O  O23  1  0.952780  0.663911  0.699724  1
  O  O24  1  0.952780  0.163911  0.800276  1
  O  O25  1  0.452780  0.836089  0.199724  1
  O  O26  1  0.547220  0.663911  0.699724  1
  O  O27  1  0.047220  0.336089  0.300276  1
