# generated using pymatgen
data_Ba4Sr3Yb3(InSb3)4
_symmetry_space_group_name_H-M   'P 1'
_cell_length_a   4.81325500
_cell_length_b   12.84392814
_cell_length_c   14.76950079
_cell_angle_alpha   89.46395231
_cell_angle_beta   90.00000000
_cell_angle_gamma   90.00000000
_symmetry_Int_Tables_number   1
_chemical_formula_structural   Ba4Sr3Yb3(InSb3)4
_chemical_formula_sum   'Ba4 Sr3 Yb3 In4 Sb12'
_cell_volume   913.02684484
_cell_formula_units_Z   1
loop_
 _symmetry_equiv_pos_site_id
 _symmetry_equiv_pos_as_xyz
  1  'x, y, z'
loop_
 _atom_site_type_symbol
 _atom_site_label
 _atom_site_symmetry_multiplicity
 _atom_site_fract_x
 _atom_site_fract_y
 _atom_site_fract_z
 _atom_site_occupancy
  Ba  Ba0  1  0.500000  0.172600  0.018107  1
  Ba  Ba1  1  0.500000  0.413333  0.249698  1
  Ba  Ba2  1  0.500000  0.827173  0.974724  1
  Ba  Ba3  1  0.500000  0.325289  0.526509  1
  Sr  Sr4  1  0.500000  0.588903  0.750513  1
  Sr  Sr5  1  0.500000  0.910224  0.251636  1
  Sr  Sr6  1  0.500000  0.677666  0.482845  1
  Yb  Yb7  1  0.500000  0.087003  0.748412  1
  Yb  Yb8  1  0.500000  0.997835  0.502460  1
  Yb  Yb9  1  0.500000  0.500066  0.997466  1
  In  In10  1  0.000000  0.325318  0.715348  1
  In  In11  1  0.000000  0.173065  0.213854  1
  In  In12  1  0.000000  0.674330  0.285278  1
  In  In13  1  0.000000  0.826501  0.783997  1
  Sb  Sb14  1  0.000000  0.640108  0.903940  1
  Sb  Sb15  1  0.500000  0.666959  0.171705  1
  Sb  Sb16  1  0.000000  0.023993  0.895861  1
  Sb  Sb17  1  0.000000  0.484561  0.409079  1
  Sb  Sb18  1  0.500000  0.335577  0.822992  1
  Sb  Sb19  1  0.500000  0.154563  0.326248  1
  Sb  Sb20  1  0.000000  0.356364  0.087046  1
  Sb  Sb21  1  0.000000  0.135282  0.604847  1
  Sb  Sb22  1  0.000000  0.980910  0.093626  1
  Sb  Sb23  1  0.500000  0.842436  0.675115  1
  Sb  Sb24  1  0.000000  0.527566  0.599406  1
  Sb  Sb25  1  0.000000  0.852376  0.409290  1
