# generated using pymatgen
data_Er4Al6ReRu
_symmetry_space_group_name_H-M   'P 1'
_cell_length_a   5.46895000
_cell_length_b   5.46894945
_cell_length_c   8.86815800
_cell_angle_alpha   90.00000000
_cell_angle_beta   90.00000000
_cell_angle_gamma   120.00000331
_symmetry_Int_Tables_number   1
_chemical_formula_structural   Er4Al6ReRu
_chemical_formula_sum   'Er4 Al6 Re1 Ru1'
_cell_volume   229.70576850
_cell_formula_units_Z   1
loop_
 _symmetry_equiv_pos_site_id
 _symmetry_equiv_pos_as_xyz
  1  'x, y, z'
loop_
 _atom_site_type_symbol
 _atom_site_label
 _atom_site_symmetry_multiplicity
 _atom_site_fract_x
 _atom_site_fract_y
 _atom_site_fract_z
 _atom_site_occupancy
  Er  Er0  1  0.666667  0.333334  0.052365  1
  Er  Er1  1  0.666667  0.333334  0.447361  1
  Er  Er2  1  0.333333  0.666666  0.552638  1
  Er  Er3  1  0.333333  0.666666  0.947635  1
  Al  Al4  1  0.162725  0.325450  0.251402  1
  Al  Al5  1  0.162725  0.837276  0.251402  1
  Al  Al6  1  0.674550  0.837276  0.251402  1
  Al  Al7  1  0.325451  0.162726  0.748598  1
  Al  Al8  1  0.837276  0.162726  0.748598  1
  Al  Al9  1  0.837275  0.674550  0.748598  1
  Re  Re10  1  0.000000  0.000000  0.000000  1
  Ru  Ru11  1  0.000000  0.000000  0.500000  1
