# generated using pymatgen
data_YErTh3Pb3C
_symmetry_space_group_name_H-M   'P 1'
_cell_length_a   9.32142300
_cell_length_b   9.32142265
_cell_length_c   6.55908900
_cell_angle_alpha   90.00000000
_cell_angle_beta   90.00000000
_cell_angle_gamma   119.99999770
_symmetry_Int_Tables_number   1
_chemical_formula_structural   YErTh3Pb3C
_chemical_formula_sum   'Y2 Er2 Th6 Pb6 C2'
_cell_volume   493.55843910
_cell_formula_units_Z   2
loop_
 _symmetry_equiv_pos_site_id
 _symmetry_equiv_pos_as_xyz
  1  'x, y, z'
loop_
 _atom_site_type_symbol
 _atom_site_label
 _atom_site_symmetry_multiplicity
 _atom_site_fract_x
 _atom_site_fract_y
 _atom_site_fract_z
 _atom_site_occupancy
  Y  Y0  1  0.666667  0.333333  0.000000  1
  Y  Y1  1  0.333333  0.666667  0.000000  1
  Er  Er2  1  0.333333  0.666667  0.500000  1
  Er  Er3  1  0.666667  0.333333  0.500000  1
  Th  Th4  1  0.779813  0.779813  0.749958  1
  Th  Th5  1  0.220187  0.000000  0.749958  1
  Th  Th6  1  0.000000  0.220187  0.749958  1
  Th  Th7  1  0.220187  0.220187  0.250042  1
  Th  Th8  1  0.779813  0.000000  0.250042  1
  Th  Th9  1  0.000000  0.779813  0.250042  1
  Pb  Pb10  1  0.406435  0.406435  0.747977  1
  Pb  Pb11  1  0.593565  0.000000  0.747977  1
  Pb  Pb12  1  0.000000  0.593565  0.747977  1
  Pb  Pb13  1  0.593565  0.593565  0.252023  1
  Pb  Pb14  1  0.406435  0.000000  0.252023  1
  Pb  Pb15  1  0.000000  0.406435  0.252023  1
  C  C16  1  0.000000  0.000000  0.000000  1
  C  C17  1  0.000000  0.000000  0.500000  1
