# generated using pymatgen
data_Pr16Cd2CoHg2Pd3
_symmetry_space_group_name_H-M   'P 1'
_cell_length_a   10.04932594
_cell_length_b   10.04932580
_cell_length_c   10.07518334
_cell_angle_alpha   59.73162414
_cell_angle_beta   59.73163191
_cell_angle_gamma   59.72617632
_symmetry_Int_Tables_number   1
_chemical_formula_structural   Pr16Cd2CoHg2Pd3
_chemical_formula_sum   'Pr16 Cd2 Co1 Hg2 Pd3'
_cell_volume   715.05375660
_cell_formula_units_Z   1
loop_
 _symmetry_equiv_pos_site_id
 _symmetry_equiv_pos_as_xyz
  1  'x, y, z'
loop_
 _atom_site_type_symbol
 _atom_site_label
 _atom_site_symmetry_multiplicity
 _atom_site_fract_x
 _atom_site_fract_y
 _atom_site_fract_z
 _atom_site_occupancy
  Pr  Pr0  1  0.353226  0.353226  0.351904  1
  Pr  Pr1  1  0.345135  0.345135  0.951804  1
  Pr  Pr2  1  0.346062  0.949554  0.345670  1
  Pr  Pr3  1  0.949554  0.346062  0.345670  1
  Pr  Pr4  1  0.821227  0.188953  0.190380  1
  Pr  Pr5  1  0.189245  0.807134  0.807370  1
  Pr  Pr6  1  0.188953  0.821227  0.190380  1
  Pr  Pr7  1  0.807134  0.189245  0.807370  1
  Pr  Pr8  1  0.189110  0.189110  0.821303  1
  Pr  Pr9  1  0.805717  0.805717  0.191408  1
  Pr  Pr10  1  0.938202  0.561848  0.562694  1
  Pr  Pr11  1  0.561082  0.934826  0.935196  1
  Pr  Pr12  1  0.561848  0.938202  0.562694  1
  Pr  Pr13  1  0.934826  0.561082  0.935196  1
  Pr  Pr14  1  0.561799  0.561799  0.939410  1
  Pr  Pr15  1  0.934488  0.934488  0.562552  1
  Cd  Cd16  1  0.580730  0.260490  0.581614  1
  Cd  Cd17  1  0.260490  0.580730  0.581614  1
  Co  Co18  1  0.143185  0.143185  0.143279  1
  Hg  Hg19  1  0.582659  0.582659  0.585126  1
  Hg  Hg20  1  0.585020  0.585020  0.246636  1
  Pd  Pd21  1  0.144919  0.144919  0.570241  1
  Pd  Pd22  1  0.144813  0.570575  0.145244  1
  Pd  Pd23  1  0.570575  0.144813  0.145244  1
