# generated using pymatgen
data_DyTmHf3Ge4
_symmetry_space_group_name_H-M   'P 1'
_cell_length_a   7.36682460
_cell_length_b   7.36857788
_cell_length_c   13.50495576
_cell_angle_alpha   90.04243009
_cell_angle_beta   90.01495205
_cell_angle_gamma   90.04600572
_symmetry_Int_Tables_number   1
_chemical_formula_structural   DyTmHf3Ge4
_chemical_formula_sum   'Dy4 Tm4 Hf12 Ge16'
_cell_volume   733.08933193
_cell_formula_units_Z   4
loop_
 _symmetry_equiv_pos_site_id
 _symmetry_equiv_pos_as_xyz
  1  'x, y, z'
loop_
 _atom_site_type_symbol
 _atom_site_label
 _atom_site_symmetry_multiplicity
 _atom_site_fract_x
 _atom_site_fract_y
 _atom_site_fract_z
 _atom_site_occupancy
  Dy  Dy0  1  0.996057  0.342258  0.217578  1
  Dy  Dy1  1  0.003817  0.657717  0.717733  1
  Dy  Dy2  1  0.157698  0.496236  0.467666  1
  Dy  Dy3  1  0.503896  0.842402  0.032324  1
  Tm  Tm4  1  0.842875  0.502889  0.967676  1
  Tm  Tm5  1  0.497050  0.157014  0.532303  1
  Tm  Tm6  1  0.342952  0.997163  0.782267  1
  Tm  Tm7  1  0.657064  0.002919  0.282489  1
  Hf  Hf8  1  0.172734  0.172794  0.999900  1
  Hf  Hf9  1  0.826857  0.827597  0.500027  1
  Hf  Hf10  1  0.327514  0.673062  0.250075  1
  Hf  Hf11  1  0.672499  0.327016  0.750044  1
  Hf  Hf12  1  0.153931  0.997854  0.375229  1
  Hf  Hf13  1  0.845806  0.002528  0.874803  1
  Hf  Hf14  1  0.502421  0.654086  0.625161  1
  Hf  Hf15  1  0.346155  0.497416  0.874871  1
  Hf  Hf16  1  0.497702  0.345844  0.124863  1
  Hf  Hf17  1  0.653951  0.502725  0.375209  1
  Hf  Hf18  1  0.997029  0.154089  0.625311  1
  Hf  Hf19  1  0.002558  0.845998  0.124924  1
  Ge  Ge20  1  0.364439  0.300394  0.322035  1
  Ge  Ge21  1  0.636738  0.698390  0.822577  1
  Ge  Ge22  1  0.199629  0.864496  0.572156  1
  Ge  Ge23  1  0.136881  0.801477  0.927368  1
  Ge  Ge24  1  0.801161  0.136818  0.071598  1
  Ge  Ge25  1  0.861881  0.197619  0.427923  1
  Ge  Ge26  1  0.302272  0.361866  0.677741  1
  Ge  Ge27  1  0.698812  0.636940  0.178347  1
  Ge  Ge28  1  0.298145  0.039310  0.182363  1
  Ge  Ge29  1  0.700927  0.961393  0.681818  1
  Ge  Ge30  1  0.461467  0.798921  0.431932  1
  Ge  Ge31  1  0.202074  0.539571  0.067688  1
  Ge  Ge32  1  0.538876  0.202067  0.931557  1
  Ge  Ge33  1  0.796879  0.460233  0.568040  1
  Ge  Ge34  1  0.038977  0.297792  0.818418  1
  Ge  Ge35  1  0.960276  0.703109  0.317985  1
