# generated using pymatgen
data_CaZrNiSb2
_symmetry_space_group_name_H-M   'P 1'
_cell_length_a   7.95161557
_cell_length_b   7.95161553
_cell_length_c   7.95161485
_cell_angle_alpha   31.50578654
_cell_angle_beta   31.50578927
_cell_angle_gamma   31.50578325
_symmetry_Int_Tables_number   1
_chemical_formula_structural   CaZrNiSb2
_chemical_formula_sum   'Ca1 Zr1 Ni1 Sb2'
_cell_volume   121.89850485
_cell_formula_units_Z   1
loop_
 _symmetry_equiv_pos_site_id
 _symmetry_equiv_pos_as_xyz
  1  'x, y, z'
loop_
 _atom_site_type_symbol
 _atom_site_label
 _atom_site_symmetry_multiplicity
 _atom_site_fract_x
 _atom_site_fract_y
 _atom_site_fract_z
 _atom_site_occupancy
  Ca  Ca0  1  0.505411  0.505411  0.505411  1
  Zr  Zr1  1  0.994896  0.994896  0.994896  1
  Ni  Ni2  1  0.372218  0.372218  0.372218  1
  Sb  Sb3  1  0.745671  0.745671  0.745671  1
  Sb  Sb4  1  0.256806  0.256806  0.256806  1
