# generated using pymatgen
data_ErLu4(In2Ir)2
_symmetry_space_group_name_H-M   'P 1'
_cell_length_a   3.53127900
_cell_length_b   7.97837300
_cell_length_c   18.11021800
_cell_angle_alpha   90.00000000
_cell_angle_beta   90.00000000
_cell_angle_gamma   90.00000000
_symmetry_Int_Tables_number   1
_chemical_formula_structural   ErLu4(In2Ir)2
_chemical_formula_sum   'Er2 Lu8 In8 Ir4'
_cell_volume   510.23476514
_cell_formula_units_Z   2
loop_
 _symmetry_equiv_pos_site_id
 _symmetry_equiv_pos_as_xyz
  1  'x, y, z'
loop_
 _atom_site_type_symbol
 _atom_site_label
 _atom_site_symmetry_multiplicity
 _atom_site_fract_x
 _atom_site_fract_y
 _atom_site_fract_z
 _atom_site_occupancy
  Er  Er0  1  0.000000  0.000000  0.000000  1
  Er  Er1  1  0.000000  0.500000  0.500000  1
  Lu  Lu2  1  0.000000  0.116675  0.412874  1
  Lu  Lu3  1  0.000000  0.883325  0.587126  1
  Lu  Lu4  1  0.000000  0.383325  0.912874  1
  Lu  Lu5  1  0.000000  0.616675  0.087126  1
  Lu  Lu6  1  0.000000  0.244509  0.221341  1
  Lu  Lu7  1  0.000000  0.755491  0.778659  1
  Lu  Lu8  1  0.000000  0.255491  0.721341  1
  Lu  Lu9  1  0.000000  0.744509  0.278659  1
  In  In10  1  0.500000  0.426131  0.351268  1
  In  In11  1  0.500000  0.573869  0.648732  1
  In  In12  1  0.500000  0.073869  0.851268  1
  In  In13  1  0.500000  0.926131  0.148732  1
  In  In14  1  0.500000  0.294388  0.066653  1
  In  In15  1  0.500000  0.705612  0.933347  1
  In  In16  1  0.500000  0.205612  0.566653  1
  In  In17  1  0.500000  0.794388  0.433347  1
  Ir  Ir18  1  0.500000  0.024109  0.303586  1
  Ir  Ir19  1  0.500000  0.975891  0.696414  1
  Ir  Ir20  1  0.500000  0.475891  0.803586  1
  Ir  Ir21  1  0.500000  0.524109  0.196414  1
