# generated using pymatgen
data_TbYGa9Co2Pd
_symmetry_space_group_name_H-M   'P 1'
_cell_length_a   7.48223300
_cell_length_b   7.48230306
_cell_length_c   9.44006200
_cell_angle_alpha   90.00000000
_cell_angle_beta   90.00000000
_cell_angle_gamma   119.53753427
_symmetry_Int_Tables_number   1
_chemical_formula_structural   TbYGa9Co2Pd
_chemical_formula_sum   'Tb2 Y2 Ga18 Co4 Pd2'
_cell_volume   459.80856572
_cell_formula_units_Z   2
loop_
 _symmetry_equiv_pos_site_id
 _symmetry_equiv_pos_as_xyz
  1  'x, y, z'
loop_
 _atom_site_type_symbol
 _atom_site_label
 _atom_site_symmetry_multiplicity
 _atom_site_fract_x
 _atom_site_fract_y
 _atom_site_fract_z
 _atom_site_occupancy
  Tb  Tb0  1  0.677125  0.996766  0.750000  1
  Tb  Tb1  1  0.322875  0.003234  0.250000  1
  Y  Y2  1  0.996750  0.677146  0.750000  1
  Y  Y3  1  0.003250  0.322854  0.250000  1
  Ga  Ga4  1  0.000889  0.654495  0.075139  1
  Ga  Ga5  1  0.654535  0.000901  0.424852  1
  Ga  Ga6  1  0.000889  0.654495  0.424861  1
  Ga  Ga7  1  0.999111  0.345505  0.924861  1
  Ga  Ga8  1  0.654535  0.000901  0.075148  1
  Ga  Ga9  1  0.345465  0.999099  0.924852  1
  Ga  Ga10  1  0.656589  0.656569  0.563103  1
  Ga  Ga11  1  0.343411  0.343431  0.063103  1
  Ga  Ga12  1  0.656589  0.656569  0.936897  1
  Ga  Ga13  1  0.343411  0.343431  0.436897  1
  Ga  Ga14  1  0.142155  0.142170  0.750000  1
  Ga  Ga15  1  0.857845  0.857830  0.250000  1
  Ga  Ga16  1  0.665569  0.443288  0.250000  1
  Ga  Ga17  1  0.334431  0.556712  0.750000  1
  Ga  Ga18  1  0.443291  0.665586  0.250000  1
  Ga  Ga19  1  0.556709  0.334414  0.750000  1
  Ga  Ga20  1  0.345465  0.999099  0.575148  1
  Ga  Ga21  1  0.999111  0.345505  0.575139  1
  Co  Co22  1  0.670668  0.329323  0.999999  1
  Co  Co23  1  0.329332  0.670677  0.499999  1
  Co  Co24  1  0.329332  0.670677  0.000001  1
  Co  Co25  1  0.670668  0.329323  0.500001  1
  Pd  Pd26  1  0.000000  0.000000  0.000000  1
  Pd  Pd27  1  0.000000  0.000000  0.500000  1
