# generated using pymatgen
data_Nd12Ga4Ge4Ir3Rh5
_symmetry_space_group_name_H-M   'P 1'
_cell_length_a   5.76137646
_cell_length_b   8.16273720
_cell_length_c   13.55088394
_cell_angle_alpha   90.07683079
_cell_angle_beta   89.91264463
_cell_angle_gamma   90.13130855
_symmetry_Int_Tables_number   1
_chemical_formula_structural   Nd12Ga4Ge4Ir3Rh5
_chemical_formula_sum   'Nd12 Ga4 Ge4 Ir3 Rh5'
_cell_volume   637.27614276
_cell_formula_units_Z   1
loop_
 _symmetry_equiv_pos_site_id
 _symmetry_equiv_pos_as_xyz
  1  'x, y, z'
loop_
 _atom_site_type_symbol
 _atom_site_label
 _atom_site_symmetry_multiplicity
 _atom_site_fract_x
 _atom_site_fract_y
 _atom_site_fract_z
 _atom_site_occupancy
  Nd  Nd0  1  0.634052  0.255253  0.249042  1
  Nd  Nd1  1  0.366474  0.746915  0.750039  1
  Nd  Nd2  1  0.366460  0.758829  0.249075  1
  Nd  Nd3  1  0.632753  0.241531  0.750026  1
  Nd  Nd4  1  0.151789  0.397446  0.100123  1
  Nd  Nd5  1  0.846801  0.601547  0.899689  1
  Nd  Nd6  1  0.848260  0.601849  0.600400  1
  Nd  Nd7  1  0.850100  0.896651  0.399217  1
  Nd  Nd8  1  0.151479  0.400290  0.399418  1
  Nd  Nd9  1  0.147986  0.102442  0.600271  1
  Nd  Nd10  1  0.146815  0.103488  0.898954  1
  Nd  Nd11  1  0.854137  0.897539  0.101114  1
  Ga  Ga12  1  0.628172  0.250472  0.997844  1
  Ga  Ga13  1  0.371828  0.749474  0.001554  1
  Ga  Ga14  1  0.371409  0.749385  0.499760  1
  Ga  Ga15  1  0.628878  0.249114  0.501025  1
  Ge  Ge16  1  0.137711  0.113304  0.250923  1
  Ge  Ge17  1  0.863378  0.887899  0.750403  1
  Ge  Ge18  1  0.862133  0.611863  0.249922  1
  Ge  Ge19  1  0.137502  0.389359  0.749748  1
  Ir  Ir20  1  0.362957  0.031084  0.092714  1
  Ir  Ir21  1  0.636639  0.968911  0.907887  1
  Ir  Ir22  1  0.637480  0.969515  0.593447  1
  Rh  Rh23  1  0.638556  0.526172  0.407319  1
  Rh  Rh24  1  0.364723  0.029020  0.407206  1
  Rh  Rh25  1  0.362337  0.471407  0.592536  1
  Rh  Rh26  1  0.360558  0.473253  0.907115  1
  Rh  Rh27  1  0.638632  0.525987  0.093230  1
