# generated using pymatgen
data_HoTm4Nb3(Co4P3)4
_symmetry_space_group_name_H-M   'P 1'
_cell_length_a   12.14653600
_cell_length_b   12.14653709
_cell_length_c   3.68104500
_cell_angle_alpha   90.00000000
_cell_angle_beta   90.00000000
_cell_angle_gamma   119.99999704
_symmetry_Int_Tables_number   1
_chemical_formula_structural   HoTm4Nb3(Co4P3)4
_chemical_formula_sum   'Ho1 Tm4 Nb3 Co16 P12'
_cell_volume   470.33434538
_cell_formula_units_Z   1
loop_
 _symmetry_equiv_pos_site_id
 _symmetry_equiv_pos_as_xyz
  1  'x, y, z'
loop_
 _atom_site_type_symbol
 _atom_site_label
 _atom_site_symmetry_multiplicity
 _atom_site_fract_x
 _atom_site_fract_y
 _atom_site_fract_z
 _atom_site_occupancy
  Ho  Ho0  1  0.666667  0.333333  0.000000  1
  Tm  Tm1  1  0.816778  0.000073  0.500000  1
  Tm  Tm2  1  0.999927  0.816706  0.500000  1
  Tm  Tm3  1  0.183294  0.183222  0.500000  1
  Tm  Tm4  1  0.333333  0.666667  0.000000  1
  Nb  Nb5  1  0.444857  0.999823  0.000000  1
  Nb  Nb6  1  0.000177  0.445034  0.000000  1
  Nb  Nb7  1  0.554966  0.555143  0.000000  1
  Co  Co8  1  0.278296  0.999802  0.500000  1
  Co  Co9  1  0.000198  0.278495  0.500000  1
  Co  Co10  1  0.721505  0.721704  0.500000  1
  Co  Co11  1  0.626727  0.803783  0.000000  1
  Co  Co12  1  0.196217  0.822943  0.000000  1
  Co  Co13  1  0.177057  0.373273  0.000000  1
  Co  Co14  1  0.372841  0.176737  0.000000  1
  Co  Co15  1  0.803896  0.627159  0.000000  1
  Co  Co16  1  0.823263  0.196104  0.000000  1
  Co  Co17  1  0.518990  0.872336  0.500000  1
  Co  Co18  1  0.127664  0.646654  0.500000  1
  Co  Co19  1  0.353346  0.481010  0.500000  1
  Co  Co20  1  0.480047  0.353207  0.500000  1
  Co  Co21  1  0.873160  0.519953  0.500000  1
  Co  Co22  1  0.646793  0.126840  0.500000  1
  Co  Co23  1  0.000000  0.000000  0.000000  1
  P  P24  1  0.177511  0.999869  0.000000  1
  P  P25  1  0.000131  0.177643  0.000000  1
  P  P26  1  0.822357  0.822489  0.000000  1
  P  P27  1  0.519567  0.688110  0.500000  1
  P  P28  1  0.311890  0.831456  0.500000  1
  P  P29  1  0.168544  0.480433  0.500000  1
  P  P30  1  0.479526  0.167808  0.500000  1
  P  P31  1  0.688281  0.520474  0.500000  1
  P  P32  1  0.832192  0.311719  0.500000  1
  P  P33  1  0.645141  0.000055  0.000000  1
  P  P34  1  0.999945  0.645087  0.000000  1
  P  P35  1  0.354913  0.354859  0.000000  1
