# generated using pymatgen
data_NdTiCoO5
_symmetry_space_group_name_H-M   'P 1'
_cell_length_a   7.57159200
_cell_length_b   8.62160100
_cell_length_c   5.76787600
_cell_angle_alpha   90.00000000
_cell_angle_beta   90.00000000
_cell_angle_gamma   90.00000000
_symmetry_Int_Tables_number   1
_chemical_formula_structural   NdTiCoO5
_chemical_formula_sum   'Nd4 Ti4 Co4 O20'
_cell_volume   376.52259145
_cell_formula_units_Z   4
loop_
 _symmetry_equiv_pos_site_id
 _symmetry_equiv_pos_as_xyz
  1  'x, y, z'
loop_
 _atom_site_type_symbol
 _atom_site_label
 _atom_site_symmetry_multiplicity
 _atom_site_fract_x
 _atom_site_fract_y
 _atom_site_fract_z
 _atom_site_occupancy
  Nd  Nd0  1  0.140655  0.173142  0.000000  1
  Nd  Nd1  1  0.640654  0.326858  0.000000  1
  Nd  Nd2  1  0.359345  0.673142  0.000000  1
  Nd  Nd3  1  0.859345  0.826858  0.000000  1
  Ti  Ti4  1  0.878041  0.144334  0.499999  1
  Ti  Ti5  1  0.378041  0.355667  0.499999  1
  Ti  Ti6  1  0.621958  0.644334  0.499999  1
  Ti  Ti7  1  0.121959  0.855667  0.499999  1
  Co  Co8  1  0.500000  0.000000  0.249373  1
  Co  Co9  1  0.000000  0.500000  0.249373  1
  Co  Co10  1  0.500000  0.000000  0.750626  1
  Co  Co11  1  0.000000  0.500000  0.750626  1
  O  O12  1  0.655836  0.052401  0.000000  1
  O  O13  1  0.155836  0.447599  0.000000  1
  O  O14  1  0.844165  0.552401  0.000000  1
  O  O15  1  0.344165  0.947598  0.000000  1
  O  O16  1  0.398343  0.208624  0.254177  1
  O  O17  1  0.898343  0.291376  0.254177  1
  O  O18  1  0.101656  0.708624  0.254177  1
  O  O19  1  0.601656  0.791376  0.254177  1
  O  O20  1  0.000000  0.000000  0.282001  1
  O  O21  1  0.500000  0.500000  0.282001  1
  O  O22  1  0.655264  0.068841  0.499999  1
  O  O23  1  0.155263  0.431159  0.499999  1
  O  O24  1  0.844737  0.568841  0.499999  1
  O  O25  1  0.344737  0.931159  0.499999  1
  O  O26  1  0.000000  0.000000  0.717998  1
  O  O27  1  0.500000  0.500000  0.717998  1
  O  O28  1  0.398343  0.208624  0.745822  1
  O  O29  1  0.898343  0.291376  0.745822  1
  O  O30  1  0.101656  0.708624  0.745822  1
  O  O31  1  0.601656  0.791376  0.745822  1
