# generated using pymatgen
data_Cr2AsOsO8
_symmetry_space_group_name_H-M   'P 1'
_cell_length_a   4.54615175
_cell_length_b   6.08808639
_cell_length_c   9.58747963
_cell_angle_alpha   71.48808175
_cell_angle_beta   91.48964744
_cell_angle_gamma   90.00000478
_symmetry_Int_Tables_number   1
_chemical_formula_structural   Cr2AsOsO8
_chemical_formula_sum   'Cr4 As2 Os2 O16'
_cell_volume   251.53143727
_cell_formula_units_Z   2
loop_
 _symmetry_equiv_pos_site_id
 _symmetry_equiv_pos_as_xyz
  1  'x, y, z'
loop_
 _atom_site_type_symbol
 _atom_site_label
 _atom_site_symmetry_multiplicity
 _atom_site_fract_x
 _atom_site_fract_y
 _atom_site_fract_z
 _atom_site_occupancy
  Cr  Cr0  1  0.500000  0.125000  0.250000  1
  Cr  Cr1  1  0.500000  0.880911  0.750000  1
  Cr  Cr2  1  0.500000  0.369089  0.750000  1
  Cr  Cr3  1  0.500000  0.625000  0.250000  1
  As  As4  1  0.998250  0.250292  0.499416  1
  As  As5  1  0.001750  0.999708  0.000584  1
  Os  Os6  1  0.001074  0.749843  0.500314  1
  Os  Os7  1  0.998926  0.500157  0.999686  1
  O  O8  1  0.701768  0.574384  0.851231  1
  O  O9  1  0.708074  0.324604  0.350791  1
  O  O10  1  0.705891  0.073618  0.852763  1
  O  O11  1  0.700108  0.823596  0.352808  1
  O  O12  1  0.298232  0.675616  0.648769  1
  O  O13  1  0.299892  0.426404  0.147192  1
  O  O14  1  0.294109  0.176382  0.647237  1
  O  O15  1  0.291926  0.925396  0.149209  1
  O  O16  1  0.187085  0.288142  0.906421  1
  O  O17  1  0.186610  0.056174  0.406250  1
  O  O18  1  0.187085  0.805436  0.906421  1
  O  O19  1  0.186610  0.537576  0.406250  1
  O  O20  1  0.812915  0.444564  0.593579  1
  O  O21  1  0.813390  0.193826  0.093750  1
  O  O22  1  0.812915  0.961858  0.593579  1
  O  O23  1  0.813390  0.712424  0.093750  1
