# generated using pymatgen
data_Sc22OsPtRh6
_symmetry_space_group_name_H-M   'P 1'
_cell_length_a   9.52314975
_cell_length_b   9.53515774
_cell_length_c   9.52314945
_cell_angle_alpha   59.95827485
_cell_angle_beta   59.63569543
_cell_angle_gamma   59.95828365
_symmetry_Int_Tables_number   1
_chemical_formula_structural   Sc22OsPtRh6
_chemical_formula_sum   'Sc22 Os1 Pt1 Rh6'
_cell_volume   609.38455718
_cell_formula_units_Z   1
loop_
 _symmetry_equiv_pos_site_id
 _symmetry_equiv_pos_as_xyz
  1  'x, y, z'
loop_
 _atom_site_type_symbol
 _atom_site_label
 _atom_site_symmetry_multiplicity
 _atom_site_fract_x
 _atom_site_fract_y
 _atom_site_fract_z
 _atom_site_occupancy
  Sc  Sc0  1  0.842216  0.843102  0.842216  1
  Sc  Sc1  1  0.526531  0.159180  0.155109  1
  Sc  Sc2  1  0.155109  0.159180  0.526531  1
  Sc  Sc3  1  0.157784  0.527535  0.157784  1
  Sc  Sc4  1  0.844891  0.840820  0.473469  1
  Sc  Sc5  1  0.842216  0.472465  0.842216  1
  Sc  Sc6  1  0.473469  0.840820  0.844891  1
  Sc  Sc7  1  0.157784  0.156898  0.157784  1
  Sc  Sc8  1  0.197459  0.802541  0.197459  1
  Sc  Sc9  1  0.197890  0.802718  0.802110  1
  Sc  Sc10  1  0.802110  0.197282  0.197890  1
  Sc  Sc11  1  0.802110  0.802718  0.197890  1
  Sc  Sc12  1  0.197890  0.197282  0.802110  1
  Sc  Sc13  1  0.802541  0.197459  0.802541  1
  Sc  Sc14  1  0.383028  0.385530  0.383028  1
  Sc  Sc15  1  0.151109  0.615719  0.617453  1
  Sc  Sc16  1  0.616972  0.151588  0.616972  1
  Sc  Sc17  1  0.617453  0.615719  0.151109  1
  Sc  Sc18  1  0.383028  0.848412  0.383028  1
  Sc  Sc19  1  0.382547  0.384281  0.848891  1
  Sc  Sc20  1  0.848891  0.384281  0.382547  1
  Sc  Sc21  1  0.616972  0.614470  0.616972  1
  Os  Os22  1  0.500000  0.500000  0.500000  1
  Pt  Pt23  1  0.500000  0.000000  0.500000  1
  Rh  Rh24  1  0.500000  0.500000  0.000000  1
  Rh  Rh25  1  0.000000  0.000000  0.500000  1
  Rh  Rh26  1  0.000000  0.500000  0.500000  1
  Rh  Rh27  1  0.500000  0.000000  0.000000  1
  Rh  Rh28  1  0.000000  0.500000  0.000000  1
  Rh  Rh29  1  0.000000  0.000000  0.000000  1
