# generated using pymatgen
data_La13Nd7Si15Os
_symmetry_space_group_name_H-M   'P 1'
_cell_length_a   8.01220573
_cell_length_b   8.00733897
_cell_length_c   15.24409689
_cell_angle_alpha   89.73764496
_cell_angle_beta   89.55781795
_cell_angle_gamma   90.16638117
_symmetry_Int_Tables_number   1
_chemical_formula_structural   La13Nd7Si15Os
_chemical_formula_sum   'La13 Nd7 Si15 Os1'
_cell_volume   977.96349513
_cell_formula_units_Z   1
loop_
 _symmetry_equiv_pos_site_id
 _symmetry_equiv_pos_as_xyz
  1  'x, y, z'
loop_
 _atom_site_type_symbol
 _atom_site_label
 _atom_site_symmetry_multiplicity
 _atom_site_fract_x
 _atom_site_fract_y
 _atom_site_fract_z
 _atom_site_occupancy
  La  La0  1  0.126268  0.981634  0.876377  1
  La  La1  1  0.988825  0.621357  0.053865  1
  La  La2  1  0.017415  0.385685  0.543408  1
  La  La3  1  0.626046  0.986549  0.952125  1
  La  La4  1  0.126669  0.512840  0.799465  1
  La  La5  1  0.872032  0.485457  0.302425  1
  La  La6  1  0.509829  0.123584  0.199682  1
  La  La7  1  0.492410  0.879310  0.696152  1
  La  La8  1  0.379449  0.014090  0.451017  1
  La  La9  1  0.707576  0.694593  0.497422  1
  La  La10  1  0.810595  0.190658  0.748370  1
  La  La11  1  0.183133  0.799918  0.265083  1
  La  La12  1  0.299007  0.302239  0.998549  1
  Nd  Nd13  1  0.369554  0.486711  0.376695  1
  Nd  Nd14  1  0.872936  0.012774  0.375405  1
  Nd  Nd15  1  0.982509  0.128084  0.125342  1
  Nd  Nd16  1  0.024204  0.870774  0.621688  1
  Nd  Nd17  1  0.627395  0.517354  0.874434  1
  Nd  Nd18  1  0.487214  0.376349  0.623791  1
  Nd  Nd19  1  0.512320  0.625884  0.127626  1
  Si  Si20  1  0.915942  0.291362  0.940687  1
  Si  Si21  1  0.711656  0.083075  0.558970  1
  Si  Si22  1  0.216061  0.417258  0.191641  1
  Si  Si23  1  0.791043  0.579621  0.691118  1
  Si  Si24  1  0.424259  0.214507  0.807259  1
  Si  Si25  1  0.575854  0.790825  0.308434  1
  Si  Si26  1  0.288199  0.917614  0.062790  1
  Si  Si27  1  0.832119  0.801596  0.799119  1
  Si  Si28  1  0.166855  0.199377  0.301519  1
  Si  Si29  1  0.794799  0.836213  0.197062  1
  Si  Si30  1  0.304813  0.673108  0.547199  1
  Si  Si31  1  0.695846  0.334511  0.050479  1
  Si  Si32  1  0.663839  0.299789  0.448666  1
  Si  Si33  1  0.333118  0.693780  0.953697  1
  Si  Si34  1  0.203592  0.169758  0.696950  1
  Os  Os35  1  0.066619  0.701764  0.435489  1
