# generated using pymatgen
data_Hf4TiSi3GeMo3
_symmetry_space_group_name_H-M   'P 1'
_cell_length_a   3.52041500
_cell_length_b   6.97214387
_cell_length_c   8.27667634
_cell_angle_alpha   90.53649780
_cell_angle_beta   90.00000000
_cell_angle_gamma   90.00000000
_symmetry_Int_Tables_number   1
_chemical_formula_structural   Hf4TiSi3GeMo3
_chemical_formula_sum   'Hf4 Ti1 Si3 Ge1 Mo3'
_cell_volume   203.14078954
_cell_formula_units_Z   1
loop_
 _symmetry_equiv_pos_site_id
 _symmetry_equiv_pos_as_xyz
  1  'x, y, z'
loop_
 _atom_site_type_symbol
 _atom_site_label
 _atom_site_symmetry_multiplicity
 _atom_site_fract_x
 _atom_site_fract_y
 _atom_site_fract_z
 _atom_site_occupancy
  Hf  Hf0  1  0.250000  0.038918  0.327979  1
  Hf  Hf1  1  0.750000  0.950045  0.665541  1
  Hf  Hf2  1  0.250000  0.545258  0.166088  1
  Hf  Hf3  1  0.750000  0.455917  0.836700  1
  Ti  Ti4  1  0.750000  0.376304  0.436276  1
  Si  Si5  1  0.750000  0.745220  0.362851  1
  Si  Si6  1  0.250000  0.757199  0.862822  1
  Si  Si7  1  0.750000  0.244265  0.139705  1
  Ge  Ge8  1  0.250000  0.254015  0.637581  1
  Mo  Mo9  1  0.250000  0.635326  0.561146  1
  Mo  Mo10  1  0.750000  0.867130  0.062458  1
  Mo  Mo11  1  0.250000  0.130400  0.940855  1
