# generated using pymatgen
data_Tb10Nd6Cd4TcPt3
_symmetry_space_group_name_H-M   'P 1'
_cell_length_a   9.86240259
_cell_length_b   9.86240207
_cell_length_c   9.86240115
_cell_angle_alpha   59.55486672
_cell_angle_beta   59.55486987
_cell_angle_gamma   59.55487210
_symmetry_Int_Tables_number   1
_chemical_formula_structural   Tb10Nd6Cd4TcPt3
_chemical_formula_sum   'Tb10 Nd6 Cd4 Tc1 Pt3'
_cell_volume   671.45298558
_cell_formula_units_Z   1
loop_
 _symmetry_equiv_pos_site_id
 _symmetry_equiv_pos_as_xyz
  1  'x, y, z'
loop_
 _atom_site_type_symbol
 _atom_site_label
 _atom_site_symmetry_multiplicity
 _atom_site_fract_x
 _atom_site_fract_y
 _atom_site_fract_z
 _atom_site_occupancy
  Tb  Tb0  1  0.351199  0.351199  0.351199  1
  Tb  Tb1  1  0.348195  0.348195  0.953911  1
  Tb  Tb2  1  0.348195  0.953911  0.348195  1
  Tb  Tb3  1  0.953911  0.348195  0.348195  1
  Tb  Tb4  1  0.816570  0.186744  0.186744  1
  Tb  Tb5  1  0.186772  0.810288  0.810288  1
  Tb  Tb6  1  0.186744  0.816570  0.186744  1
  Tb  Tb7  1  0.810288  0.186772  0.810288  1
  Tb  Tb8  1  0.186744  0.186744  0.816570  1
  Tb  Tb9  1  0.810288  0.810288  0.186772  1
  Nd  Nd10  1  0.937645  0.562509  0.562509  1
  Nd  Nd11  1  0.554492  0.940339  0.940339  1
  Nd  Nd12  1  0.562509  0.937645  0.562509  1
  Nd  Nd13  1  0.940339  0.554492  0.940339  1
  Nd  Nd14  1  0.562509  0.562509  0.937645  1
  Nd  Nd15  1  0.940339  0.940339  0.554492  1
  Cd  Cd16  1  0.579402  0.579402  0.579402  1
  Cd  Cd17  1  0.579510  0.579510  0.259014  1
  Cd  Cd18  1  0.579510  0.259014  0.579510  1
  Cd  Cd19  1  0.259014  0.579510  0.579510  1
  Tc  Tc20  1  0.142989  0.142989  0.142989  1
  Pt  Pt21  1  0.144198  0.144198  0.574438  1
  Pt  Pt22  1  0.144198  0.574438  0.144198  1
  Pt  Pt23  1  0.574438  0.144198  0.144198  1
