# generated using pymatgen
data_Dy3Mg3Ag2Ru
_symmetry_space_group_name_H-M   'P 1'
_cell_length_a   7.74325800
_cell_length_b   7.74325788
_cell_length_c   3.96597100
_cell_angle_alpha   90.00000000
_cell_angle_beta   90.00000000
_cell_angle_gamma   120.00000050
_symmetry_Int_Tables_number   1
_chemical_formula_structural   Dy3Mg3Ag2Ru
_chemical_formula_sum   'Dy3 Mg3 Ag2 Ru1'
_cell_volume   205.93379218
_cell_formula_units_Z   1
loop_
 _symmetry_equiv_pos_site_id
 _symmetry_equiv_pos_as_xyz
  1  'x, y, z'
loop_
 _atom_site_type_symbol
 _atom_site_label
 _atom_site_symmetry_multiplicity
 _atom_site_fract_x
 _atom_site_fract_y
 _atom_site_fract_z
 _atom_site_occupancy
  Dy  Dy0  1  0.432797  0.396495  0.500000  1
  Dy  Dy1  1  0.603505  0.036302  0.500000  1
  Dy  Dy2  1  0.963698  0.567203  0.500000  1
  Mg  Mg3  1  0.744411  0.745392  0.000000  1
  Mg  Mg4  1  0.254608  0.999019  0.000000  1
  Mg  Mg5  1  0.000981  0.255589  0.000000  1
  Ag  Ag6  1  0.333333  0.666667  0.000000  1
  Ag  Ag7  1  0.000000  0.000000  0.500000  1
  Ru  Ru8  1  0.666667  0.333333  0.000000  1
