# generated using pymatgen
data_Yb3Pr17Si15Pt
_symmetry_space_group_name_H-M   'P 1'
_cell_length_a   7.95844110
_cell_length_b   7.90994297
_cell_length_c   15.17068565
_cell_angle_alpha   90.05319466
_cell_angle_beta   89.69868222
_cell_angle_gamma   90.18362039
_symmetry_Int_Tables_number   1
_chemical_formula_structural   Yb3Pr17Si15Pt
_chemical_formula_sum   'Yb3 Pr17 Si15 Pt1'
_cell_volume   954.98852316
_cell_formula_units_Z   1
loop_
 _symmetry_equiv_pos_site_id
 _symmetry_equiv_pos_as_xyz
  1  'x, y, z'
loop_
 _atom_site_type_symbol
 _atom_site_label
 _atom_site_symmetry_multiplicity
 _atom_site_fract_x
 _atom_site_fract_y
 _atom_site_fract_z
 _atom_site_occupancy
  Yb  Yb0  1  0.309219  0.308622  0.999437  1
  Yb  Yb1  1  0.190395  0.809457  0.250210  1
  Yb  Yb2  1  0.816148  0.190800  0.748215  1
  Pr  Pr3  1  0.692109  0.687334  0.499627  1
  Pr  Pr4  1  0.375422  0.008835  0.447343  1
  Pr  Pr5  1  0.493104  0.875488  0.700415  1
  Pr  Pr6  1  0.508592  0.123609  0.197471  1
  Pr  Pr7  1  0.874848  0.489473  0.298280  1
  Pr  Pr8  1  0.122133  0.509181  0.801765  1
  Pr  Pr9  1  0.625655  0.991601  0.948856  1
  Pr  Pr10  1  0.002014  0.374268  0.552129  1
  Pr  Pr11  1  0.991057  0.624486  0.050975  1
  Pr  Pr12  1  0.131016  0.991374  0.874584  1
  Pr  Pr13  1  0.513025  0.628694  0.125461  1
  Pr  Pr14  1  0.477324  0.364311  0.629497  1
  Pr  Pr15  1  0.627982  0.511699  0.874915  1
  Pr  Pr16  1  0.372670  0.483939  0.373758  1
  Pr  Pr17  1  0.874860  0.017227  0.375398  1
  Pr  Pr18  1  0.987471  0.124763  0.124276  1
  Pr  Pr19  1  0.021967  0.878847  0.625140  1
  Si  Si20  1  0.333517  0.699017  0.948337  1
  Si  Si21  1  0.663011  0.300386  0.450496  1
  Si  Si22  1  0.702488  0.335149  0.052860  1
  Si  Si23  1  0.304545  0.668572  0.548890  1
  Si  Si24  1  0.799657  0.835242  0.199519  1
  Si  Si25  1  0.165427  0.202055  0.298643  1
  Si  Si26  1  0.836189  0.799627  0.801236  1
  Si  Si27  1  0.287595  0.918504  0.057730  1
  Si  Si28  1  0.581522  0.786285  0.309112  1
  Si  Si29  1  0.429161  0.206140  0.813914  1
  Si  Si30  1  0.785455  0.583051  0.690594  1
  Si  Si31  1  0.212510  0.420963  0.189812  1
  Si  Si32  1  0.703909  0.073432  0.558324  1
  Si  Si33  1  0.919063  0.287740  0.942567  1
  Si  Si34  1  0.079993  0.714064  0.441274  1
  Pt  Pt35  1  0.188948  0.175763  0.698940  1
