# generated using pymatgen
data_Sc5Si7Ni16Ir
_symmetry_space_group_name_H-M   'P 1'
_cell_length_a   8.03919794
_cell_length_b   8.03919729
_cell_length_c   8.01487500
_cell_angle_alpha   60.10003524
_cell_angle_beta   60.10003791
_cell_angle_gamma   59.79992699
_symmetry_Int_Tables_number   1
_chemical_formula_structural   Sc5Si7Ni16Ir
_chemical_formula_sum   'Sc5 Si7 Ni16 Ir1'
_cell_volume   366.26821969
_cell_formula_units_Z   1
loop_
 _symmetry_equiv_pos_site_id
 _symmetry_equiv_pos_as_xyz
  1  'x, y, z'
loop_
 _atom_site_type_symbol
 _atom_site_label
 _atom_site_symmetry_multiplicity
 _atom_site_fract_x
 _atom_site_fract_y
 _atom_site_fract_z
 _atom_site_occupancy
  Sc  Sc0  1  0.303397  0.706948  0.293052  1
  Sc  Sc1  1  0.706948  0.303397  0.293052  1
  Sc  Sc2  1  0.285081  0.285081  0.714919  1
  Sc  Sc3  1  0.706948  0.303397  0.696603  1
  Sc  Sc4  1  0.303397  0.706948  0.696603  1
  Si  Si5  1  0.004530  0.004530  0.995470  1
  Si  Si6  1  0.998419  0.998419  0.501581  1
  Si  Si7  1  0.508549  0.995052  0.491451  1
  Si  Si8  1  0.995052  0.508549  0.491451  1
  Si  Si9  1  0.498419  0.498419  0.001581  1
  Si  Si10  1  0.995052  0.508549  0.004948  1
  Si  Si11  1  0.508549  0.995052  0.004948  1
  Ni  Ni12  1  0.880171  0.880171  0.351778  1
  Ni  Ni13  1  0.880088  0.357077  0.881417  1
  Ni  Ni14  1  0.357077  0.880088  0.881417  1
  Ni  Ni15  1  0.880171  0.880171  0.887879  1
  Ni  Ni16  1  0.118583  0.118583  0.642923  1
  Ni  Ni17  1  0.112121  0.648222  0.119829  1
  Ni  Ni18  1  0.648222  0.112121  0.119829  1
  Ni  Ni19  1  0.118583  0.118583  0.119912  1
  Ni  Ni20  1  0.668989  0.668989  0.991024  1
  Ni  Ni21  1  0.667653  0.997282  0.667532  1
  Ni  Ni22  1  0.997282  0.667653  0.667532  1
  Ni  Ni23  1  0.668989  0.668989  0.670998  1
  Ni  Ni24  1  0.332468  0.332468  0.002718  1
  Ni  Ni25  1  0.329002  0.008976  0.331011  1
  Ni  Ni26  1  0.008976  0.329002  0.331011  1
  Ni  Ni27  1  0.332468  0.332468  0.332347  1
  Ir  Ir28  1  0.684817  0.684817  0.315183  1
