# generated using pymatgen
data_Sr4Co3IrN4
_symmetry_space_group_name_H-M   'P 1'
_cell_length_a   5.26176644
_cell_length_b   9.21813821
_cell_length_c   13.45630863
_cell_angle_alpha   90.28302738
_cell_angle_beta   90.20687787
_cell_angle_gamma   90.07751122
_symmetry_Int_Tables_number   1
_chemical_formula_structural   Sr4Co3IrN4
_chemical_formula_sum   'Sr12 Co9 Ir3 N12'
_cell_volume   652.66779510
_cell_formula_units_Z   3
loop_
 _symmetry_equiv_pos_site_id
 _symmetry_equiv_pos_as_xyz
  1  'x, y, z'
loop_
 _atom_site_type_symbol
 _atom_site_label
 _atom_site_symmetry_multiplicity
 _atom_site_fract_x
 _atom_site_fract_y
 _atom_site_fract_z
 _atom_site_occupancy
  Sr  Sr0  1  0.497822  0.495163  0.750802  1
  Sr  Sr1  1  0.994589  0.004704  0.248475  1
  Sr  Sr2  1  0.005411  0.995296  0.751525  1
  Sr  Sr3  1  0.502178  0.504837  0.249198  1
  Sr  Sr4  1  0.976297  0.330088  0.411481  1
  Sr  Sr5  1  0.477782  0.169325  0.589585  1
  Sr  Sr6  1  0.523651  0.831972  0.087484  1
  Sr  Sr7  1  0.022983  0.671105  0.912135  1
  Sr  Sr8  1  0.023703  0.669912  0.588519  1
  Sr  Sr9  1  0.522218  0.830675  0.410415  1
  Sr  Sr10  1  0.476349  0.168028  0.912516  1
  Sr  Sr11  1  0.977017  0.328895  0.087865  1
  Co  Co12  1  0.460198  0.155645  0.159103  1
  Co  Co13  1  0.970440  0.340371  0.836116  1
  Co  Co14  1  0.029125  0.658932  0.335088  1
  Co  Co15  1  0.532778  0.841227  0.665267  1
  Co  Co16  1  0.539802  0.844355  0.840897  1
  Co  Co17  1  0.029560  0.659629  0.163884  1
  Co  Co18  1  0.970875  0.341068  0.664912  1
  Co  Co19  1  0.467222  0.158773  0.334733  1
  Co  Co20  1  0.000000  0.000000  0.000000  1
  Ir  Ir21  1  0.500000  0.500000  0.000000  1
  Ir  Ir22  1  0.500000  0.500000  0.500000  1
  Ir  Ir23  1  0.000000  0.000000  0.500000  1
  N  N24  1  0.312703  0.764363  0.753817  1
  N  N25  1  0.801688  0.739343  0.249383  1
  N  N26  1  0.198312  0.260657  0.750617  1
  N  N27  1  0.687297  0.235637  0.246183  1
  N  N28  1  0.250713  0.083139  0.417595  1
  N  N29  1  0.752145  0.417274  0.582373  1
  N  N30  1  0.248123  0.583539  0.081748  1
  N  N31  1  0.764123  0.921753  0.923673  1
  N  N32  1  0.749287  0.916861  0.582405  1
  N  N33  1  0.247855  0.582726  0.417627  1
  N  N34  1  0.751877  0.416461  0.918252  1
  N  N35  1  0.235877  0.078247  0.076327  1
