# generated using pymatgen
data_Ti4Fe2B4IrRu9
_symmetry_space_group_name_H-M   'P 1'
_cell_length_a   9.17465331
_cell_length_b   9.19162231
_cell_length_c   2.98240100
_cell_angle_alpha   90.00000000
_cell_angle_beta   90.00000000
_cell_angle_gamma   90.02974247
_symmetry_Int_Tables_number   1
_chemical_formula_structural   Ti4Fe2B4IrRu9
_chemical_formula_sum   'Ti4 Fe2 B4 Ir1 Ru9'
_cell_volume   251.50568747
_cell_formula_units_Z   1
loop_
 _symmetry_equiv_pos_site_id
 _symmetry_equiv_pos_as_xyz
  1  'x, y, z'
loop_
 _atom_site_type_symbol
 _atom_site_label
 _atom_site_symmetry_multiplicity
 _atom_site_fract_x
 _atom_site_fract_y
 _atom_site_fract_z
 _atom_site_occupancy
  Ti  Ti0  1  0.676877  0.177268  0.000000  1
  Ti  Ti1  1  0.325136  0.819925  0.000000  1
  Ti  Ti2  1  0.176253  0.328448  0.000000  1
  Ti  Ti3  1  0.823316  0.676652  0.000000  1
  Fe  Fe4  1  0.995823  0.998444  0.000000  1
  Fe  Fe5  1  0.500920  0.500036  0.000000  1
  B  B6  1  0.124692  0.625107  0.000000  1
  B  B7  1  0.875142  0.375071  0.000000  1
  B  B8  1  0.623615  0.873886  0.000000  1
  B  B9  1  0.378031  0.125995  0.000000  1
  Ir  Ir10  1  0.210980  0.074798  0.500000  1
  Ru  Ru11  1  0.788010  0.924940  0.500000  1
  Ru  Ru12  1  0.076012  0.789344  0.500000  1
  Ru  Ru13  1  0.710827  0.424369  0.500000  1
  Ru  Ru14  1  0.926620  0.211344  0.500000  1
  Ru  Ru15  1  0.289109  0.574312  0.500000  1
  Ru  Ru16  1  0.574797  0.710397  0.500000  1
  Ru  Ru17  1  0.424249  0.289108  0.500000  1
  Ru  Ru18  1  0.500046  0.999691  0.500000  1
  Ru  Ru19  1  0.999545  0.500866  0.500000  1
