# generated using pymatgen
data_Ho12Co4TcBi
_symmetry_space_group_name_H-M   'P 1'
_cell_length_a   8.30569880
_cell_length_b   8.30556379
_cell_length_c   8.30570008
_cell_angle_alpha   111.56986089
_cell_angle_beta   110.53355576
_cell_angle_gamma   106.35686487
_symmetry_Int_Tables_number   1
_chemical_formula_structural   Ho12Co4TcBi
_chemical_formula_sum   'Ho12 Co4 Tc1 Bi1'
_cell_volume   440.04965831
_cell_formula_units_Z   1
loop_
 _symmetry_equiv_pos_site_id
 _symmetry_equiv_pos_as_xyz
  1  'x, y, z'
loop_
 _atom_site_type_symbol
 _atom_site_label
 _atom_site_symmetry_multiplicity
 _atom_site_fract_x
 _atom_site_fract_y
 _atom_site_fract_z
 _atom_site_occupancy
  Ho  Ho0  1  0.817770  0.716504  0.534280  1
  Ho  Ho1  1  0.182230  0.283496  0.465720  1
  Ho  Ho2  1  0.182225  0.716504  0.898733  1
  Ho  Ho3  1  0.817775  0.283496  0.101267  1
  Ho  Ho4  1  0.689868  0.380819  0.690952  1
  Ho  Ho5  1  0.310132  0.619181  0.309048  1
  Ho  Ho6  1  0.689866  0.998919  0.309053  1
  Ho  Ho7  1  0.310134  0.001081  0.690947  1
  Ho  Ho8  1  0.589909  0.786380  0.803536  1
  Ho  Ho9  1  0.410091  0.213620  0.196464  1
  Ho  Ho10  1  0.982844  0.786380  0.196471  1
  Ho  Ho11  1  0.017156  0.213620  0.803529  1
  Co  Co12  1  0.621658  0.000000  0.621658  1
  Co  Co13  1  0.378342  0.000000  0.378342  1
  Co  Co14  1  0.110669  0.610669  0.500000  1
  Co  Co15  1  0.889331  0.389331  0.500000  1
  Tc  Tc16  1  0.000000  0.000000  0.000000  1
  Bi  Bi17  1  0.500000  0.500000  0.000000  1
