# generated using pymatgen
data_Y5HoIn2F20
_symmetry_space_group_name_H-M   'P 1'
_cell_length_a   8.29717479
_cell_length_b   8.29717532
_cell_length_c   8.29842000
_cell_angle_alpha   59.99502951
_cell_angle_beta   59.99502741
_cell_angle_gamma   60.00993643
_symmetry_Int_Tables_number   1
_chemical_formula_structural   Y5HoIn2F20
_chemical_formula_sum   'Y5 Ho1 In2 F20'
_cell_volume   403.96233890
_cell_formula_units_Z   1
loop_
 _symmetry_equiv_pos_site_id
 _symmetry_equiv_pos_as_xyz
  1  'x, y, z'
loop_
 _atom_site_type_symbol
 _atom_site_label
 _atom_site_symmetry_multiplicity
 _atom_site_fract_x
 _atom_site_fract_y
 _atom_site_fract_z
 _atom_site_occupancy
  Y  Y0  1  0.759092  0.240924  0.240908  1
  Y  Y1  1  0.240924  0.759092  0.759076  1
  Y  Y2  1  0.240924  0.759092  0.240908  1
  Y  Y3  1  0.759092  0.240924  0.759076  1
  Y  Y4  1  0.240928  0.240928  0.759072  1
  Ho  Ho5  1  0.758890  0.758890  0.241110  1
  In  In6  1  0.250016  0.250016  0.249984  1
  In  In7  1  0.750016  0.750016  0.749984  1
  F  F8  1  0.829261  0.501373  0.498627  1
  F  F9  1  0.170271  0.500001  0.499999  1
  F  F10  1  0.501373  0.829261  0.170739  1
  F  F11  1  0.500001  0.170271  0.829729  1
  F  F12  1  0.501373  0.829261  0.498627  1
  F  F13  1  0.170271  0.500001  0.829729  1
  F  F14  1  0.500001  0.170271  0.499999  1
  F  F15  1  0.829261  0.501373  0.170739  1
  F  F16  1  0.500006  0.500006  0.829737  1
  F  F17  1  0.500006  0.500006  0.170251  1
  F  F18  1  0.170263  0.829749  0.499994  1
  F  F19  1  0.829749  0.170263  0.499994  1
  F  F20  1  0.110807  0.110807  0.110877  1
  F  F21  1  0.888764  0.888764  0.890274  1
  F  F22  1  0.110807  0.110807  0.667509  1
  F  F23  1  0.109726  0.667801  0.111236  1
  F  F24  1  0.888764  0.888764  0.332199  1
  F  F25  1  0.889123  0.332491  0.889193  1
  F  F26  1  0.667801  0.109726  0.111236  1
  F  F27  1  0.332491  0.889123  0.889193  1
