# generated using pymatgen
data_La3Nd2Cd2Ru3
_symmetry_space_group_name_H-M   'P 1'
_cell_length_a   8.78469386
_cell_length_b   8.73199280
_cell_length_c   8.72854944
_cell_angle_alpha   109.58969113
_cell_angle_beta   109.61928801
_cell_angle_gamma   109.69574819
_symmetry_Int_Tables_number   1
_chemical_formula_structural   La3Nd2Cd2Ru3
_chemical_formula_sum   'La6 Nd4 Cd4 Ru6'
_cell_volume   512.27091524
_cell_formula_units_Z   2
loop_
 _symmetry_equiv_pos_site_id
 _symmetry_equiv_pos_as_xyz
  1  'x, y, z'
loop_
 _atom_site_type_symbol
 _atom_site_label
 _atom_site_symmetry_multiplicity
 _atom_site_fract_x
 _atom_site_fract_y
 _atom_site_fract_z
 _atom_site_occupancy
  La  La0  1  0.063188  0.748880  0.813136  1
  La  La1  1  0.812967  0.063537  0.749732  1
  La  La2  1  0.210985  0.210001  0.210669  1
  La  La3  1  0.500677  0.001212  0.289670  1
  La  La4  1  0.288917  0.499684  0.000223  1
  La  La5  1  0.000814  0.289440  0.499954  1
  Nd  Nd6  1  0.249502  0.682534  0.431825  1
  Nd  Nd7  1  0.748509  0.816496  0.066998  1
  Nd  Nd8  1  0.431907  0.249898  0.683018  1
  Nd  Nd9  1  0.682256  0.432625  0.249374  1
  Cd  Cd10  1  0.500350  0.999360  0.907831  1
  Cd  Cd11  1  0.588194  0.589093  0.590063  1
  Cd  Cd12  1  0.906345  0.501847  0.002276  1
  Cd  Cd13  1  0.000723  0.907453  0.497731  1
  Ru  Ru14  1  0.250989  0.137414  0.894242  1
  Ru  Ru15  1  0.755733  0.365942  0.609621  1
  Ru  Ru16  1  0.892689  0.247420  0.136375  1
  Ru  Ru17  1  0.145006  0.895777  0.253648  1
  Ru  Ru18  1  0.611784  0.756374  0.364484  1
  Ru  Ru19  1  0.358465  0.605016  0.749131  1
