# generated using pymatgen
data_Nd4HoPaS10
_symmetry_space_group_name_H-M   'P 1'
_cell_length_a   7.48486700
_cell_length_b   7.95218200
_cell_length_c   11.86929800
_cell_angle_alpha   90.00000000
_cell_angle_beta   90.00000000
_cell_angle_gamma   90.00000000
_symmetry_Int_Tables_number   1
_chemical_formula_structural   Nd4HoPaS10
_chemical_formula_sum   'Nd8 Ho2 Pa2 S20'
_cell_volume   706.47277860
_cell_formula_units_Z   2
loop_
 _symmetry_equiv_pos_site_id
 _symmetry_equiv_pos_as_xyz
  1  'x, y, z'
loop_
 _atom_site_type_symbol
 _atom_site_label
 _atom_site_symmetry_multiplicity
 _atom_site_fract_x
 _atom_site_fract_y
 _atom_site_fract_z
 _atom_site_occupancy
  Nd  Nd0  1  0.527030  0.503059  0.322878  1
  Nd  Nd1  1  0.972970  0.996941  0.822878  1
  Nd  Nd2  1  0.475645  0.996736  0.677329  1
  Nd  Nd3  1  0.024355  0.503264  0.177329  1
  Nd  Nd4  1  0.475645  0.503264  0.677329  1
  Nd  Nd5  1  0.024355  0.996736  0.177329  1
  Nd  Nd6  1  0.527030  0.996941  0.322878  1
  Nd  Nd7  1  0.972970  0.503059  0.822878  1
  Ho  Ho8  1  0.074283  0.750000  0.493750  1
  Ho  Ho9  1  0.425717  0.750000  0.993750  1
  Pa  Pa10  1  0.936576  0.250000  0.505872  1
  Pa  Pa11  1  0.563424  0.250000  0.005872  1
  S  S12  1  0.835319  0.963643  0.595422  1
  S  S13  1  0.664681  0.536357  0.095422  1
  S  S14  1  0.164727  0.455283  0.404806  1
  S  S15  1  0.335273  0.044717  0.904806  1
  S  S16  1  0.164727  0.044717  0.404806  1
  S  S17  1  0.335273  0.455283  0.904806  1
  S  S18  1  0.835319  0.536357  0.595422  1
  S  S19  1  0.664681  0.963643  0.095422  1
  S  S20  1  0.830434  0.750000  0.314415  1
  S  S21  1  0.669566  0.750000  0.814415  1
  S  S22  1  0.168036  0.250000  0.684336  1
  S  S23  1  0.331964  0.250000  0.184336  1
  S  S24  1  0.454828  0.750000  0.497959  1
  S  S25  1  0.045172  0.750000  0.997959  1
  S  S26  1  0.550355  0.250000  0.500884  1
  S  S27  1  0.949645  0.250000  0.000884  1
  S  S28  1  0.193034  0.750000  0.713409  1
  S  S29  1  0.306966  0.750000  0.213409  1
  S  S30  1  0.808302  0.250000  0.288509  1
  S  S31  1  0.691698  0.250000  0.788509  1
