# generated using pymatgen
data_Sm2Zn14Pd3
_symmetry_space_group_name_H-M   'P 1'
_cell_length_a   6.87217113
_cell_length_b   6.87217135
_cell_length_c   6.87217227
_cell_angle_alpha   82.79011276
_cell_angle_beta   82.79011330
_cell_angle_gamma   82.79012496
_symmetry_Int_Tables_number   1
_chemical_formula_structural   Sm2Zn14Pd3
_chemical_formula_sum   'Sm2 Zn14 Pd3'
_cell_volume   317.44595639
_cell_formula_units_Z   1
loop_
 _symmetry_equiv_pos_site_id
 _symmetry_equiv_pos_as_xyz
  1  'x, y, z'
loop_
 _atom_site_type_symbol
 _atom_site_label
 _atom_site_symmetry_multiplicity
 _atom_site_fract_x
 _atom_site_fract_y
 _atom_site_fract_z
 _atom_site_occupancy
  Sm  Sm0  1  0.662462  0.662462  0.662462  1
  Sm  Sm1  1  0.337538  0.337538  0.337538  1
  Zn  Zn2  1  0.350026  0.350026  0.840311  1
  Zn  Zn3  1  0.840311  0.350026  0.350026  1
  Zn  Zn4  1  0.102717  0.102717  0.102717  1
  Zn  Zn5  1  0.897283  0.897283  0.897283  1
  Zn  Zn6  1  0.297201  0.702799  0.000000  1
  Zn  Zn7  1  0.702799  0.000000  0.297201  1
  Zn  Zn8  1  0.000000  0.297201  0.702799  1
  Zn  Zn9  1  0.702799  0.297201  0.000000  1
  Zn  Zn10  1  0.297201  0.000000  0.702799  1
  Zn  Zn11  1  0.000000  0.702799  0.297201  1
  Zn  Zn12  1  0.159689  0.649974  0.649974  1
  Zn  Zn13  1  0.649974  0.649974  0.159689  1
  Zn  Zn14  1  0.649974  0.159689  0.649974  1
  Zn  Zn15  1  0.350026  0.840311  0.350026  1
  Pd  Pd16  1  0.000000  0.000000  0.500000  1
  Pd  Pd17  1  0.000000  0.500000  0.000000  1
  Pd  Pd18  1  0.500000  0.000000  0.000000  1
