# generated using pymatgen
data_Er10In8CuRh3
_symmetry_space_group_name_H-M   'P 1'
_cell_length_a   3.58435100
_cell_length_b   8.04404202
_cell_length_c   18.11450406
_cell_angle_alpha   90.00837017
_cell_angle_beta   90.00000000
_cell_angle_gamma   90.00000000
_symmetry_Int_Tables_number   1
_chemical_formula_structural   Er10In8CuRh3
_chemical_formula_sum   'Er10 In8 Cu1 Rh3'
_cell_volume   522.28951303
_cell_formula_units_Z   1
loop_
 _symmetry_equiv_pos_site_id
 _symmetry_equiv_pos_as_xyz
  1  'x, y, z'
loop_
 _atom_site_type_symbol
 _atom_site_label
 _atom_site_symmetry_multiplicity
 _atom_site_fract_x
 _atom_site_fract_y
 _atom_site_fract_z
 _atom_site_occupancy
  Er  Er0  1  0.000000  0.500779  0.499842  1
  Er  Er1  1  0.000000  0.000048  0.000793  1
  Er  Er2  1  0.000000  0.731545  0.279129  1
  Er  Er3  1  0.000000  0.256548  0.721618  1
  Er  Er4  1  0.000000  0.755204  0.778228  1
  Er  Er5  1  0.000000  0.254854  0.220047  1
  Er  Er6  1  0.000000  0.616387  0.085809  1
  Er  Er7  1  0.000000  0.382359  0.912642  1
  Er  Er8  1  0.000000  0.884322  0.587396  1
  Er  Er9  1  0.000000  0.118981  0.414291  1
  In  In10  1  0.500000  0.707363  0.932735  1
  In  In11  1  0.500000  0.292217  0.068134  1
  In  In12  1  0.500000  0.795571  0.432259  1
  In  In13  1  0.500000  0.208341  0.567651  1
  In  In14  1  0.500000  0.572469  0.649299  1
  In  In15  1  0.500000  0.424040  0.350577  1
  In  In16  1  0.500000  0.922386  0.151747  1
  In  In17  1  0.500000  0.071061  0.850553  1
  Cu  Cu18  1  0.500000  0.022021  0.301378  1
  Rh  Rh19  1  0.500000  0.524811  0.195538  1
  Rh  Rh20  1  0.500000  0.479387  0.804858  1
  Rh  Rh21  1  0.500000  0.979307  0.695478  1
