# generated using pymatgen
data_Yb2B2Rh5Pb
_symmetry_space_group_name_H-M   'P 1'
_cell_length_a   9.86091000
_cell_length_b   9.86091000
_cell_length_c   3.08301800
_cell_angle_alpha   90.00000000
_cell_angle_beta   90.00000000
_cell_angle_gamma   90.00000000
_symmetry_Int_Tables_number   1
_chemical_formula_structural   Yb2B2Rh5Pb
_chemical_formula_sum   'Yb4 B4 Rh10 Pb2'
_cell_volume   299.78510468
_cell_formula_units_Z   2
loop_
 _symmetry_equiv_pos_site_id
 _symmetry_equiv_pos_as_xyz
  1  'x, y, z'
loop_
 _atom_site_type_symbol
 _atom_site_label
 _atom_site_symmetry_multiplicity
 _atom_site_fract_x
 _atom_site_fract_y
 _atom_site_fract_z
 _atom_site_occupancy
  Yb  Yb0  1  0.824139  0.324139  0.000000  1
  Yb  Yb1  1  0.324139  0.175861  0.000000  1
  Yb  Yb2  1  0.675861  0.824139  0.000000  1
  Yb  Yb3  1  0.175861  0.675861  0.000000  1
  B  B4  1  0.620719  0.120719  0.000000  1
  B  B5  1  0.120719  0.379281  0.000000  1
  B  B6  1  0.879281  0.620719  0.000000  1
  B  B7  1  0.379281  0.879281  0.000000  1
  Rh  Rh8  1  0.070538  0.229883  0.500000  1
  Rh  Rh9  1  0.229883  0.929462  0.500000  1
  Rh  Rh10  1  0.770117  0.070538  0.500000  1
  Rh  Rh11  1  0.929462  0.770117  0.500000  1
  Rh  Rh12  1  0.429462  0.729883  0.500000  1
  Rh  Rh13  1  0.570538  0.270117  0.500000  1
  Rh  Rh14  1  0.729883  0.570538  0.500000  1
  Rh  Rh15  1  0.270117  0.429462  0.500000  1
  Rh  Rh16  1  0.500000  0.000000  0.500000  1
  Rh  Rh17  1  0.000000  0.500000  0.500000  1
  Pb  Pb18  1  0.000000  0.000000  0.000000  1
  Pb  Pb19  1  0.500000  0.500000  0.000000  1
