# generated using pymatgen
data_Gd4HoGa2Sn
_symmetry_space_group_name_H-M   'P 1'
_cell_length_a   7.85287100
_cell_length_b   7.85287100
_cell_length_c   14.21624000
_cell_angle_alpha   90.00000000
_cell_angle_beta   90.00000000
_cell_angle_gamma   90.00000000
_symmetry_Int_Tables_number   1
_chemical_formula_structural   Gd4HoGa2Sn
_chemical_formula_sum   'Gd16 Ho4 Ga8 Sn4'
_cell_volume   876.68115933
_cell_formula_units_Z   4
loop_
 _symmetry_equiv_pos_site_id
 _symmetry_equiv_pos_as_xyz
  1  'x, y, z'
loop_
 _atom_site_type_symbol
 _atom_site_label
 _atom_site_symmetry_multiplicity
 _atom_site_fract_x
 _atom_site_fract_y
 _atom_site_fract_z
 _atom_site_occupancy
  Gd  Gd0  1  0.829468  0.839890  0.604911  1
  Gd  Gd1  1  0.170532  0.839890  0.104911  1
  Gd  Gd2  1  0.160110  0.829468  0.395089  1
  Gd  Gd3  1  0.839890  0.170532  0.395089  1
  Gd  Gd4  1  0.670532  0.660110  0.395089  1
  Gd  Gd5  1  0.660110  0.329468  0.604911  1
  Gd  Gd6  1  0.339890  0.670532  0.604911  1
  Gd  Gd7  1  0.660110  0.670532  0.104911  1
  Gd  Gd8  1  0.670532  0.339890  0.895089  1
  Gd  Gd9  1  0.839890  0.829468  0.895089  1
  Gd  Gd10  1  0.329468  0.339890  0.395089  1
  Gd  Gd11  1  0.170532  0.160110  0.604911  1
  Gd  Gd12  1  0.829468  0.160110  0.104911  1
  Gd  Gd13  1  0.329468  0.660110  0.895089  1
  Gd  Gd14  1  0.339890  0.329468  0.104911  1
  Gd  Gd15  1  0.160110  0.170532  0.895089  1
  Ho  Ho16  1  0.000000  0.500000  0.740171  1
  Ho  Ho17  1  0.000000  0.500000  0.240171  1
  Ho  Ho18  1  0.500000  0.000000  0.259829  1
  Ho  Ho19  1  0.500000  0.000000  0.759829  1
  Ga  Ga20  1  0.625453  0.374547  0.250000  1
  Ga  Ga21  1  0.125453  0.874547  0.750000  1
  Ga  Ga22  1  0.374547  0.374547  0.750000  1
  Ga  Ga23  1  0.374547  0.625453  0.250000  1
  Ga  Ga24  1  0.874547  0.874547  0.250000  1
  Ga  Ga25  1  0.625453  0.625453  0.750000  1
  Ga  Ga26  1  0.874547  0.125453  0.750000  1
  Ga  Ga27  1  0.125453  0.125453  0.250000  1
  Sn  Sn28  1  0.000000  0.500000  0.503457  1
  Sn  Sn29  1  0.500000  0.000000  0.496543  1
  Sn  Sn30  1  0.500000  0.000000  0.996543  1
  Sn  Sn31  1  0.000000  0.500000  0.003457  1
