# generated using pymatgen
data_Tb3Mn4Co4TcP6
_symmetry_space_group_name_H-M   'P 1'
_cell_length_a   3.75454900
_cell_length_b   10.57500319
_cell_length_c   12.47015380
_cell_angle_alpha   89.65230700
_cell_angle_beta   90.00000000
_cell_angle_gamma   90.00000000
_symmetry_Int_Tables_number   1
_chemical_formula_structural   Tb3Mn4Co4TcP6
_chemical_formula_sum   'Tb6 Mn8 Co8 Tc2 P12'
_cell_volume   495.11045479
_cell_formula_units_Z   2
loop_
 _symmetry_equiv_pos_site_id
 _symmetry_equiv_pos_as_xyz
  1  'x, y, z'
loop_
 _atom_site_type_symbol
 _atom_site_label
 _atom_site_symmetry_multiplicity
 _atom_site_fract_x
 _atom_site_fract_y
 _atom_site_fract_z
 _atom_site_occupancy
  Tb  Tb0  1  0.000000  0.502064  0.526337  1
  Tb  Tb1  1  0.500000  0.996400  0.474433  1
  Tb  Tb2  1  0.500000  0.818556  0.207960  1
  Tb  Tb3  1  0.500000  0.178082  0.206931  1
  Tb  Tb4  1  0.000000  0.682060  0.790129  1
  Tb  Tb5  1  0.000000  0.321514  0.791949  1
  Mn  Mn6  1  0.000000  0.500249  0.987752  1
  Mn  Mn7  1  0.500000  0.330786  0.994284  1
  Mn  Mn8  1  0.500000  0.668432  0.994425  1
  Mn  Mn9  1  0.000000  0.172940  0.004955  1
  Mn  Mn10  1  0.000000  0.826391  0.004344  1
  Mn  Mn11  1  0.500000  0.296869  0.431939  1
  Mn  Mn12  1  0.500000  0.704005  0.432690  1
  Mn  Mn13  1  0.000000  0.202248  0.567611  1
  Co  Co14  1  0.500000  0.504847  0.698851  1
  Co  Co15  1  0.000000  0.995879  0.296143  1
  Co  Co16  1  0.500000  0.999456  0.009833  1
  Co  Co17  1  0.000000  0.799078  0.570431  1
  Co  Co18  1  0.500000  0.881925  0.706097  1
  Co  Co19  1  0.500000  0.120646  0.705876  1
  Co  Co20  1  0.000000  0.618210  0.295496  1
  Co  Co21  1  0.000000  0.377758  0.297280  1
  Tc  Tc22  1  0.500000  0.499245  0.159762  1
  Tc  Tc23  1  0.000000  0.000330  0.842973  1
  P  P24  1  0.500000  0.501332  0.877298  1
  P  P25  1  0.000000  0.998324  0.116704  1
  P  P26  1  0.500000  0.505369  0.350129  1
  P  P27  1  0.000000  0.999125  0.652629  1
  P  P28  1  0.500000  0.314354  0.618016  1
  P  P29  1  0.500000  0.693903  0.613129  1
  P  P30  1  0.000000  0.183136  0.381651  1
  P  P31  1  0.000000  0.807197  0.385298  1
  P  P32  1  0.500000  0.847558  0.887776  1
  P  P33  1  0.500000  0.152821  0.887508  1
  P  P34  1  0.000000  0.649406  0.115466  1
  P  P35  1  0.000000  0.349505  0.115915  1
