# generated using pymatgen
data_Pr2Tm4Co17MoP12
_symmetry_space_group_name_H-M   'P 1'
_cell_length_a   3.71207400
_cell_length_b   10.55769400
_cell_length_c   12.25249000
_cell_angle_alpha   90.00000000
_cell_angle_beta   90.00000000
_cell_angle_gamma   90.00000000
_symmetry_Int_Tables_number   1
_chemical_formula_structural   Pr2Tm4Co17MoP12
_chemical_formula_sum   'Pr2 Tm4 Co17 Mo1 P12'
_cell_volume   480.18661756
_cell_formula_units_Z   1
loop_
 _symmetry_equiv_pos_site_id
 _symmetry_equiv_pos_as_xyz
  1  'x, y, z'
loop_
 _atom_site_type_symbol
 _atom_site_label
 _atom_site_symmetry_multiplicity
 _atom_site_fract_x
 _atom_site_fract_y
 _atom_site_fract_z
 _atom_site_occupancy
  Pr  Pr0  1  0.000000  0.500000  0.525885  1
  Pr  Pr1  1  0.500000  0.000000  0.477441  1
  Tm  Tm2  1  0.500000  0.818498  0.204785  1
  Tm  Tm3  1  0.500000  0.181502  0.204785  1
  Tm  Tm4  1  0.000000  0.682566  0.797416  1
  Tm  Tm5  1  0.000000  0.317434  0.797416  1
  Co  Co6  1  0.000000  0.000000  0.842631  1
  Co  Co7  1  0.500000  0.500000  0.706104  1
  Co  Co8  1  0.000000  0.000000  0.292109  1
  Co  Co9  1  0.000000  0.500000  0.985344  1
  Co  Co10  1  0.500000  0.000000  0.014186  1
  Co  Co11  1  0.500000  0.330953  0.990243  1
  Co  Co12  1  0.500000  0.669047  0.990243  1
  Co  Co13  1  0.000000  0.165830  0.005744  1
  Co  Co14  1  0.000000  0.834170  0.005744  1
  Co  Co15  1  0.500000  0.294990  0.429594  1
  Co  Co16  1  0.500000  0.705010  0.429594  1
  Co  Co17  1  0.000000  0.203941  0.571667  1
  Co  Co18  1  0.000000  0.796059  0.571667  1
  Co  Co19  1  0.500000  0.879273  0.712723  1
  Co  Co20  1  0.500000  0.120727  0.712723  1
  Co  Co21  1  0.000000  0.622242  0.288563  1
  Co  Co22  1  0.000000  0.377758  0.288563  1
  Mo  Mo23  1  0.500000  0.500000  0.153143  1
  P  P24  1  0.500000  0.500000  0.881600  1
  P  P25  1  0.000000  0.000000  0.116368  1
  P  P26  1  0.500000  0.500000  0.344789  1
  P  P27  1  0.000000  0.000000  0.661182  1
  P  P28  1  0.500000  0.306967  0.620112  1
  P  P29  1  0.500000  0.693033  0.620112  1
  P  P30  1  0.000000  0.191919  0.381747  1
  P  P31  1  0.000000  0.808081  0.381747  1
  P  P32  1  0.500000  0.848525  0.892306  1
  P  P33  1  0.500000  0.151475  0.892306  1
  P  P34  1  0.000000  0.657764  0.104711  1
  P  P35  1  0.000000  0.342236  0.104711  1
