# generated using pymatgen
data_YTmMnIr3
_symmetry_space_group_name_H-M   'P 1'
_cell_length_a   5.17375672
_cell_length_b   5.17375617
_cell_length_c   5.17375626
_cell_angle_alpha   63.83871486
_cell_angle_beta   63.83871650
_cell_angle_gamma   63.83872520
_symmetry_Int_Tables_number   1
_chemical_formula_structural   YTmMnIr3
_chemical_formula_sum   'Y1 Tm1 Mn1 Ir3'
_cell_volume   106.21710775
_cell_formula_units_Z   1
loop_
 _symmetry_equiv_pos_site_id
 _symmetry_equiv_pos_as_xyz
  1  'x, y, z'
loop_
 _atom_site_type_symbol
 _atom_site_label
 _atom_site_symmetry_multiplicity
 _atom_site_fract_x
 _atom_site_fract_y
 _atom_site_fract_z
 _atom_site_occupancy
  Y  Y0  1  0.251149  0.251149  0.251149  1
  Tm  Tm1  1  0.998211  0.998211  0.998211  1
  Mn  Mn2  1  0.625055  0.625055  0.625055  1
  Ir  Ir3  1  0.625443  0.625443  0.124698  1
  Ir  Ir4  1  0.625443  0.124698  0.625443  1
  Ir  Ir5  1  0.124698  0.625443  0.625443  1
