# generated using pymatgen
data_La8Nd9Dy3Si16
_symmetry_space_group_name_H-M   'P 1'
_cell_length_a   7.89063149
_cell_length_b   7.89063149
_cell_length_c   15.26913171
_cell_angle_alpha   89.97531022
_cell_angle_beta   90.02468978
_cell_angle_gamma   89.96790797
_symmetry_Int_Tables_number   1
_chemical_formula_structural   La8Nd9Dy3Si16
_chemical_formula_sum   'La8 Nd9 Dy3 Si16'
_cell_volume   950.68735060
_cell_formula_units_Z   1
loop_
 _symmetry_equiv_pos_site_id
 _symmetry_equiv_pos_as_xyz
  1  'x, y, z'
loop_
 _atom_site_type_symbol
 _atom_site_label
 _atom_site_symmetry_multiplicity
 _atom_site_fract_x
 _atom_site_fract_y
 _atom_site_fract_z
 _atom_site_occupancy
  La  La0  1  0.987649  0.623085  0.052616  1
  La  La1  1  0.012512  0.376759  0.552776  1
  La  La2  1  0.623085  0.987649  0.947384  1
  La  La3  1  0.123094  0.513370  0.802351  1
  La  La4  1  0.876955  0.487222  0.302576  1
  La  La5  1  0.513370  0.123094  0.197649  1
  La  La6  1  0.487222  0.876955  0.697424  1
  La  La7  1  0.376759  0.012512  0.447224  1
  Nd  Nd8  1  0.372923  0.481149  0.373146  1
  Nd  Nd9  1  0.873046  0.019199  0.377011  1
  Nd  Nd10  1  0.980940  0.126769  0.123177  1
  Nd  Nd11  1  0.019199  0.873046  0.622989  1
  Nd  Nd12  1  0.626557  0.519462  0.872710  1
  Nd  Nd13  1  0.481149  0.372923  0.626854  1
  Nd  Nd14  1  0.519462  0.626557  0.127290  1
  Nd  Nd15  1  0.126769  0.980940  0.876823  1
  Nd  Nd16  1  0.308147  0.308147  0.000000  1
  Dy  Dy17  1  0.690065  0.690065  0.500000  1
  Dy  Dy18  1  0.809271  0.189905  0.750074  1
  Dy  Dy19  1  0.189905  0.809271  0.249926  1
  Si  Si20  1  0.078224  0.714485  0.437615  1
  Si  Si21  1  0.919127  0.285108  0.937043  1
  Si  Si22  1  0.714485  0.078224  0.562385  1
  Si  Si23  1  0.213514  0.423387  0.189878  1
  Si  Si24  1  0.785878  0.578489  0.687481  1
  Si  Si25  1  0.423387  0.213514  0.810122  1
  Si  Si26  1  0.578489  0.785878  0.312519  1
  Si  Si27  1  0.285108  0.919127  0.062957  1
  Si  Si28  1  0.829887  0.808812  0.795420  1
  Si  Si29  1  0.170121  0.191253  0.295909  1
  Si  Si30  1  0.808812  0.829887  0.204580  1
  Si  Si31  1  0.308706  0.670364  0.545280  1
  Si  Si32  1  0.694010  0.330556  0.045898  1
  Si  Si33  1  0.670364  0.308706  0.454720  1
  Si  Si34  1  0.330556  0.694010  0.954102  1
  Si  Si35  1  0.191253  0.170121  0.704091  1
