# generated using pymatgen
data_SrEu3Mn4O12
_symmetry_space_group_name_H-M   'P 1'
_cell_length_a   7.76734900
_cell_length_b   5.51128278
_cell_length_c   5.55347854
_cell_angle_alpha   89.87975230
_cell_angle_beta   90.00000000
_cell_angle_gamma   90.00000000
_symmetry_Int_Tables_number   1
_chemical_formula_structural   SrEu3Mn4O12
_chemical_formula_sum   'Sr1 Eu3 Mn4 O12'
_cell_volume   237.73310103
_cell_formula_units_Z   1
loop_
 _symmetry_equiv_pos_site_id
 _symmetry_equiv_pos_as_xyz
  1  'x, y, z'
loop_
 _atom_site_type_symbol
 _atom_site_label
 _atom_site_symmetry_multiplicity
 _atom_site_fract_x
 _atom_site_fract_y
 _atom_site_fract_z
 _atom_site_occupancy
  Sr  Sr0  1  0.000000  0.505235  0.472321  1
  Eu  Eu1  1  0.500000  0.004234  0.035960  1
  Eu  Eu2  1  0.500000  0.494354  0.539609  1
  Eu  Eu3  1  0.000000  0.993376  0.961870  1
  Mn  Mn4  1  0.250108  0.500639  0.001768  1
  Mn  Mn5  1  0.250348  0.999091  0.499126  1
  Mn  Mn6  1  0.749652  0.999091  0.499126  1
  Mn  Mn7  1  0.749892  0.500639  0.001768  1
  O  O8  1  0.292215  0.287714  0.287714  1
  O  O9  1  0.217141  0.795238  0.204543  1
  O  O10  1  0.710481  0.213232  0.788055  1
  O  O11  1  0.776352  0.716837  0.717805  1
  O  O12  1  0.223648  0.716837  0.717805  1
  O  O13  1  0.289519  0.213232  0.788055  1
  O  O14  1  0.782859  0.795238  0.204543  1
  O  O15  1  0.707785  0.287714  0.287714  1
  O  O16  1  0.500000  0.926470  0.479449  1
  O  O17  1  0.000000  0.426224  0.006207  1
  O  O18  1  0.500000  0.570649  0.985767  1
  O  O19  1  0.000000  0.053952  0.520794  1
