# generated using pymatgen
data_Ho7ErPd4
_symmetry_space_group_name_H-M   'P 1'
_cell_length_a   7.07408702
_cell_length_b   4.86222000
_cell_length_c   8.71891602
_cell_angle_alpha   90.00000000
_cell_angle_beta   89.99252704
_cell_angle_gamma   90.00000000
_symmetry_Int_Tables_number   1
_chemical_formula_structural   Ho7ErPd4
_chemical_formula_sum   'Ho7 Er1 Pd4'
_cell_volume   299.89380451
_cell_formula_units_Z   1
loop_
 _symmetry_equiv_pos_site_id
 _symmetry_equiv_pos_as_xyz
  1  'x, y, z'
loop_
 _atom_site_type_symbol
 _atom_site_label
 _atom_site_symmetry_multiplicity
 _atom_site_fract_x
 _atom_site_fract_y
 _atom_site_fract_z
 _atom_site_occupancy
  Ho  Ho0  1  0.855199  0.250000  0.079658  1
  Ho  Ho1  1  0.516065  0.750000  0.171837  1
  Ho  Ho2  1  0.016274  0.750000  0.327998  1
  Ho  Ho3  1  0.355033  0.250000  0.420224  1
  Ho  Ho4  1  0.644932  0.750000  0.579809  1
  Ho  Ho5  1  0.983886  0.250000  0.672005  1
  Ho  Ho6  1  0.483589  0.250000  0.828127  1
  Er  Er7  1  0.144896  0.750000  0.920391  1
  Pd  Pd8  1  0.259275  0.250000  0.094235  1
  Pd  Pd9  1  0.759436  0.250000  0.405515  1
  Pd  Pd10  1  0.240535  0.750000  0.594713  1
  Pd  Pd11  1  0.740876  0.750000  0.905490  1
