# generated using pymatgen
data_AlSiNi11Se4
_symmetry_space_group_name_H-M   'P 1'
_cell_length_a   3.58219700
_cell_length_b   3.58219700
_cell_length_c   18.40748300
_cell_angle_alpha   90.00000000
_cell_angle_beta   90.00000000
_cell_angle_gamma   90.00000000
_symmetry_Int_Tables_number   1
_chemical_formula_structural   AlSiNi11Se4
_chemical_formula_sum   'Al1 Si1 Ni11 Se4'
_cell_volume   236.20731325
_cell_formula_units_Z   1
loop_
 _symmetry_equiv_pos_site_id
 _symmetry_equiv_pos_as_xyz
  1  'x, y, z'
loop_
 _atom_site_type_symbol
 _atom_site_label
 _atom_site_symmetry_multiplicity
 _atom_site_fract_x
 _atom_site_fract_y
 _atom_site_fract_z
 _atom_site_occupancy
  Al  Al0  1  0.000000  0.000000  0.999928  1
  Si  Si1  1  0.500000  0.500000  0.500162  1
  Ni  Ni2  1  0.000000  0.500000  0.409538  1
  Ni  Ni3  1  0.500000  0.000000  0.903567  1
  Ni  Ni4  1  0.500000  0.000000  0.409538  1
  Ni  Ni5  1  0.000000  0.500000  0.903567  1
  Ni  Ni6  1  0.500000  0.000000  0.096377  1
  Ni  Ni7  1  0.000000  0.500000  0.593075  1
  Ni  Ni8  1  0.000000  0.500000  0.096377  1
  Ni  Ni9  1  0.500000  0.000000  0.593075  1
  Ni  Ni10  1  0.000000  0.000000  0.501642  1
  Ni  Ni11  1  0.500000  0.500000  0.000003  1
  Ni  Ni12  1  0.500000  0.500000  0.301204  1
  Se  Se13  1  0.000000  0.000000  0.318957  1
  Se  Se14  1  0.500000  0.500000  0.822889  1
  Se  Se15  1  0.500000  0.500000  0.176757  1
  Se  Se16  1  0.000000  0.000000  0.674840  1
