# generated using pymatgen
data_Gd3TmMg(ReN4)3
_symmetry_space_group_name_H-M   'P 1'
_cell_length_a   11.14972133
_cell_length_b   11.14972110
_cell_length_c   11.14972200
_cell_angle_alpha   109.47122226
_cell_angle_beta   109.47122186
_cell_angle_gamma   109.47121982
_symmetry_Int_Tables_number   1
_chemical_formula_structural   Gd3TmMg(ReN4)3
_chemical_formula_sum   'Gd12 Tm4 Mg4 Re12 N48'
_cell_volume   1067.01409056
_cell_formula_units_Z   4
loop_
 _symmetry_equiv_pos_site_id
 _symmetry_equiv_pos_as_xyz
  1  'x, y, z'
loop_
 _atom_site_type_symbol
 _atom_site_label
 _atom_site_symmetry_multiplicity
 _atom_site_fract_x
 _atom_site_fract_y
 _atom_site_fract_z
 _atom_site_occupancy
  Gd  Gd0  1  0.250000  0.376306  0.126306  1
  Gd  Gd1  1  0.373694  0.750000  0.123693  1
  Gd  Gd2  1  0.376306  0.126306  0.250000  1
  Gd  Gd3  1  0.876306  0.626306  0.250000  1
  Gd  Gd4  1  0.750000  0.123693  0.373694  1
  Gd  Gd5  1  0.126306  0.250000  0.376306  1
  Gd  Gd6  1  0.873694  0.750000  0.623694  1
  Gd  Gd7  1  0.250000  0.876306  0.626306  1
  Gd  Gd8  1  0.123693  0.373694  0.750000  1
  Gd  Gd9  1  0.623694  0.873694  0.750000  1
  Gd  Gd10  1  0.626306  0.250000  0.876306  1
  Gd  Gd11  1  0.750000  0.623694  0.873694  1
  Tm  Tm12  1  0.000000  0.000000  0.000000  1
  Tm  Tm13  1  0.500000  0.500000  0.000000  1
  Tm  Tm14  1  0.500000  0.000000  0.500000  1
  Tm  Tm15  1  0.000000  0.500000  0.500000  1
  Mg  Mg16  1  0.499999  0.000000  0.000000  1
  Mg  Mg17  1  0.000000  0.499999  0.000000  1
  Mg  Mg18  1  0.000000  0.000000  0.499999  1
  Mg  Mg19  1  0.499999  0.499999  0.499999  1
  Re  Re20  1  0.873678  0.250000  0.123678  1
  Re  Re21  1  0.750000  0.876322  0.126322  1
  Re  Re22  1  0.623678  0.373678  0.250000  1
  Re  Re23  1  0.123678  0.873678  0.250000  1
  Re  Re24  1  0.250000  0.623678  0.373678  1
  Re  Re25  1  0.626322  0.750000  0.376322  1
  Re  Re26  1  0.373678  0.250000  0.623678  1
  Re  Re27  1  0.750000  0.376322  0.626322  1
  Re  Re28  1  0.876322  0.126322  0.750000  1
  Re  Re29  1  0.376322  0.626322  0.750000  1
  Re  Re30  1  0.250000  0.123678  0.873678  1
  Re  Re31  1  0.126322  0.750000  0.876322  1
  N  N32  1  0.222728  0.125540  0.027216  1
  N  N33  1  0.308253  0.901444  0.024365  1
  N  N34  1  0.877080  0.401445  0.093192  1
  N  N35  1  0.722728  0.695512  0.097187  1
  N  N36  1  0.625540  0.402813  0.098324  1
  N  N37  1  0.975634  0.691745  0.098554  1
  N  N38  1  0.027216  0.222728  0.125540  1
  N  N39  1  0.598554  0.906809  0.122919  1
  N  N40  1  0.216111  0.593191  0.191746  1
  N  N41  1  0.472784  0.598324  0.195512  1
  N  N42  1  0.125540  0.027216  0.222728  1
  N  N43  1  0.593191  0.191746  0.216111  1
  N  N44  1  0.475634  0.377081  0.283888  1
  N  N45  1  0.304488  0.902813  0.277272  1
  N  N46  1  0.901444  0.024365  0.308253  1
  N  N47  1  0.902813  0.277272  0.304488  1
  N  N48  1  0.283888  0.475634  0.377081  1
  N  N49  1  0.597187  0.901676  0.374460  1
  N  N50  1  0.804488  0.527216  0.401676  1
  N  N51  1  0.093192  0.877080  0.401445  1
  N  N52  1  0.098324  0.625540  0.402813  1
  N  N53  1  0.808254  0.783888  0.406808  1
  N  N54  1  0.598324  0.195512  0.472784  1
  N  N55  1  0.377081  0.283888  0.475634  1
  N  N56  1  0.622919  0.716111  0.524365  1
  N  N57  1  0.401676  0.804488  0.527216  1
  N  N58  1  0.191746  0.216111  0.593191  1
  N  N59  1  0.901676  0.374460  0.597187  1
  N  N60  1  0.906809  0.122919  0.598554  1
  N  N61  1  0.195512  0.472784  0.598324  1
  N  N62  1  0.402813  0.098324  0.625540  1
  N  N63  1  0.716111  0.524365  0.622919  1
  N  N64  1  0.097187  0.722728  0.695512  1
  N  N65  1  0.098554  0.975634  0.691745  1
  N  N66  1  0.695512  0.097187  0.722728  1
  N  N67  1  0.524365  0.622919  0.716111  1
  N  N68  1  0.406808  0.808254  0.783888  1
  N  N69  1  0.874460  0.972785  0.777273  1
  N  N70  1  0.527216  0.401676  0.804488  1
  N  N71  1  0.783888  0.406808  0.808254  1
  N  N72  1  0.401445  0.093192  0.877080  1
  N  N73  1  0.972785  0.777273  0.874460  1
  N  N74  1  0.024365  0.308253  0.901444  1
  N  N75  1  0.374460  0.597187  0.901676  1
  N  N76  1  0.277272  0.304488  0.902813  1
  N  N77  1  0.122919  0.598554  0.906809  1
  N  N78  1  0.691745  0.098554  0.975634  1
  N  N79  1  0.777273  0.874460  0.972785  1
