# generated using pymatgen
data_Er7Tm9(ZnIn3)2
_symmetry_space_group_name_H-M   'P 1'
_cell_length_a   10.54509100
_cell_length_b   10.54509065
_cell_length_c   6.67945100
_cell_angle_alpha   90.00000000
_cell_angle_beta   90.00000000
_cell_angle_gamma   120.00000423
_symmetry_Int_Tables_number   1
_chemical_formula_structural   Er7Tm9(ZnIn3)2
_chemical_formula_sum   'Er7 Tm9 Zn2 In6'
_cell_volume   643.23850048
_cell_formula_units_Z   1
loop_
 _symmetry_equiv_pos_site_id
 _symmetry_equiv_pos_as_xyz
  1  'x, y, z'
loop_
 _atom_site_type_symbol
 _atom_site_label
 _atom_site_symmetry_multiplicity
 _atom_site_fract_x
 _atom_site_fract_y
 _atom_site_fract_z
 _atom_site_occupancy
  Er  Er0  1  0.826617  0.653233  0.233791  1
  Er  Er1  1  0.346767  0.173383  0.233791  1
  Er  Er2  1  0.826617  0.173383  0.233791  1
  Er  Er3  1  0.666667  0.333333  0.866680  1
  Er  Er4  1  0.333333  0.666667  0.367958  1
  Er  Er5  1  0.000000  0.000000  0.499204  1
  Er  Er6  1  0.000000  0.000000  0.997634  1
  Tm  Tm7  1  0.520082  0.040161  0.517925  1
  Tm  Tm8  1  0.959839  0.479918  0.517925  1
  Tm  Tm9  1  0.520082  0.479918  0.517925  1
  Tm  Tm10  1  0.479384  0.958769  0.016862  1
  Tm  Tm11  1  0.041231  0.520616  0.016862  1
  Tm  Tm12  1  0.479384  0.520616  0.016862  1
  Tm  Tm13  1  0.173298  0.346597  0.733878  1
  Tm  Tm14  1  0.653403  0.826702  0.733878  1
  Tm  Tm15  1  0.173298  0.826702  0.733878  1
  Zn  Zn16  1  0.666667  0.333333  0.303647  1
  Zn  Zn17  1  0.333333  0.666667  0.803654  1
  In  In18  1  0.835681  0.671363  0.749301  1
  In  In19  1  0.328637  0.164319  0.749301  1
  In  In20  1  0.835681  0.164319  0.749301  1
  In  In21  1  0.164727  0.329453  0.250051  1
  In  In22  1  0.670547  0.835273  0.250051  1
  In  In23  1  0.164727  0.835273  0.250051  1
