# generated using pymatgen
data_HoCuNi2BIr
_symmetry_space_group_name_H-M   'P 1'
_cell_length_a   5.23403400
_cell_length_b   5.10773206
_cell_length_c   7.05843700
_cell_angle_alpha   90.00000000
_cell_angle_beta   90.00000000
_cell_angle_gamma   120.82139678
_symmetry_Int_Tables_number   1
_chemical_formula_structural   HoCuNi2BIr
_chemical_formula_sum   'Ho2 Cu2 Ni4 B2 Ir2'
_cell_volume   162.05011916
_cell_formula_units_Z   2
loop_
 _symmetry_equiv_pos_site_id
 _symmetry_equiv_pos_as_xyz
  1  'x, y, z'
loop_
 _atom_site_type_symbol
 _atom_site_label
 _atom_site_symmetry_multiplicity
 _atom_site_fract_x
 _atom_site_fract_y
 _atom_site_fract_z
 _atom_site_occupancy
  Ho  Ho0  1  0.000000  0.000000  0.500000  1
  Ho  Ho1  1  0.000000  0.000000  0.000000  1
  Cu  Cu2  1  0.344847  0.689695  0.500000  1
  Cu  Cu3  1  0.655153  0.310305  0.500000  1
  Ni  Ni4  1  0.500000  0.000000  0.800583  1
  Ni  Ni5  1  0.000000  0.500000  0.789994  1
  Ni  Ni6  1  0.500000  0.000000  0.199417  1
  Ni  Ni7  1  0.500000  0.500000  0.210006  1
  B  B8  1  0.331456  0.662914  0.000000  1
  B  B9  1  0.668544  0.337086  0.000000  1
  Ir  Ir10  1  0.000000  0.500000  0.210801  1
  Ir  Ir11  1  0.500000  0.500000  0.789199  1
