# generated using pymatgen
data_Sc4Si3Ge3Ir4Pt3
_symmetry_space_group_name_H-M   'P 1'
_cell_length_a   7.06630255
_cell_length_b   7.06630137
_cell_length_c   7.09046500
_cell_angle_alpha   109.54050299
_cell_angle_beta   109.54049960
_cell_angle_gamma   109.40185223
_symmetry_Int_Tables_number   1
_chemical_formula_structural   Sc4Si3Ge3Ir4Pt3
_chemical_formula_sum   'Sc4 Si3 Ge3 Ir4 Pt3'
_cell_volume   272.31098530
_cell_formula_units_Z   1
loop_
 _symmetry_equiv_pos_site_id
 _symmetry_equiv_pos_as_xyz
  1  'x, y, z'
loop_
 _atom_site_type_symbol
 _atom_site_label
 _atom_site_symmetry_multiplicity
 _atom_site_fract_x
 _atom_site_fract_y
 _atom_site_fract_z
 _atom_site_occupancy
  Sc  Sc0  1  0.000000  0.000000  0.521143  1
  Sc  Sc1  1  0.007661  0.496574  0.003950  1
  Sc  Sc2  1  0.488912  0.992339  0.996289  1
  Sc  Sc3  1  0.503426  0.511088  0.507377  1
  Si  Si4  1  0.319210  0.325043  0.000955  1
  Si  Si5  1  0.674957  0.994167  0.675912  1
  Si  Si6  1  0.005833  0.680790  0.681744  1
  Ge  Ge7  1  0.690879  0.696605  0.001938  1
  Ge  Ge8  1  0.303395  0.994275  0.305334  1
  Ge  Ge9  1  0.005725  0.309121  0.311059  1
  Ir  Ir10  1  0.248141  0.499455  0.752464  1
  Ir  Ir11  1  0.251313  0.751859  0.504323  1
  Ir  Ir12  1  0.500545  0.748687  0.253009  1
  Ir  Ir13  1  0.000000  0.000000  0.969452  1
  Pt  Pt14  1  0.750955  0.252496  0.506168  1
  Pt  Pt15  1  0.747504  0.498461  0.253672  1
  Pt  Pt16  1  0.501539  0.249045  0.755212  1
