# generated using pymatgen
data_SrSm6FeCl12
_symmetry_space_group_name_H-M   'P 1'
_cell_length_a   9.16589110
_cell_length_b   9.17506012
_cell_length_c   8.83529871
_cell_angle_alpha   105.28061533
_cell_angle_beta   105.87109265
_cell_angle_gamma   106.64956283
_symmetry_Int_Tables_number   1
_chemical_formula_structural   SrSm6FeCl12
_chemical_formula_sum   'Sr1 Sm6 Fe1 Cl12'
_cell_volume   635.86940074
_cell_formula_units_Z   1
loop_
 _symmetry_equiv_pos_site_id
 _symmetry_equiv_pos_as_xyz
  1  'x, y, z'
loop_
 _atom_site_type_symbol
 _atom_site_label
 _atom_site_symmetry_multiplicity
 _atom_site_fract_x
 _atom_site_fract_y
 _atom_site_fract_z
 _atom_site_occupancy
  Sr  Sr0  1  0.500000  0.500000  0.500000  1
  Sm  Sm1  1  0.109414  0.317704  0.011359  1
  Sm  Sm2  1  0.317698  0.016971  0.109847  1
  Sm  Sm3  1  0.017275  0.096741  0.291271  1
  Sm  Sm4  1  0.982724  0.903259  0.708729  1
  Sm  Sm5  1  0.682302  0.983028  0.890152  1
  Sm  Sm6  1  0.890586  0.682296  0.988641  1
  Fe  Fe7  1  0.000000  0.000000  0.000000  1
  Cl  Cl8  1  0.210895  0.681477  0.074920  1
  Cl  Cl9  1  0.444270  0.357344  0.144367  1
  Cl  Cl10  1  0.684252  0.072190  0.213166  1
  Cl  Cl11  1  0.931820  0.790317  0.325594  1
  Cl  Cl12  1  0.150707  0.437373  0.354946  1
  Cl  Cl13  1  0.359439  0.152008  0.446296  1
  Cl  Cl14  1  0.640561  0.847992  0.553704  1
  Cl  Cl15  1  0.849292  0.562627  0.645054  1
  Cl  Cl16  1  0.068181  0.209684  0.674407  1
  Cl  Cl17  1  0.315749  0.927811  0.786834  1
  Cl  Cl18  1  0.555729  0.642655  0.855633  1
  Cl  Cl19  1  0.789105  0.318524  0.925080  1
