# generated using pymatgen
data_Sr20Si11Bi
_symmetry_space_group_name_H-M   'P 1'
_cell_length_a   8.15773200
_cell_length_b   8.15773200
_cell_length_c   15.85070900
_cell_angle_alpha   90.00000000
_cell_angle_beta   90.00000000
_cell_angle_gamma   90.00000000
_symmetry_Int_Tables_number   1
_chemical_formula_structural   Sr20Si11Bi
_chemical_formula_sum   'Sr20 Si11 Bi1'
_cell_volume   1054.84235638
_cell_formula_units_Z   1
loop_
 _symmetry_equiv_pos_site_id
 _symmetry_equiv_pos_as_xyz
  1  'x, y, z'
loop_
 _atom_site_type_symbol
 _atom_site_label
 _atom_site_symmetry_multiplicity
 _atom_site_fract_x
 _atom_site_fract_y
 _atom_site_fract_z
 _atom_site_occupancy
  Sr  Sr0  1  0.326146  0.684055  0.113369  1
  Sr  Sr1  1  0.184055  0.173854  0.113369  1
  Sr  Sr2  1  0.500000  0.000000  0.727641  1
  Sr  Sr3  1  0.322851  0.681668  0.391535  1
  Sr  Sr4  1  0.666442  0.692159  0.886597  1
  Sr  Sr5  1  0.181668  0.177149  0.391535  1
  Sr  Sr6  1  0.677149  0.318332  0.391535  1
  Sr  Sr7  1  0.171880  0.813441  0.608669  1
  Sr  Sr8  1  0.333558  0.307841  0.886597  1
  Sr  Sr9  1  0.192159  0.833558  0.886597  1
  Sr  Sr10  1  0.500000  0.000000  0.254193  1
  Sr  Sr11  1  0.828120  0.186559  0.608669  1
  Sr  Sr12  1  0.313441  0.328120  0.608669  1
  Sr  Sr13  1  0.818332  0.822851  0.391535  1
  Sr  Sr14  1  0.807841  0.166442  0.886597  1
  Sr  Sr15  1  0.815945  0.826146  0.113369  1
  Sr  Sr16  1  0.000000  0.500000  0.258994  1
  Sr  Sr17  1  0.000000  0.500000  0.757240  1
  Sr  Sr18  1  0.673854  0.315945  0.113369  1
  Sr  Sr19  1  0.686559  0.671880  0.608669  1
  Si  Si20  1  0.108266  0.108944  0.748463  1
  Si  Si21  1  0.391056  0.608266  0.748463  1
  Si  Si22  1  0.609148  0.607815  0.251589  1
  Si  Si23  1  0.500000  0.000000  0.004397  1
  Si  Si24  1  0.107815  0.890852  0.251589  1
  Si  Si25  1  0.608944  0.391734  0.748463  1
  Si  Si26  1  0.891734  0.891056  0.748463  1
  Si  Si27  1  0.390852  0.392185  0.251589  1
  Si  Si28  1  0.892185  0.109148  0.251589  1
  Si  Si29  1  0.500000  0.000000  0.501486  1
  Si  Si30  1  0.000000  0.500000  0.497561  1
  Bi  Bi31  1  0.000000  0.500000  0.997600  1
