# generated using pymatgen
data_Ce8Co2CuSi12Rh
_symmetry_space_group_name_H-M   'P 1'
_cell_length_a   8.10307901
_cell_length_b   8.10093246
_cell_length_c   8.28264762
_cell_angle_alpha   90.12486381
_cell_angle_beta   90.08308354
_cell_angle_gamma   120.02082345
_symmetry_Int_Tables_number   1
_chemical_formula_structural   Ce8Co2CuSi12Rh
_chemical_formula_sum   'Ce8 Co2 Cu1 Si12 Rh1'
_cell_volume   470.75054793
_cell_formula_units_Z   1
loop_
 _symmetry_equiv_pos_site_id
 _symmetry_equiv_pos_as_xyz
  1  'x, y, z'
loop_
 _atom_site_type_symbol
 _atom_site_label
 _atom_site_symmetry_multiplicity
 _atom_site_fract_x
 _atom_site_fract_y
 _atom_site_fract_z
 _atom_site_occupancy
  Ce  Ce0  1  0.000108  0.000114  0.250561  1
  Ce  Ce1  1  0.000046  0.000087  0.749507  1
  Ce  Ce2  1  0.504641  0.495492  0.247402  1
  Ce  Ce3  1  0.504544  0.009120  0.247421  1
  Ce  Ce4  1  0.990787  0.495490  0.247360  1
  Ce  Ce5  1  0.504613  0.495487  0.752477  1
  Ce  Ce6  1  0.504624  0.009252  0.752490  1
  Ce  Ce7  1  0.990855  0.495498  0.752442  1
  Co  Co8  1  0.666577  0.333155  0.502853  1
  Co  Co9  1  0.666565  0.333151  0.999391  1
  Cu  Cu10  1  0.333381  0.666502  0.498154  1
  Si  Si11  1  0.167785  0.832164  0.500134  1
  Si  Si12  1  0.167607  0.335288  0.500223  1
  Si  Si13  1  0.664618  0.832321  0.500114  1
  Si  Si14  1  0.829236  0.170866  0.499721  1
  Si  Si15  1  0.829321  0.658588  0.499877  1
  Si  Si16  1  0.341488  0.170763  0.499748  1
  Si  Si17  1  0.830057  0.169945  0.000070  1
  Si  Si18  1  0.830151  0.660321  0.999901  1
  Si  Si19  1  0.339734  0.169870  0.000044  1
  Si  Si20  1  0.165226  0.834646  0.999970  1
  Si  Si21  1  0.165115  0.330307  0.999872  1
  Si  Si22  1  0.669528  0.834741  0.000008  1
  Rh  Rh23  1  0.333389  0.666836  0.000263  1
