# generated using pymatgen
data_Zr2ZnCo6(NiB2)3
_symmetry_space_group_name_H-M   'P 1'
_cell_length_a   5.69148020
_cell_length_b   5.69148140
_cell_length_c   5.69148057
_cell_angle_alpha   95.69430554
_cell_angle_beta   95.69431381
_cell_angle_gamma   95.69432347
_symmetry_Int_Tables_number   1
_chemical_formula_structural   Zr2ZnCo6(NiB2)3
_chemical_formula_sum   'Zr2 Zn1 Co6 Ni3 B6'
_cell_volume   181.43802071
_cell_formula_units_Z   1
loop_
 _symmetry_equiv_pos_site_id
 _symmetry_equiv_pos_as_xyz
  1  'x, y, z'
loop_
 _atom_site_type_symbol
 _atom_site_label
 _atom_site_symmetry_multiplicity
 _atom_site_fract_x
 _atom_site_fract_y
 _atom_site_fract_z
 _atom_site_occupancy
  Zr  Zr0  1  0.674853  0.674853  0.674853  1
  Zr  Zr1  1  0.325147  0.325147  0.325147  1
  Zn  Zn2  1  0.000000  0.000000  0.000000  1
  Co  Co3  1  0.705304  0.202120  0.705304  1
  Co  Co4  1  0.705304  0.705304  0.202120  1
  Co  Co5  1  0.202120  0.705304  0.705304  1
  Co  Co6  1  0.294696  0.797880  0.294696  1
  Co  Co7  1  0.294696  0.294696  0.797880  1
  Co  Co8  1  0.797880  0.294696  0.294696  1
  Ni  Ni9  1  0.000000  0.000000  0.500000  1
  Ni  Ni10  1  0.500000  0.000000  0.000000  1
  Ni  Ni11  1  0.000000  0.500000  0.000000  1
  B  B12  1  0.612462  0.387538  0.000000  1
  B  B13  1  0.000000  0.612462  0.387538  1
  B  B14  1  0.387538  0.000000  0.612462  1
  B  B15  1  0.000000  0.387538  0.612462  1
  B  B16  1  0.612462  0.000000  0.387538  1
  B  B17  1  0.387538  0.612462  0.000000  1
