# generated using pymatgen
data_Pr2Ga5AgAu2
_symmetry_space_group_name_H-M   'P 1'
_cell_length_a   4.39546100
_cell_length_b   4.39546100
_cell_length_c   10.85592700
_cell_angle_alpha   90.00000000
_cell_angle_beta   90.00000000
_cell_angle_gamma   90.00000000
_symmetry_Int_Tables_number   1
_chemical_formula_structural   Pr2Ga5AgAu2
_chemical_formula_sum   'Pr2 Ga5 Ag1 Au2'
_cell_volume   209.73734992
_cell_formula_units_Z   1
loop_
 _symmetry_equiv_pos_site_id
 _symmetry_equiv_pos_as_xyz
  1  'x, y, z'
loop_
 _atom_site_type_symbol
 _atom_site_label
 _atom_site_symmetry_multiplicity
 _atom_site_fract_x
 _atom_site_fract_y
 _atom_site_fract_z
 _atom_site_occupancy
  Pr  Pr0  1  0.000000  0.500000  0.249874  1
  Pr  Pr1  1  0.500000  0.000000  0.750126  1
  Ga  Ga2  1  0.500000  0.500000  0.000000  1
  Ga  Ga3  1  0.000000  0.000000  0.000000  1
  Ga  Ga4  1  0.000000  0.500000  0.637015  1
  Ga  Ga5  1  0.500000  0.000000  0.362985  1
  Ga  Ga6  1  0.000000  0.000000  0.500000  1
  Ag  Ag7  1  0.500000  0.500000  0.500000  1
  Au  Au8  1  0.000000  0.500000  0.868304  1
  Au  Au9  1  0.500000  0.000000  0.131696  1
