# generated using pymatgen
data_PrNd5IrCl11
_symmetry_space_group_name_H-M   'P 1'
_cell_length_a   8.28381698
_cell_length_b   8.26667865
_cell_length_c   7.38787318
_cell_angle_alpha   87.27873388
_cell_angle_beta   87.31681540
_cell_angle_gamma   101.31429601
_symmetry_Int_Tables_number   1
_chemical_formula_structural   PrNd5IrCl11
_chemical_formula_sum   'Pr1 Nd5 Ir1 Cl11'
_cell_volume   494.71311384
_cell_formula_units_Z   1
loop_
 _symmetry_equiv_pos_site_id
 _symmetry_equiv_pos_as_xyz
  1  'x, y, z'
loop_
 _atom_site_type_symbol
 _atom_site_label
 _atom_site_symmetry_multiplicity
 _atom_site_fract_x
 _atom_site_fract_y
 _atom_site_fract_z
 _atom_site_occupancy
  Pr  Pr0  1  0.292632  0.982163  0.228330  1
  Nd  Nd1  1  0.708897  0.017367  0.772631  1
  Nd  Nd2  1  0.193383  0.194210  0.760022  1
  Nd  Nd3  1  0.982628  0.291670  0.227200  1
  Nd  Nd4  1  0.016682  0.708499  0.772854  1
  Nd  Nd5  1  0.806137  0.806080  0.239808  1
  Ir  Ir6  1  0.999221  0.000078  0.999519  1
  Cl  Cl7  1  0.999796  0.999961  0.500132  1
  Cl  Cl8  1  0.661535  0.094213  0.364522  1
  Cl  Cl9  1  0.490745  0.203213  0.940722  1
  Cl  Cl10  1  0.303985  0.306477  0.366290  1
  Cl  Cl11  1  0.905883  0.338860  0.635636  1
  Cl  Cl12  1  0.201913  0.490228  0.942753  1
  Cl  Cl13  1  0.798018  0.509917  0.057232  1
  Cl  Cl14  1  0.092577  0.659492  0.365193  1
  Cl  Cl15  1  0.695707  0.695592  0.634415  1
  Cl  Cl16  1  0.511619  0.796529  0.055744  1
  Cl  Cl17  1  0.338642  0.905449  0.636995  1
