# generated using pymatgen
data_Zr2V3Co9As7
_symmetry_space_group_name_H-M   'P 1'
_cell_length_a   3.73475700
_cell_length_b   9.28681947
_cell_length_c   9.28682000
_cell_angle_alpha   119.99999478
_cell_angle_beta   90.00000000
_cell_angle_gamma   90.00000000
_symmetry_Int_Tables_number   1
_chemical_formula_structural   Zr2V3Co9As7
_chemical_formula_sum   'Zr2 V3 Co9 As7'
_cell_volume   278.95043015
_cell_formula_units_Z   1
loop_
 _symmetry_equiv_pos_site_id
 _symmetry_equiv_pos_as_xyz
  1  'x, y, z'
loop_
 _atom_site_type_symbol
 _atom_site_label
 _atom_site_symmetry_multiplicity
 _atom_site_fract_x
 _atom_site_fract_y
 _atom_site_fract_z
 _atom_site_occupancy
  Zr  Zr0  1  0.000000  0.666667  0.333333  1
  Zr  Zr1  1  0.500000  0.333333  0.666667  1
  V  V2  1  0.500000  0.781692  0.902017  1
  V  V3  1  0.500000  0.120325  0.218308  1
  V  V4  1  0.500000  0.097983  0.879675  1
  Co  Co5  1  0.000000  0.565204  0.937355  1
  Co  Co6  1  0.000000  0.372150  0.434796  1
  Co  Co7  1  0.000000  0.062645  0.627850  1
  Co  Co8  1  0.000000  0.876745  0.160346  1
  Co  Co9  1  0.000000  0.283601  0.123255  1
  Co  Co10  1  0.000000  0.839654  0.716399  1
  Co  Co11  1  0.500000  0.949007  0.384028  1
  Co  Co12  1  0.500000  0.435020  0.050993  1
  Co  Co13  1  0.500000  0.615972  0.564980  1
  As  As14  1  0.000000  0.000000  0.000000  1
  As  As15  1  0.500000  0.708105  0.119566  1
  As  As16  1  0.500000  0.411461  0.291895  1
  As  As17  1  0.500000  0.880434  0.588539  1
  As  As18  1  0.000000  0.585749  0.703229  1
  As  As19  1  0.000000  0.117481  0.414251  1
  As  As20  1  0.000000  0.296771  0.882519  1
