# generated using pymatgen
data_La14YbPr(CdCo)4
_symmetry_space_group_name_H-M   'P 1'
_cell_length_a   9.95964382
_cell_length_b   9.95496008
_cell_length_c   9.90073308
_cell_angle_alpha   60.12700546
_cell_angle_beta   60.02420030
_cell_angle_gamma   60.06837856
_symmetry_Int_Tables_number   1
_chemical_formula_structural   La14YbPr(CdCo)4
_chemical_formula_sum   'La14 Yb1 Pr1 Cd4 Co4'
_cell_volume   695.27204487
_cell_formula_units_Z   1
loop_
 _symmetry_equiv_pos_site_id
 _symmetry_equiv_pos_as_xyz
  1  'x, y, z'
loop_
 _atom_site_type_symbol
 _atom_site_label
 _atom_site_symmetry_multiplicity
 _atom_site_fract_x
 _atom_site_fract_y
 _atom_site_fract_z
 _atom_site_occupancy
  La  La0  1  0.562886  0.938626  0.936597  1
  La  La1  1  0.687846  0.688593  0.312608  1
  La  La2  1  0.154186  0.152726  0.536942  1
  La  La3  1  0.308600  0.691845  0.689930  1
  La  La4  1  0.155475  0.155496  0.156862  1
  La  La5  1  0.537645  0.154615  0.154742  1
  La  La6  1  0.305819  0.689973  0.312682  1
  La  La7  1  0.312575  0.311601  0.688681  1
  La  La8  1  0.690252  0.308345  0.690490  1
  La  La9  1  0.938354  0.561961  0.559509  1
  La  La10  1  0.559801  0.560693  0.940832  1
  La  La11  1  0.155223  0.537537  0.153534  1
  La  La12  1  0.690071  0.305419  0.313169  1
  La  La13  1  0.938903  0.562277  0.937184  1
  Yb  Yb14  1  0.937724  0.938299  0.561452  1
  Pr  Pr15  1  0.562235  0.937948  0.560940  1
  Cd  Cd16  1  0.237247  0.921800  0.920969  1
  Cd  Cd17  1  0.921631  0.921496  0.920258  1
  Cd  Cd18  1  0.920172  0.921448  0.237803  1
  Cd  Cd19  1  0.921489  0.236586  0.921985  1
  Co  Co20  1  0.918671  0.363447  0.358022  1
  Co  Co21  1  0.359281  0.358898  0.918786  1
  Co  Co22  1  0.363353  0.918837  0.357513  1
  Co  Co23  1  0.360557  0.361532  0.358504  1
