# generated using pymatgen
data_Pr4NdAg6
_symmetry_space_group_name_H-M   'P 1'
_cell_length_a   17.63549102
_cell_length_b   17.63549184
_cell_length_c   4.12215300
_cell_angle_alpha   90.00000000
_cell_angle_beta   90.00000000
_cell_angle_gamma   166.43696388
_symmetry_Int_Tables_number   1
_chemical_formula_structural   Pr4NdAg6
_chemical_formula_sum   'Pr4 Nd1 Ag6'
_cell_volume   300.65600882
_cell_formula_units_Z   1
loop_
 _symmetry_equiv_pos_site_id
 _symmetry_equiv_pos_as_xyz
  1  'x, y, z'
loop_
 _atom_site_type_symbol
 _atom_site_label
 _atom_site_symmetry_multiplicity
 _atom_site_fract_x
 _atom_site_fract_y
 _atom_site_fract_z
 _atom_site_occupancy
  Pr  Pr0  1  0.999956  0.000044  0.000000  1
  Pr  Pr1  1  0.622814  0.377184  0.000000  1
  Pr  Pr2  1  0.377042  0.622956  0.000000  1
  Pr  Pr3  1  0.191232  0.808766  0.500001  1
  Nd  Nd4  1  0.808705  0.191293  0.500001  1
  Ag  Ag5  1  0.723082  0.276916  0.000000  1
  Ag  Ag6  1  0.277250  0.722748  0.000000  1
  Ag  Ag7  1  0.908126  0.091873  0.500001  1
  Ag  Ag8  1  0.539758  0.460240  0.500001  1
  Ag  Ag9  1  0.460228  0.539770  0.500001  1
  Ag  Ag10  1  0.091797  0.908202  0.500001  1
