# generated using pymatgen
data_Ho7Tm9Cd4NiOs3
_symmetry_space_group_name_H-M   'P 1'
_cell_length_a   9.46671376
_cell_length_b   9.57900196
_cell_length_c   9.55218599
_cell_angle_alpha   59.90506038
_cell_angle_beta   59.52818582
_cell_angle_gamma   59.63886383
_symmetry_Int_Tables_number   1
_chemical_formula_structural   Ho7Tm9Cd4NiOs3
_chemical_formula_sum   'Ho7 Tm9 Cd4 Ni1 Os3'
_cell_volume   608.18415512
_cell_formula_units_Z   1
loop_
 _symmetry_equiv_pos_site_id
 _symmetry_equiv_pos_as_xyz
  1  'x, y, z'
loop_
 _atom_site_type_symbol
 _atom_site_label
 _atom_site_symmetry_multiplicity
 _atom_site_fract_x
 _atom_site_fract_y
 _atom_site_fract_z
 _atom_site_occupancy
  Ho  Ho0  1  0.809516  0.812694  0.188460  1
  Ho  Ho1  1  0.941357  0.558148  0.558287  1
  Ho  Ho2  1  0.555492  0.938720  0.938897  1
  Ho  Ho3  1  0.554970  0.939069  0.567243  1
  Ho  Ho4  1  0.941511  0.558010  0.941961  1
  Ho  Ho5  1  0.555642  0.566549  0.939175  1
  Ho  Ho6  1  0.941125  0.942361  0.558104  1
  Tm  Tm7  1  0.351583  0.344721  0.345838  1
  Tm  Tm8  1  0.351945  0.344758  0.958606  1
  Tm  Tm9  1  0.351048  0.958188  0.345924  1
  Tm  Tm10  1  0.961111  0.345783  0.346743  1
  Tm  Tm11  1  0.809939  0.189521  0.188418  1
  Tm  Tm12  1  0.186332  0.811953  0.810678  1
  Tm  Tm13  1  0.187355  0.811728  0.189670  1
  Tm  Tm14  1  0.809941  0.189747  0.810919  1
  Tm  Tm15  1  0.185875  0.191005  0.811182  1
  Cd  Cd16  1  0.579104  0.581056  0.580762  1
  Cd  Cd17  1  0.579340  0.581021  0.258368  1
  Cd  Cd18  1  0.579218  0.259006  0.580636  1
  Cd  Cd19  1  0.256528  0.581195  0.581107  1
  Ni  Ni20  1  0.577799  0.140455  0.141337  1
  Os  Os21  1  0.144083  0.138032  0.139695  1
  Os  Os22  1  0.144616  0.138492  0.578334  1
  Os  Os23  1  0.144571  0.577788  0.139654  1
