# generated using pymatgen
data_K4RbBaNbAs4
_symmetry_space_group_name_H-M   'P 1'
_cell_length_a   10.62956951
_cell_length_b   10.62633880
_cell_length_c   8.19855886
_cell_angle_alpha   89.47250330
_cell_angle_beta   88.78768597
_cell_angle_gamma   120.78359108
_symmetry_Int_Tables_number   1
_chemical_formula_structural   K4RbBaNbAs4
_chemical_formula_sum   'K8 Rb2 Ba2 Nb2 As8'
_cell_volume   795.18551332
_cell_formula_units_Z   2
loop_
 _symmetry_equiv_pos_site_id
 _symmetry_equiv_pos_as_xyz
  1  'x, y, z'
loop_
 _atom_site_type_symbol
 _atom_site_label
 _atom_site_symmetry_multiplicity
 _atom_site_fract_x
 _atom_site_fract_y
 _atom_site_fract_z
 _atom_site_occupancy
  K  K0  1  0.466732  0.525967  0.610015  1
  K  K1  1  0.057664  0.528438  0.610407  1
  K  K2  1  0.526843  0.466098  0.109172  1
  K  K3  1  0.526894  0.058905  0.110701  1
  K  K4  1  0.861716  0.144110  0.783914  1
  K  K5  1  0.297291  0.154848  0.818022  1
  K  K6  1  0.852874  0.711885  0.765745  1
  K  K7  1  0.144601  0.862053  0.285520  1
  Rb  Rb8  1  0.723172  0.857760  0.268843  1
  Rb  Rb9  1  0.152223  0.290852  0.325371  1
  Ba  Ba10  1  0.463473  0.935128  0.601709  1
  Ba  Ba11  1  0.935226  0.465070  0.103004  1
  Nb  Nb12  1  0.667524  0.333383  0.504221  1
  Nb  Nb13  1  0.332013  0.668421  0.997601  1
  As  As14  1  0.680193  0.336010  0.811115  1
  As  As15  1  0.333606  0.681283  0.304401  1
  As  As16  1  0.198056  0.794961  0.897830  1
  As  As17  1  0.589461  0.799204  0.880228  1
  As  As18  1  0.194966  0.402734  0.916818  1
  As  As19  1  0.791987  0.200447  0.399549  1
  As  As20  1  0.403100  0.192709  0.423766  1
  As  As21  1  0.800385  0.589732  0.386447  1
