# generated using pymatgen
data_Nd9SmBe3Si15Au2
_symmetry_space_group_name_H-M   'P 1'
_cell_length_a   4.17136315
_cell_length_b   4.17016938
_cell_length_c   35.07459614
_cell_angle_alpha   86.57550092
_cell_angle_beta   86.59094049
_cell_angle_gamma   89.99999974
_symmetry_Int_Tables_number   1
_chemical_formula_structural   Nd9SmBe3Si15Au2
_chemical_formula_sum   'Nd9 Sm1 Be3 Si15 Au2'
_cell_volume   607.96173296
_cell_formula_units_Z   1
loop_
 _symmetry_equiv_pos_site_id
 _symmetry_equiv_pos_as_xyz
  1  'x, y, z'
loop_
 _atom_site_type_symbol
 _atom_site_label
 _atom_site_symmetry_multiplicity
 _atom_site_fract_x
 _atom_site_fract_y
 _atom_site_fract_z
 _atom_site_occupancy
  Nd  Nd0  1  0.350659  0.850719  0.298683  1
  Nd  Nd1  1  0.753164  0.253373  0.493672  1
  Nd  Nd2  1  0.149693  0.649815  0.700614  1
  Nd  Nd3  1  0.546062  0.046125  0.907876  1
  Nd  Nd4  1  0.997493  0.997501  0.005014  1
  Nd  Nd5  1  0.399781  0.399765  0.200439  1
  Nd  Nd6  1  0.801959  0.801827  0.396081  1
  Nd  Nd7  1  0.203908  0.203756  0.592185  1
  Nd  Nd8  1  0.600843  0.600626  0.798313  1
  Sm  Sm9  1  0.948238  0.448249  0.103523  1
  Be  Be10  1  0.465279  0.965305  0.069443  1
  Be  Be11  1  0.867587  0.367647  0.264823  1
  Be  Be12  1  0.269921  0.769913  0.460159  1
  Si  Si13  1  0.667426  0.167429  0.665148  1
  Si  Si14  1  0.064058  0.564138  0.871883  1
  Si  Si15  1  0.916171  0.916238  0.167659  1
  Si  Si16  1  0.318409  0.318565  0.363181  1
  Si  Si17  1  0.720437  0.720566  0.559126  1
  Si  Si18  1  0.116779  0.116780  0.766443  1
  Si  Si19  1  0.513584  0.513591  0.972831  1
  Si  Si20  1  0.433573  0.933482  0.132855  1
  Si  Si21  1  0.835761  0.335633  0.328479  1
  Si  Si22  1  0.238072  0.737954  0.523857  1
  Si  Si23  1  0.633875  0.134010  0.732250  1
  Si  Si24  1  0.030605  0.530553  0.938790  1
  Si  Si25  1  0.479781  0.479739  0.040438  1
  Si  Si26  1  0.882320  0.882326  0.235361  1
  Si  Si27  1  0.284639  0.284598  0.430723  1
  Au  Au28  1  0.685343  0.685216  0.629313  1
  Au  Au29  1  0.081779  0.081762  0.836441  1
