# generated using pymatgen
data_Pa2Te6Pd
_symmetry_space_group_name_H-M   'P 1'
_cell_length_a   8.22325872
_cell_length_b   8.22326012
_cell_length_c   12.33784931
_cell_angle_alpha   57.11035646
_cell_angle_beta   57.11034951
_cell_angle_gamma   28.93070522
_symmetry_Int_Tables_number   1
_chemical_formula_structural   Pa2Te6Pd
_chemical_formula_sum   'Pa2 Te6 Pd1'
_cell_volume   334.15986095
_cell_formula_units_Z   1
loop_
 _symmetry_equiv_pos_site_id
 _symmetry_equiv_pos_as_xyz
  1  'x, y, z'
loop_
 _atom_site_type_symbol
 _atom_site_label
 _atom_site_symmetry_multiplicity
 _atom_site_fract_x
 _atom_site_fract_y
 _atom_site_fract_z
 _atom_site_occupancy
  Pa  Pa0  1  0.321677  0.321677  0.290460  1
  Pa  Pa1  1  0.678323  0.678323  0.709540  1
  Te  Te2  1  0.800856  0.800856  0.119317  1
  Te  Te3  1  0.199144  0.199144  0.880683  1
  Te  Te4  1  0.343096  0.343096  0.528180  1
  Te  Te5  1  0.987629  0.987629  0.223879  1
  Te  Te6  1  0.012371  0.012371  0.776121  1
  Te  Te7  1  0.656904  0.656904  0.471820  1
  Pd  Pd8  1  0.000000  0.000000  0.000000  1
