# generated using pymatgen
data_Tb4Y11ErCd2(InPd2)2
_symmetry_space_group_name_H-M   'P 1'
_cell_length_a   9.73063331
_cell_length_b   9.73301064
_cell_length_c   9.75480639
_cell_angle_alpha   60.01325278
_cell_angle_beta   60.11211312
_cell_angle_gamma   60.11523996
_symmetry_Int_Tables_number   1
_chemical_formula_structural   Tb4Y11ErCd2(InPd2)2
_chemical_formula_sum   'Tb4 Y11 Er1 Cd2 In2 Pd4'
_cell_volume   654.45481788
_cell_formula_units_Z   1
loop_
 _symmetry_equiv_pos_site_id
 _symmetry_equiv_pos_as_xyz
  1  'x, y, z'
loop_
 _atom_site_type_symbol
 _atom_site_label
 _atom_site_symmetry_multiplicity
 _atom_site_fract_x
 _atom_site_fract_y
 _atom_site_fract_z
 _atom_site_occupancy
  Tb  Tb0  1  0.352207  0.351520  0.352647  1
  Tb  Tb1  1  0.354182  0.352917  0.940367  1
  Tb  Tb2  1  0.353884  0.940054  0.353193  1
  Tb  Tb3  1  0.937524  0.354271  0.354540  1
  Y  Y4  1  0.191164  0.808897  0.809576  1
  Y  Y5  1  0.190278  0.810267  0.189435  1
  Y  Y6  1  0.810064  0.190686  0.810119  1
  Y  Y7  1  0.188559  0.188755  0.811935  1
  Y  Y8  1  0.808927  0.808242  0.192082  1
  Y  Y9  1  0.937270  0.565975  0.564790  1
  Y  Y10  1  0.564243  0.937571  0.933829  1
  Y  Y11  1  0.567225  0.937333  0.564406  1
  Y  Y12  1  0.937461  0.562848  0.934509  1
  Y  Y13  1  0.566673  0.564586  0.935312  1
  Y  Y14  1  0.937173  0.937728  0.560998  1
  Er  Er15  1  0.810422  0.190353  0.189785  1
  Cd  Cd16  1  0.580706  0.252142  0.582805  1
  Cd  Cd17  1  0.251737  0.581106  0.582750  1
  In  In18  1  0.582068  0.582386  0.585014  1
  In  In19  1  0.581920  0.583126  0.250230  1
  Pd  Pd20  1  0.141115  0.145940  0.146426  1
  Pd  Pd21  1  0.143153  0.143525  0.566645  1
  Pd  Pd22  1  0.143425  0.565629  0.143960  1
  Pd  Pd23  1  0.568618  0.144141  0.144650  1
