# generated using pymatgen
data_Li12La11Sm(MoO6)8
_symmetry_space_group_name_H-M   'P 1'
_cell_length_a   11.11515115
_cell_length_b   11.09900419
_cell_length_c   11.11518500
_cell_angle_alpha   109.50437168
_cell_angle_beta   109.46429146
_cell_angle_gamma   109.50446395
_symmetry_Int_Tables_number   1
_chemical_formula_structural   Li12La11Sm(MoO6)8
_chemical_formula_sum   'Li12 La11 Sm1 Mo8 O48'
_cell_volume   1054.81187295
_cell_formula_units_Z   1
loop_
 _symmetry_equiv_pos_site_id
 _symmetry_equiv_pos_as_xyz
  1  'x, y, z'
loop_
 _atom_site_type_symbol
 _atom_site_label
 _atom_site_symmetry_multiplicity
 _atom_site_fract_x
 _atom_site_fract_y
 _atom_site_fract_z
 _atom_site_occupancy
  Li  Li0  1  0.875122  0.750009  0.125122  1
  Li  Li1  1  0.749507  0.374882  0.124944  1
  Li  Li2  1  0.125369  0.374901  0.249944  1
  Li  Li3  1  0.624789  0.874780  0.249895  1
  Li  Li4  1  0.250063  0.125105  0.374622  1
  Li  Li5  1  0.624019  0.250006  0.374030  1
  Li  Li6  1  0.374889  0.749996  0.624876  1
  Li  Li7  1  0.749992  0.874793  0.624886  1
  Li  Li8  1  0.375054  0.125117  0.750497  1
  Li  Li9  1  0.875124  0.625205  0.750003  1
  Li  Li10  1  0.250097  0.625219  0.875210  1
  Li  Li11  1  0.125974  0.249993  0.875970  1
  La  La12  1  0.250782  0.876541  0.125398  1
  La  La13  1  0.875153  0.125288  0.250383  1
  La  La14  1  0.374602  0.623457  0.249221  1
  La  La15  1  0.748849  0.623455  0.374237  1
  La  La16  1  0.125004  0.749999  0.374996  1
  La  La17  1  0.874999  0.250000  0.624998  1
  La  La18  1  0.249614  0.374712  0.624838  1
  La  La19  1  0.625102  0.374720  0.749882  1
  La  La20  1  0.125766  0.876538  0.751146  1
  La  La21  1  0.750120  0.125286  0.874899  1
  La  La22  1  0.625011  0.750002  0.874994  1
  Sm  Sm23  1  0.375002  0.250003  0.124999  1
  Mo  Mo24  1  0.002011  0.001900  0.001298  1
  Mo  Mo25  1  0.499892  0.001897  0.000603  1
  Mo  Mo26  1  0.000304  0.500315  0.000120  1
  Mo  Mo27  1  0.499399  0.498101  0.000108  1
  Mo  Mo28  1  0.999808  0.999687  0.499992  1
  Mo  Mo29  1  0.499881  0.999681  0.499694  1
  Mo  Mo30  1  0.000008  0.500313  0.500194  1
  Mo  Mo31  1  0.498706  0.498099  0.497995  1
  O  O32  1  0.191624  0.614673  0.021640  1
  O  O33  1  0.331060  0.403451  0.023488  1
  O  O34  1  0.886420  0.907378  0.076962  1
  O  O35  1  0.691951  0.170355  0.076862  1
  O  O36  1  0.613844  0.924444  0.093769  1
  O  O37  1  0.978407  0.170356  0.093494  1
  O  O38  1  0.590830  0.420165  0.115114  1
  O  O39  1  0.021910  0.691844  0.114847  1
  O  O40  1  0.194951  0.079834  0.170660  1
  O  O41  1  0.476510  0.096549  0.168937  1
  O  O42  1  0.114774  0.521639  0.191459  1
  O  O43  1  0.576369  0.669030  0.191114  1
  O  O44  1  0.478365  0.885328  0.308377  1
  O  O45  1  0.329339  0.420167  0.305051  1
  O  O46  1  0.906865  0.521638  0.330185  1
  O  O47  1  0.923002  0.808153  0.330070  1
  O  O48  1  0.308543  0.978362  0.385227  1
  O  O49  1  0.572389  0.403451  0.379963  1
  O  O50  1  0.076728  0.385270  0.406879  1
  O  O51  1  0.830185  0.021554  0.406826  1
  O  O52  1  0.093119  0.114725  0.423270  1
  O  O53  1  0.830001  0.308290  0.423118  1
  O  O54  1  0.592663  0.669034  0.477925  1
  O  O55  1  0.385155  0.808156  0.478089  1
  O  O56  1  0.406506  0.329643  0.521592  1
  O  O57  1  0.614824  0.191709  0.521709  1
  O  O58  1  0.169926  0.691843  0.576997  1
  O  O59  1  0.906963  0.885327  0.576952  1
  O  O60  1  0.923047  0.614673  0.593035  1
  O  O61  1  0.169814  0.978357  0.593132  1
  O  O62  1  0.691369  0.021551  0.614730  1
  O  O63  1  0.423039  0.592625  0.613581  1
  O  O64  1  0.093178  0.478449  0.669815  1
  O  O65  1  0.076882  0.191711  0.670000  1
  O  O66  1  0.521606  0.114728  0.691458  1
  O  O67  1  0.669320  0.575554  0.689400  1
  O  O68  1  0.423139  0.329647  0.808048  1
  O  O69  1  0.885272  0.478449  0.808632  1
  O  O70  1  0.810599  0.924446  0.830678  1
  O  O71  1  0.520957  0.907377  0.830417  1
  O  O72  1  0.406231  0.575553  0.886156  1
  O  O73  1  0.978295  0.308293  0.885175  1
  O  O74  1  0.022076  0.830966  0.907335  1
  O  O75  1  0.384884  0.079834  0.909170  1
  O  O76  1  0.308888  0.830967  0.923630  1
  O  O77  1  0.120038  0.096549  0.927608  1
  O  O78  1  0.669586  0.592624  0.979044  1
  O  O79  1  0.808544  0.385274  0.978392  1
