# generated using pymatgen
data_Ce5SiSn2Sb
_symmetry_space_group_name_H-M   'P 1'
_cell_length_a   9.49358705
_cell_length_b   9.49194122
_cell_length_c   6.41934800
_cell_angle_alpha   90.00000000
_cell_angle_beta   90.00000000
_cell_angle_gamma   119.99426928
_symmetry_Int_Tables_number   1
_chemical_formula_structural   Ce5SiSn2Sb
_chemical_formula_sum   'Ce10 Si2 Sn4 Sb2'
_cell_volume   500.99340000
_cell_formula_units_Z   2
loop_
 _symmetry_equiv_pos_site_id
 _symmetry_equiv_pos_as_xyz
  1  'x, y, z'
loop_
 _atom_site_type_symbol
 _atom_site_label
 _atom_site_symmetry_multiplicity
 _atom_site_fract_x
 _atom_site_fract_y
 _atom_site_fract_z
 _atom_site_occupancy
  Ce  Ce0  1  0.666491  0.333273  0.000130  1
  Ce  Ce1  1  0.333509  0.666783  0.000130  1
  Ce  Ce2  1  0.333509  0.666783  0.499870  1
  Ce  Ce3  1  0.666491  0.333273  0.499870  1
  Ce  Ce4  1  0.743626  0.744030  0.750000  1
  Ce  Ce5  1  0.256374  0.000404  0.750000  1
  Ce  Ce6  1  0.000000  0.255643  0.750000  1
  Ce  Ce7  1  0.256330  0.256230  0.250000  1
  Ce  Ce8  1  0.743670  0.999900  0.250000  1
  Ce  Ce9  1  0.000000  0.743779  0.250000  1
  Si  Si10  1  0.000000  0.999810  0.000215  1
  Si  Si11  1  0.000000  0.999810  0.499785  1
  Sn  Sn12  1  0.000000  0.613939  0.750000  1
  Sn  Sn13  1  0.614631  0.614530  0.250000  1
  Sn  Sn14  1  0.385369  0.999900  0.250000  1
  Sn  Sn15  1  0.000000  0.386034  0.250000  1
  Sb  Sb16  1  0.385685  0.385783  0.750000  1
  Sb  Sb17  1  0.614315  0.000098  0.750000  1
