# generated using pymatgen
data_SrHoSi2(PtRh)2
_symmetry_space_group_name_H-M   'P 1'
_cell_length_a   9.13308652
_cell_length_b   9.13308609
_cell_length_c   4.18586300
_cell_angle_alpha   90.00000000
_cell_angle_beta   90.00000000
_cell_angle_gamma   154.19590306
_symmetry_Int_Tables_number   1
_chemical_formula_structural   SrHoSi2(PtRh)2
_chemical_formula_sum   'Sr1 Ho1 Si2 Pt2 Rh2'
_cell_volume   151.98624535
_cell_formula_units_Z   1
loop_
 _symmetry_equiv_pos_site_id
 _symmetry_equiv_pos_as_xyz
  1  'x, y, z'
loop_
 _atom_site_type_symbol
 _atom_site_label
 _atom_site_symmetry_multiplicity
 _atom_site_fract_x
 _atom_site_fract_y
 _atom_site_fract_z
 _atom_site_occupancy
  Sr  Sr0  1  0.900135  0.099865  0.250000  1
  Ho  Ho1  1  0.100315  0.899685  0.750000  1
  Si  Si2  1  0.318758  0.681242  0.750000  1
  Si  Si3  1  0.680706  0.319294  0.250000  1
  Pt  Pt4  1  0.551107  0.448893  0.250000  1
  Pt  Pt5  1  0.454342  0.545658  0.750000  1
  Rh  Rh6  1  0.247336  0.752664  0.250000  1
  Rh  Rh7  1  0.747302  0.252698  0.750000  1
