# generated using pymatgen
data_PrCuOsO5
_symmetry_space_group_name_H-M   'P 1'
_cell_length_a   5.62876700
_cell_length_b   8.03010600
_cell_length_c   8.91066800
_cell_angle_alpha   90.00000000
_cell_angle_beta   90.00000000
_cell_angle_gamma   90.00000000
_symmetry_Int_Tables_number   1
_chemical_formula_structural   PrCuOsO5
_chemical_formula_sum   'Pr4 Cu4 Os4 O20'
_cell_volume   402.75859065
_cell_formula_units_Z   4
loop_
 _symmetry_equiv_pos_site_id
 _symmetry_equiv_pos_as_xyz
  1  'x, y, z'
loop_
 _atom_site_type_symbol
 _atom_site_label
 _atom_site_symmetry_multiplicity
 _atom_site_fract_x
 _atom_site_fract_y
 _atom_site_fract_z
 _atom_site_occupancy
  Pr  Pr0  1  0.000000  0.354897  0.666638  1
  Pr  Pr1  1  0.000000  0.645103  0.333362  1
  Pr  Pr2  1  0.000000  0.854897  0.833362  1
  Pr  Pr3  1  0.000000  0.145103  0.166638  1
  Cu  Cu4  1  0.500000  0.063012  0.851235  1
  Cu  Cu5  1  0.500000  0.936988  0.148765  1
  Cu  Cu6  1  0.500000  0.563012  0.648765  1
  Cu  Cu7  1  0.500000  0.436988  0.351235  1
  Os  Os8  1  0.283055  0.500000  0.000000  1
  Os  Os9  1  0.716945  0.000000  0.500000  1
  Os  Os10  1  0.716945  0.500000  0.000000  1
  Os  Os11  1  0.283055  0.000000  0.500000  1
  O  O12  1  0.251528  0.910100  0.294931  1
  O  O13  1  0.251528  0.089900  0.705069  1
  O  O14  1  0.748472  0.410100  0.205069  1
  O  O15  1  0.748472  0.589900  0.794931  1
  O  O16  1  0.748472  0.089900  0.705069  1
  O  O17  1  0.748472  0.910100  0.294931  1
  O  O18  1  0.251528  0.589900  0.794931  1
  O  O19  1  0.251528  0.410100  0.205069  1
  O  O20  1  0.500000  0.325763  0.932519  1
  O  O21  1  0.500000  0.674237  0.067481  1
  O  O22  1  0.500000  0.825763  0.567481  1
  O  O23  1  0.500000  0.174237  0.432519  1
  O  O24  1  0.261185  0.000000  0.000000  1
  O  O25  1  0.738815  0.500000  0.500000  1
  O  O26  1  0.738815  0.000000  0.000000  1
  O  O27  1  0.261185  0.500000  0.500000  1
  O  O28  1  0.000000  0.151876  0.445487  1
  O  O29  1  0.000000  0.848124  0.554513  1
  O  O30  1  0.000000  0.651876  0.054513  1
  O  O31  1  0.000000  0.348124  0.945487  1
