# generated using pymatgen
data_Zr3Nb2Re17Tc7
_symmetry_space_group_name_H-M   'P 1'
_cell_length_a   8.48286777
_cell_length_b   8.48286860
_cell_length_c   8.47453400
_cell_angle_alpha   109.47744006
_cell_angle_beta   109.47744921
_cell_angle_gamma   109.57083436
_symmetry_Int_Tables_number   1
_chemical_formula_structural   Zr3Nb2Re17Tc7
_chemical_formula_sum   'Zr3 Nb2 Re17 Tc7'
_cell_volume   468.78855701
_cell_formula_units_Z   1
loop_
 _symmetry_equiv_pos_site_id
 _symmetry_equiv_pos_as_xyz
  1  'x, y, z'
loop_
 _atom_site_type_symbol
 _atom_site_label
 _atom_site_symmetry_multiplicity
 _atom_site_fract_x
 _atom_site_fract_y
 _atom_site_fract_z
 _atom_site_occupancy
  Zr  Zr0  1  0.000293  0.000293  0.999598  1
  Zr  Zr1  1  0.625317  0.999397  0.999549  1
  Zr  Zr2  1  0.999397  0.625317  0.999549  1
  Nb  Nb3  1  0.000330  0.000330  0.628019  1
  Nb  Nb4  1  0.371503  0.371503  0.372440  1
  Re  Re5  1  0.001108  0.681028  0.398388  1
  Re  Re6  1  0.681028  0.001108  0.398388  1
  Re  Re7  1  0.600539  0.600539  0.280741  1
  Re  Re8  1  0.281830  0.602891  0.602003  1
  Re  Re9  1  0.602891  0.281830  0.602003  1
  Re  Re10  1  0.377120  0.197288  0.000802  1
  Re  Re11  1  0.179520  0.806100  0.803589  1
  Re  Re12  1  0.376121  0.002379  0.196296  1
  Re  Re13  1  0.197288  0.377120  0.000802  1
  Re  Re14  1  0.002379  0.376121  0.196296  1
  Re  Re15  1  0.806100  0.179520  0.803589  1
  Re  Re16  1  0.805919  0.805919  0.182350  1
  Re  Re17  1  0.002234  0.195958  0.379227  1
  Re  Re18  1  0.195958  0.002234  0.379227  1
  Re  Re19  1  0.621659  0.621659  0.815053  1
  Re  Re20  1  0.816088  0.622382  0.620380  1
  Re  Re21  1  0.622382  0.816088  0.620380  1
  Tc  Tc22  1  0.395553  0.678289  0.000553  1
  Tc  Tc23  1  0.719416  0.322487  0.322210  1
  Tc  Tc24  1  0.396942  0.001623  0.678598  1
  Tc  Tc25  1  0.678289  0.395553  0.000553  1
  Tc  Tc26  1  0.001623  0.396942  0.678598  1
  Tc  Tc27  1  0.322487  0.719416  0.322210  1
  Tc  Tc28  1  0.318687  0.318687  0.718612  1
