# generated using pymatgen
data_TbCe(SiRu)2
_symmetry_space_group_name_H-M   'P 1'
_cell_length_a   4.42063400
_cell_length_b   7.17519668
_cell_length_c   6.88057521
_cell_angle_alpha   89.32347291
_cell_angle_beta   90.00000000
_cell_angle_gamma   90.00000000
_symmetry_Int_Tables_number   1
_chemical_formula_structural   TbCe(SiRu)2
_chemical_formula_sum   'Tb2 Ce2 Si4 Ru4'
_cell_volume   218.22919000
_cell_formula_units_Z   2
loop_
 _symmetry_equiv_pos_site_id
 _symmetry_equiv_pos_as_xyz
  1  'x, y, z'
loop_
 _atom_site_type_symbol
 _atom_site_label
 _atom_site_symmetry_multiplicity
 _atom_site_fract_x
 _atom_site_fract_y
 _atom_site_fract_z
 _atom_site_occupancy
  Tb  Tb0  1  0.250000  0.476944  0.681026  1
  Tb  Tb1  1  0.750000  0.523056  0.318974  1
  Ce  Ce2  1  0.250000  0.977294  0.829716  1
  Ce  Ce3  1  0.750000  0.022706  0.170284  1
  Si  Si4  1  0.250000  0.311658  0.112204  1
  Si  Si5  1  0.750000  0.688342  0.887796  1
  Si  Si6  1  0.250000  0.802946  0.392503  1
  Si  Si7  1  0.750000  0.197054  0.607497  1
  Ru  Ru8  1  0.750000  0.857050  0.568488  1
  Ru  Ru9  1  0.250000  0.142950  0.431512  1
  Ru  Ru10  1  0.750000  0.349680  0.934333  1
  Ru  Ru11  1  0.250000  0.650320  0.065667  1
