# generated using pymatgen
data_Gd9ErIr4
_symmetry_space_group_name_H-M   'P 1'
_cell_length_a   6.53083842
_cell_length_b   7.24916660
_cell_length_c   8.56845600
_cell_angle_alpha   96.59182434
_cell_angle_beta   112.40169804
_cell_angle_gamma   90.00000009
_symmetry_Int_Tables_number   1
_chemical_formula_structural   Gd9ErIr4
_chemical_formula_sum   'Gd9 Er1 Ir4'
_cell_volume   372.14224297
_cell_formula_units_Z   1
loop_
 _symmetry_equiv_pos_site_id
 _symmetry_equiv_pos_as_xyz
  1  'x, y, z'
loop_
 _atom_site_type_symbol
 _atom_site_label
 _atom_site_symmetry_multiplicity
 _atom_site_fract_x
 _atom_site_fract_y
 _atom_site_fract_z
 _atom_site_occupancy
  Gd  Gd0  1  0.972911  0.919575  0.182614  1
  Gd  Gd1  1  0.790298  0.580425  0.817386  1
  Gd  Gd2  1  0.026888  0.082613  0.818356  1
  Gd  Gd3  1  0.208531  0.417387  0.181644  1
  Gd  Gd4  1  0.653576  0.816593  0.440719  1
  Gd  Gd5  1  0.212857  0.683407  0.559281  1
  Gd  Gd6  1  0.348412  0.182745  0.560740  1
  Gd  Gd7  1  0.787672  0.317255  0.439260  1
  Gd  Gd8  1  0.425879  0.750000  0.000000  1
  Er  Er9  1  0.571270  0.250000  0.000000  1
  Ir  Ir10  1  0.823070  0.571614  0.218593  1
  Ir  Ir11  1  0.604477  0.928386  0.781407  1
  Ir  Ir12  1  0.177922  0.425979  0.781683  1
  Ir  Ir13  1  0.396239  0.074021  0.218317  1
