# generated using pymatgen
data_Er7TmSc12Si15P
_symmetry_space_group_name_H-M   'P 1'
_cell_length_a   7.04831904
_cell_length_b   7.33499394
_cell_length_c   13.89652005
_cell_angle_alpha   89.99118436
_cell_angle_beta   90.00327124
_cell_angle_gamma   90.09551468
_symmetry_Int_Tables_number   1
_chemical_formula_structural   Er7TmSc12Si15P
_chemical_formula_sum   'Er7 Tm1 Sc12 Si15 P1'
_cell_volume   718.44042791
_cell_formula_units_Z   1
loop_
 _symmetry_equiv_pos_site_id
 _symmetry_equiv_pos_as_xyz
  1  'x, y, z'
loop_
 _atom_site_type_symbol
 _atom_site_label
 _atom_site_symmetry_multiplicity
 _atom_site_fract_x
 _atom_site_fract_y
 _atom_site_fract_z
 _atom_site_occupancy
  Er  Er0  1  0.010514  0.175771  0.096079  1
  Er  Er1  1  0.990438  0.825732  0.901034  1
  Er  Er2  1  0.489403  0.676412  0.904150  1
  Er  Er3  1  0.990364  0.825680  0.598940  1
  Er  Er4  1  0.511341  0.323568  0.095754  1
  Er  Er5  1  0.010539  0.175765  0.403963  1
  Er  Er6  1  0.511290  0.323588  0.404299  1
  Tm  Tm7  1  0.489406  0.676526  0.596010  1
  Sc  Sc8  1  0.159966  0.502637  0.749959  1
  Sc  Sc9  1  0.838736  0.496802  0.249992  1
  Sc  Sc10  1  0.339001  0.003103  0.250008  1
  Sc  Sc11  1  0.662725  0.998624  0.749939  1
  Sc  Sc12  1  0.327770  0.174062  0.627092  1
  Sc  Sc13  1  0.667911  0.823117  0.375507  1
  Sc  Sc14  1  0.168085  0.677403  0.375254  1
  Sc  Sc15  1  0.667978  0.823194  0.124534  1
  Sc  Sc16  1  0.832839  0.322262  0.626301  1
  Sc  Sc17  1  0.327752  0.174015  0.872862  1
  Sc  Sc18  1  0.832873  0.322188  0.873673  1
  Sc  Sc19  1  0.168043  0.677399  0.124777  1
  Si  Si20  1  0.965148  0.885788  0.250007  1
  Si  Si21  1  0.466214  0.613402  0.250011  1
  Si  Si22  1  0.531632  0.384958  0.749936  1
  Si  Si23  1  0.294357  0.863071  0.749876  1
  Si  Si24  1  0.714735  0.127936  0.249995  1
  Si  Si25  1  0.215153  0.371673  0.249999  1
  Si  Si26  1  0.786185  0.630036  0.749893  1
  Si  Si27  1  0.159510  0.464382  0.539876  1
  Si  Si28  1  0.840703  0.535054  0.461392  1
  Si  Si29  1  0.339029  0.965450  0.460868  1
  Si  Si30  1  0.840805  0.535038  0.038624  1
  Si  Si31  1  0.660829  0.035882  0.540153  1
  Si  Si32  1  0.159192  0.464230  0.960162  1
  Si  Si33  1  0.660934  0.036090  0.959896  1
  Si  Si34  1  0.338974  0.965626  0.039193  1
  P  P35  1  0.029627  0.123534  0.749996  1
