# generated using pymatgen
data_Tm12ZnCo3SiHg
_symmetry_space_group_name_H-M   'P 1'
_cell_length_a   8.21809088
_cell_length_b   8.21819749
_cell_length_c   8.21808981
_cell_angle_alpha   111.09437706
_cell_angle_beta   112.69575064
_cell_angle_gamma   104.72909735
_symmetry_Int_Tables_number   1
_chemical_formula_structural   Tm12ZnCo3SiHg
_chemical_formula_sum   'Tm12 Zn1 Co3 Si1 Hg1'
_cell_volume   425.00497677
_cell_formula_units_Z   1
loop_
 _symmetry_equiv_pos_site_id
 _symmetry_equiv_pos_as_xyz
  1  'x, y, z'
loop_
 _atom_site_type_symbol
 _atom_site_label
 _atom_site_symmetry_multiplicity
 _atom_site_fract_x
 _atom_site_fract_y
 _atom_site_fract_z
 _atom_site_occupancy
  Tm  Tm0  1  0.288545  0.186080  0.474560  1
  Tm  Tm1  1  0.717718  0.814270  0.531917  1
  Tm  Tm2  1  0.282352  0.814270  0.096552  1
  Tm  Tm3  1  0.711520  0.186080  0.897536  1
  Tm  Tm4  1  0.621051  0.311817  0.311443  1
  Tm  Tm5  1  0.378945  0.690256  0.690903  1
  Tm  Tm6  1  0.000374  0.311817  0.690766  1
  Tm  Tm7  1  0.999354  0.690256  0.311311  1
  Tm  Tm8  1  0.240776  0.434926  0.194150  1
  Tm  Tm9  1  0.768571  0.569359  0.800788  1
  Tm  Tm10  1  0.231420  0.032244  0.800823  1
  Tm  Tm11  1  0.759206  0.953391  0.194185  1
  Zn  Zn12  1  0.000012  0.992294  0.992281  1
  Co  Co13  1  0.999989  0.646665  0.646675  1
  Co  Co14  1  0.388483  0.889417  0.500935  1
  Co  Co15  1  0.611702  0.112618  0.500917  1
  Si  Si16  1  0.999994  0.364663  0.364669  1
  Hg  Hg17  1  0.499986  0.499573  0.999588  1
