# generated using pymatgen
data_YbDy8HoIr6
_symmetry_space_group_name_H-M   'P 1'
_cell_length_a   10.88257000
_cell_length_b   10.88257000
_cell_length_c   6.34455000
_cell_angle_alpha   90.00000000
_cell_angle_beta   90.00000000
_cell_angle_gamma   90.00000000
_symmetry_Int_Tables_number   1
_chemical_formula_structural   YbDy8HoIr6
_chemical_formula_sum   'Yb2 Dy16 Ho2 Ir12'
_cell_volume   751.38714896
_cell_formula_units_Z   2
loop_
 _symmetry_equiv_pos_site_id
 _symmetry_equiv_pos_as_xyz
  1  'x, y, z'
loop_
 _atom_site_type_symbol
 _atom_site_label
 _atom_site_symmetry_multiplicity
 _atom_site_fract_x
 _atom_site_fract_y
 _atom_site_fract_z
 _atom_site_occupancy
  Yb  Yb0  1  0.000000  0.000000  0.500000  1
  Yb  Yb1  1  0.000000  0.000000  0.000000  1
  Dy  Dy2  1  0.290235  0.087825  0.381400  1
  Dy  Dy3  1  0.290235  0.912175  0.881400  1
  Dy  Dy4  1  0.709765  0.087825  0.881400  1
  Dy  Dy5  1  0.709765  0.912175  0.381400  1
  Dy  Dy6  1  0.589184  0.791176  0.880008  1
  Dy  Dy7  1  0.589184  0.208824  0.380008  1
  Dy  Dy8  1  0.410816  0.791176  0.380008  1
  Dy  Dy9  1  0.410816  0.208824  0.880008  1
  Dy  Dy10  1  0.208824  0.410816  0.619992  1
  Dy  Dy11  1  0.208824  0.589184  0.119992  1
  Dy  Dy12  1  0.791176  0.410816  0.119992  1
  Dy  Dy13  1  0.791176  0.589184  0.619992  1
  Dy  Dy14  1  0.912175  0.709765  0.118600  1
  Dy  Dy15  1  0.912175  0.290235  0.618600  1
  Dy  Dy16  1  0.087825  0.709765  0.618600  1
  Dy  Dy17  1  0.087825  0.290235  0.118600  1
  Ho  Ho18  1  0.500000  0.500000  0.000000  1
  Ho  Ho19  1  0.500000  0.500000  0.500000  1
  Ir  Ir20  1  0.842053  0.157947  0.250000  1
  Ir  Ir21  1  0.842053  0.842053  0.750000  1
  Ir  Ir22  1  0.157947  0.157947  0.750000  1
  Ir  Ir23  1  0.157947  0.842053  0.250000  1
  Ir  Ir24  1  0.652989  0.347011  0.750000  1
  Ir  Ir25  1  0.652989  0.652989  0.250000  1
  Ir  Ir26  1  0.347011  0.347011  0.250000  1
  Ir  Ir27  1  0.347011  0.652989  0.750000  1
  Ir  Ir28  1  0.500000  0.000000  0.122693  1
  Ir  Ir29  1  0.500000  0.000000  0.622693  1
  Ir  Ir30  1  0.000000  0.500000  0.877307  1
  Ir  Ir31  1  0.000000  0.500000  0.377307  1
