# generated using pymatgen
data_TbPr2Nd3Ta2O14
_symmetry_space_group_name_H-M   'P 1'
_cell_length_a   6.68303053
_cell_length_b   6.66123326
_cell_length_c   7.71650000
_cell_angle_alpha   90.00000000
_cell_angle_beta   90.00000000
_cell_angle_gamma   108.85212121
_symmetry_Int_Tables_number   1
_chemical_formula_structural   TbPr2Nd3Ta2O14
_chemical_formula_sum   'Tb1 Pr2 Nd3 Ta2 O14'
_cell_volume   325.08943339
_cell_formula_units_Z   1
loop_
 _symmetry_equiv_pos_site_id
 _symmetry_equiv_pos_as_xyz
  1  'x, y, z'
loop_
 _atom_site_type_symbol
 _atom_site_label
 _atom_site_symmetry_multiplicity
 _atom_site_fract_x
 _atom_site_fract_y
 _atom_site_fract_z
 _atom_site_occupancy
  Tb  Tb0  1  0.003406  0.531878  0.250000  1
  Pr  Pr1  1  0.530648  0.525366  0.499035  1
  Pr  Pr2  1  0.530648  0.525366  0.000965  1
  Nd  Nd3  1  0.005888  0.462569  0.750000  1
  Nd  Nd4  1  0.532987  0.002996  0.750000  1
  Nd  Nd5  1  0.463251  0.003661  0.250000  1
  Ta  Ta6  1  0.001030  0.001191  0.498157  1
  Ta  Ta7  1  0.001030  0.001191  0.001843  1
  O  O8  1  0.944947  0.056346  0.750000  1
  O  O9  1  0.057873  0.936483  0.250000  1
  O  O10  1  0.354966  0.636053  0.250000  1
  O  O11  1  0.642529  0.367090  0.750000  1
  O  O12  1  0.370626  0.632173  0.750000  1
  O  O13  1  0.643239  0.374955  0.250000  1
  O  O14  1  0.308390  0.068035  0.969544  1
  O  O15  1  0.679888  0.920731  0.472585  1
  O  O16  1  0.308390  0.068035  0.530456  1
  O  O17  1  0.679888  0.920731  0.027415  1
  O  O18  1  0.039465  0.301385  0.460015  1
  O  O19  1  0.930721  0.681191  0.975325  1
  O  O20  1  0.930721  0.681191  0.524675  1
  O  O21  1  0.039465  0.301385  0.039985  1
