# generated using pymatgen
data_NaY6RhBr12
_symmetry_space_group_name_H-M   'P 1'
_cell_length_a   9.29085521
_cell_length_b   9.29085500
_cell_length_c   9.29085541
_cell_angle_alpha   107.03586319
_cell_angle_beta   107.03586758
_cell_angle_gamma   107.03587006
_symmetry_Int_Tables_number   1
_chemical_formula_structural   NaY6RhBr12
_chemical_formula_sum   'Na1 Y6 Rh1 Br12'
_cell_volume   667.24750094
_cell_formula_units_Z   1
loop_
 _symmetry_equiv_pos_site_id
 _symmetry_equiv_pos_as_xyz
  1  'x, y, z'
loop_
 _atom_site_type_symbol
 _atom_site_label
 _atom_site_symmetry_multiplicity
 _atom_site_fract_x
 _atom_site_fract_y
 _atom_site_fract_z
 _atom_site_occupancy
  Na  Na0  1  0.500000  0.500000  0.500000  1
  Y  Y1  1  0.317030  0.107776  0.028659  1
  Y  Y2  1  0.028659  0.317030  0.107776  1
  Y  Y3  1  0.107776  0.028659  0.317030  1
  Y  Y4  1  0.682970  0.892224  0.971341  1
  Y  Y5  1  0.971341  0.682970  0.892224  1
  Y  Y6  1  0.892224  0.971341  0.682970  1
  Rh  Rh7  1  0.000000  0.000000  0.000000  1
  Br  Br8  1  0.681562  0.218492  0.073565  1
  Br  Br9  1  0.073565  0.681562  0.218492  1
  Br  Br10  1  0.218492  0.073565  0.681562  1
  Br  Br11  1  0.318438  0.781508  0.926435  1
  Br  Br12  1  0.926435  0.318438  0.781508  1
  Br  Br13  1  0.781508  0.926435  0.318438  1
  Br  Br14  1  0.448587  0.147605  0.368019  1
  Br  Br15  1  0.368019  0.448587  0.147605  1
  Br  Br16  1  0.147605  0.368019  0.448587  1
  Br  Br17  1  0.551413  0.852395  0.631981  1
  Br  Br18  1  0.631981  0.551413  0.852395  1
  Br  Br19  1  0.852395  0.631981  0.551413  1
