# generated using pymatgen
data_Cs7KTiBi4
_symmetry_space_group_name_H-M   'P 1'
_cell_length_a   12.56376202
_cell_length_b   12.44002035
_cell_length_c   12.56376080
_cell_angle_alpha   60.32528783
_cell_angle_beta   60.63546892
_cell_angle_gamma   60.32528707
_symmetry_Int_Tables_number   1
_chemical_formula_structural   Cs7KTiBi4
_chemical_formula_sum   'Cs14 K2 Ti2 Bi8'
_cell_volume   1401.92976146
_cell_formula_units_Z   2
loop_
 _symmetry_equiv_pos_site_id
 _symmetry_equiv_pos_as_xyz
  1  'x, y, z'
loop_
 _atom_site_type_symbol
 _atom_site_label
 _atom_site_symmetry_multiplicity
 _atom_site_fract_x
 _atom_site_fract_y
 _atom_site_fract_z
 _atom_site_occupancy
  Cs  Cs0  1  0.625000  0.625000  0.125000  1
  Cs  Cs1  1  0.125000  0.625000  0.625000  1
  Cs  Cs2  1  0.025013  0.027396  0.474225  1
  Cs  Cs3  1  0.775775  0.222604  0.224987  1
  Cs  Cs4  1  0.224986  0.776635  0.775776  1
  Cs  Cs5  1  0.775776  0.776635  0.224986  1
  Cs  Cs6  1  0.776235  0.223764  0.776235  1
  Cs  Cs7  1  0.223858  0.776142  0.223858  1
  Cs  Cs8  1  0.473765  0.026236  0.473765  1
  Cs  Cs9  1  0.474225  0.027396  0.025013  1
  Cs  Cs10  1  0.025014  0.473365  0.474224  1
  Cs  Cs11  1  0.026142  0.473858  0.026142  1
  Cs  Cs12  1  0.224987  0.222604  0.775775  1
  Cs  Cs13  1  0.474224  0.473365  0.025014  1
  K  K14  1  0.625000  0.125000  0.625000  1
  K  K15  1  0.625000  0.625000  0.625000  1
  Ti  Ti16  1  0.747734  0.752266  0.747734  1
  Ti  Ti17  1  0.502266  0.497734  0.502266  1
  Bi  Bi18  1  0.408762  0.780471  0.408762  1
  Bi  Bi19  1  0.838640  0.845574  0.470211  1
  Bi  Bi20  1  0.470211  0.845574  0.838640  1
  Bi  Bi21  1  0.841238  0.847996  0.841238  1
  Bi  Bi22  1  0.779789  0.404426  0.411360  1
  Bi  Bi23  1  0.408762  0.402004  0.408762  1
  Bi  Bi24  1  0.411360  0.404426  0.779789  1
  Bi  Bi25  1  0.841238  0.469529  0.841238  1
