# generated using pymatgen
data_Tb3Tm5Tc3OsC8
_symmetry_space_group_name_H-M   'P 1'
_cell_length_a   5.07013900
_cell_length_b   6.53926071
_cell_length_c   9.76078478
_cell_angle_alpha   89.66073403
_cell_angle_beta   90.00000000
_cell_angle_gamma   90.00000000
_symmetry_Int_Tables_number   1
_chemical_formula_structural   Tb3Tm5Tc3OsC8
_chemical_formula_sum   'Tb3 Tm5 Tc3 Os1 C8'
_cell_volume   323.61276301
_cell_formula_units_Z   1
loop_
 _symmetry_equiv_pos_site_id
 _symmetry_equiv_pos_as_xyz
  1  'x, y, z'
loop_
 _atom_site_type_symbol
 _atom_site_label
 _atom_site_symmetry_multiplicity
 _atom_site_fract_x
 _atom_site_fract_y
 _atom_site_fract_z
 _atom_site_occupancy
  Tb  Tb0  1  0.250000  0.532254  0.214341  1
  Tb  Tb1  1  0.750000  0.967478  0.711856  1
  Tb  Tb2  1  0.250000  0.032109  0.286487  1
  Tm  Tm3  1  0.250000  0.672784  0.558143  1
  Tm  Tm4  1  0.750000  0.324772  0.442429  1
  Tm  Tm5  1  0.750000  0.826690  0.057687  1
  Tm  Tm6  1  0.250000  0.173960  0.941936  1
  Tm  Tm7  1  0.750000  0.465525  0.785215  1
  Tc  Tc8  1  0.250000  0.718935  0.866424  1
  Tc  Tc9  1  0.750000  0.281151  0.132249  1
  Tc  Tc10  1  0.750000  0.778902  0.367723  1
  Os  Os11  1  0.250000  0.220277  0.634014  1
  C  C12  1  0.250000  0.451259  0.759750  1
  C  C13  1  0.750000  0.548791  0.240807  1
  C  C14  1  0.750000  0.048931  0.259778  1
  C  C15  1  0.250000  0.952485  0.740783  1
  C  C16  1  0.250000  0.827856  0.049905  1
  C  C17  1  0.750000  0.176482  0.947648  1
  C  C18  1  0.750000  0.670378  0.552622  1
  C  C19  1  0.250000  0.328983  0.450201  1
