# generated using pymatgen
data_Pr2Fe3P7Ru9
_symmetry_space_group_name_H-M   'P 1'
_cell_length_a   9.38131500
_cell_length_b   9.38131502
_cell_length_c   3.88848100
_cell_angle_alpha   90.00000000
_cell_angle_beta   90.00000000
_cell_angle_gamma   119.99998935
_symmetry_Int_Tables_number   1
_chemical_formula_structural   Pr2Fe3P7Ru9
_chemical_formula_sum   'Pr2 Fe3 P7 Ru9'
_cell_volume   296.37263255
_cell_formula_units_Z   1
loop_
 _symmetry_equiv_pos_site_id
 _symmetry_equiv_pos_as_xyz
  1  'x, y, z'
loop_
 _atom_site_type_symbol
 _atom_site_label
 _atom_site_symmetry_multiplicity
 _atom_site_fract_x
 _atom_site_fract_y
 _atom_site_fract_z
 _atom_site_occupancy
  Pr  Pr0  1  0.333333  0.666667  0.000000  1
  Pr  Pr1  1  0.666667  0.333333  0.500000  1
  Fe  Fe2  1  0.154439  0.889105  0.000000  1
  Fe  Fe3  1  0.110895  0.265334  0.000000  1
  Fe  Fe4  1  0.734666  0.845561  0.000000  1
  P  P5  1  0.407147  0.103597  0.000000  1
  P  P6  1  0.896403  0.303551  0.000000  1
  P  P7  1  0.696449  0.592853  0.000000  1
  P  P8  1  0.110450  0.718163  0.500000  1
  P  P9  1  0.281837  0.392287  0.500000  1
  P  P10  1  0.607713  0.889550  0.500000  1
  P  P11  1  0.000000  0.000000  0.000000  1
  Ru  Ru12  1  0.419462  0.360996  0.000000  1
  Ru  Ru13  1  0.639004  0.058464  0.000000  1
  Ru  Ru14  1  0.941536  0.580538  0.000000  1
  Ru  Ru15  1  0.383237  0.948364  0.500000  1
  Ru  Ru16  1  0.051636  0.434872  0.500000  1
  Ru  Ru17  1  0.565128  0.616763  0.500000  1
  Ru  Ru18  1  0.203618  0.115043  0.500000  1
  Ru  Ru19  1  0.884957  0.088577  0.500000  1
  Ru  Ru20  1  0.911423  0.796382  0.500000  1
