# generated using pymatgen
data_Rb2InP2S7
_symmetry_space_group_name_H-M   'P 1'
_cell_length_a   9.38890985
_cell_length_b   9.38892224
_cell_length_c   8.98345494
_cell_angle_alpha   73.84586586
_cell_angle_beta   73.84595917
_cell_angle_gamma   70.66090630
_symmetry_Int_Tables_number   1
_chemical_formula_structural   Rb2InP2S7
_chemical_formula_sum   'Rb4 In2 P4 S14'
_cell_volume   702.43012397
_cell_formula_units_Z   2
loop_
 _symmetry_equiv_pos_site_id
 _symmetry_equiv_pos_as_xyz
  1  'x, y, z'
loop_
 _atom_site_type_symbol
 _atom_site_label
 _atom_site_symmetry_multiplicity
 _atom_site_fract_x
 _atom_site_fract_y
 _atom_site_fract_z
 _atom_site_occupancy
  Rb  Rb0  1  0.611453  0.051795  0.163458  1
  Rb  Rb1  1  0.948205  0.388550  0.836541  1
  Rb  Rb2  1  0.388547  0.948205  0.836542  1
  Rb  Rb3  1  0.051795  0.611450  0.163459  1
  In  In4  1  0.689637  0.310363  0.500000  1
  In  In5  1  0.310363  0.689637  0.500000  1
  P  P6  1  0.943437  0.943437  0.441955  1
  P  P7  1  0.056563  0.056563  0.558045  1
  P  P8  1  0.392476  0.392476  0.807637  1
  P  P9  1  0.607524  0.607524  0.192363  1
  S  S10  1  0.690866  0.372235  0.200308  1
  S  S11  1  0.627765  0.309135  0.799693  1
  S  S12  1  0.309134  0.627765  0.799692  1
  S  S13  1  0.372235  0.690865  0.200307  1
  S  S14  1  0.997906  0.997906  0.207090  1
  S  S15  1  0.002094  0.002094  0.792910  1
  S  S16  1  0.710873  0.018468  0.535946  1
  S  S17  1  0.981531  0.289127  0.464054  1
  S  S18  1  0.289127  0.981532  0.464054  1
  S  S19  1  0.018469  0.710873  0.535946  1
  S  S20  1  0.276415  0.276414  0.998588  1
  S  S21  1  0.723585  0.723586  0.001412  1
  S  S22  1  0.367893  0.367893  0.590362  1
  S  S23  1  0.632107  0.632107  0.409638  1
