# generated using pymatgen
data_Y4Tm6TcIr3
_symmetry_space_group_name_H-M   'P 1'
_cell_length_a   6.36749617
_cell_length_b   7.29483244
_cell_length_c   8.38264511
_cell_angle_alpha   97.06307683
_cell_angle_beta   111.58011427
_cell_angle_gamma   90.08147383
_symmetry_Int_Tables_number   1
_chemical_formula_structural   Y4Tm6TcIr3
_chemical_formula_sum   'Y4 Tm6 Tc1 Ir3'
_cell_volume   358.87194368
_cell_formula_units_Z   1
loop_
 _symmetry_equiv_pos_site_id
 _symmetry_equiv_pos_as_xyz
  1  'x, y, z'
loop_
 _atom_site_type_symbol
 _atom_site_label
 _atom_site_symmetry_multiplicity
 _atom_site_fract_x
 _atom_site_fract_y
 _atom_site_fract_z
 _atom_site_occupancy
  Y  Y0  1  0.973833  0.918338  0.190207  1
  Y  Y1  1  0.789845  0.580989  0.819161  1
  Y  Y2  1  0.023731  0.082471  0.813218  1
  Y  Y3  1  0.217936  0.420740  0.190666  1
  Tm  Tm4  1  0.645871  0.815273  0.436569  1
  Tm  Tm5  1  0.203274  0.684923  0.561976  1
  Tm  Tm6  1  0.355891  0.183139  0.562231  1
  Tm  Tm7  1  0.795620  0.316837  0.436429  1
  Tm  Tm8  1  0.421184  0.752259  0.999696  1
  Tm  Tm9  1  0.577039  0.247983  0.999446  1
  Tc  Tc10  1  0.816545  0.572605  0.213481  1
  Ir  Ir11  1  0.593466  0.924972  0.774491  1
  Ir  Ir12  1  0.182713  0.423815  0.778555  1
  Ir  Ir13  1  0.403054  0.075656  0.223873  1
