# generated using pymatgen
data_TmNiP3Ir4
_symmetry_space_group_name_H-M   'P 1'
_cell_length_a   3.93189200
_cell_length_b   10.66973300
_cell_length_c   12.42114800
_cell_angle_alpha   90.00000000
_cell_angle_beta   90.00000000
_cell_angle_gamma   90.00000000
_symmetry_Int_Tables_number   1
_chemical_formula_structural   TmNiP3Ir4
_chemical_formula_sum   'Tm4 Ni4 P12 Ir16'
_cell_volume   521.09495495
_cell_formula_units_Z   4
loop_
 _symmetry_equiv_pos_site_id
 _symmetry_equiv_pos_as_xyz
  1  'x, y, z'
loop_
 _atom_site_type_symbol
 _atom_site_label
 _atom_site_symmetry_multiplicity
 _atom_site_fract_x
 _atom_site_fract_y
 _atom_site_fract_z
 _atom_site_occupancy
  Tm  Tm0  1  0.250000  0.587394  0.709626  1
  Tm  Tm1  1  0.250000  0.912606  0.209626  1
  Tm  Tm2  1  0.750000  0.412606  0.290374  1
  Tm  Tm3  1  0.750000  0.087394  0.790374  1
  Ni  Ni4  1  0.250000  0.462825  0.935075  1
  Ni  Ni5  1  0.250000  0.037175  0.435075  1
  Ni  Ni6  1  0.750000  0.537175  0.064925  1
  Ni  Ni7  1  0.750000  0.962825  0.564925  1
  P  P8  1  0.250000  0.421469  0.107758  1
  P  P9  1  0.250000  0.078531  0.607758  1
  P  P10  1  0.750000  0.578531  0.892242  1
  P  P11  1  0.750000  0.921469  0.392242  1
  P  P12  1  0.250000  0.269802  0.870668  1
  P  P13  1  0.250000  0.230198  0.370668  1
  P  P14  1  0.750000  0.730198  0.129332  1
  P  P15  1  0.750000  0.769802  0.629332  1
  P  P16  1  0.250000  0.592651  0.382926  1
  P  P17  1  0.250000  0.907349  0.882926  1
  P  P18  1  0.750000  0.407349  0.617074  1
  P  P19  1  0.750000  0.092651  0.117074  1
  Ir  Ir20  1  0.250000  0.718492  0.973941  1
  Ir  Ir21  1  0.250000  0.781508  0.473941  1
  Ir  Ir22  1  0.750000  0.281508  0.026059  1
  Ir  Ir23  1  0.750000  0.218492  0.526059  1
  Ir  Ir24  1  0.250000  0.406681  0.476945  1
  Ir  Ir25  1  0.250000  0.093319  0.976945  1
  Ir  Ir26  1  0.750000  0.593319  0.523055  1
  Ir  Ir27  1  0.750000  0.906681  0.023055  1
  Ir  Ir28  1  0.250000  0.229825  0.182209  1
  Ir  Ir29  1  0.250000  0.270175  0.682209  1
  Ir  Ir30  1  0.750000  0.770175  0.817791  1
  Ir  Ir31  1  0.750000  0.729825  0.317791  1
  Ir  Ir32  1  0.250000  0.888082  0.697087  1
  Ir  Ir33  1  0.250000  0.611918  0.197087  1
  Ir  Ir34  1  0.750000  0.111918  0.302913  1
  Ir  Ir35  1  0.750000  0.388082  0.802913  1
