# generated using pymatgen
data_KMgH6Rh
_symmetry_space_group_name_H-M   'P 1'
_cell_length_a   7.26911700
_cell_length_b   7.26911700
_cell_length_c   7.26911700
_cell_angle_alpha   90.00000000
_cell_angle_beta   90.00000000
_cell_angle_gamma   90.00000000
_symmetry_Int_Tables_number   1
_chemical_formula_structural   KMgH6Rh
_chemical_formula_sum   'K4 Mg4 H24 Rh4'
_cell_volume   384.10059267
_cell_formula_units_Z   4
loop_
 _symmetry_equiv_pos_site_id
 _symmetry_equiv_pos_as_xyz
  1  'x, y, z'
loop_
 _atom_site_type_symbol
 _atom_site_label
 _atom_site_symmetry_multiplicity
 _atom_site_fract_x
 _atom_site_fract_y
 _atom_site_fract_z
 _atom_site_occupancy
  K  K0  1  0.000000  0.000000  0.500000  1
  K  K1  1  0.000000  0.500000  0.000000  1
  K  K2  1  0.500000  0.000000  0.000000  1
  K  K3  1  0.000000  0.000000  0.000000  1
  Mg  Mg4  1  0.500000  0.500000  0.500000  1
  Mg  Mg5  1  0.000000  0.500000  0.500000  1
  Mg  Mg6  1  0.500000  0.000000  0.500000  1
  Mg  Mg7  1  0.500000  0.500000  0.000000  1
  H  H8  1  0.724920  0.724920  0.506677  1
  H  H9  1  0.275080  0.275080  0.506677  1
  H  H10  1  0.048394  0.714557  0.714557  1
  H  H11  1  0.285443  0.951606  0.714557  1
  H  H12  1  0.714557  0.048394  0.714557  1
  H  H13  1  0.951606  0.285443  0.714557  1
  H  H14  1  0.724920  0.506677  0.724920  1
  H  H15  1  0.506677  0.724920  0.724920  1
  H  H16  1  0.493323  0.275080  0.724920  1
  H  H17  1  0.275080  0.493323  0.724920  1
  H  H18  1  0.285443  0.714557  0.951606  1
  H  H19  1  0.714557  0.285443  0.951606  1
  H  H20  1  0.714557  0.714557  0.048394  1
  H  H21  1  0.285443  0.285443  0.048394  1
  H  H22  1  0.275080  0.506677  0.275080  1
  H  H23  1  0.493323  0.724920  0.275080  1
  H  H24  1  0.506677  0.275080  0.275080  1
  H  H25  1  0.724920  0.493323  0.275080  1
  H  H26  1  0.951606  0.714557  0.285443  1
  H  H27  1  0.714557  0.951606  0.285443  1
  H  H28  1  0.285443  0.048394  0.285443  1
  H  H29  1  0.048394  0.285443  0.285443  1
  H  H30  1  0.275080  0.724920  0.493323  1
  H  H31  1  0.724920  0.275080  0.493323  1
  Rh  Rh32  1  0.281976  0.718024  0.718024  1
  Rh  Rh33  1  0.718024  0.281976  0.718024  1
  Rh  Rh34  1  0.718024  0.718024  0.281976  1
  Rh  Rh35  1  0.281976  0.281976  0.281976  1
