# generated using pymatgen
data_Rb4TiVSe6
_symmetry_space_group_name_H-M   'P 1'
_cell_length_a   7.98651288
_cell_length_b   7.98651291
_cell_length_c   10.22275731
_cell_angle_alpha   59.43849858
_cell_angle_beta   59.43849981
_cell_angle_gamma   54.59675681
_symmetry_Int_Tables_number   1
_chemical_formula_structural   Rb4TiVSe6
_chemical_formula_sum   'Rb4 Ti1 V1 Se6'
_cell_volume   435.88271741
_cell_formula_units_Z   1
loop_
 _symmetry_equiv_pos_site_id
 _symmetry_equiv_pos_as_xyz
  1  'x, y, z'
loop_
 _atom_site_type_symbol
 _atom_site_label
 _atom_site_symmetry_multiplicity
 _atom_site_fract_x
 _atom_site_fract_y
 _atom_site_fract_z
 _atom_site_occupancy
  Rb  Rb0  1  0.586996  0.586996  0.134365  1
  Rb  Rb1  1  0.416549  0.416549  0.862376  1
  Rb  Rb2  1  0.803819  0.803819  0.319806  1
  Rb  Rb3  1  0.192000  0.192000  0.683087  1
  Ti  Ti4  1  0.887144  0.887144  0.674617  1
  V  V5  1  0.112697  0.112697  0.326107  1
  Se  Se6  1  0.112002  0.112002  0.103716  1
  Se  Se7  1  0.887980  0.887980  0.905152  1
  Se  Se8  1  0.293116  0.293116  0.272409  1
  Se  Se9  1  0.700496  0.700496  0.729598  1
  Se  Se10  1  0.256695  0.750504  0.494385  1
  Se  Se11  1  0.750504  0.256695  0.494385  1
