# generated using pymatgen
data_RbMn2(Sb6Os)2
_symmetry_space_group_name_H-M   'P 1'
_cell_length_a   8.19296001
_cell_length_b   8.19295895
_cell_length_c   8.22023612
_cell_angle_alpha   109.38615443
_cell_angle_beta   109.35035505
_cell_angle_gamma   109.54304181
_symmetry_Int_Tables_number   1
_chemical_formula_structural   RbMn2(Sb6Os)2
_chemical_formula_sum   'Rb1 Mn2 Sb12 Os2'
_cell_volume   425.46094353
_cell_formula_units_Z   1
loop_
 _symmetry_equiv_pos_site_id
 _symmetry_equiv_pos_as_xyz
  1  'x, y, z'
loop_
 _atom_site_type_symbol
 _atom_site_label
 _atom_site_symmetry_multiplicity
 _atom_site_fract_x
 _atom_site_fract_y
 _atom_site_fract_z
 _atom_site_occupancy
  Rb  Rb0  1  0.000000  0.000000  0.000000  1
  Mn  Mn1  1  0.000000  0.500000  0.000000  1
  Mn  Mn2  1  0.500000  0.000000  0.000000  1
  Sb  Sb3  1  0.338408  0.157797  0.496205  1
  Sb  Sb4  1  0.346395  0.844648  0.191043  1
  Sb  Sb5  1  0.653605  0.155352  0.808957  1
  Sb  Sb6  1  0.814988  0.660431  0.159283  1
  Sb  Sb7  1  0.159319  0.499076  0.344310  1
  Sb  Sb8  1  0.501148  0.655706  0.840717  1
  Sb  Sb9  1  0.845233  0.184991  0.344310  1
  Sb  Sb10  1  0.661592  0.842203  0.503795  1
  Sb  Sb11  1  0.185012  0.339569  0.840717  1
  Sb  Sb12  1  0.154767  0.815009  0.655690  1
  Sb  Sb13  1  0.498852  0.344294  0.159283  1
  Sb  Sb14  1  0.840681  0.500924  0.655690  1
  Os  Os15  1  0.500000  0.500000  0.500000  1
  Os  Os16  1  0.000000  0.000000  0.500000  1
