# generated using pymatgen
data_Ti8InO7
_symmetry_space_group_name_H-M   'P 1'
_cell_length_a   9.29663455
_cell_length_b   9.29663379
_cell_length_c   2.99311800
_cell_angle_alpha   90.00000000
_cell_angle_beta   90.00000000
_cell_angle_gamma   129.71297179
_symmetry_Int_Tables_number   1
_chemical_formula_structural   Ti8InO7
_chemical_formula_sum   'Ti8 In1 O7'
_cell_volume   198.99657562
_cell_formula_units_Z   1
loop_
 _symmetry_equiv_pos_site_id
 _symmetry_equiv_pos_as_xyz
  1  'x, y, z'
loop_
 _atom_site_type_symbol
 _atom_site_label
 _atom_site_symmetry_multiplicity
 _atom_site_fract_x
 _atom_site_fract_y
 _atom_site_fract_z
 _atom_site_occupancy
  Ti  Ti0  1  0.488252  0.148739  0.500000  1
  Ti  Ti1  1  0.511748  0.851261  0.500000  1
  Ti  Ti2  1  0.148739  0.488252  0.500000  1
  Ti  Ti3  1  0.851261  0.511748  0.500000  1
  Ti  Ti4  1  0.178645  0.178645  0.000000  1
  Ti  Ti5  1  0.821355  0.821355  0.000000  1
  Ti  Ti6  1  0.203284  0.796716  0.000000  1
  Ti  Ti7  1  0.796716  0.203284  0.000000  1
  In  In8  1  0.500000  0.500000  0.500000  1
  O  O9  1  0.294782  0.054839  0.000000  1
  O  O10  1  0.705218  0.945161  0.000000  1
  O  O11  1  0.054839  0.294782  0.000000  1
  O  O12  1  0.945161  0.705218  0.000000  1
  O  O13  1  0.323190  0.676810  0.000000  1
  O  O14  1  0.676810  0.323190  0.000000  1
  O  O15  1  0.000000  0.000000  0.500000  1
