# generated using pymatgen
data_Li4La(ThSi2)2
_symmetry_space_group_name_H-M   'P 1'
_cell_length_a   4.43023510
_cell_length_b   6.79497757
_cell_length_c   8.33300987
_cell_angle_alpha   114.06133956
_cell_angle_beta   105.41594702
_cell_angle_gamma   90.00000724
_symmetry_Int_Tables_number   1
_chemical_formula_structural   Li4La(ThSi2)2
_chemical_formula_sum   'Li4 La1 Th2 Si4'
_cell_volume   219.13372005
_cell_formula_units_Z   1
loop_
 _symmetry_equiv_pos_site_id
 _symmetry_equiv_pos_as_xyz
  1  'x, y, z'
loop_
 _atom_site_type_symbol
 _atom_site_label
 _atom_site_symmetry_multiplicity
 _atom_site_fract_x
 _atom_site_fract_y
 _atom_site_fract_z
 _atom_site_occupancy
  Li  Li0  1  0.670405  0.985039  0.340809  1
  Li  Li1  1  0.329871  0.018376  0.659744  1
  Li  Li2  1  0.329871  0.641368  0.659744  1
  Li  Li3  1  0.670405  0.355771  0.340809  1
  La  La4  1  0.869517  0.369517  0.739035  1
  Th  Th5  1  0.000487  0.000487  0.000972  1
  Th  Th6  1  0.129804  0.629804  0.259608  1
  Si  Si7  1  0.502961  0.685335  0.005922  1
  Si  Si8  1  0.502961  0.320588  0.005922  1
  Si  Si9  1  0.783991  0.783991  0.567980  1
  Si  Si10  1  0.209726  0.209726  0.419454  1
