# generated using pymatgen
data_CeY(BOs)4
_symmetry_space_group_name_H-M   'P 1'
_cell_length_a   6.68860317
_cell_length_b   5.98216776
_cell_length_c   5.59203800
_cell_angle_alpha   70.51230504
_cell_angle_beta   57.47382028
_cell_angle_gamma   52.01386372
_symmetry_Int_Tables_number   1
_chemical_formula_structural   CeY(BOs)4
_chemical_formula_sum   'Ce1 Y1 B4 Os4'
_cell_volume   148.68855746
_cell_formula_units_Z   1
loop_
 _symmetry_equiv_pos_site_id
 _symmetry_equiv_pos_as_xyz
  1  'x, y, z'
loop_
 _atom_site_type_symbol
 _atom_site_label
 _atom_site_symmetry_multiplicity
 _atom_site_fract_x
 _atom_site_fract_y
 _atom_site_fract_z
 _atom_site_occupancy
  Ce  Ce0  1  0.250000  0.250000  0.250000  1
  Y  Y1  1  0.000000  0.000000  0.000000  1
  B  B2  1  0.309141  0.690859  0.309141  1
  B  B3  1  0.690859  0.309141  0.690859  1
  B  B4  1  0.564260  0.935740  0.564260  1
  B  B5  1  0.935740  0.564260  0.935740  1
  Os  Os6  1  0.638175  0.638175  0.361825  1
  Os  Os7  1  0.361825  0.361825  0.638175  1
  Os  Os8  1  0.611593  0.611593  0.888407  1
  Os  Os9  1  0.888407  0.888407  0.611593  1
