# generated using pymatgen
data_Y9Ho2LuPb10
_symmetry_space_group_name_H-M   'P 1'
_cell_length_a   11.74548097
_cell_length_b   11.74338065
_cell_length_c   11.75488900
_cell_angle_alpha   147.42225521
_cell_angle_beta   132.61809553
_cell_angle_gamma   58.58365292
_symmetry_Int_Tables_number   1
_chemical_formula_structural   Y9Ho2LuPb10
_chemical_formula_sum   'Y9 Ho2 Lu1 Pb10'
_cell_volume   637.44225178
_cell_formula_units_Z   1
loop_
 _symmetry_equiv_pos_site_id
 _symmetry_equiv_pos_as_xyz
  1  'x, y, z'
loop_
 _atom_site_type_symbol
 _atom_site_label
 _atom_site_symmetry_multiplicity
 _atom_site_fract_x
 _atom_site_fract_y
 _atom_site_fract_z
 _atom_site_occupancy
  Y  Y0  1  0.696367  0.946613  0.250017  1
  Y  Y1  1  0.251647  0.639465  0.611128  1
  Y  Y2  1  0.675229  0.940902  0.733224  1
  Y  Y3  1  0.028263  0.140490  0.888801  1
  Y  Y4  1  0.971336  0.859064  0.111707  1
  Y  Y5  1  0.791842  0.559962  0.233545  1
  Y  Y6  1  0.208167  0.442093  0.767405  1
  Y  Y7  1  0.303260  0.053282  0.750003  1
  Y  Y8  1  0.325918  0.058183  0.266048  1
  Ho  Ho9  1  0.303795  0.553773  0.249903  1
  Ho  Ho10  1  0.747437  0.359763  0.388382  1
  Lu  Lu11  1  0.696088  0.446048  0.749870  1
  Pb  Pb12  1  0.478527  0.570672  0.896881  1
  Pb  Pb13  1  0.598375  0.788263  0.798594  1
  Pb  Pb14  1  0.673644  0.081725  0.602908  1
  Pb  Pb15  1  0.000067  0.748794  0.748690  1
  Pb  Pb16  1  0.989212  0.299780  0.700718  1
  Pb  Pb17  1  0.523098  0.424400  0.098998  1
  Pb  Pb18  1  0.007856  0.702161  0.298386  1
  Pb  Pb19  1  0.403881  0.209514  0.201725  1
  Pb  Pb20  1  0.326379  0.924063  0.401906  1
  Pb  Pb21  1  0.999612  0.250989  0.251162  1
