# generated using pymatgen
data_Tm17Lu3IrPt11
_symmetry_space_group_name_H-M   'P 1'
_cell_length_a   10.86396400
_cell_length_b   10.86456900
_cell_length_c   6.39051100
_cell_angle_alpha   90.00000000
_cell_angle_beta   90.00000000
_cell_angle_gamma   89.99731037
_symmetry_Int_Tables_number   1
_chemical_formula_structural   Tm17Lu3IrPt11
_chemical_formula_sum   'Tm17 Lu3 Ir1 Pt11'
_cell_volume   754.28662476
_cell_formula_units_Z   1
loop_
 _symmetry_equiv_pos_site_id
 _symmetry_equiv_pos_as_xyz
  1  'x, y, z'
loop_
 _atom_site_type_symbol
 _atom_site_label
 _atom_site_symmetry_multiplicity
 _atom_site_fract_x
 _atom_site_fract_y
 _atom_site_fract_z
 _atom_site_occupancy
  Tm  Tm0  1  0.292143  0.087650  0.377583  1
  Tm  Tm1  1  0.292107  0.911875  0.876848  1
  Tm  Tm2  1  0.707893  0.088125  0.876848  1
  Tm  Tm3  1  0.707857  0.912350  0.377583  1
  Tm  Tm4  1  0.588108  0.792132  0.876869  1
  Tm  Tm5  1  0.587693  0.207734  0.377473  1
  Tm  Tm6  1  0.412307  0.792266  0.377473  1
  Tm  Tm7  1  0.411892  0.207868  0.876869  1
  Tm  Tm8  1  0.206308  0.412802  0.620270  1
  Tm  Tm9  1  0.206867  0.587182  0.126405  1
  Tm  Tm10  1  0.793133  0.412818  0.126405  1
  Tm  Tm11  1  0.793692  0.587198  0.620270  1
  Tm  Tm12  1  0.912804  0.706885  0.126441  1
  Tm  Tm13  1  0.912825  0.293549  0.620167  1
  Tm  Tm14  1  0.087175  0.706451  0.620167  1
  Tm  Tm15  1  0.087196  0.293115  0.126441  1
  Tm  Tm16  1  0.500000  0.500000  0.500419  1
  Lu  Lu17  1  0.000000  0.000000  0.500433  1
  Lu  Lu18  1  0.000000  0.000000  0.999998  1
  Lu  Lu19  1  0.500000  0.500000  0.999993  1
  Ir  Ir20  1  0.000000  0.500000  0.379781  1
  Pt  Pt21  1  0.846340  0.152647  0.249696  1
  Pt  Pt22  1  0.846661  0.846994  0.750069  1
  Pt  Pt23  1  0.153339  0.153006  0.750069  1
  Pt  Pt24  1  0.153660  0.847353  0.249696  1
  Pt  Pt25  1  0.653265  0.346465  0.750421  1
  Pt  Pt26  1  0.652851  0.653906  0.249331  1
  Pt  Pt27  1  0.347149  0.346094  0.249331  1
  Pt  Pt28  1  0.346735  0.653535  0.750421  1
  Pt  Pt29  1  0.500000  0.000000  0.117525  1
  Pt  Pt30  1  0.500000  0.000000  0.617990  1
  Pt  Pt31  1  0.000000  0.500000  0.880711  1
