# generated using pymatgen
data_Zn14B6Rh17Au
_symmetry_space_group_name_H-M   'P 1'
_cell_length_a   2.89356700
_cell_length_b   11.33547300
_cell_length_c   14.97765800
_cell_angle_alpha   90.00000000
_cell_angle_beta   90.00000000
_cell_angle_gamma   90.00000000
_symmetry_Int_Tables_number   1
_chemical_formula_structural   Zn14B6Rh17Au
_chemical_formula_sum   'Zn14 B6 Rh17 Au1'
_cell_volume   491.26644254
_cell_formula_units_Z   1
loop_
 _symmetry_equiv_pos_site_id
 _symmetry_equiv_pos_as_xyz
  1  'x, y, z'
loop_
 _atom_site_type_symbol
 _atom_site_label
 _atom_site_symmetry_multiplicity
 _atom_site_fract_x
 _atom_site_fract_y
 _atom_site_fract_z
 _atom_site_occupancy
  Zn  Zn0  1  0.500000  0.500000  0.350343  1
  Zn  Zn1  1  0.500000  0.000000  0.652848  1
  Zn  Zn2  1  0.500000  0.386814  0.999479  1
  Zn  Zn3  1  0.500000  0.116570  0.993432  1
  Zn  Zn4  1  0.500000  0.613186  0.999479  1
  Zn  Zn5  1  0.500000  0.883430  0.993432  1
  Zn  Zn6  1  0.500000  0.372930  0.770163  1
  Zn  Zn7  1  0.500000  0.135476  0.236345  1
  Zn  Zn8  1  0.500000  0.627070  0.770163  1
  Zn  Zn9  1  0.500000  0.864524  0.236345  1
  Zn  Zn10  1  0.500000  0.297768  0.602359  1
  Zn  Zn11  1  0.500000  0.204541  0.399983  1
  Zn  Zn12  1  0.500000  0.702232  0.602359  1
  Zn  Zn13  1  0.500000  0.795459  0.399983  1
  B  B14  1  0.500000  0.500000  0.531283  1
  B  B15  1  0.500000  0.000000  0.470611  1
  B  B16  1  0.500000  0.143185  0.820074  1
  B  B17  1  0.500000  0.358595  0.178086  1
  B  B18  1  0.500000  0.856815  0.820074  1
  B  B19  1  0.500000  0.641405  0.178086  1
  Rh  Rh20  1  0.000000  0.248004  0.892135  1
  Rh  Rh21  1  0.000000  0.252832  0.105197  1
  Rh  Rh22  1  0.000000  0.751996  0.892135  1
  Rh  Rh23  1  0.000000  0.747168  0.105197  1
  Rh  Rh24  1  0.000000  0.500000  0.642821  1
  Rh  Rh25  1  0.000000  0.000000  0.358312  1
  Rh  Rh26  1  0.000000  0.175401  0.716738  1
  Rh  Rh27  1  0.000000  0.328421  0.282178  1
  Rh  Rh28  1  0.000000  0.824599  0.716738  1
  Rh  Rh29  1  0.000000  0.671579  0.282178  1
  Rh  Rh30  1  0.000000  0.500000  0.136859  1
  Rh  Rh31  1  0.000000  0.000000  0.859439  1
  Rh  Rh32  1  0.000000  0.121277  0.529962  1
  Rh  Rh33  1  0.000000  0.378689  0.471486  1
  Rh  Rh34  1  0.000000  0.878723  0.529962  1
  Rh  Rh35  1  0.000000  0.621311  0.471486  1
  Rh  Rh36  1  0.000000  0.500000  0.879690  1
  Au  Au37  1  0.000000  0.000000  0.122556  1
