# generated using pymatgen
data_Nd3Sn2PtRh2Pb
_symmetry_space_group_name_H-M   'P 1'
_cell_length_a   7.72952288
_cell_length_b   7.74209234
_cell_length_c   4.02188200
_cell_angle_alpha   90.00000000
_cell_angle_beta   90.00000000
_cell_angle_gamma   119.66949818
_symmetry_Int_Tables_number   1
_chemical_formula_structural   Nd3Sn2PtRh2Pb
_chemical_formula_sum   'Nd3 Sn2 Pt1 Rh2 Pb1'
_cell_volume   209.12585638
_cell_formula_units_Z   1
loop_
 _symmetry_equiv_pos_site_id
 _symmetry_equiv_pos_as_xyz
  1  'x, y, z'
loop_
 _atom_site_type_symbol
 _atom_site_label
 _atom_site_symmetry_multiplicity
 _atom_site_fract_x
 _atom_site_fract_y
 _atom_site_fract_z
 _atom_site_occupancy
  Nd  Nd0  1  0.007022  0.592532  0.000000  1
  Nd  Nd1  1  0.405112  0.409845  0.000000  1
  Nd  Nd2  1  0.587476  0.997167  0.000000  1
  Sn  Sn3  1  0.004988  0.256954  0.500000  1
  Sn  Sn4  1  0.252477  0.996599  0.500000  1
  Pt  Pt5  1  0.664460  0.323465  0.500000  1
  Rh  Rh6  1  0.012098  0.012422  0.000000  1
  Rh  Rh7  1  0.323412  0.664413  0.500000  1
  Pb  Pb8  1  0.742955  0.746605  0.500000  1
