# generated using pymatgen
data_Ba6LuFe3(WO9)2
_symmetry_space_group_name_H-M   'P 1'
_cell_length_a   5.83712493
_cell_length_b   8.27541924
_cell_length_c   10.14414852
_cell_angle_alpha   65.92756782
_cell_angle_beta   73.27915649
_cell_angle_gamma   89.99999843
_symmetry_Int_Tables_number   1
_chemical_formula_structural   Ba6LuFe3(WO9)2
_chemical_formula_sum   'Ba6 Lu1 Fe3 W2 O18'
_cell_volume   424.60069793
_cell_formula_units_Z   1
loop_
 _symmetry_equiv_pos_site_id
 _symmetry_equiv_pos_as_xyz
  1  'x, y, z'
loop_
 _atom_site_type_symbol
 _atom_site_label
 _atom_site_symmetry_multiplicity
 _atom_site_fract_x
 _atom_site_fract_y
 _atom_site_fract_z
 _atom_site_occupancy
  Ba  Ba0  1  0.500000  0.269059  0.000000  1
  Ba  Ba1  1  0.837122  0.576737  0.325755  1
  Ba  Ba2  1  0.162878  0.902493  0.674245  1
  Ba  Ba3  1  0.500000  0.730941  0.000000  1
  Ba  Ba4  1  0.837122  0.097507  0.325755  1
  Ba  Ba5  1  0.162878  0.423263  0.674245  1
  Lu  Lu6  1  0.000000  0.000000  0.000000  1
  Fe  Fe7  1  0.336534  0.336534  0.326931  1
  Fe  Fe8  1  0.663466  0.663466  0.673069  1
  Fe  Fe9  1  0.000000  0.500000  0.000000  1
  W  W10  1  0.330762  0.830762  0.338476  1
  W  W11  1  0.669238  0.169238  0.661523  1
  O  O12  1  0.000000  0.260112  0.000000  1
  O  O13  1  0.329641  0.591863  0.340717  1
  O  O14  1  0.670359  0.932583  0.659283  1
  O  O15  1  0.167756  0.412087  0.175826  1
  O  O16  1  0.496332  0.753543  0.492914  1
  O  O17  1  0.823020  0.089285  0.821429  1
  O  O18  1  0.343580  0.587913  0.824174  1
  O  O19  1  0.644450  0.910715  0.178571  1
  O  O20  1  0.989247  0.246457  0.507086  1
  O  O21  1  0.000000  0.739888  0.000000  1
  O  O22  1  0.329641  0.067417  0.340717  1
  O  O23  1  0.670359  0.408137  0.659283  1
  O  O24  1  0.832244  0.587913  0.824174  1
  O  O25  1  0.176980  0.910715  0.178571  1
  O  O26  1  0.503668  0.246457  0.507086  1
  O  O27  1  0.656420  0.412087  0.175826  1
  O  O28  1  0.010753  0.753543  0.492914  1
  O  O29  1  0.355550  0.089285  0.821429  1
