# generated using pymatgen
data_ErPaC2
_symmetry_space_group_name_H-M   'P 1'
_cell_length_a   6.14582639
_cell_length_b   6.14582697
_cell_length_c   6.14582598
_cell_angle_alpha   34.30054843
_cell_angle_beta   34.30053745
_cell_angle_gamma   34.30055572
_symmetry_Int_Tables_number   1
_chemical_formula_structural   ErPaC2
_chemical_formula_sum   'Er1 Pa1 C2'
_cell_volume   65.74460680
_cell_formula_units_Z   1
loop_
 _symmetry_equiv_pos_site_id
 _symmetry_equiv_pos_as_xyz
  1  'x, y, z'
loop_
 _atom_site_type_symbol
 _atom_site_label
 _atom_site_symmetry_multiplicity
 _atom_site_fract_x
 _atom_site_fract_y
 _atom_site_fract_z
 _atom_site_occupancy
  Er  Er0  1  0.500000  0.500000  0.500000  1
  Pa  Pa1  1  0.000000  0.000000  0.000000  1
  C  C2  1  0.256834  0.256834  0.256834  1
  C  C3  1  0.743166  0.743166  0.743166  1
