# generated using pymatgen
data_TmLuBe2Co5
_symmetry_space_group_name_H-M   'P 1'
_cell_length_a   4.92943176
_cell_length_b   4.92943241
_cell_length_c   11.39376916
_cell_angle_alpha   77.50693931
_cell_angle_beta   77.50693955
_cell_angle_gamma   59.99999158
_symmetry_Int_Tables_number   1
_chemical_formula_structural   TmLuBe2Co5
_chemical_formula_sum   'Tm2 Lu2 Be4 Co10'
_cell_volume   232.16788800
_cell_formula_units_Z   2
loop_
 _symmetry_equiv_pos_site_id
 _symmetry_equiv_pos_as_xyz
  1  'x, y, z'
loop_
 _atom_site_type_symbol
 _atom_site_label
 _atom_site_symmetry_multiplicity
 _atom_site_fract_x
 _atom_site_fract_y
 _atom_site_fract_z
 _atom_site_occupancy
  Tm  Tm0  1  0.949741  0.949741  0.150776  1
  Tm  Tm1  1  0.050259  0.050259  0.849224  1
  Lu  Lu2  1  0.851993  0.851993  0.444019  1
  Lu  Lu3  1  0.148007  0.148007  0.555982  1
  Be  Be4  1  0.718630  0.718630  0.844111  1
  Be  Be5  1  0.281370  0.281370  0.155889  1
  Be  Be6  1  0.614100  0.614100  0.157702  1
  Be  Be7  1  0.385900  0.385900  0.842298  1
  Co  Co8  1  0.500000  0.500000  0.500000  1
  Co  Co9  1  0.000000  0.500000  0.000000  1
  Co  Co10  1  0.500000  0.000000  0.000000  1
  Co  Co11  1  0.500000  0.500000  0.000000  1
  Co  Co12  1  0.393718  0.393718  0.316705  1
  Co  Co13  1  0.895859  0.393718  0.316705  1
  Co  Co14  1  0.393718  0.895859  0.316705  1
  Co  Co15  1  0.606282  0.606282  0.683295  1
  Co  Co16  1  0.104141  0.606282  0.683295  1
  Co  Co17  1  0.606282  0.104141  0.683295  1
