# generated using pymatgen
data_Ac4Yb5DySn8
_symmetry_space_group_name_H-M   'P 1'
_cell_length_a   8.17076400
_cell_length_b   8.71050976
_cell_length_c   16.45516800
_cell_angle_alpha   90.10183060
_cell_angle_beta   90.00000000
_cell_angle_gamma   90.00000000
_symmetry_Int_Tables_number   1
_chemical_formula_structural   Ac4Yb5DySn8
_chemical_formula_sum   'Ac8 Yb10 Dy2 Sn16'
_cell_volume   1171.13746127
_cell_formula_units_Z   2
loop_
 _symmetry_equiv_pos_site_id
 _symmetry_equiv_pos_as_xyz
  1  'x, y, z'
loop_
 _atom_site_type_symbol
 _atom_site_label
 _atom_site_symmetry_multiplicity
 _atom_site_fract_x
 _atom_site_fract_y
 _atom_site_fract_z
 _atom_site_occupancy
  Ac  Ac0  1  0.495510  0.319552  0.904101  1
  Ac  Ac1  1  0.995510  0.180448  0.595899  1
  Ac  Ac2  1  0.504648  0.683802  0.404060  1
  Ac  Ac3  1  0.004648  0.816198  0.095940  1
  Ac  Ac4  1  0.506093  0.682607  0.096005  1
  Ac  Ac5  1  0.006093  0.817393  0.403995  1
  Ac  Ac6  1  0.494332  0.317221  0.595076  1
  Ac  Ac7  1  0.994332  0.182779  0.904924  1
  Yb  Yb8  1  0.668375  0.170488  0.376422  1
  Yb  Yb9  1  0.168375  0.329512  0.123578  1
  Yb  Yb10  1  0.669342  0.170550  0.123556  1
  Yb  Yb11  1  0.169342  0.329450  0.376444  1
  Yb  Yb12  1  0.330550  0.829668  0.623437  1
  Yb  Yb13  1  0.830550  0.670332  0.876563  1
  Yb  Yb14  1  0.164346  0.503211  0.749979  1
  Yb  Yb15  1  0.664346  0.996789  0.750021  1
  Yb  Yb16  1  0.837986  0.493597  0.250486  1
  Yb  Yb17  1  0.337986  0.006403  0.249514  1
  Dy  Dy18  1  0.330621  0.828599  0.874618  1
  Dy  Dy19  1  0.830621  0.671401  0.625382  1
  Sn  Sn20  1  0.331242  0.036156  0.036503  1
  Sn  Sn21  1  0.831242  0.463844  0.463497  1
  Sn  Sn22  1  0.670104  0.958295  0.540434  1
  Sn  Sn23  1  0.170104  0.541705  0.959566  1
  Sn  Sn24  1  0.661095  0.960214  0.958322  1
  Sn  Sn25  1  0.161095  0.539786  0.541678  1
  Sn  Sn26  1  0.333736  0.038377  0.461196  1
  Sn  Sn27  1  0.833736  0.461623  0.038804  1
  Sn  Sn28  1  0.534107  0.617844  0.748220  1
  Sn  Sn29  1  0.034107  0.882156  0.751780  1
  Sn  Sn30  1  0.466824  0.389151  0.249681  1
  Sn  Sn31  1  0.966824  0.110849  0.250319  1
  Sn  Sn32  1  0.288828  0.129703  0.751135  1
  Sn  Sn33  1  0.788828  0.370297  0.748865  1
  Sn  Sn34  1  0.712267  0.866918  0.249996  1
  Sn  Sn35  1  0.212267  0.633082  0.250004  1
