# generated using pymatgen
data_Sr6Sc2IrO12
_symmetry_space_group_name_H-M   'P 1'
_cell_length_a   9.03440954
_cell_length_b   9.03440975
_cell_length_c   7.00657214
_cell_angle_alpha   67.30269425
_cell_angle_beta   67.30270272
_cell_angle_gamma   36.87696431
_symmetry_Int_Tables_number   1
_chemical_formula_structural   Sr6Sc2IrO12
_chemical_formula_sum   'Sr6 Sc2 Ir1 O12'
_cell_volume   313.51374101
_cell_formula_units_Z   1
loop_
 _symmetry_equiv_pos_site_id
 _symmetry_equiv_pos_as_xyz
  1  'x, y, z'
loop_
 _atom_site_type_symbol
 _atom_site_label
 _atom_site_symmetry_multiplicity
 _atom_site_fract_x
 _atom_site_fract_y
 _atom_site_fract_z
 _atom_site_occupancy
  Sr  Sr0  1  0.876237  0.876237  0.711493  1
  Sr  Sr1  1  0.220067  0.220067  0.709409  1
  Sr  Sr2  1  0.548063  0.548063  0.705397  1
  Sr  Sr3  1  0.451937  0.451937  0.294603  1
  Sr  Sr4  1  0.779933  0.779933  0.290591  1
  Sr  Sr5  1  0.123763  0.123763  0.288507  1
  Sc  Sc6  1  0.667824  0.667824  0.998531  1
  Sc  Sc7  1  0.332176  0.332176  0.001469  1
  Ir  Ir8  1  0.000000  0.000000  0.000000  1
  O  O9  1  0.948210  0.948210  0.313249  1
  O  O10  1  0.281527  0.281527  0.332522  1
  O  O11  1  0.606948  0.606948  0.332189  1
  O  O12  1  0.393052  0.393052  0.667811  1
  O  O13  1  0.718473  0.718473  0.667478  1
  O  O14  1  0.051790  0.051790  0.686751  1
  O  O15  1  0.500000  0.000000  0.000000  1
  O  O16  1  0.839890  0.318496  0.000491  1
  O  O17  1  0.160110  0.681504  0.999509  1
  O  O18  1  0.000000  0.500000  0.000000  1
  O  O19  1  0.318496  0.839890  0.000491  1
  O  O20  1  0.681504  0.160110  0.999509  1
