# generated using pymatgen
data_Ho3Ga3Cu11Ni
_symmetry_space_group_name_H-M   'P 1'
_cell_length_a   8.70215120
_cell_length_b   8.70215259
_cell_length_c   4.14643900
_cell_angle_alpha   90.00000000
_cell_angle_beta   90.00000000
_cell_angle_gamma   120.21057642
_symmetry_Int_Tables_number   1
_chemical_formula_structural   Ho3Ga3Cu11Ni
_chemical_formula_sum   'Ho3 Ga3 Cu11 Ni1'
_cell_volume   271.35247198
_cell_formula_units_Z   1
loop_
 _symmetry_equiv_pos_site_id
 _symmetry_equiv_pos_as_xyz
  1  'x, y, z'
loop_
 _atom_site_type_symbol
 _atom_site_label
 _atom_site_symmetry_multiplicity
 _atom_site_fract_x
 _atom_site_fract_y
 _atom_site_fract_z
 _atom_site_occupancy
  Ho  Ho0  1  0.332079  0.661818  0.000000  1
  Ho  Ho1  1  0.661818  0.332079  0.000000  1
  Ho  Ho2  1  0.006811  0.006811  0.000000  1
  Ga  Ga3  1  0.499053  0.996878  0.500000  1
  Ga  Ga4  1  0.996878  0.499053  0.500000  1
  Ga  Ga5  1  0.497425  0.497425  0.500000  1
  Cu  Cu6  1  0.331254  0.998844  0.000000  1
  Cu  Cu7  1  0.669376  0.999682  0.000000  1
  Cu  Cu8  1  0.998844  0.331254  0.000000  1
  Cu  Cu9  1  0.999682  0.669376  0.000000  1
  Cu  Cu10  1  0.670212  0.670212  0.000000  1
  Cu  Cu11  1  0.165550  0.330632  0.500000  1
  Cu  Cu12  1  0.833453  0.668801  0.500000  1
  Cu  Cu13  1  0.668801  0.833453  0.500000  1
  Cu  Cu14  1  0.330632  0.165550  0.500000  1
  Cu  Cu15  1  0.166804  0.832735  0.500000  1
  Cu  Cu16  1  0.832735  0.166804  0.500000  1
  Ni  Ni17  1  0.338591  0.338591  0.000000  1
