# generated using pymatgen
data_U4Mn7Si5As
_symmetry_space_group_name_H-M   'P 1'
_cell_length_a   6.87556819
_cell_length_b   6.87556645
_cell_length_c   6.87556711
_cell_angle_alpha   109.49947243
_cell_angle_beta   109.49947590
_cell_angle_gamma   109.41473529
_symmetry_Int_Tables_number   1
_chemical_formula_structural   U4Mn7Si5As
_chemical_formula_sum   'U4 Mn7 Si5 As1'
_cell_volume   250.20924837
_cell_formula_units_Z   1
loop_
 _symmetry_equiv_pos_site_id
 _symmetry_equiv_pos_as_xyz
  1  'x, y, z'
loop_
 _atom_site_type_symbol
 _atom_site_label
 _atom_site_symmetry_multiplicity
 _atom_site_fract_x
 _atom_site_fract_y
 _atom_site_fract_z
 _atom_site_occupancy
  U  U0  1  0.501253  0.501253  0.504849  1
  U  U1  1  0.996404  0.996404  0.495151  1
  U  U2  1  0.501253  0.996404  0.000000  1
  U  U3  1  0.996404  0.501253  0.000000  1
  Mn  Mn4  1  0.750735  0.250735  0.500000  1
  Mn  Mn5  1  0.503060  0.252870  0.749810  1
  Mn  Mn6  1  0.503060  0.753250  0.250190  1
  Mn  Mn7  1  0.252870  0.503060  0.749810  1
  Mn  Mn8  1  0.753250  0.503060  0.250190  1
  Mn  Mn9  1  0.250735  0.750735  0.500000  1
  Mn  Mn10  1  0.995557  0.995557  0.000000  1
  Si  Si11  1  0.999645  0.319624  0.319978  1
  Si  Si12  1  0.999645  0.679667  0.680022  1
  Si  Si13  1  0.679667  0.999645  0.680022  1
  Si  Si14  1  0.319624  0.999645  0.319978  1
  Si  Si15  1  0.684696  0.684696  0.000000  1
  As  As16  1  0.312141  0.312141  0.000000  1
