# generated using pymatgen
data_TmFeP3Rh4
_symmetry_space_group_name_H-M   'P 1'
_cell_length_a   3.83052400
_cell_length_b   10.74818800
_cell_length_c   12.37929200
_cell_angle_alpha   90.00000000
_cell_angle_beta   90.00000000
_cell_angle_gamma   90.00000000
_symmetry_Int_Tables_number   1
_chemical_formula_structural   TmFeP3Rh4
_chemical_formula_sum   'Tm4 Fe4 P12 Rh16'
_cell_volume   509.67020888
_cell_formula_units_Z   4
loop_
 _symmetry_equiv_pos_site_id
 _symmetry_equiv_pos_as_xyz
  1  'x, y, z'
loop_
 _atom_site_type_symbol
 _atom_site_label
 _atom_site_symmetry_multiplicity
 _atom_site_fract_x
 _atom_site_fract_y
 _atom_site_fract_z
 _atom_site_occupancy
  Tm  Tm0  1  0.250000  0.582641  0.709978  1
  Tm  Tm1  1  0.250000  0.917359  0.209978  1
  Tm  Tm2  1  0.750000  0.417359  0.290022  1
  Tm  Tm3  1  0.750000  0.082641  0.790022  1
  Fe  Fe4  1  0.250000  0.462064  0.932631  1
  Fe  Fe5  1  0.250000  0.037936  0.432631  1
  Fe  Fe6  1  0.750000  0.537936  0.067369  1
  Fe  Fe7  1  0.750000  0.962064  0.567369  1
  P  P8  1  0.250000  0.430047  0.106072  1
  P  P9  1  0.250000  0.069953  0.606072  1
  P  P10  1  0.750000  0.569953  0.893928  1
  P  P11  1  0.750000  0.930047  0.393928  1
  P  P12  1  0.250000  0.270014  0.869746  1
  P  P13  1  0.250000  0.229986  0.369746  1
  P  P14  1  0.750000  0.729986  0.130254  1
  P  P15  1  0.750000  0.770014  0.630254  1
  P  P16  1  0.250000  0.600320  0.388500  1
  P  P17  1  0.250000  0.899680  0.888500  1
  P  P18  1  0.750000  0.399680  0.611500  1
  P  P19  1  0.750000  0.100320  0.111500  1
  Rh  Rh20  1  0.250000  0.717132  0.991032  1
  Rh  Rh21  1  0.250000  0.782868  0.491032  1
  Rh  Rh22  1  0.750000  0.282868  0.008968  1
  Rh  Rh23  1  0.750000  0.217132  0.508968  1
  Rh  Rh24  1  0.250000  0.408745  0.478234  1
  Rh  Rh25  1  0.250000  0.091255  0.978234  1
  Rh  Rh26  1  0.750000  0.591255  0.521766  1
  Rh  Rh27  1  0.750000  0.908745  0.021766  1
  Rh  Rh28  1  0.250000  0.231579  0.175544  1
  Rh  Rh29  1  0.250000  0.268421  0.675544  1
  Rh  Rh30  1  0.750000  0.768421  0.824456  1
  Rh  Rh31  1  0.750000  0.731579  0.324456  1
  Rh  Rh32  1  0.250000  0.882499  0.701207  1
  Rh  Rh33  1  0.250000  0.617501  0.201207  1
  Rh  Rh34  1  0.750000  0.117501  0.298793  1
  Rh  Rh35  1  0.750000  0.382499  0.798793  1
