# generated using pymatgen
data_Zr5Sc3Si16(MoW2)4
_symmetry_space_group_name_H-M   'P 1'
_cell_length_a   6.59744209
_cell_length_b   6.75831017
_cell_length_c   12.72715800
_cell_angle_alpha   90.01124146
_cell_angle_beta   90.00983263
_cell_angle_gamma   89.98845582
_symmetry_Int_Tables_number   1
_chemical_formula_structural   Zr5Sc3Si16(MoW2)4
_chemical_formula_sum   'Zr5 Sc3 Si16 Mo4 W8'
_cell_volume   567.47288986
_cell_formula_units_Z   1
loop_
 _symmetry_equiv_pos_site_id
 _symmetry_equiv_pos_as_xyz
  1  'x, y, z'
loop_
 _atom_site_type_symbol
 _atom_site_label
 _atom_site_symmetry_multiplicity
 _atom_site_fract_x
 _atom_site_fract_y
 _atom_site_fract_z
 _atom_site_occupancy
  Zr  Zr0  1  0.495585  0.669283  0.592513  1
  Zr  Zr1  1  0.995346  0.829016  0.906837  1
  Zr  Zr2  1  0.505420  0.329163  0.092986  1
  Zr  Zr3  1  0.004889  0.171227  0.407245  1
  Zr  Zr4  1  0.503945  0.329319  0.407049  1
  Sc  Sc5  1  0.005396  0.169257  0.091643  1
  Sc  Sc6  1  0.494418  0.670272  0.908214  1
  Sc  Sc7  1  0.994361  0.830819  0.592306  1
  Si  Si8  1  0.667946  0.958478  0.457725  1
  Si  Si9  1  0.167378  0.539480  0.043180  1
  Si  Si10  1  0.332952  0.039523  0.956878  1
  Si  Si11  1  0.832929  0.459814  0.543704  1
  Si  Si12  1  0.330886  0.039770  0.542933  1
  Si  Si13  1  0.831411  0.459452  0.957102  1
  Si  Si14  1  0.668672  0.959558  0.042796  1
  Si  Si15  1  0.166698  0.542754  0.457896  1
  Si  Si16  1  0.464483  0.379969  0.750590  1
  Si  Si17  1  0.964421  0.121113  0.749866  1
  Si  Si18  1  0.536052  0.622114  0.249173  1
  Si  Si19  1  0.035332  0.879287  0.250300  1
  Si  Si20  1  0.697985  0.858396  0.749767  1
  Si  Si21  1  0.198541  0.641599  0.750474  1
  Si  Si22  1  0.299868  0.140103  0.248280  1
  Si  Si23  1  0.802943  0.358845  0.249570  1
  Mo  Mo24  1  0.664837  0.164009  0.623840  1
  Mo  Mo25  1  0.165980  0.335704  0.876277  1
  Mo  Mo26  1  0.334095  0.836047  0.123453  1
  Mo  Mo27  1  0.833527  0.663037  0.376709  1
  W  W28  1  0.336533  0.836795  0.375054  1
  W  W29  1  0.835813  0.663508  0.125060  1
  W  W30  1  0.664592  0.163327  0.874977  1
  W  W31  1  0.165785  0.336727  0.624796  1
  W  W32  1  0.833461  0.505542  0.750711  1
  W  W33  1  0.333146  0.995177  0.750074  1
  W  W34  1  0.167002  0.494567  0.250517  1
  W  W35  1  0.667369  0.006946  0.249505  1
