# generated using pymatgen
data_Y2Ga9NiOs2
_symmetry_space_group_name_H-M   'P 1'
_cell_length_a   7.54573140
_cell_length_b   7.54573029
_cell_length_c   9.57380000
_cell_angle_alpha   90.00000000
_cell_angle_beta   90.00000000
_cell_angle_gamma   120.54161817
_symmetry_Int_Tables_number   1
_chemical_formula_structural   Y2Ga9NiOs2
_chemical_formula_sum   'Y4 Ga18 Ni2 Os4'
_cell_volume   469.48463608
_cell_formula_units_Z   2
loop_
 _symmetry_equiv_pos_site_id
 _symmetry_equiv_pos_as_xyz
  1  'x, y, z'
loop_
 _atom_site_type_symbol
 _atom_site_label
 _atom_site_symmetry_multiplicity
 _atom_site_fract_x
 _atom_site_fract_y
 _atom_site_fract_z
 _atom_site_occupancy
  Y  Y0  1  0.996173  0.657584  0.250000  1
  Y  Y1  1  0.003827  0.342416  0.750000  1
  Y  Y2  1  0.657584  0.996173  0.250000  1
  Y  Y3  1  0.342416  0.003827  0.750000  1
  Ga  Ga4  1  0.113918  0.113918  0.250000  1
  Ga  Ga5  1  0.886082  0.886082  0.750000  1
  Ga  Ga6  1  0.000138  0.325852  0.074701  1
  Ga  Ga7  1  0.999862  0.674148  0.925299  1
  Ga  Ga8  1  0.999862  0.674148  0.574701  1
  Ga  Ga9  1  0.325852  0.000138  0.425299  1
  Ga  Ga10  1  0.000138  0.325852  0.425299  1
  Ga  Ga11  1  0.674148  0.999862  0.574701  1
  Ga  Ga12  1  0.674148  0.999862  0.925299  1
  Ga  Ga13  1  0.325852  0.000138  0.074701  1
  Ga  Ga14  1  0.333455  0.333455  0.560508  1
  Ga  Ga15  1  0.666545  0.666545  0.439492  1
  Ga  Ga16  1  0.666545  0.666545  0.060508  1
  Ga  Ga17  1  0.333455  0.333455  0.939492  1
  Ga  Ga18  1  0.334787  0.541566  0.250000  1
  Ga  Ga19  1  0.665213  0.458434  0.750000  1
  Ga  Ga20  1  0.541566  0.334787  0.250000  1
  Ga  Ga21  1  0.458434  0.665213  0.750000  1
  Ni  Ni22  1  0.000000  0.000000  0.000000  1
  Ni  Ni23  1  0.000000  0.000000  0.500000  1
  Os  Os24  1  0.673031  0.326969  0.000000  1
  Os  Os25  1  0.326969  0.673031  0.000000  1
  Os  Os26  1  0.326969  0.673031  0.500000  1
  Os  Os27  1  0.673031  0.326969  0.500000  1
