# generated using pymatgen
data_Dy2Ho2TcOs7
_symmetry_space_group_name_H-M   'P 1'
_cell_length_a   5.30272841
_cell_length_b   5.30272788
_cell_length_c   8.81549200
_cell_angle_alpha   89.99939574
_cell_angle_beta   90.00060744
_cell_angle_gamma   118.85641799
_symmetry_Int_Tables_number   1
_chemical_formula_structural   Dy2Ho2TcOs7
_chemical_formula_sum   'Dy2 Ho2 Tc1 Os7'
_cell_volume   217.10310315
_cell_formula_units_Z   1
loop_
 _symmetry_equiv_pos_site_id
 _symmetry_equiv_pos_as_xyz
  1  'x, y, z'
loop_
 _atom_site_type_symbol
 _atom_site_label
 _atom_site_symmetry_multiplicity
 _atom_site_fract_x
 _atom_site_fract_y
 _atom_site_fract_z
 _atom_site_occupancy
  Dy  Dy0  1  0.331739  0.668261  0.436109  1
  Dy  Dy1  1  0.666029  0.333971  0.565785  1
  Ho  Ho2  1  0.666046  0.333954  0.934398  1
  Ho  Ho3  1  0.331693  0.668307  0.063718  1
  Tc  Tc4  1  0.830196  0.169804  0.249488  1
  Os  Os5  1  0.996335  0.003665  0.500093  1
  Os  Os6  1  0.996355  0.003645  0.999859  1
  Os  Os7  1  0.827196  0.653390  0.249377  1
  Os  Os8  1  0.346610  0.172804  0.249377  1
  Os  Os9  1  0.176594  0.823406  0.750551  1
  Os  Os10  1  0.171046  0.339840  0.750623  1
  Os  Os11  1  0.660160  0.828954  0.750623  1
