# generated using pymatgen
data_ZnGa9Ni2
_symmetry_space_group_name_H-M   'P 1'
_cell_length_a   6.64295018
_cell_length_b   6.64295016
_cell_length_c   6.64295083
_cell_angle_alpha   123.45946894
_cell_angle_beta   123.45947214
_cell_angle_gamma   84.10567683
_symmetry_Int_Tables_number   1
_chemical_formula_structural   ZnGa9Ni2
_chemical_formula_sum   'Zn1 Ga9 Ni2'
_cell_volume   195.31523619
_cell_formula_units_Z   1
loop_
 _symmetry_equiv_pos_site_id
 _symmetry_equiv_pos_as_xyz
  1  'x, y, z'
loop_
 _atom_site_type_symbol
 _atom_site_label
 _atom_site_symmetry_multiplicity
 _atom_site_fract_x
 _atom_site_fract_y
 _atom_site_fract_z
 _atom_site_occupancy
  Zn  Zn0  1  0.000000  0.000000  0.000000  1
  Ga  Ga1  1  0.500000  0.500000  0.000000  1
  Ga  Ga2  1  0.006806  0.515947  0.804312  1
  Ga  Ga3  1  0.711635  0.202493  0.195688  1
  Ga  Ga4  1  0.515947  0.711635  0.509142  1
  Ga  Ga5  1  0.202493  0.006806  0.490858  1
  Ga  Ga6  1  0.993194  0.484053  0.195688  1
  Ga  Ga7  1  0.288365  0.797507  0.804312  1
  Ga  Ga8  1  0.484053  0.288365  0.490858  1
  Ga  Ga9  1  0.797507  0.993194  0.509142  1
  Ni  Ni10  1  0.746208  0.746208  0.000000  1
  Ni  Ni11  1  0.253792  0.253792  0.000000  1
