# generated using pymatgen
data_BaNaNd(H6Ir)2
_symmetry_space_group_name_H-M   'P 1'
_cell_length_a   5.12590600
_cell_length_b   5.12590753
_cell_length_c   8.51865400
_cell_angle_alpha   90.00000000
_cell_angle_beta   90.00000000
_cell_angle_gamma   120.00000305
_symmetry_Int_Tables_number   1
_chemical_formula_structural   BaNaNd(H6Ir)2
_chemical_formula_sum   'Ba1 Na1 Nd1 H12 Ir2'
_cell_volume   193.83982195
_cell_formula_units_Z   1
loop_
 _symmetry_equiv_pos_site_id
 _symmetry_equiv_pos_as_xyz
  1  'x, y, z'
loop_
 _atom_site_type_symbol
 _atom_site_label
 _atom_site_symmetry_multiplicity
 _atom_site_fract_x
 _atom_site_fract_y
 _atom_site_fract_z
 _atom_site_occupancy
  Ba  Ba0  1  0.000000  0.000000  0.037522  1
  Na  Na1  1  0.666667  0.333333  0.354437  1
  Nd  Nd2  1  0.333333  0.666667  0.616404  1
  H  H3  1  0.174327  0.825673  0.373396  1
  H  H4  1  0.651346  0.825673  0.373396  1
  H  H5  1  0.174327  0.348654  0.373396  1
  H  H6  1  0.825424  0.174576  0.625081  1
  H  H7  1  0.349152  0.174576  0.625081  1
  H  H8  1  0.825424  0.650848  0.625081  1
  H  H9  1  0.514330  0.028660  0.851353  1
  H  H10  1  0.514330  0.485670  0.851353  1
  H  H11  1  0.971340  0.485670  0.851353  1
  H  H12  1  0.484810  0.969619  0.147522  1
  H  H13  1  0.484810  0.515190  0.147522  1
  H  H14  1  0.030381  0.515190  0.147522  1
  Ir  Ir15  1  0.666667  0.333333  0.734329  1
  Ir  Ir16  1  0.333333  0.666667  0.265253  1
