# generated using pymatgen
data_Pr4AlGa17Ir6
_symmetry_space_group_name_H-M   'P 1'
_cell_length_a   7.66081224
_cell_length_b   7.66081065
_cell_length_c   9.64716812
_cell_angle_alpha   89.99105938
_cell_angle_beta   89.99105741
_cell_angle_gamma   119.61985874
_symmetry_Int_Tables_number   1
_chemical_formula_structural   Pr4AlGa17Ir6
_chemical_formula_sum   'Pr4 Al1 Ga17 Ir6'
_cell_volume   492.18784124
_cell_formula_units_Z   1
loop_
 _symmetry_equiv_pos_site_id
 _symmetry_equiv_pos_as_xyz
  1  'x, y, z'
loop_
 _atom_site_type_symbol
 _atom_site_label
 _atom_site_symmetry_multiplicity
 _atom_site_fract_x
 _atom_site_fract_y
 _atom_site_fract_z
 _atom_site_occupancy
  Pr  Pr0  1  0.997879  0.669232  0.249530  1
  Pr  Pr1  1  0.001789  0.330299  0.749375  1
  Pr  Pr2  1  0.669232  0.997879  0.249530  1
  Pr  Pr3  1  0.330299  0.001789  0.749375  1
  Al  Al4  1  0.336021  0.336021  0.954534  1
  Ga  Ga5  1  0.128870  0.128870  0.249614  1
  Ga  Ga6  1  0.870832  0.870832  0.749591  1
  Ga  Ga7  1  0.001276  0.334821  0.077353  1
  Ga  Ga8  1  0.997655  0.664597  0.921280  1
  Ga  Ga9  1  0.997274  0.664584  0.578109  1
  Ga  Ga10  1  0.335047  0.002124  0.420909  1
  Ga  Ga11  1  0.002124  0.335047  0.420909  1
  Ga  Ga12  1  0.664584  0.997274  0.578109  1
  Ga  Ga13  1  0.664597  0.997655  0.921280  1
  Ga  Ga14  1  0.334821  0.001276  0.077353  1
  Ga  Ga15  1  0.333169  0.333169  0.557685  1
  Ga  Ga16  1  0.666566  0.666566  0.442216  1
  Ga  Ga17  1  0.669809  0.669809  0.057521  1
  Ga  Ga18  1  0.340638  0.545730  0.249817  1
  Ga  Ga19  1  0.656286  0.453593  0.750432  1
  Ga  Ga20  1  0.545730  0.340638  0.249817  1
  Ga  Ga21  1  0.453593  0.656286  0.750432  1
  Ir  Ir22  1  0.668048  0.329031  0.999298  1
  Ir  Ir23  1  0.329031  0.668048  0.999298  1
  Ir  Ir24  1  0.329316  0.670941  0.499622  1
  Ir  Ir25  1  0.670941  0.329316  0.499622  1
  Ir  Ir26  1  0.004641  0.004641  0.998052  1
  Ir  Ir27  1  0.999933  0.999933  0.499337  1
