# generated using pymatgen
data_Tb16In4Ir2RuPt
_symmetry_space_group_name_H-M   'P 1'
_cell_length_a   9.71650708
_cell_length_b   9.71650655
_cell_length_c   9.72057570
_cell_angle_alpha   60.06644816
_cell_angle_beta   60.06645099
_cell_angle_gamma   60.04502897
_symmetry_Int_Tables_number   1
_chemical_formula_structural   Tb16In4Ir2RuPt
_chemical_formula_sum   'Tb16 In4 Ir2 Ru1 Pt1'
_cell_volume   649.80140948
_cell_formula_units_Z   1
loop_
 _symmetry_equiv_pos_site_id
 _symmetry_equiv_pos_as_xyz
  1  'x, y, z'
loop_
 _atom_site_type_symbol
 _atom_site_label
 _atom_site_symmetry_multiplicity
 _atom_site_fract_x
 _atom_site_fract_y
 _atom_site_fract_z
 _atom_site_occupancy
  Tb  Tb0  1  0.101822  0.698864  0.104843  1
  Tb  Tb1  1  0.941217  0.941217  0.552560  1
  Tb  Tb2  1  0.941281  0.554516  0.941068  1
  Tb  Tb3  1  0.309823  0.690804  0.311664  1
  Tb  Tb4  1  0.939348  0.560632  0.557275  1
  Tb  Tb5  1  0.310866  0.310866  0.690743  1
  Tb  Tb6  1  0.096696  0.096696  0.097227  1
  Tb  Tb7  1  0.558249  0.558249  0.939905  1
  Tb  Tb8  1  0.103619  0.103619  0.697413  1
  Tb  Tb9  1  0.689916  0.313197  0.690272  1
  Tb  Tb10  1  0.690572  0.690572  0.313769  1
  Tb  Tb11  1  0.690804  0.309823  0.311664  1
  Tb  Tb12  1  0.313197  0.689916  0.690272  1
  Tb  Tb13  1  0.560632  0.939348  0.557275  1
  Tb  Tb14  1  0.698864  0.101822  0.104843  1
  Tb  Tb15  1  0.554516  0.941281  0.941068  1
  In  In16  1  0.333032  0.333032  0.332892  1
  In  In17  1  0.002156  0.332429  0.332099  1
  In  In18  1  0.332429  0.002156  0.332099  1
  In  In19  1  0.331928  0.331928  0.002903  1
  Ir  Ir20  1  0.325405  0.890619  0.889944  1
  Ir  Ir21  1  0.890619  0.325405  0.889944  1
  Ru  Ru22  1  0.890489  0.890489  0.326651  1
  Pt  Pt23  1  0.892517  0.892517  0.891604  1
