# generated using pymatgen
data_ErTmFe6(P3Ru2)2
_symmetry_space_group_name_H-M   'P 1'
_cell_length_a   3.74540400
_cell_length_b   10.42727100
_cell_length_c   11.96574500
_cell_angle_alpha   90.00000000
_cell_angle_beta   90.00000000
_cell_angle_gamma   90.00000000
_symmetry_Int_Tables_number   1
_chemical_formula_structural   ErTmFe6(P3Ru2)2
_chemical_formula_sum   'Er2 Tm2 Fe12 P12 Ru8'
_cell_volume   467.31430365
_cell_formula_units_Z   2
loop_
 _symmetry_equiv_pos_site_id
 _symmetry_equiv_pos_as_xyz
  1  'x, y, z'
loop_
 _atom_site_type_symbol
 _atom_site_label
 _atom_site_symmetry_multiplicity
 _atom_site_fract_x
 _atom_site_fract_y
 _atom_site_fract_z
 _atom_site_occupancy
  Er  Er0  1  0.250000  0.582448  0.709687  1
  Er  Er1  1  0.250000  0.917552  0.209687  1
  Tm  Tm2  1  0.750000  0.416870  0.290271  1
  Tm  Tm3  1  0.750000  0.083130  0.790271  1
  Fe  Fe4  1  0.250000  0.224257  0.175381  1
  Fe  Fe5  1  0.250000  0.275743  0.675381  1
  Fe  Fe6  1  0.750000  0.775983  0.824443  1
  Fe  Fe7  1  0.750000  0.724017  0.324443  1
  Fe  Fe8  1  0.250000  0.880579  0.699492  1
  Fe  Fe9  1  0.250000  0.619421  0.199492  1
  Fe  Fe10  1  0.750000  0.119706  0.300800  1
  Fe  Fe11  1  0.750000  0.380294  0.800800  1
  Fe  Fe12  1  0.250000  0.462131  0.934594  1
  Fe  Fe13  1  0.250000  0.037869  0.434594  1
  Fe  Fe14  1  0.750000  0.537839  0.065953  1
  Fe  Fe15  1  0.750000  0.962161  0.565953  1
  P  P16  1  0.250000  0.424960  0.113712  1
  P  P17  1  0.250000  0.075040  0.613712  1
  P  P18  1  0.750000  0.574695  0.886802  1
  P  P19  1  0.750000  0.925305  0.386802  1
  P  P20  1  0.250000  0.272050  0.860658  1
  P  P21  1  0.250000  0.227950  0.360658  1
  P  P22  1  0.750000  0.727991  0.138787  1
  P  P23  1  0.750000  0.772009  0.638787  1
  P  P24  1  0.250000  0.605161  0.385083  1
  P  P25  1  0.250000  0.894839  0.885083  1
  P  P26  1  0.750000  0.394294  0.615023  1
  P  P27  1  0.750000  0.105706  0.115023  1
  Ru  Ru28  1  0.250000  0.702636  0.984544  1
  Ru  Ru29  1  0.250000  0.797364  0.484544  1
  Ru  Ru30  1  0.750000  0.297327  0.015403  1
  Ru  Ru31  1  0.750000  0.202673  0.515403  1
  Ru  Ru32  1  0.250000  0.403125  0.484363  1
  Ru  Ru33  1  0.250000  0.096875  0.984363  1
  Ru  Ru34  1  0.750000  0.596495  0.515004  1
  Ru  Ru35  1  0.750000  0.903505  0.015004  1
