# generated using pymatgen
data_Ac2SnAs3Ir4
_symmetry_space_group_name_H-M   'P 1'
_cell_length_a   4.49170000
_cell_length_b   4.49170000
_cell_length_c   10.24112000
_cell_angle_alpha   90.00000000
_cell_angle_beta   90.00000000
_cell_angle_gamma   90.00000000
_symmetry_Int_Tables_number   1
_chemical_formula_structural   Ac2SnAs3Ir4
_chemical_formula_sum   'Ac2 Sn1 As3 Ir4'
_cell_volume   206.61837385
_cell_formula_units_Z   1
loop_
 _symmetry_equiv_pos_site_id
 _symmetry_equiv_pos_as_xyz
  1  'x, y, z'
loop_
 _atom_site_type_symbol
 _atom_site_label
 _atom_site_symmetry_multiplicity
 _atom_site_fract_x
 _atom_site_fract_y
 _atom_site_fract_z
 _atom_site_occupancy
  Ac  Ac0  1  0.000000  0.500000  0.239589  1
  Ac  Ac1  1  0.500000  0.000000  0.767526  1
  Sn  Sn2  1  0.000000  0.500000  0.635363  1
  As  As3  1  0.000000  0.000000  0.005096  1
  As  As4  1  0.500000  0.500000  0.005096  1
  As  As5  1  0.500000  0.000000  0.361916  1
  Ir  Ir6  1  0.000000  0.000000  0.486873  1
  Ir  Ir7  1  0.500000  0.500000  0.486873  1
  Ir  Ir8  1  0.000000  0.500000  0.898750  1
  Ir  Ir9  1  0.500000  0.000000  0.112916  1
