# generated using pymatgen
data_SrNp2(GaIr)3
_symmetry_space_group_name_H-M   'P 1'
_cell_length_a   7.25625925
_cell_length_b   7.03900383
_cell_length_c   4.02597200
_cell_angle_alpha   90.00000000
_cell_angle_beta   90.00000000
_cell_angle_gamma   119.01443760
_symmetry_Int_Tables_number   1
_chemical_formula_structural   SrNp2(GaIr)3
_chemical_formula_sum   'Sr1 Np2 Ga3 Ir3'
_cell_volume   179.82634700
_cell_formula_units_Z   1
loop_
 _symmetry_equiv_pos_site_id
 _symmetry_equiv_pos_as_xyz
  1  'x, y, z'
loop_
 _atom_site_type_symbol
 _atom_site_label
 _atom_site_symmetry_multiplicity
 _atom_site_fract_x
 _atom_site_fract_y
 _atom_site_fract_z
 _atom_site_occupancy
  Sr  Sr0  1  0.000000  0.583511  0.500000  1
  Np  Np1  1  0.420072  0.414646  0.500000  1
  Np  Np2  1  0.579928  0.994574  0.500000  1
  Ga  Ga3  1  0.766907  0.764056  0.000000  1
  Ga  Ga4  1  0.233093  0.997148  0.000000  1
  Ga  Ga5  1  0.000000  0.251040  0.000000  1
  Ir  Ir6  1  0.625259  0.297394  0.000000  1
  Ir  Ir7  1  0.374741  0.672136  0.000000  1
  Ir  Ir8  1  0.000000  0.025495  0.500000  1
