# generated using pymatgen
data_La3Pr5(InRu)2
_symmetry_space_group_name_H-M   'P 1'
_cell_length_a   9.96376117
_cell_length_b   10.01905463
_cell_length_c   10.01905400
_cell_angle_alpha   59.63521307
_cell_angle_beta   60.18239700
_cell_angle_gamma   60.18239540
_symmetry_Int_Tables_number   1
_chemical_formula_structural   La3Pr5(InRu)2
_chemical_formula_sum   'La6 Pr10 In4 Ru4'
_cell_volume   707.18897332
_cell_formula_units_Z   2
loop_
 _symmetry_equiv_pos_site_id
 _symmetry_equiv_pos_as_xyz
  1  'x, y, z'
loop_
 _atom_site_type_symbol
 _atom_site_label
 _atom_site_symmetry_multiplicity
 _atom_site_fract_x
 _atom_site_fract_y
 _atom_site_fract_z
 _atom_site_occupancy
  La  La0  1  0.345584  0.347558  0.347558  1
  La  La1  1  0.347558  0.345584  0.959297  1
  La  La2  1  0.347558  0.959297  0.345584  1
  La  La3  1  0.959297  0.347558  0.347558  1
  La  La4  1  0.810345  0.189655  0.189655  1
  La  La5  1  0.189655  0.810345  0.810345  1
  Pr  Pr6  1  0.193482  0.806518  0.193482  1
  Pr  Pr7  1  0.806518  0.193482  0.806518  1
  Pr  Pr8  1  0.193482  0.193482  0.806518  1
  Pr  Pr9  1  0.806518  0.806518  0.193482  1
  Pr  Pr10  1  0.936338  0.563662  0.563662  1
  Pr  Pr11  1  0.563662  0.936338  0.936338  1
  Pr  Pr12  1  0.559394  0.940606  0.559394  1
  Pr  Pr13  1  0.940606  0.559394  0.940606  1
  Pr  Pr14  1  0.559394  0.559394  0.940606  1
  Pr  Pr15  1  0.940606  0.940606  0.559394  1
  In  In16  1  0.582144  0.579934  0.579934  1
  In  In17  1  0.579934  0.582144  0.257987  1
  In  In18  1  0.579934  0.257987  0.582144  1
  In  In19  1  0.257987  0.579934  0.579934  1
  Ru  Ru20  1  0.124626  0.144777  0.144777  1
  Ru  Ru21  1  0.144777  0.124626  0.585820  1
  Ru  Ru22  1  0.144777  0.585820  0.124626  1
  Ru  Ru23  1  0.585820  0.144777  0.144777  1
