# generated using pymatgen
data_ZrTaNb(Co3B2)3
_symmetry_space_group_name_H-M   'P 1'
_cell_length_a   5.68860283
_cell_length_b   5.68860449
_cell_length_c   5.68860392
_cell_angle_alpha   95.30904016
_cell_angle_beta   95.30902388
_cell_angle_gamma   95.30903931
_symmetry_Int_Tables_number   1
_chemical_formula_structural   ZrTaNb(Co3B2)3
_chemical_formula_sum   'Zr1 Ta1 Nb1 Co9 B6'
_cell_volume   181.55723658
_cell_formula_units_Z   1
loop_
 _symmetry_equiv_pos_site_id
 _symmetry_equiv_pos_as_xyz
  1  'x, y, z'
loop_
 _atom_site_type_symbol
 _atom_site_label
 _atom_site_symmetry_multiplicity
 _atom_site_fract_x
 _atom_site_fract_y
 _atom_site_fract_z
 _atom_site_occupancy
  Zr  Zr0  1  0.328549  0.328549  0.328549  1
  Ta  Ta1  1  0.678909  0.678909  0.678909  1
  Nb  Nb2  1  0.993391  0.993391  0.993391  1
  Co  Co3  1  0.996271  0.996271  0.503411  1
  Co  Co4  1  0.503411  0.996271  0.996271  1
  Co  Co5  1  0.996271  0.503411  0.996271  1
  Co  Co6  1  0.698535  0.204584  0.698535  1
  Co  Co7  1  0.698535  0.698535  0.204584  1
  Co  Co8  1  0.204584  0.698535  0.698535  1
  Co  Co9  1  0.298699  0.801674  0.298699  1
  Co  Co10  1  0.298699  0.298699  0.801674  1
  Co  Co11  1  0.801674  0.298699  0.298699  1
  B  B12  1  0.618700  0.385057  0.997479  1
  B  B13  1  0.997479  0.618700  0.385057  1
  B  B14  1  0.385057  0.997479  0.618700  1
  B  B15  1  0.997479  0.385057  0.618700  1
  B  B16  1  0.618700  0.997479  0.385057  1
  B  B17  1  0.385057  0.618700  0.997479  1
