# generated using pymatgen
data_Ho2ErAuO7
_symmetry_space_group_name_H-M   'P 1'
_cell_length_a   6.46093802
_cell_length_b   6.46091702
_cell_length_c   7.39799900
_cell_angle_alpha   90.00000000
_cell_angle_beta   90.00000000
_cell_angle_gamma   108.80387652
_symmetry_Int_Tables_number   1
_chemical_formula_structural   Ho2ErAuO7
_chemical_formula_sum   'Ho4 Er2 Au2 O14'
_cell_volume   292.33654007
_cell_formula_units_Z   2
loop_
 _symmetry_equiv_pos_site_id
 _symmetry_equiv_pos_as_xyz
  1  'x, y, z'
loop_
 _atom_site_type_symbol
 _atom_site_label
 _atom_site_symmetry_multiplicity
 _atom_site_fract_x
 _atom_site_fract_y
 _atom_site_fract_z
 _atom_site_occupancy
  Ho  Ho0  1  0.002143  0.471449  0.749912  1
  Ho  Ho1  1  0.997857  0.528551  0.249912  1
  Ho  Ho2  1  0.500552  0.500552  0.500001  1
  Ho  Ho3  1  0.499448  0.499448  0.000001  1
  Er  Er4  1  0.528601  0.998022  0.750094  1
  Er  Er5  1  0.471399  0.001978  0.250094  1
  Au  Au6  1  0.999943  0.999944  0.499998  1
  Au  Au7  1  0.000057  0.000056  0.999998  1
  O  O8  1  0.638291  0.360121  0.749994  1
  O  O9  1  0.361709  0.639879  0.249994  1
  O  O10  1  0.918241  0.080433  0.749999  1
  O  O11  1  0.081759  0.919567  0.249999  1
  O  O12  1  0.916471  0.668639  0.524670  1
  O  O13  1  0.083529  0.331361  0.024670  1
  O  O14  1  0.331871  0.082582  0.975375  1
  O  O15  1  0.668129  0.917418  0.475375  1
  O  O16  1  0.368019  0.633885  0.750000  1
  O  O17  1  0.631981  0.366115  0.250000  1
  O  O18  1  0.916814  0.668887  0.975161  1
  O  O19  1  0.083186  0.331113  0.475161  1
  O  O20  1  0.331620  0.082239  0.524796  1
  O  O21  1  0.668380  0.917761  0.024796  1
