# generated using pymatgen
data_Ho4ErP12Ru19
_symmetry_space_group_name_H-M   'P 1'
_cell_length_a   12.52265901
_cell_length_b   12.52298678
_cell_length_c   3.97101800
_cell_angle_alpha   90.00000000
_cell_angle_beta   90.00000000
_cell_angle_gamma   120.00086182
_symmetry_Int_Tables_number   1
_chemical_formula_structural   Ho4ErP12Ru19
_chemical_formula_sum   'Ho4 Er1 P12 Ru19'
_cell_volume   539.30344269
_cell_formula_units_Z   1
loop_
 _symmetry_equiv_pos_site_id
 _symmetry_equiv_pos_as_xyz
  1  'x, y, z'
loop_
 _atom_site_type_symbol
 _atom_site_label
 _atom_site_symmetry_multiplicity
 _atom_site_fract_x
 _atom_site_fract_y
 _atom_site_fract_z
 _atom_site_occupancy
  Ho  Ho0  1  0.183631  0.183619  0.500000  1
  Ho  Ho1  1  0.816369  0.999988  0.500000  1
  Ho  Ho2  1  0.333322  0.666616  0.000000  1
  Ho  Ho3  1  0.666678  0.333294  0.000000  1
  Er  Er4  1  0.000000  0.816318  0.500000  1
  P  P5  1  0.816210  0.816195  0.000000  1
  P  P6  1  0.183790  0.999984  0.000000  1
  P  P7  1  0.000000  0.183938  0.000000  1
  P  P8  1  0.170892  0.477934  0.500000  1
  P  P9  1  0.521963  0.692904  0.500000  1
  P  P10  1  0.307121  0.829110  0.500000  1
  P  P11  1  0.692879  0.521989  0.500000  1
  P  P12  1  0.829108  0.307042  0.500000  1
  P  P13  1  0.478037  0.170941  0.500000  1
  P  P14  1  0.372147  0.372153  0.000000  1
  P  P15  1  0.627853  0.000005  0.000000  1
  P  P16  1  0.000000  0.627865  0.000000  1
  Ru  Ru17  1  0.554374  0.554460  0.000000  1
  Ru  Ru18  1  0.445626  0.000085  0.000000  1
  Ru  Ru19  1  0.000000  0.445521  0.000000  1
  Ru  Ru20  1  0.717332  0.717315  0.500000  1
  Ru  Ru21  1  0.282668  0.999984  0.500000  1
  Ru  Ru22  1  0.000000  0.282728  0.500000  1
  Ru  Ru23  1  0.184596  0.376775  0.000000  1
  Ru  Ru24  1  0.623188  0.807835  0.000000  1
  Ru  Ru25  1  0.192125  0.815394  0.000000  1
  Ru  Ru26  1  0.807875  0.623269  0.000000  1
  Ru  Ru27  1  0.815404  0.192179  0.000000  1
  Ru  Ru28  1  0.376812  0.184648  0.000000  1
  Ru  Ru29  1  0.365406  0.491587  0.500000  1
  Ru  Ru30  1  0.508376  0.873831  0.500000  1
  Ru  Ru31  1  0.126148  0.634533  0.500000  1
  Ru  Ru32  1  0.873852  0.508384  0.500000  1
  Ru  Ru33  1  0.634594  0.126180  0.500000  1
  Ru  Ru34  1  0.491624  0.365455  0.500000  1
  Ru  Ru35  1  0.000000  0.999941  0.000000  1
