# generated using pymatgen
data_Sc7BiTe7
_symmetry_space_group_name_H-M   'P 1'
_cell_length_a   7.99547879
_cell_length_b   7.99547728
_cell_length_c   9.92352163
_cell_angle_alpha   54.61134197
_cell_angle_beta   54.61134939
_cell_angle_gamma   63.48739500
_symmetry_Int_Tables_number   1
_chemical_formula_structural   Sc7BiTe7
_chemical_formula_sum   'Sc7 Bi1 Te7'
_cell_volume   415.70342486
_cell_formula_units_Z   1
loop_
 _symmetry_equiv_pos_site_id
 _symmetry_equiv_pos_as_xyz
  1  'x, y, z'
loop_
 _atom_site_type_symbol
 _atom_site_label
 _atom_site_symmetry_multiplicity
 _atom_site_fract_x
 _atom_site_fract_y
 _atom_site_fract_z
 _atom_site_occupancy
  Sc  Sc0  1  0.734990  0.265055  0.499878  1
  Sc  Sc1  1  0.265055  0.734990  0.499878  1
  Sc  Sc2  1  0.499935  0.000137  0.500031  1
  Sc  Sc3  1  0.000137  0.499935  0.500031  1
  Sc  Sc4  1  0.745736  0.745736  0.007524  1
  Sc  Sc5  1  0.254273  0.254273  0.992828  1
  Sc  Sc6  1  0.999877  0.999877  0.999807  1
  Bi  Bi7  1  0.961034  0.961034  0.334532  1
  Te  Te8  1  0.038718  0.038718  0.665897  1
  Te  Te9  1  0.542719  0.043722  0.164886  1
  Te  Te10  1  0.457469  0.956203  0.834890  1
  Te  Te11  1  0.956203  0.457469  0.834890  1
  Te  Te12  1  0.043722  0.542719  0.164886  1
  Te  Te13  1  0.455724  0.455724  0.325332  1
  Te  Te14  1  0.544407  0.544407  0.674710  1
