# generated using pymatgen
data_Pa8Si15Pt
_symmetry_space_group_name_H-M   'P 1'
_cell_length_a   8.12783200
_cell_length_b   8.12783151
_cell_length_c   7.88283600
_cell_angle_alpha   90.00000000
_cell_angle_beta   90.00000000
_cell_angle_gamma   119.99999386
_symmetry_Int_Tables_number   1
_chemical_formula_structural   Pa8Si15Pt
_chemical_formula_sum   'Pa8 Si15 Pt1'
_cell_volume   450.98548074
_cell_formula_units_Z   1
loop_
 _symmetry_equiv_pos_site_id
 _symmetry_equiv_pos_as_xyz
  1  'x, y, z'
loop_
 _atom_site_type_symbol
 _atom_site_label
 _atom_site_symmetry_multiplicity
 _atom_site_fract_x
 _atom_site_fract_y
 _atom_site_fract_z
 _atom_site_occupancy
  Pa  Pa0  1  0.000000  0.000000  0.747579  1
  Pa  Pa1  1  0.000000  0.000000  0.252423  1
  Pa  Pa2  1  0.496854  0.503146  0.746197  1
  Pa  Pa3  1  0.496854  0.993708  0.746197  1
  Pa  Pa4  1  0.006292  0.503146  0.746197  1
  Pa  Pa5  1  0.497389  0.502611  0.253888  1
  Pa  Pa6  1  0.005226  0.502611  0.253888  1
  Pa  Pa7  1  0.497389  0.994774  0.253888  1
  Si  Si8  1  0.836806  0.163194  0.000535  1
  Si  Si9  1  0.836806  0.673613  0.000535  1
  Si  Si10  1  0.326387  0.163194  0.000535  1
  Si  Si11  1  0.832891  0.167109  0.499994  1
  Si  Si12  1  0.832891  0.665784  0.499994  1
  Si  Si13  1  0.334216  0.167109  0.499994  1
  Si  Si14  1  0.166718  0.833282  0.500007  1
  Si  Si15  1  0.666565  0.833282  0.500007  1
  Si  Si16  1  0.166718  0.333435  0.500007  1
  Si  Si17  1  0.168466  0.831534  0.999535  1
  Si  Si18  1  0.663067  0.831534  0.999535  1
  Si  Si19  1  0.168466  0.336933  0.999535  1
  Si  Si20  1  0.666667  0.333333  0.500771  1
  Si  Si21  1  0.333333  0.666667  0.499188  1
  Si  Si22  1  0.333333  0.666667  0.001347  1
  Pt  Pt23  1  0.666667  0.333333  0.998221  1
