# generated using pymatgen
data_AlZn5(GaIr2)6
_symmetry_space_group_name_H-M   'P 1'
_cell_length_a   4.27043322
_cell_length_b   6.09572432
_cell_length_c   12.95945100
_cell_angle_alpha   90.00005494
_cell_angle_beta   89.99867939
_cell_angle_gamma   90.03694873
_symmetry_Int_Tables_number   1
_chemical_formula_structural   AlZn5(GaIr2)6
_chemical_formula_sum   'Al1 Zn5 Ga6 Ir12'
_cell_volume   337.35237049
_cell_formula_units_Z   1
loop_
 _symmetry_equiv_pos_site_id
 _symmetry_equiv_pos_as_xyz
  1  'x, y, z'
loop_
 _atom_site_type_symbol
 _atom_site_label
 _atom_site_symmetry_multiplicity
 _atom_site_fract_x
 _atom_site_fract_y
 _atom_site_fract_z
 _atom_site_occupancy
  Al  Al0  1  0.000000  0.500000  0.000000  1
  Zn  Zn1  1  0.499829  0.000000  0.167204  1
  Zn  Zn2  1  0.999814  0.500000  0.333282  1
  Zn  Zn3  1  0.500000  0.000000  0.500000  1
  Zn  Zn4  1  0.000186  0.500000  0.666718  1
  Zn  Zn5  1  0.500171  0.000000  0.832796  1
  Ga  Ga6  1  0.000000  0.000000  0.000000  1
  Ga  Ga7  1  0.499832  0.500000  0.168719  1
  Ga  Ga8  1  0.999824  0.999999  0.334482  1
  Ga  Ga9  1  0.500000  0.500000  0.500000  1
  Ga  Ga10  1  0.000176  0.000001  0.665517  1
  Ga  Ga11  1  0.500168  0.500000  0.831280  1
  Ir  Ir12  1  0.500038  0.254182  0.000000  1
  Ir  Ir13  1  0.499962  0.745818  0.000000  1
  Ir  Ir14  1  0.999783  0.251540  0.163529  1
  Ir  Ir15  1  0.999897  0.748460  0.163528  1
  Ir  Ir16  1  0.499827  0.249614  0.332473  1
  Ir  Ir17  1  0.499813  0.750386  0.332473  1
  Ir  Ir18  1  0.000006  0.250733  0.499999  1
  Ir  Ir19  1  0.999994  0.749267  0.500001  1
  Ir  Ir20  1  0.500187  0.249614  0.667527  1
  Ir  Ir21  1  0.500173  0.750386  0.667527  1
  Ir  Ir22  1  0.000103  0.251540  0.836472  1
  Ir  Ir23  1  0.000217  0.748460  0.836471  1
