# generated using pymatgen
data_Ba4Ca2Nd2Co4O15
_symmetry_space_group_name_H-M   'P 1'
_cell_length_a   6.78694904
_cell_length_b   11.67477873
_cell_length_c   11.67430090
_cell_angle_alpha   120.02101076
_cell_angle_beta   89.96832943
_cell_angle_gamma   89.88689372
_symmetry_Int_Tables_number   1
_chemical_formula_structural   Ba4Ca2Nd2Co4O15
_chemical_formula_sum   'Ba8 Ca4 Nd4 Co8 O30'
_cell_volume   800.92387638
_cell_formula_units_Z   2
loop_
 _symmetry_equiv_pos_site_id
 _symmetry_equiv_pos_as_xyz
  1  'x, y, z'
loop_
 _atom_site_type_symbol
 _atom_site_label
 _atom_site_symmetry_multiplicity
 _atom_site_fract_x
 _atom_site_fract_y
 _atom_site_fract_z
 _atom_site_occupancy
  Ba  Ba0  1  0.672449  0.827333  0.175833  1
  Ba  Ba1  1  0.676005  0.830137  0.653684  1
  Ba  Ba2  1  0.670493  0.343920  0.170791  1
  Ba  Ba3  1  0.174288  0.175956  0.827506  1
  Ba  Ba4  1  0.171546  0.170846  0.343876  1
  Ba  Ba5  1  0.176214  0.653663  0.830141  1
  Ba  Ba6  1  0.979829  0.666854  0.330685  1
  Ba  Ba7  1  0.481164  0.330456  0.666721  1
  Ca  Ca8  1  0.475711  0.999071  0.999748  1
  Ca  Ca9  1  0.975980  0.999591  0.999102  1
  Ca  Ca10  1  0.340428  0.524844  0.049796  1
  Ca  Ca11  1  0.841266  0.050331  0.525149  1
  Nd  Nd12  1  0.334511  0.524775  0.475004  1
  Nd  Nd13  1  0.335783  0.951471  0.476237  1
  Nd  Nd14  1  0.834757  0.474986  0.524692  1
  Nd  Nd15  1  0.835360  0.476019  0.951274  1
  Co  Co16  1  0.510801  0.665047  0.330937  1
  Co  Co17  1  0.012187  0.331171  0.665404  1
  Co  Co18  1  0.164898  0.825015  0.174544  1
  Co  Co19  1  0.163835  0.829276  0.653983  1
  Co  Co20  1  0.165970  0.348224  0.170932  1
  Co  Co21  1  0.666694  0.174297  0.825010  1
  Co  Co22  1  0.667319  0.170919  0.348354  1
  Co  Co23  1  0.664550  0.653846  0.829024  1
  O  O24  1  0.336344  0.749554  0.251872  1
  O  O25  1  0.340177  0.749854  0.501236  1
  O  O26  1  0.336874  0.500139  0.251901  1
  O  O27  1  0.837515  0.251626  0.749360  1
  O  O28  1  0.839032  0.251948  0.499940  1
  O  O29  1  0.840983  0.501164  0.749759  1
  O  O30  1  0.662727  0.584178  0.413985  1
  O  O31  1  0.665279  0.585492  0.170817  1
  O  O32  1  0.658646  0.827747  0.412996  1
  O  O33  1  0.163777  0.414478  0.584400  1
  O  O34  1  0.159910  0.413149  0.827819  1
  O  O35  1  0.167223  0.171341  0.585856  1
  O  O36  1  0.737458  0.085722  0.911216  1
  O  O37  1  0.741315  0.089668  0.175166  1
  O  O38  1  0.737470  0.826840  0.911411  1
  O  O39  1  0.238433  0.910973  0.086181  1
  O  O40  1  0.236844  0.911295  0.827048  1
  O  O41  1  0.240606  0.175046  0.089705  1
  O  O42  1  0.531018  0.061995  0.669577  1
  O  O43  1  0.537764  0.332757  0.394770  1
  O  O44  1  0.537386  0.605824  0.937168  1
  O  O45  1  0.528626  0.063396  0.392593  1
  O  O46  1  0.539201  0.332322  0.937593  1
  O  O47  1  0.538923  0.606118  0.666908  1
  O  O48  1  0.038579  0.938178  0.332644  1
  O  O49  1  0.038064  0.667110  0.605762  1
  O  O50  1  0.027587  0.391916  0.062781  1
  O  O51  1  0.037590  0.937878  0.606173  1
  O  O52  1  0.029582  0.669634  0.062116  1
  O  O53  1  0.037030  0.394611  0.332823  1
