# generated using pymatgen
data_Ba3LiInAg10
_symmetry_space_group_name_H-M   'P 1'
_cell_length_a   9.99685100
_cell_length_b   9.99685082
_cell_length_c   8.51049000
_cell_angle_alpha   90.00000000
_cell_angle_beta   90.00000000
_cell_angle_gamma   119.99999730
_symmetry_Int_Tables_number   1
_chemical_formula_structural   Ba3LiInAg10
_chemical_formula_sum   'Ba6 Li2 In2 Ag20'
_cell_volume   736.56595190
_cell_formula_units_Z   2
loop_
 _symmetry_equiv_pos_site_id
 _symmetry_equiv_pos_as_xyz
  1  'x, y, z'
loop_
 _atom_site_type_symbol
 _atom_site_label
 _atom_site_symmetry_multiplicity
 _atom_site_fract_x
 _atom_site_fract_y
 _atom_site_fract_z
 _atom_site_occupancy
  Ba  Ba0  1  0.523267  0.046535  0.245627  1
  Ba  Ba1  1  0.476733  0.953465  0.754373  1
  Ba  Ba2  1  0.953465  0.476733  0.245627  1
  Ba  Ba3  1  0.046535  0.523267  0.754373  1
  Ba  Ba4  1  0.523267  0.476733  0.245627  1
  Ba  Ba5  1  0.476733  0.523267  0.754373  1
  Li  Li6  1  0.000000  0.000000  0.000000  1
  Li  Li7  1  0.000000  0.000000  0.500000  1
  In  In8  1  0.666667  0.333333  0.577239  1
  In  In9  1  0.333333  0.666667  0.422761  1
  Ag  Ag10  1  0.163859  0.327719  0.062429  1
  Ag  Ag11  1  0.836141  0.672281  0.937571  1
  Ag  Ag12  1  0.672281  0.836141  0.062429  1
  Ag  Ag13  1  0.833841  0.667681  0.562903  1
  Ag  Ag14  1  0.327719  0.163859  0.937571  1
  Ag  Ag15  1  0.166159  0.332319  0.437097  1
  Ag  Ag16  1  0.163859  0.836141  0.062429  1
  Ag  Ag17  1  0.332319  0.166159  0.562903  1
  Ag  Ag18  1  0.836141  0.163859  0.937571  1
  Ag  Ag19  1  0.667681  0.833841  0.437097  1
  Ag  Ag20  1  0.833841  0.166159  0.562903  1
  Ag  Ag21  1  0.166159  0.833841  0.437097  1
  Ag  Ag22  1  0.900620  0.801240  0.252159  1
  Ag  Ag23  1  0.099380  0.198760  0.747841  1
  Ag  Ag24  1  0.198760  0.099380  0.252159  1
  Ag  Ag25  1  0.801240  0.900620  0.747841  1
  Ag  Ag26  1  0.900620  0.099380  0.252159  1
  Ag  Ag27  1  0.099380  0.900620  0.747841  1
  Ag  Ag28  1  0.333333  0.666667  0.073266  1
  Ag  Ag29  1  0.666667  0.333333  0.926734  1
