# generated using pymatgen
data_Y6Er3Lu7(CdPt)4
_symmetry_space_group_name_H-M   'P 1'
_cell_length_a   9.60990012
_cell_length_b   9.59778024
_cell_length_c   9.59778000
_cell_angle_alpha   60.00000082
_cell_angle_beta   60.04171179
_cell_angle_gamma   60.04171262
_symmetry_Int_Tables_number   1
_chemical_formula_structural   Y6Er3Lu7(CdPt)4
_chemical_formula_sum   'Y6 Er3 Lu7 Cd4 Pt4'
_cell_volume   626.35276305
_cell_formula_units_Z   1
loop_
 _symmetry_equiv_pos_site_id
 _symmetry_equiv_pos_as_xyz
  1  'x, y, z'
loop_
 _atom_site_type_symbol
 _atom_site_label
 _atom_site_symmetry_multiplicity
 _atom_site_fract_x
 _atom_site_fract_y
 _atom_site_fract_z
 _atom_site_occupancy
  Y  Y0  1  0.936624  0.563275  0.563275  1
  Y  Y1  1  0.563577  0.936382  0.936382  1
  Y  Y2  1  0.563577  0.936382  0.563659  1
  Y  Y3  1  0.936624  0.563275  0.936825  1
  Y  Y4  1  0.563577  0.563659  0.936382  1
  Y  Y5  1  0.936624  0.936825  0.563275  1
  Er  Er6  1  0.352203  0.352198  0.352198  1
  Er  Er7  1  0.352203  0.352198  0.943403  1
  Er  Er8  1  0.352203  0.943403  0.352198  1
  Lu  Lu9  1  0.944717  0.351761  0.351761  1
  Lu  Lu10  1  0.812658  0.187504  0.187504  1
  Lu  Lu11  1  0.187181  0.812854  0.812854  1
  Lu  Lu12  1  0.187181  0.812854  0.187111  1
  Lu  Lu13  1  0.812658  0.187504  0.812334  1
  Lu  Lu14  1  0.187181  0.187111  0.812854  1
  Lu  Lu15  1  0.812658  0.812334  0.187504  1
  Cd  Cd16  1  0.581806  0.581195  0.581195  1
  Cd  Cd17  1  0.581806  0.581195  0.255805  1
  Cd  Cd18  1  0.581806  0.255805  0.581195  1
  Cd  Cd19  1  0.255774  0.581409  0.581409  1
  Pt  Pt20  1  0.141264  0.143107  0.143107  1
  Pt  Pt21  1  0.141264  0.143107  0.572523  1
  Pt  Pt22  1  0.141264  0.572523  0.143107  1
  Pt  Pt23  1  0.573570  0.142143  0.142143  1
