# generated using pymatgen
data_Zr12Zn9Cu2PdC4
_symmetry_space_group_name_H-M   'P 1'
_cell_length_a   8.66974905
_cell_length_b   8.64752380
_cell_length_c   8.63545125
_cell_angle_alpha   59.95373289
_cell_angle_beta   60.11694117
_cell_angle_gamma   60.08475764
_symmetry_Int_Tables_number   1
_chemical_formula_structural   Zr12Zn9Cu2PdC4
_chemical_formula_sum   'Zr12 Zn9 Cu2 Pd1 C4'
_cell_volume   458.32763924
_cell_formula_units_Z   1
loop_
 _symmetry_equiv_pos_site_id
 _symmetry_equiv_pos_as_xyz
  1  'x, y, z'
loop_
 _atom_site_type_symbol
 _atom_site_label
 _atom_site_symmetry_multiplicity
 _atom_site_fract_x
 _atom_site_fract_y
 _atom_site_fract_z
 _atom_site_occupancy
  Zr  Zr0  1  0.439602  0.439670  0.059589  1
  Zr  Zr1  1  0.063161  0.438700  0.059439  1
  Zr  Zr2  1  0.439602  0.061140  0.059589  1
  Zr  Zr3  1  0.061730  0.059834  0.439281  1
  Zr  Zr4  1  0.439204  0.060792  0.439213  1
  Zr  Zr5  1  0.061730  0.439156  0.439281  1
  Zr  Zr6  1  0.810398  0.810330  0.190411  1
  Zr  Zr7  1  0.186839  0.811300  0.190561  1
  Zr  Zr8  1  0.810398  0.188860  0.190411  1
  Zr  Zr9  1  0.188270  0.190166  0.810719  1
  Zr  Zr10  1  0.810796  0.189208  0.810787  1
  Zr  Zr11  1  0.188270  0.810844  0.810719  1
  Zn  Zn12  1  0.825362  0.832050  0.510539  1
  Zn  Zn13  1  0.828296  0.508641  0.828489  1
  Zn  Zn14  1  0.508574  0.832795  0.825834  1
  Zn  Zn15  1  0.828296  0.834573  0.828489  1
  Zn  Zn16  1  0.424638  0.417950  0.739461  1
  Zn  Zn17  1  0.421704  0.741359  0.421511  1
  Zn  Zn18  1  0.741426  0.417205  0.424166  1
  Zn  Zn19  1  0.421704  0.415427  0.421511  1
  Zn  Zn20  1  0.625000  0.625000  0.125000  1
  Cu  Cu21  1  0.625000  0.125000  0.625000  1
  Cu  Cu22  1  0.625000  0.625000  0.625000  1
  Pd  Pd23  1  0.125000  0.625000  0.625000  1
  C  C24  1  0.125000  0.125000  0.625000  1
  C  C25  1  0.125000  0.625000  0.125000  1
  C  C26  1  0.625000  0.125000  0.125000  1
  C  C27  1  0.125000  0.125000  0.125000  1
