# generated using pymatgen
data_Ho5ZrSbO12
_symmetry_space_group_name_H-M   'P 1'
_cell_length_a   6.43521381
_cell_length_b   6.41784910
_cell_length_c   6.43941348
_cell_angle_alpha   99.36923439
_cell_angle_beta   98.69187729
_cell_angle_gamma   98.78184153
_symmetry_Int_Tables_number   1
_chemical_formula_structural   Ho5ZrSbO12
_chemical_formula_sum   'Ho5 Zr1 Sb1 O12'
_cell_volume   255.06724477
_cell_formula_units_Z   1
loop_
 _symmetry_equiv_pos_site_id
 _symmetry_equiv_pos_as_xyz
  1  'x, y, z'
loop_
 _atom_site_type_symbol
 _atom_site_label
 _atom_site_symmetry_multiplicity
 _atom_site_fract_x
 _atom_site_fract_y
 _atom_site_fract_z
 _atom_site_occupancy
  Ho  Ho0  1  0.390794  0.690083  0.855891  1
  Ho  Ho1  1  0.859442  0.388809  0.691968  1
  Ho  Ho2  1  0.311680  0.143460  0.608830  1
  Ho  Ho3  1  0.609378  0.310307  0.139106  1
  Ho  Ho4  1  0.140106  0.610123  0.308279  1
  Zr  Zr5  1  0.684240  0.856046  0.388532  1
  Sb  Sb6  1  0.998352  0.996983  0.000737  1
  O  O7  1  0.441540  0.603313  0.183384  1
  O  O8  1  0.176181  0.433444  0.583387  1
  O  O9  1  0.597162  0.168195  0.427607  1
  O  O10  1  0.565413  0.409755  0.820635  1
  O  O11  1  0.816811  0.582690  0.415487  1
  O  O12  1  0.431061  0.823538  0.565311  1
  O  O13  1  0.913267  0.029102  0.690636  1
  O  O14  1  0.956390  0.305056  0.069965  1
  O  O15  1  0.302214  0.074101  0.954266  1
  O  O16  1  0.068332  0.957972  0.308618  1
  O  O17  1  0.043128  0.692225  0.929998  1
  O  O18  1  0.694509  0.924799  0.057362  1
