# generated using pymatgen
data_Dy7Y8Ho5Bi12
_symmetry_space_group_name_H-M   'P 1'
_cell_length_a   8.26014202
_cell_length_b   9.52177200
_cell_length_c   12.08601703
_cell_angle_alpha   90.00000003
_cell_angle_beta   89.99134345
_cell_angle_gamma   90.00080547
_symmetry_Int_Tables_number   1
_chemical_formula_structural   Dy7Y8Ho5Bi12
_chemical_formula_sum   'Dy7 Y8 Ho5 Bi12'
_cell_volume   950.57959958
_cell_formula_units_Z   1
loop_
 _symmetry_equiv_pos_site_id
 _symmetry_equiv_pos_as_xyz
  1  'x, y, z'
loop_
 _atom_site_type_symbol
 _atom_site_label
 _atom_site_symmetry_multiplicity
 _atom_site_fract_x
 _atom_site_fract_y
 _atom_site_fract_z
 _atom_site_occupancy
  Dy  Dy0  1  0.306292  0.436736  0.940190  1
  Dy  Dy1  1  0.806258  0.063344  0.559799  1
  Dy  Dy2  1  0.693702  0.936720  0.059815  1
  Dy  Dy3  1  0.193730  0.563271  0.440187  1
  Dy  Dy4  1  0.693713  0.563272  0.059803  1
  Dy  Dy5  1  0.193682  0.936704  0.440202  1
  Dy  Dy6  1  0.306295  0.063261  0.940197  1
  Y  Y7  1  0.186267  0.750001  0.719055  1
  Y  Y8  1  0.686234  0.749999  0.780946  1
  Y  Y9  1  0.813769  0.250037  0.280970  1
  Y  Y10  1  0.313760  0.250003  0.219059  1
  Y  Y11  1  0.353808  0.750017  0.215248  1
  Y  Y12  1  0.853833  0.750025  0.284735  1
  Y  Y13  1  0.646263  0.250060  0.784706  1
  Y  Y14  1  0.146142  0.250049  0.715217  1
  Ho  Ho15  1  0.026086  0.750020  0.988939  1
  Ho  Ho16  1  0.526124  0.749983  0.511054  1
  Ho  Ho17  1  0.973933  0.250002  0.011039  1
  Ho  Ho18  1  0.474026  0.250041  0.488983  1
  Ho  Ho19  1  0.806267  0.436556  0.559805  1
  Bi  Bi20  1  0.433593  0.003768  0.673383  1
  Bi  Bi21  1  0.933553  0.496259  0.826562  1
  Bi  Bi22  1  0.566412  0.503764  0.326651  1
  Bi  Bi23  1  0.066405  0.996254  0.173408  1
  Bi  Bi24  1  0.566421  0.996261  0.326614  1
  Bi  Bi25  1  0.066388  0.503760  0.173413  1
  Bi  Bi26  1  0.433658  0.496254  0.673360  1
  Bi  Bi27  1  0.933575  0.003765  0.826591  1
  Bi  Bi28  1  0.409122  0.750002  0.958088  1
  Bi  Bi29  1  0.909022  0.749698  0.541939  1
  Bi  Bi30  1  0.590886  0.250002  0.041909  1
  Bi  Bi31  1  0.090780  0.250110  0.458135  1
