# generated using pymatgen
data_Tb8Tm11Si16W
_symmetry_space_group_name_H-M   'P 1'
_cell_length_a   7.55626204
_cell_length_b   7.55626295
_cell_length_c   13.86879159
_cell_angle_alpha   89.74114454
_cell_angle_beta   90.25885373
_cell_angle_gamma   89.92828895
_symmetry_Int_Tables_number   1
_chemical_formula_structural   Tb8Tm11Si16W
_chemical_formula_sum   'Tb8 Tm11 Si16 W1'
_cell_volume   791.85101657
_cell_formula_units_Z   1
loop_
 _symmetry_equiv_pos_site_id
 _symmetry_equiv_pos_as_xyz
  1  'x, y, z'
loop_
 _atom_site_type_symbol
 _atom_site_label
 _atom_site_symmetry_multiplicity
 _atom_site_fract_x
 _atom_site_fract_y
 _atom_site_fract_z
 _atom_site_occupancy
  Tb  Tb0  1  0.000103  0.351228  0.205873  1
  Tb  Tb1  1  0.004577  0.645183  0.713312  1
  Tb  Tb2  1  0.143955  0.494134  0.459363  1
  Tb  Tb3  1  0.503661  0.860760  0.037740  1
  Tb  Tb4  1  0.860760  0.503661  0.962260  1
  Tb  Tb5  1  0.494134  0.143955  0.540637  1
  Tb  Tb6  1  0.351228  0.000103  0.794127  1
  Tb  Tb7  1  0.645183  0.004577  0.286688  1
  Tm  Tm8  1  0.819348  0.819348  0.500000  1
  Tm  Tm9  1  0.322323  0.680327  0.245992  1
  Tm  Tm10  1  0.680327  0.322323  0.754008  1
  Tm  Tm11  1  0.140163  0.007338  0.372922  1
  Tm  Tm12  1  0.860534  0.997471  0.880435  1
  Tm  Tm13  1  0.492670  0.643431  0.626716  1
  Tm  Tm14  1  0.351850  0.505435  0.876479  1
  Tm  Tm15  1  0.505435  0.351850  0.123521  1
  Tm  Tm16  1  0.643431  0.492670  0.373284  1
  Tm  Tm17  1  0.007338  0.140163  0.627078  1
  Tm  Tm18  1  0.997471  0.860534  0.119565  1
  Si  Si19  1  0.350907  0.295129  0.312626  1
  Si  Si20  1  0.649044  0.708684  0.816463  1
  Si  Si21  1  0.201487  0.849625  0.564065  1
  Si  Si22  1  0.153299  0.805833  0.936738  1
  Si  Si23  1  0.805833  0.153299  0.063262  1
  Si  Si24  1  0.849625  0.201487  0.435935  1
  Si  Si25  1  0.295129  0.350907  0.687374  1
  Si  Si26  1  0.708684  0.649044  0.183537  1
  Si  Si27  1  0.289483  0.061428  0.176554  1
  Si  Si28  1  0.703037  0.940779  0.690667  1
  Si  Si29  1  0.441404  0.793658  0.436004  1
  Si  Si30  1  0.205147  0.542045  0.061542  1
  Si  Si31  1  0.542045  0.205147  0.938458  1
  Si  Si32  1  0.793658  0.441404  0.563996  1
  Si  Si33  1  0.061428  0.289483  0.823446  1
  Si  Si34  1  0.940779  0.703037  0.309333  1
  W  W35  1  0.184519  0.184519  0.000000  1
