# generated using pymatgen
data_Tm15Th(CdNi)4
_symmetry_space_group_name_H-M   'P 1'
_cell_length_a   9.44436308
_cell_length_b   9.44436171
_cell_length_c   9.44436204
_cell_angle_alpha   59.96031870
_cell_angle_beta   59.96031969
_cell_angle_gamma   59.96031863
_symmetry_Int_Tables_number   1
_chemical_formula_structural   Tm15Th(CdNi)4
_chemical_formula_sum   'Tm15 Th1 Cd4 Ni4'
_cell_volume   595.13010732
_cell_formula_units_Z   1
loop_
 _symmetry_equiv_pos_site_id
 _symmetry_equiv_pos_as_xyz
  1  'x, y, z'
loop_
 _atom_site_type_symbol
 _atom_site_label
 _atom_site_symmetry_multiplicity
 _atom_site_fract_x
 _atom_site_fract_y
 _atom_site_fract_z
 _atom_site_occupancy
  Tm  Tm0  1  0.599028  0.599028  0.201438  1
  Tm  Tm1  1  0.599028  0.201438  0.599028  1
  Tm  Tm2  1  0.201438  0.599028  0.599028  1
  Tm  Tm3  1  0.063159  0.437227  0.437227  1
  Tm  Tm4  1  0.439605  0.061406  0.061406  1
  Tm  Tm5  1  0.437227  0.063159  0.437227  1
  Tm  Tm6  1  0.061406  0.439605  0.061406  1
  Tm  Tm7  1  0.437227  0.437227  0.063159  1
  Tm  Tm8  1  0.061406  0.061406  0.439605  1
  Tm  Tm9  1  0.185817  0.815186  0.815186  1
  Tm  Tm10  1  0.814785  0.186060  0.186060  1
  Tm  Tm11  1  0.815186  0.185817  0.815186  1
  Tm  Tm12  1  0.186060  0.814785  0.186060  1
  Tm  Tm13  1  0.815186  0.815186  0.185817  1
  Tm  Tm14  1  0.186060  0.186060  0.814785  1
  Th  Th15  1  0.596174  0.596174  0.596174  1
  Cd  Cd16  1  0.831826  0.831826  0.831826  1
  Cd  Cd17  1  0.832993  0.832993  0.503132  1
  Cd  Cd18  1  0.832993  0.503132  0.832993  1
  Cd  Cd19  1  0.503132  0.832993  0.832993  1
  Ni  Ni20  1  0.392768  0.392768  0.392768  1
  Ni  Ni21  1  0.392449  0.392449  0.822597  1
  Ni  Ni22  1  0.392449  0.822597  0.392449  1
  Ni  Ni23  1  0.822597  0.392449  0.392449  1
