# generated using pymatgen
data_Sr4Dy2RuPtO12
_symmetry_space_group_name_H-M   'P 1'
_cell_length_a   5.89024878
_cell_length_b   5.82263947
_cell_length_c   10.06594627
_cell_angle_alpha   55.10231017
_cell_angle_beta   90.13469228
_cell_angle_gamma   90.00571423
_symmetry_Int_Tables_number   1
_chemical_formula_structural   Sr4Dy2RuPtO12
_chemical_formula_sum   'Sr4 Dy2 Ru1 Pt1 O12'
_cell_volume   283.14763769
_cell_formula_units_Z   1
loop_
 _symmetry_equiv_pos_site_id
 _symmetry_equiv_pos_as_xyz
  1  'x, y, z'
loop_
 _atom_site_type_symbol
 _atom_site_label
 _atom_site_symmetry_multiplicity
 _atom_site_fract_x
 _atom_site_fract_y
 _atom_site_fract_z
 _atom_site_occupancy
  Sr  Sr0  1  0.538660  0.737074  0.754433  1
  Sr  Sr1  1  0.036313  0.256646  0.752931  1
  Sr  Sr2  1  0.963687  0.743354  0.247069  1
  Sr  Sr3  1  0.461340  0.262926  0.245567  1
  Dy  Dy4  1  0.000000  0.000000  0.500000  1
  Dy  Dy5  1  0.500000  0.000000  0.000000  1
  Ru  Ru6  1  0.500000  0.500000  0.500000  1
  Pt  Pt7  1  0.000000  0.500000  0.000000  1
  O  O8  1  0.518714  0.804823  0.268008  1
  O  O9  1  0.020084  0.186263  0.238355  1
  O  O10  1  0.481286  0.195177  0.731992  1
  O  O11  1  0.979916  0.813737  0.761645  1
  O  O12  1  0.770223  0.654416  0.540223  1
  O  O13  1  0.274962  0.341016  0.959313  1
  O  O14  1  0.229777  0.345584  0.459777  1
  O  O15  1  0.725038  0.658984  0.040687  1
  O  O16  1  0.203523  0.734994  0.039090  1
  O  O17  1  0.697913  0.269135  0.462034  1
  O  O18  1  0.796477  0.265006  0.960910  1
  O  O19  1  0.302087  0.730865  0.537966  1
