# generated using pymatgen
data_HoLu3(InGa2)2
_symmetry_space_group_name_H-M   'P 1'
_cell_length_a   7.13283959
_cell_length_b   7.13283959
_cell_length_c   4.37410300
_cell_angle_alpha   90.00000000
_cell_angle_beta   90.00000000
_cell_angle_gamma   89.66990481
_symmetry_Int_Tables_number   1
_chemical_formula_structural   HoLu3(InGa2)2
_chemical_formula_sum   'Ho1 Lu3 In2 Ga4'
_cell_volume   222.53929762
_cell_formula_units_Z   1
loop_
 _symmetry_equiv_pos_site_id
 _symmetry_equiv_pos_as_xyz
  1  'x, y, z'
loop_
 _atom_site_type_symbol
 _atom_site_label
 _atom_site_symmetry_multiplicity
 _atom_site_fract_x
 _atom_site_fract_y
 _atom_site_fract_z
 _atom_site_occupancy
  Ho  Ho0  1  0.671415  0.171415  0.500000  1
  Lu  Lu1  1  0.328036  0.828036  0.500000  1
  Lu  Lu2  1  0.171398  0.329127  0.500000  1
  Lu  Lu3  1  0.829127  0.671398  0.500000  1
  In  In4  1  0.499727  0.500240  0.000000  1
  In  In5  1  0.000240  0.999727  0.000000  1
  Ga  Ga6  1  0.127241  0.627241  0.000000  1
  Ga  Ga7  1  0.873869  0.373869  0.000000  1
  Ga  Ga8  1  0.626960  0.871987  0.000000  1
  Ga  Ga9  1  0.371987  0.126960  0.000000  1
