# generated using pymatgen
data_LaNdTa5WO18
_symmetry_space_group_name_H-M   'P 1'
_cell_length_a   7.62777634
_cell_length_b   5.48354460
_cell_length_c   8.32768613
_cell_angle_alpha   87.64299276
_cell_angle_beta   89.88350641
_cell_angle_gamma   90.16916813
_symmetry_Int_Tables_number   1
_chemical_formula_structural   LaNdTa5WO18
_chemical_formula_sum   'La1 Nd1 Ta5 W1 O18'
_cell_volume   348.02720601
_cell_formula_units_Z   1
loop_
 _symmetry_equiv_pos_site_id
 _symmetry_equiv_pos_as_xyz
  1  'x, y, z'
loop_
 _atom_site_type_symbol
 _atom_site_label
 _atom_site_symmetry_multiplicity
 _atom_site_fract_x
 _atom_site_fract_y
 _atom_site_fract_z
 _atom_site_occupancy
  La  La0  1  0.747783  0.032719  0.563572  1
  Nd  Nd1  1  0.251926  0.964333  0.434267  1
  Ta  Ta2  1  0.491181  0.527771  0.698648  1
  Ta  Ta3  1  0.995588  0.474475  0.301655  1
  Ta  Ta4  1  0.000061  0.999329  0.000077  1
  Ta  Ta5  1  0.006426  0.524708  0.697850  1
  Ta  Ta6  1  0.506728  0.471744  0.301149  1
  W  W7  1  0.499828  0.999565  0.000452  1
  O  O8  1  0.750364  0.445572  0.686230  1
  O  O9  1  0.249868  0.562179  0.311577  1
  O  O10  1  0.746577  0.078832  0.016928  1
  O  O11  1  0.253346  0.921963  0.983778  1
  O  O12  1  0.248986  0.648484  0.662110  1
  O  O13  1  0.751000  0.358409  0.336213  1
  O  O14  1  0.040208  0.267031  0.531374  1
  O  O15  1  0.534900  0.731795  0.468784  1
  O  O16  1  0.555908  0.843098  0.786287  1
  O  O17  1  0.055187  0.156950  0.210912  1
  O  O18  1  0.441208  0.153524  0.216688  1
  O  O19  1  0.947886  0.839798  0.792415  1
  O  O20  1  0.044669  0.313298  0.876434  1
  O  O21  1  0.546726  0.681748  0.125255  1
  O  O22  1  0.955581  0.686060  0.123695  1
  O  O23  1  0.452996  0.317388  0.874666  1
  O  O24  1  0.459913  0.267174  0.530806  1
  O  O25  1  0.965155  0.732052  0.468179  1
