# generated using pymatgen
data_KAsPRuRh
_symmetry_space_group_name_H-M   'P 1'
_cell_length_a   7.21226393
_cell_length_b   7.21226330
_cell_length_c   7.21226350
_cell_angle_alpha   147.70865233
_cell_angle_beta   147.48820078
_cell_angle_gamma   46.47876807
_symmetry_Int_Tables_number   1
_chemical_formula_structural   KAsPRuRh
_chemical_formula_sum   'K1 As1 P1 Ru1 Rh1'
_cell_volume   107.33534611
_cell_formula_units_Z   1
loop_
 _symmetry_equiv_pos_site_id
 _symmetry_equiv_pos_as_xyz
  1  'x, y, z'
loop_
 _atom_site_type_symbol
 _atom_site_label
 _atom_site_symmetry_multiplicity
 _atom_site_fract_x
 _atom_site_fract_y
 _atom_site_fract_z
 _atom_site_occupancy
  K  K0  1  0.995872  0.995872  0.000000  1
  As  As1  1  0.649829  0.649829  0.000000  1
  P  P2  1  0.343294  0.343294  0.000000  1
  Ru  Ru3  1  0.254909  0.754909  0.500000  1
  Rh  Rh4  1  0.756094  0.256094  0.500000  1
