# generated using pymatgen
data_La4P7Ir8
_symmetry_space_group_name_H-M   'P 1'
_cell_length_a   4.03242300
_cell_length_b   12.91715531
_cell_length_c   13.36454804
_cell_angle_alpha   80.85993362
_cell_angle_beta   90.00000000
_cell_angle_gamma   90.00000000
_symmetry_Int_Tables_number   1
_chemical_formula_structural   La4P7Ir8
_chemical_formula_sum   'La8 P14 Ir16'
_cell_volume   687.28629374
_cell_formula_units_Z   2
loop_
 _symmetry_equiv_pos_site_id
 _symmetry_equiv_pos_as_xyz
  1  'x, y, z'
loop_
 _atom_site_type_symbol
 _atom_site_label
 _atom_site_symmetry_multiplicity
 _atom_site_fract_x
 _atom_site_fract_y
 _atom_site_fract_z
 _atom_site_occupancy
  La  La0  1  0.750000  0.789329  0.562376  1
  La  La1  1  0.250000  0.210671  0.437624  1
  La  La2  1  0.750000  0.482502  0.707599  1
  La  La3  1  0.250000  0.517498  0.292401  1
  La  La4  1  0.750000  0.718411  0.895047  1
  La  La5  1  0.250000  0.103227  0.790890  1
  La  La6  1  0.750000  0.896773  0.209110  1
  La  La7  1  0.250000  0.281589  0.104953  1
  P  P8  1  0.250000  0.909636  0.410142  1
  P  P9  1  0.750000  0.474544  0.126325  1
  P  P10  1  0.250000  0.525456  0.873675  1
  P  P11  1  0.750000  0.090364  0.589858  1
  P  P12  1  0.250000  0.741756  0.081049  1
  P  P13  1  0.750000  0.258244  0.918951  1
  P  P14  1  0.750000  0.154124  0.281093  1
  P  P15  1  0.250000  0.845876  0.718907  1
  P  P16  1  0.250000  0.053769  0.097151  1
  P  P17  1  0.750000  0.946231  0.902849  1
  P  P18  1  0.250000  0.313087  0.687635  1
  P  P19  1  0.750000  0.686913  0.312365  1
  P  P20  1  0.250000  0.606549  0.560654  1
  P  P21  1  0.750000  0.393451  0.439346  1
  Ir  Ir22  1  0.250000  0.988056  0.576286  1
  Ir  Ir23  1  0.750000  0.011944  0.423714  1
  Ir  Ir24  1  0.250000  0.663258  0.730940  1
  Ir  Ir25  1  0.750000  0.336742  0.269060  1
  Ir  Ir26  1  0.250000  0.552771  0.046788  1
  Ir  Ir27  1  0.750000  0.447229  0.953212  1
  Ir  Ir28  1  0.250000  0.060700  0.272353  1
  Ir  Ir29  1  0.750000  0.939300  0.727647  1
  Ir  Ir30  1  0.250000  0.423893  0.528243  1
  Ir  Ir31  1  0.750000  0.576107  0.471757  1
  Ir  Ir32  1  0.250000  0.916321  0.997858  1
  Ir  Ir33  1  0.750000  0.083679  0.002142  1
  Ir  Ir34  1  0.250000  0.728598  0.395479  1
  Ir  Ir35  1  0.750000  0.271402  0.604521  1
  Ir  Ir36  1  0.250000  0.340832  0.859611  1
  Ir  Ir37  1  0.750000  0.659168  0.140389  1
