# generated using pymatgen
data_Nd2B4IrOs2Ru
_symmetry_space_group_name_H-M   'P 1'
_cell_length_a   6.85841774
_cell_length_b   6.04404137
_cell_length_c   5.60958479
_cell_angle_alpha   71.99484187
_cell_angle_beta   56.94030250
_cell_angle_gamma   51.53033023
_symmetry_Int_Tables_number   1
_chemical_formula_structural   Nd2B4IrOs2Ru
_chemical_formula_sum   'Nd2 B4 Ir1 Os2 Ru1'
_cell_volume   152.42075998
_cell_formula_units_Z   1
loop_
 _symmetry_equiv_pos_site_id
 _symmetry_equiv_pos_as_xyz
  1  'x, y, z'
loop_
 _atom_site_type_symbol
 _atom_site_label
 _atom_site_symmetry_multiplicity
 _atom_site_fract_x
 _atom_site_fract_y
 _atom_site_fract_z
 _atom_site_occupancy
  Nd  Nd0  1  0.998560  0.998560  0.001440  1
  Nd  Nd1  1  0.249543  0.249543  0.250457  1
  B  B2  1  0.320196  0.678900  0.321462  1
  B  B3  1  0.678900  0.320196  0.679442  1
  B  B4  1  0.564262  0.937880  0.561698  1
  B  B5  1  0.937880  0.564262  0.936160  1
  Ir  Ir6  1  0.615083  0.615083  0.884917  1
  Os  Os7  1  0.636018  0.636018  0.363982  1
  Os  Os8  1  0.363898  0.363898  0.636102  1
  Ru  Ru9  1  0.885660  0.885660  0.614340  1
