# generated using pymatgen
data_ZnNi22As11P4
_symmetry_space_group_name_H-M   'P 1'
_cell_length_a   6.77317325
_cell_length_b   6.77317213
_cell_length_c   11.14121087
_cell_angle_alpha   81.52673785
_cell_angle_beta   81.52673886
_cell_angle_gamma   89.93322063
_symmetry_Int_Tables_number   1
_chemical_formula_structural   ZnNi22As11P4
_chemical_formula_sum   'Zn1 Ni22 As11 P4'
_cell_volume   499.90547122
_cell_formula_units_Z   1
loop_
 _symmetry_equiv_pos_site_id
 _symmetry_equiv_pos_as_xyz
  1  'x, y, z'
loop_
 _atom_site_type_symbol
 _atom_site_label
 _atom_site_symmetry_multiplicity
 _atom_site_fract_x
 _atom_site_fract_y
 _atom_site_fract_z
 _atom_site_occupancy
  Zn  Zn0  1  0.074661  0.925339  0.750000  1
  Ni  Ni1  1  0.461962  0.156698  0.910730  1
  Ni  Ni2  1  0.843302  0.538038  0.589270  1
  Ni  Ni3  1  0.536489  0.843402  0.089919  1
  Ni  Ni4  1  0.156598  0.463511  0.410081  1
  Ni  Ni5  1  0.077591  0.625544  0.919429  1
  Ni  Ni6  1  0.374456  0.922409  0.580571  1
  Ni  Ni7  1  0.914917  0.356436  0.090923  1
  Ni  Ni8  1  0.643564  0.085083  0.409077  1
  Ni  Ni9  1  0.458864  0.640986  0.914972  1
  Ni  Ni10  1  0.359014  0.541136  0.585028  1
  Ni  Ni11  1  0.541050  0.361303  0.086341  1
  Ni  Ni12  1  0.638697  0.458950  0.413659  1
  Ni  Ni13  1  0.798973  0.674237  0.792005  1
  Ni  Ni14  1  0.325763  0.201027  0.707995  1
  Ni  Ni15  1  0.198961  0.319996  0.209304  1
  Ni  Ni16  1  0.680004  0.801039  0.290696  1
  Ni  Ni17  1  0.087211  0.165580  0.910735  1
  Ni  Ni18  1  0.834420  0.912789  0.589265  1
  Ni  Ni19  1  0.159378  0.084124  0.409244  1
  Ni  Ni20  1  0.915876  0.840622  0.090756  1
  Ni  Ni21  1  0.804829  0.195171  0.750000  1
  Ni  Ni22  1  0.185055  0.814945  0.250000  1
  As  As23  1  0.873703  0.244291  0.511256  1
  As  As24  1  0.755709  0.126297  0.988744  1
  As  As25  1  0.125454  0.755465  0.496125  1
  As  As26  1  0.244536  0.874546  0.003875  1
  As  As27  1  0.930235  0.069765  0.250000  1
  As  As28  1  0.551805  0.448195  0.750000  1
  As  As29  1  0.443457  0.556543  0.250000  1
  As  As30  1  0.553221  0.932309  0.752056  1
  As  As31  1  0.067691  0.446779  0.747944  1
  As  As32  1  0.447706  0.069156  0.245343  1
  As  As33  1  0.930844  0.552294  0.254657  1
  P  P34  1  0.751335  0.622881  0.997292  1
  P  P35  1  0.377119  0.248665  0.502708  1
  P  P36  1  0.251081  0.375526  0.004277  1
  P  P37  1  0.624474  0.748919  0.495723  1
