# generated using pymatgen
data_Hf2HRh6
_symmetry_space_group_name_H-M   'P 1'
_cell_length_a   5.61957240
_cell_length_b   5.61950674
_cell_length_c   5.61908300
_cell_angle_alpha   60.00325314
_cell_angle_beta   60.00210169
_cell_angle_gamma   59.99464930
_symmetry_Int_Tables_number   1
_chemical_formula_structural   Hf2HRh6
_chemical_formula_sum   'Hf2 H1 Rh6'
_cell_volume   125.47347455
_cell_formula_units_Z   1
loop_
 _symmetry_equiv_pos_site_id
 _symmetry_equiv_pos_as_xyz
  1  'x, y, z'
loop_
 _atom_site_type_symbol
 _atom_site_label
 _atom_site_symmetry_multiplicity
 _atom_site_fract_x
 _atom_site_fract_y
 _atom_site_fract_z
 _atom_site_occupancy
  Hf  Hf0  1  0.250000  0.250000  0.250000  1
  Hf  Hf1  1  0.750000  0.750000  0.750000  1
  H  H2  1  0.000000  0.000000  0.000000  1
  Rh  Rh3  1  0.748024  0.251976  0.251976  1
  Rh  Rh4  1  0.251976  0.748024  0.251976  1
  Rh  Rh5  1  0.748020  0.748020  0.251980  1
  Rh  Rh6  1  0.251980  0.251980  0.748020  1
  Rh  Rh7  1  0.748024  0.251976  0.748024  1
  Rh  Rh8  1  0.251976  0.748024  0.748024  1
