# generated using pymatgen
data_Dy2Er2ScIr3
_symmetry_space_group_name_H-M   'P 1'
_cell_length_a   10.74367500
_cell_length_b   10.74367500
_cell_length_c   6.24626300
_cell_angle_alpha   90.00000000
_cell_angle_beta   90.00000000
_cell_angle_gamma   90.00000000
_symmetry_Int_Tables_number   1
_chemical_formula_structural   Dy2Er2ScIr3
_chemical_formula_sum   'Dy8 Er8 Sc4 Ir12'
_cell_volume   720.98460413
_cell_formula_units_Z   4
loop_
 _symmetry_equiv_pos_site_id
 _symmetry_equiv_pos_as_xyz
  1  'x, y, z'
loop_
 _atom_site_type_symbol
 _atom_site_label
 _atom_site_symmetry_multiplicity
 _atom_site_fract_x
 _atom_site_fract_y
 _atom_site_fract_z
 _atom_site_occupancy
  Dy  Dy0  1  0.287096  0.086541  0.374822  1
  Dy  Dy1  1  0.287096  0.913459  0.874822  1
  Dy  Dy2  1  0.712904  0.086541  0.874822  1
  Dy  Dy3  1  0.712904  0.913459  0.374822  1
  Dy  Dy4  1  0.586541  0.787096  0.874822  1
  Dy  Dy5  1  0.586541  0.212904  0.374822  1
  Dy  Dy6  1  0.413459  0.787096  0.374822  1
  Dy  Dy7  1  0.413459  0.212904  0.874822  1
  Er  Er8  1  0.210900  0.415311  0.623233  1
  Er  Er9  1  0.210900  0.584689  0.123233  1
  Er  Er10  1  0.789100  0.415311  0.123233  1
  Er  Er11  1  0.789100  0.584689  0.623233  1
  Er  Er12  1  0.915311  0.710900  0.123233  1
  Er  Er13  1  0.915311  0.289100  0.623233  1
  Er  Er14  1  0.084689  0.710900  0.623233  1
  Er  Er15  1  0.084689  0.289100  0.123233  1
  Sc  Sc16  1  0.000000  0.000000  0.503455  1
  Sc  Sc17  1  0.000000  0.000000  0.003455  1
  Sc  Sc18  1  0.500000  0.500000  0.003455  1
  Sc  Sc19  1  0.500000  0.500000  0.503455  1
  Ir  Ir20  1  0.853206  0.149463  0.250893  1
  Ir  Ir21  1  0.853206  0.850537  0.750893  1
  Ir  Ir22  1  0.146794  0.149463  0.750893  1
  Ir  Ir23  1  0.146794  0.850537  0.250893  1
  Ir  Ir24  1  0.649463  0.353206  0.750893  1
  Ir  Ir25  1  0.649463  0.646794  0.250893  1
  Ir  Ir26  1  0.350537  0.353206  0.250893  1
  Ir  Ir27  1  0.350537  0.646794  0.750893  1
  Ir  Ir28  1  0.500000  0.000000  0.118343  1
  Ir  Ir29  1  0.500000  0.000000  0.618343  1
  Ir  Ir30  1  0.000000  0.500000  0.878954  1
  Ir  Ir31  1  0.000000  0.500000  0.378954  1
