# generated using pymatgen
data_Nd5TmTaMoO14
_symmetry_space_group_name_H-M   'P 1'
_cell_length_a   6.67112788
_cell_length_b   6.57721527
_cell_length_c   7.68958780
_cell_angle_alpha   89.77624199
_cell_angle_beta   90.26537280
_cell_angle_gamma   108.80373581
_symmetry_Int_Tables_number   1
_chemical_formula_structural   Nd5TmTaMoO14
_chemical_formula_sum   'Nd5 Tm1 Ta1 Mo1 O14'
_cell_volume   319.38739548
_cell_formula_units_Z   1
loop_
 _symmetry_equiv_pos_site_id
 _symmetry_equiv_pos_as_xyz
  1  'x, y, z'
loop_
 _atom_site_type_symbol
 _atom_site_label
 _atom_site_symmetry_multiplicity
 _atom_site_fract_x
 _atom_site_fract_y
 _atom_site_fract_z
 _atom_site_occupancy
  Nd  Nd0  1  0.525805  0.520729  0.497755  1
  Nd  Nd1  1  0.534328  0.525402  0.001058  1
  Nd  Nd2  1  0.006659  0.460275  0.754538  1
  Nd  Nd3  1  0.531705  0.003507  0.747755  1
  Nd  Nd4  1  0.463536  0.002868  0.249475  1
  Tm  Tm5  1  0.003279  0.533627  0.247714  1
  Ta  Ta6  1  0.000754  0.001236  0.002877  1
  Mo  Mo7  1  0.000959  0.999819  0.497230  1
  O  O8  1  0.940662  0.059864  0.751446  1
  O  O9  1  0.063107  0.929419  0.248588  1
  O  O10  1  0.348129  0.629121  0.249302  1
  O  O11  1  0.644505  0.373082  0.749119  1
  O  O12  1  0.369585  0.629092  0.750174  1
  O  O13  1  0.650873  0.381032  0.251471  1
  O  O14  1  0.309397  0.076829  0.968448  1
  O  O15  1  0.674705  0.913791  0.473177  1
  O  O16  1  0.316318  0.082754  0.525570  1
  O  O17  1  0.677638  0.915428  0.026475  1
  O  O18  1  0.038306  0.298607  0.457987  1
  O  O19  1  0.932234  0.677336  0.978988  1
  O  O20  1  0.936669  0.685953  0.523739  1
  O  O21  1  0.030848  0.300228  0.047113  1
