# generated using pymatgen
data_HoLu5(Co3P2)6
_symmetry_space_group_name_H-M   'P 1'
_cell_length_a   3.65917000
_cell_length_b   10.46216100
_cell_length_c   12.08284100
_cell_angle_alpha   90.00000000
_cell_angle_beta   90.00000000
_cell_angle_gamma   90.00000000
_symmetry_Int_Tables_number   1
_chemical_formula_structural   HoLu5(Co3P2)6
_chemical_formula_sum   'Ho1 Lu5 Co18 P12'
_cell_volume   462.56529556
_cell_formula_units_Z   1
loop_
 _symmetry_equiv_pos_site_id
 _symmetry_equiv_pos_as_xyz
  1  'x, y, z'
loop_
 _atom_site_type_symbol
 _atom_site_label
 _atom_site_symmetry_multiplicity
 _atom_site_fract_x
 _atom_site_fract_y
 _atom_site_fract_z
 _atom_site_occupancy
  Ho  Ho0  1  0.000000  0.500000  0.522985  1
  Lu  Lu1  1  0.500000  0.000000  0.477142  1
  Lu  Lu2  1  0.500000  0.818999  0.206189  1
  Lu  Lu3  1  0.500000  0.181001  0.206189  1
  Lu  Lu4  1  0.000000  0.681209  0.793950  1
  Lu  Lu5  1  0.000000  0.318791  0.793950  1
  Co  Co6  1  0.500000  0.500000  0.159917  1
  Co  Co7  1  0.000000  0.000000  0.839807  1
  Co  Co8  1  0.500000  0.500000  0.704430  1
  Co  Co9  1  0.000000  0.000000  0.296496  1
  Co  Co10  1  0.000000  0.500000  0.987159  1
  Co  Co11  1  0.500000  0.000000  0.012891  1
  Co  Co12  1  0.500000  0.332963  0.994717  1
  Co  Co13  1  0.500000  0.667037  0.994717  1
  Co  Co14  1  0.000000  0.166951  0.005258  1
  Co  Co15  1  0.000000  0.833049  0.005258  1
  Co  Co16  1  0.500000  0.296802  0.430684  1
  Co  Co17  1  0.500000  0.703198  0.430684  1
  Co  Co18  1  0.000000  0.202072  0.569110  1
  Co  Co19  1  0.000000  0.797928  0.569110  1
  Co  Co20  1  0.500000  0.878062  0.708979  1
  Co  Co21  1  0.500000  0.121938  0.708979  1
  Co  Co22  1  0.000000  0.622226  0.290769  1
  Co  Co23  1  0.000000  0.377774  0.290769  1
  P  P24  1  0.500000  0.500000  0.882577  1
  P  P25  1  0.000000  0.000000  0.117676  1
  P  P26  1  0.500000  0.500000  0.345175  1
  P  P27  1  0.000000  0.000000  0.653837  1
  P  P28  1  0.500000  0.311765  0.617175  1
  P  P29  1  0.500000  0.688235  0.617175  1
  P  P30  1  0.000000  0.187410  0.383174  1
  P  P31  1  0.000000  0.812590  0.383174  1
  P  P32  1  0.500000  0.846210  0.891362  1
  P  P33  1  0.500000  0.153790  0.891362  1
  P  P34  1  0.000000  0.653959  0.108588  1
  P  P35  1  0.000000  0.346041  0.108588  1
