# generated using pymatgen
data_Nd18Eu2Si15Pd
_symmetry_space_group_name_H-M   'P 1'
_cell_length_a   7.74011385
_cell_length_b   7.93251686
_cell_length_c   15.17791500
_cell_angle_alpha   90.34552398
_cell_angle_beta   90.57135991
_cell_angle_gamma   90.17063964
_symmetry_Int_Tables_number   1
_chemical_formula_structural   Nd18Eu2Si15Pd
_chemical_formula_sum   'Nd18 Eu2 Si15 Pd1'
_cell_volume   931.83490147
_cell_formula_units_Z   1
loop_
 _symmetry_equiv_pos_site_id
 _symmetry_equiv_pos_as_xyz
  1  'x, y, z'
loop_
 _atom_site_type_symbol
 _atom_site_label
 _atom_site_symmetry_multiplicity
 _atom_site_fract_x
 _atom_site_fract_y
 _atom_site_fract_z
 _atom_site_occupancy
  Nd  Nd0  1  0.681949  0.170882  0.618236  1
  Nd  Nd1  1  0.187345  0.318631  0.877895  1
  Nd  Nd2  1  0.318425  0.816804  0.121284  1
  Nd  Nd3  1  0.817733  0.686600  0.381105  1
  Nd  Nd4  1  0.318731  0.821855  0.379485  1
  Nd  Nd5  1  0.814578  0.683221  0.121386  1
  Nd  Nd6  1  0.685652  0.183005  0.878264  1
  Nd  Nd7  1  0.180349  0.318374  0.623115  1
  Nd  Nd8  1  0.529134  0.682237  0.600277  1
  Nd  Nd9  1  0.036220  0.813710  0.899518  1
  Nd  Nd10  1  0.461730  0.313360  0.101159  1
  Nd  Nd11  1  0.971262  0.184283  0.398344  1
  Nd  Nd12  1  0.463638  0.317904  0.399617  1
  Nd  Nd13  1  0.963248  0.187148  0.100544  1
  Nd  Nd14  1  0.537829  0.685451  0.898745  1
  Nd  Nd15  1  0.032831  0.812060  0.602363  1
  Nd  Nd16  1  0.854920  0.508056  0.748653  1
  Nd  Nd17  1  0.356965  0.987419  0.748555  1
  Eu  Eu18  1  0.142416  0.491085  0.252432  1
  Eu  Eu19  1  0.646708  0.012677  0.252640  1
  Si  Si20  1  0.138490  0.526799  0.038941  1
  Si  Si21  1  0.362691  0.027080  0.960389  1
  Si  Si22  1  0.859837  0.472237  0.539671  1
  Si  Si23  1  0.346271  0.027380  0.540910  1
  Si  Si24  1  0.864853  0.473435  0.959921  1
  Si  Si25  1  0.637968  0.973420  0.037839  1
  Si  Si26  1  0.140263  0.529691  0.463194  1
  Si  Si27  1  0.477864  0.398052  0.749752  1
  Si  Si28  1  0.975706  0.097671  0.751533  1
  Si  Si29  1  0.526739  0.596719  0.249210  1
  Si  Si30  1  0.028709  0.902736  0.247277  1
  Si  Si31  1  0.745560  0.877249  0.750791  1
  Si  Si32  1  0.246430  0.620904  0.751330  1
  Si  Si33  1  0.254108  0.119953  0.247661  1
  Si  Si34  1  0.753040  0.382067  0.248921  1
  Pd  Pd35  1  0.639806  0.979847  0.459044  1
