# generated using pymatgen
data_Dy7Er9MgAg3Ir4
_symmetry_space_group_name_H-M   'P 1'
_cell_length_a   9.52722212
_cell_length_b   9.54502042
_cell_length_c   9.52031300
_cell_angle_alpha   60.08558700
_cell_angle_beta   60.02398297
_cell_angle_gamma   60.14871844
_symmetry_Int_Tables_number   1
_chemical_formula_structural   Dy7Er9MgAg3Ir4
_chemical_formula_sum   'Dy7 Er9 Mg1 Ag3 Ir4'
_cell_volume   613.37322911
_cell_formula_units_Z   1
loop_
 _symmetry_equiv_pos_site_id
 _symmetry_equiv_pos_as_xyz
  1  'x, y, z'
loop_
 _atom_site_type_symbol
 _atom_site_label
 _atom_site_symmetry_multiplicity
 _atom_site_fract_x
 _atom_site_fract_y
 _atom_site_fract_z
 _atom_site_occupancy
  Dy  Dy0  1  0.809765  0.811005  0.189615  1
  Dy  Dy1  1  0.935202  0.562478  0.563145  1
  Dy  Dy2  1  0.562468  0.937646  0.937134  1
  Dy  Dy3  1  0.562468  0.937646  0.562752  1
  Dy  Dy4  1  0.935202  0.562478  0.939176  1
  Dy  Dy5  1  0.561983  0.562944  0.937536  1
  Dy  Dy6  1  0.935666  0.938950  0.562692  1
  Er  Er7  1  0.350137  0.348593  0.348329  1
  Er  Er8  1  0.350137  0.348593  0.952940  1
  Er  Er9  1  0.349519  0.953676  0.348402  1
  Er  Er10  1  0.941688  0.352758  0.352776  1
  Er  Er11  1  0.810219  0.188855  0.189384  1
  Er  Er12  1  0.185943  0.813237  0.813293  1
  Er  Er13  1  0.185943  0.813237  0.187527  1
  Er  Er14  1  0.810219  0.188855  0.811541  1
  Er  Er15  1  0.185756  0.186987  0.813629  1
  Mg  Mg16  1  0.285329  0.571720  0.571475  1
  Ag  Ag17  1  0.582497  0.583546  0.583297  1
  Ag  Ag18  1  0.582497  0.583546  0.250661  1
  Ag  Ag19  1  0.582494  0.250807  0.583350  1
  Ir  Ir20  1  0.140229  0.143490  0.143177  1
  Ir  Ir21  1  0.140229  0.143490  0.573104  1
  Ir  Ir22  1  0.141168  0.572494  0.143169  1
  Ir  Ir23  1  0.573244  0.142968  0.141894  1
