# generated using pymatgen
data_YNp3O8
_symmetry_space_group_name_H-M   'P 1'
_cell_length_a   5.37582232
_cell_length_b   5.37439700
_cell_length_c   5.37567731
_cell_angle_alpha   90.00000000
_cell_angle_beta   90.03927544
_cell_angle_gamma   90.00000000
_symmetry_Int_Tables_number   1
_chemical_formula_structural   YNp3O8
_chemical_formula_sum   'Y1 Np3 O8'
_cell_volume   155.31297526
_cell_formula_units_Z   1
loop_
 _symmetry_equiv_pos_site_id
 _symmetry_equiv_pos_as_xyz
  1  'x, y, z'
loop_
 _atom_site_type_symbol
 _atom_site_label
 _atom_site_symmetry_multiplicity
 _atom_site_fract_x
 _atom_site_fract_y
 _atom_site_fract_z
 _atom_site_occupancy
  Y  Y0  1  0.000000  0.250010  0.250000  1
  Np  Np1  1  0.499999  0.749999  0.250000  1
  Np  Np2  1  0.499999  0.249990  0.750001  1
  Np  Np3  1  0.000000  0.750029  0.750001  1
  O  O4  1  0.254121  0.995990  0.997024  1
  O  O5  1  0.254264  0.504197  0.997043  1
  O  O6  1  0.745879  0.995990  0.502975  1
  O  O7  1  0.745736  0.504197  0.502956  1
  O  O8  1  0.253942  0.503866  0.505093  1
  O  O9  1  0.253796  0.995929  0.505108  1
  O  O10  1  0.746058  0.503866  0.994907  1
  O  O11  1  0.746204  0.995929  0.994892  1
