# generated using pymatgen
data_ZrZnCu3Ir
_symmetry_space_group_name_H-M   'P 1'
_cell_length_a   4.89579674
_cell_length_b   4.89579680
_cell_length_c   4.92149295
_cell_angle_alpha   60.17255836
_cell_angle_beta   60.17256420
_cell_angle_gamma   59.99999877
_symmetry_Int_Tables_number   1
_chemical_formula_structural   ZrZnCu3Ir
_chemical_formula_sum   'Zr1 Zn1 Cu3 Ir1'
_cell_volume   83.62891707
_cell_formula_units_Z   1
loop_
 _symmetry_equiv_pos_site_id
 _symmetry_equiv_pos_as_xyz
  1  'x, y, z'
loop_
 _atom_site_type_symbol
 _atom_site_label
 _atom_site_symmetry_multiplicity
 _atom_site_fract_x
 _atom_site_fract_y
 _atom_site_fract_z
 _atom_site_occupancy
  Zr  Zr0  1  0.249584  0.249584  0.251248  1
  Zn  Zn1  1  0.627242  0.627242  0.118275  1
  Cu  Cu2  1  0.626040  0.123751  0.624168  1
  Cu  Cu3  1  0.123751  0.626040  0.624168  1
  Cu  Cu4  1  0.626040  0.626040  0.624168  1
  Ir  Ir5  1  0.997343  0.997343  0.007973  1
