# generated using pymatgen
data_DyY7(HoRu2)2
_symmetry_space_group_name_H-M   'P 1'
_cell_length_a   6.37386706
_cell_length_b   7.29463348
_cell_length_c   8.51627544
_cell_angle_alpha   96.68050783
_cell_angle_beta   112.12225227
_cell_angle_gamma   90.03765502
_symmetry_Int_Tables_number   1
_chemical_formula_structural   DyY7(HoRu2)2
_chemical_formula_sum   'Dy1 Y7 Ho2 Ru4'
_cell_volume   363.89822481
_cell_formula_units_Z   1
loop_
 _symmetry_equiv_pos_site_id
 _symmetry_equiv_pos_as_xyz
  1  'x, y, z'
loop_
 _atom_site_type_symbol
 _atom_site_label
 _atom_site_symmetry_multiplicity
 _atom_site_fract_x
 _atom_site_fract_y
 _atom_site_fract_z
 _atom_site_occupancy
  Dy  Dy0  1  0.793395  0.315029  0.433403  1
  Y  Y1  1  0.978557  0.915287  0.185917  1
  Y  Y2  1  0.792332  0.584544  0.813601  1
  Y  Y3  1  0.021444  0.084749  0.813963  1
  Y  Y4  1  0.207408  0.415582  0.186303  1
  Y  Y5  1  0.640352  0.814619  0.434151  1
  Y  Y6  1  0.206399  0.685215  0.566169  1
  Y  Y7  1  0.359793  0.185364  0.565957  1
  Ho  Ho8  1  0.422153  0.749570  0.999732  1
  Ho  Ho9  1  0.577819  0.250455  0.000190  1
  Ru  Ru10  1  0.822053  0.574693  0.219622  1
  Ru  Ru11  1  0.603156  0.925093  0.780949  1
  Ru  Ru12  1  0.177328  0.424277  0.780476  1
  Ru  Ru13  1  0.397811  0.075523  0.219569  1
