# generated using pymatgen
data_Nd2GePt6
_symmetry_space_group_name_H-M   'P 1'
_cell_length_a   6.85639781
_cell_length_b   6.85639779
_cell_length_c   6.85639865
_cell_angle_alpha   49.59719672
_cell_angle_beta   49.59718808
_cell_angle_gamma   49.59718115
_symmetry_Int_Tables_number   1
_chemical_formula_structural   Nd2GePt6
_chemical_formula_sum   'Nd2 Ge1 Pt6'
_cell_volume   171.85111226
_cell_formula_units_Z   1
loop_
 _symmetry_equiv_pos_site_id
 _symmetry_equiv_pos_as_xyz
  1  'x, y, z'
loop_
 _atom_site_type_symbol
 _atom_site_label
 _atom_site_symmetry_multiplicity
 _atom_site_fract_x
 _atom_site_fract_y
 _atom_site_fract_z
 _atom_site_occupancy
  Nd  Nd0  1  0.220388  0.220388  0.220388  1
  Nd  Nd1  1  0.779612  0.779612  0.779612  1
  Ge  Ge2  1  0.500000  0.500000  0.500000  1
  Pt  Pt3  1  0.734339  0.227675  0.227676  1
  Pt  Pt4  1  0.227675  0.734339  0.227676  1
  Pt  Pt5  1  0.772325  0.772325  0.265660  1
  Pt  Pt6  1  0.227675  0.227675  0.734340  1
  Pt  Pt7  1  0.772325  0.265661  0.772324  1
  Pt  Pt8  1  0.265661  0.772325  0.772324  1
