# generated using pymatgen
data_Th(As3Ru)4
_symmetry_space_group_name_H-M   'P 1'
_cell_length_a   7.44837039
_cell_length_b   7.44837016
_cell_length_c   7.44837000
_cell_angle_alpha   109.47122020
_cell_angle_beta   109.47121956
_cell_angle_gamma   109.47121851
_symmetry_Int_Tables_number   1
_chemical_formula_structural   Th(As3Ru)4
_chemical_formula_sum   'Th1 As12 Ru4'
_cell_volume   318.09869515
_cell_formula_units_Z   1
loop_
 _symmetry_equiv_pos_site_id
 _symmetry_equiv_pos_as_xyz
  1  'x, y, z'
loop_
 _atom_site_type_symbol
 _atom_site_label
 _atom_site_symmetry_multiplicity
 _atom_site_fract_x
 _atom_site_fract_y
 _atom_site_fract_z
 _atom_site_occupancy
  Th  Th0  1  0.000000  0.000000  0.000000  1
  As  As1  1  0.850000  0.653271  0.503271  1
  As  As2  1  0.150000  0.346729  0.496729  1
  As  As3  1  0.150000  0.653271  0.803271  1
  As  As4  1  0.850000  0.346729  0.196729  1
  As  As5  1  0.653271  0.503271  0.850000  1
  As  As6  1  0.346729  0.496729  0.150000  1
  As  As7  1  0.653271  0.803271  0.150000  1
  As  As8  1  0.346729  0.196729  0.850000  1
  As  As9  1  0.503271  0.850000  0.653271  1
  As  As10  1  0.496729  0.150000  0.346729  1
  As  As11  1  0.803271  0.150000  0.653271  1
  As  As12  1  0.196729  0.850000  0.346729  1
  Ru  Ru13  1  0.500000  0.500000  0.500000  1
  Ru  Ru14  1  0.500000  0.000000  0.000000  1
  Ru  Ru15  1  0.000000  0.500000  0.000000  1
  Ru  Ru16  1  0.000000  0.000000  0.500000  1
