# generated using pymatgen
data_ErTm2Fe7Co2
_symmetry_space_group_name_H-M   'P 1'
_cell_length_a   5.04762683
_cell_length_b   5.05072480
_cell_length_c   8.58079776
_cell_angle_alpha   72.88419792
_cell_angle_beta   72.97211173
_cell_angle_gamma   59.97969273
_symmetry_Int_Tables_number   1
_chemical_formula_structural   ErTm2Fe7Co2
_chemical_formula_sum   'Er1 Tm2 Fe7 Co2'
_cell_volume   178.20049865
_cell_formula_units_Z   1
loop_
 _symmetry_equiv_pos_site_id
 _symmetry_equiv_pos_as_xyz
  1  'x, y, z'
loop_
 _atom_site_type_symbol
 _atom_site_label
 _atom_site_symmetry_multiplicity
 _atom_site_fract_x
 _atom_site_fract_y
 _atom_site_fract_z
 _atom_site_occupancy
  Er  Er0  1  0.000010  0.999902  0.000186  1
  Tm  Tm1  1  0.141436  0.141780  0.575001  1
  Tm  Tm2  1  0.858263  0.857612  0.426514  1
  Fe  Fe3  1  0.582608  0.582473  0.752662  1
  Fe  Fe4  1  0.582608  0.082255  0.752662  1
  Fe  Fe5  1  0.918487  0.417325  0.246866  1
  Fe  Fe6  1  0.417395  0.417382  0.246807  1
  Fe  Fe7  1  0.417395  0.918418  0.246807  1
  Fe  Fe8  1  0.332698  0.333134  0.001034  1
  Fe  Fe9  1  0.667476  0.666921  0.998683  1
  Co  Co10  1  0.081321  0.582517  0.753644  1
  Co  Co11  1  0.500302  0.500282  0.499133  1
