# generated using pymatgen
data_In7Sn2Pd13
_symmetry_space_group_name_H-M   'P 1'
_cell_length_a   7.23157898
_cell_length_b   7.23157834
_cell_length_c   9.65434267
_cell_angle_alpha   62.28285921
_cell_angle_beta   62.28285906
_cell_angle_gamma   76.08575302
_symmetry_Int_Tables_number   1
_chemical_formula_structural   In7Sn2Pd13
_chemical_formula_sum   'In7 Sn2 Pd13'
_cell_volume   395.47498801
_cell_formula_units_Z   1
loop_
 _symmetry_equiv_pos_site_id
 _symmetry_equiv_pos_as_xyz
  1  'x, y, z'
loop_
 _atom_site_type_symbol
 _atom_site_label
 _atom_site_symmetry_multiplicity
 _atom_site_fract_x
 _atom_site_fract_y
 _atom_site_fract_z
 _atom_site_occupancy
  In  In0  1  0.246874  0.827642  0.190828  1
  In  In1  1  0.827642  0.246874  0.190828  1
  In  In2  1  0.711410  0.711410  0.331623  1
  In  In3  1  0.501954  0.501954  0.998081  1
  In  In4  1  0.751504  0.170415  0.810170  1
  In  In5  1  0.170415  0.751504  0.810170  1
  In  In6  1  0.822240  0.822240  0.610930  1
  Sn  Sn7  1  0.175952  0.175952  0.388412  1
  Sn  Sn8  1  0.295035  0.295035  0.666619  1
  Pd  Pd9  1  0.537201  0.066029  0.160233  1
  Pd  Pd10  1  0.496640  0.002402  0.500903  1
  Pd  Pd11  1  0.544177  0.544177  0.678275  1
  Pd  Pd12  1  0.066029  0.537201  0.160233  1
  Pd  Pd13  1  0.454112  0.454112  0.323155  1
  Pd  Pd14  1  0.254800  0.746528  0.499836  1
  Pd  Pd15  1  0.258755  0.258755  0.989082  1
  Pd  Pd16  1  0.938378  0.457932  0.839594  1
  Pd  Pd17  1  0.740350  0.740350  0.011436  1
  Pd  Pd18  1  0.457932  0.938378  0.839594  1
  Pd  Pd19  1  0.746528  0.254800  0.499836  1
  Pd  Pd20  1  0.999670  0.999670  0.999259  1
  Pd  Pd21  1  0.002402  0.496640  0.500903  1
