# generated using pymatgen
data_La2CdPtAu
_symmetry_space_group_name_H-M   'P 1'
_cell_length_a   8.14799549
_cell_length_b   8.14799549
_cell_length_c   3.95475400
_cell_angle_alpha   90.00000000
_cell_angle_beta   90.00000000
_cell_angle_gamma   90.54006495
_symmetry_Int_Tables_number   1
_chemical_formula_structural   La2CdPtAu
_chemical_formula_sum   'La4 Cd2 Pt2 Au2'
_cell_volume   262.54378418
_cell_formula_units_Z   2
loop_
 _symmetry_equiv_pos_site_id
 _symmetry_equiv_pos_as_xyz
  1  'x, y, z'
loop_
 _atom_site_type_symbol
 _atom_site_label
 _atom_site_symmetry_multiplicity
 _atom_site_fract_x
 _atom_site_fract_y
 _atom_site_fract_z
 _atom_site_occupancy
  La  La0  1  0.683169  0.183169  0.500000  1
  La  La1  1  0.316831  0.816831  0.500000  1
  La  La2  1  0.165449  0.334551  0.500000  1
  La  La3  1  0.834551  0.665449  0.500000  1
  Cd  Cd4  1  0.000000  0.000000  0.000000  1
  Cd  Cd5  1  0.500000  0.500000  0.000000  1
  Pt  Pt6  1  0.126592  0.626592  0.000000  1
  Pt  Pt7  1  0.873408  0.373408  0.000000  1
  Au  Au8  1  0.627243  0.872757  0.000000  1
  Au  Au9  1  0.372757  0.127243  0.000000  1
