# generated using pymatgen
data_Tm4Zn2Co7Ni5B6
_symmetry_space_group_name_H-M   'P 1'
_cell_length_a   5.06528432
_cell_length_b   5.05894312
_cell_length_c   12.77465000
_cell_angle_alpha   90.00000000
_cell_angle_beta   90.00000000
_cell_angle_gamma   119.95860582
_symmetry_Int_Tables_number   1
_chemical_formula_structural   Tm4Zn2Co7Ni5B6
_chemical_formula_sum   'Tm4 Zn2 Co7 Ni5 B6'
_cell_volume   283.61178013
_cell_formula_units_Z   1
loop_
 _symmetry_equiv_pos_site_id
 _symmetry_equiv_pos_as_xyz
  1  'x, y, z'
loop_
 _atom_site_type_symbol
 _atom_site_label
 _atom_site_symmetry_multiplicity
 _atom_site_fract_x
 _atom_site_fract_y
 _atom_site_fract_z
 _atom_site_occupancy
  Tm  Tm0  1  0.000000  0.000000  0.004489  1
  Tm  Tm1  1  0.000000  0.000000  0.499679  1
  Tm  Tm2  1  0.000000  0.000000  0.736892  1
  Tm  Tm3  1  0.000000  0.000000  0.263543  1
  Zn  Zn4  1  0.669727  0.334863  0.000232  1
  Zn  Zn5  1  0.330273  0.665137  0.000232  1
  Co  Co6  1  0.000000  0.500000  0.162063  1
  Co  Co7  1  0.500000  0.500000  0.614944  1
  Co  Co8  1  0.500000  0.000000  0.614944  1
  Co  Co9  1  0.000000  0.500000  0.614084  1
  Co  Co10  1  0.500000  0.500000  0.384917  1
  Co  Co11  1  0.500000  0.000000  0.384917  1
  Co  Co12  1  0.000000  0.500000  0.384809  1
  Ni  Ni13  1  0.500000  0.500000  0.839290  1
  Ni  Ni14  1  0.500000  0.000000  0.839290  1
  Ni  Ni15  1  0.000000  0.500000  0.839933  1
  Ni  Ni16  1  0.500000  0.500000  0.159890  1
  Ni  Ni17  1  0.500000  0.000000  0.159890  1
  B  B18  1  0.665933  0.332966  0.499392  1
  B  B19  1  0.334067  0.667034  0.499392  1
  B  B20  1  0.668127  0.334063  0.727653  1
  B  B21  1  0.331873  0.665937  0.727653  1
  B  B22  1  0.329184  0.664593  0.270935  1
  B  B23  1  0.670816  0.335407  0.270935  1
