# generated using pymatgen
data_Tb2Tm3InSb2
_symmetry_space_group_name_H-M   'P 1'
_cell_length_a   8.95911700
_cell_length_b   8.92290224
_cell_length_c   6.43908700
_cell_angle_alpha   90.00000000
_cell_angle_beta   90.00000000
_cell_angle_gamma   119.86637462
_symmetry_Int_Tables_number   1
_chemical_formula_structural   Tb2Tm3InSb2
_chemical_formula_sum   'Tb4 Tm6 In2 Sb4'
_cell_volume   446.38487518
_cell_formula_units_Z   2
loop_
 _symmetry_equiv_pos_site_id
 _symmetry_equiv_pos_as_xyz
  1  'x, y, z'
loop_
 _atom_site_type_symbol
 _atom_site_label
 _atom_site_symmetry_multiplicity
 _atom_site_fract_x
 _atom_site_fract_y
 _atom_site_fract_z
 _atom_site_occupancy
  Tb  Tb0  1  0.002853  0.760657  0.750000  1
  Tb  Tb1  1  0.002853  0.242197  0.250000  1
  Tb  Tb2  1  0.757343  0.758778  0.250000  1
  Tb  Tb3  1  0.757343  0.998566  0.750000  1
  Tm  Tm4  1  0.241818  0.237666  0.750000  1
  Tm  Tm5  1  0.241818  0.004153  0.250000  1
  Tm  Tm6  1  0.333891  0.666946  0.500000  1
  Tm  Tm7  1  0.663140  0.331570  0.000000  1
  Tm  Tm8  1  0.663140  0.331570  0.500000  1
  Tm  Tm9  1  0.333891  0.666946  0.000000  1
  In  In10  1  0.395911  0.999327  0.750000  1
  In  In11  1  0.395911  0.396584  0.250000  1
  Sb  Sb12  1  0.000343  0.608150  0.250000  1
  Sb  Sb13  1  0.000343  0.392193  0.750000  1
  Sb  Sb14  1  0.604699  0.604351  0.750000  1
  Sb  Sb15  1  0.604699  0.000348  0.250000  1
