# generated using pymatgen
data_Dy9YTcIr3
_symmetry_space_group_name_H-M   'P 1'
_cell_length_a   6.44851897
_cell_length_b   7.29112382
_cell_length_c   8.54167494
_cell_angle_alpha   96.61401665
_cell_angle_beta   112.83531632
_cell_angle_gamma   90.13550849
_symmetry_Int_Tables_number   1
_chemical_formula_structural   Dy9YTcIr3
_chemical_formula_sum   'Dy9 Y1 Tc1 Ir3'
_cell_volume   367.17796483
_cell_formula_units_Z   1
loop_
 _symmetry_equiv_pos_site_id
 _symmetry_equiv_pos_as_xyz
  1  'x, y, z'
loop_
 _atom_site_type_symbol
 _atom_site_label
 _atom_site_symmetry_multiplicity
 _atom_site_fract_x
 _atom_site_fract_y
 _atom_site_fract_z
 _atom_site_occupancy
  Dy  Dy0  1  0.973270  0.416675  0.178498  1
  Dy  Dy1  1  0.206564  0.915595  0.184684  1
  Dy  Dy2  1  0.024321  0.582718  0.812912  1
  Dy  Dy3  1  0.212645  0.184660  0.562931  1
  Dy  Dy4  1  0.647098  0.316525  0.438906  1
  Dy  Dy5  1  0.789041  0.815855  0.437741  1
  Dy  Dy6  1  0.352162  0.682210  0.563383  1
  Dy  Dy7  1  0.425534  0.248880  0.000342  1
  Dy  Dy8  1  0.574330  0.750112  0.000090  1
  Y  Y9  1  0.788619  0.082062  0.812798  1
  Tc  Tc10  1  0.609941  0.429707  0.786372  1
  Ir  Ir11  1  0.825523  0.074038  0.224871  1
  Ir  Ir12  1  0.395587  0.576413  0.220107  1
  Ir  Ir13  1  0.175367  0.924547  0.776364  1
