# generated using pymatgen
data_TbTmCr4P7Rh8
_symmetry_space_group_name_H-M   'P 1'
_cell_length_a   3.78198105
_cell_length_b   9.57568069
_cell_length_c   9.63066245
_cell_angle_alpha   119.97238678
_cell_angle_beta   89.97943008
_cell_angle_gamma   90.00531196
_symmetry_Int_Tables_number   1
_chemical_formula_structural   TbTmCr4P7Rh8
_chemical_formula_sum   'Tb1 Tm1 Cr4 P7 Rh8'
_cell_volume   302.13187231
_cell_formula_units_Z   1
loop_
 _symmetry_equiv_pos_site_id
 _symmetry_equiv_pos_as_xyz
  1  'x, y, z'
loop_
 _atom_site_type_symbol
 _atom_site_label
 _atom_site_symmetry_multiplicity
 _atom_site_fract_x
 _atom_site_fract_y
 _atom_site_fract_z
 _atom_site_occupancy
  Tb  Tb0  1  0.261948  0.665247  0.332274  1
  Tm  Tm1  1  0.761540  0.332645  0.666044  1
  Cr  Cr2  1  0.761510  0.108872  0.865969  1
  Cr  Cr3  1  0.762232  0.127994  0.230456  1
  Cr  Cr4  1  0.761670  0.763632  0.896474  1
  Cr  Cr5  1  0.263533  0.880112  0.159324  1
  P  P6  1  0.263901  0.993116  0.006880  1
  P  P7  1  0.761670  0.884804  0.595191  1
  P  P8  1  0.761250  0.404667  0.287351  1
  P  P9  1  0.762774  0.719170  0.123317  1
  P  P10  1  0.262600  0.111839  0.405415  1
  P  P11  1  0.261054  0.587010  0.702733  1
  P  P12  1  0.261465  0.296743  0.882800  1
  Rh  Rh13  1  0.261052  0.847341  0.732437  1
  Rh  Rh14  1  0.261355  0.267674  0.112906  1
  Rh  Rh15  1  0.761050  0.614673  0.559045  1
  Rh  Rh16  1  0.761525  0.443699  0.056273  1
  Rh  Rh17  1  0.762855  0.947395  0.387423  1
  Rh  Rh18  1  0.261074  0.368550  0.437429  1
  Rh  Rh19  1  0.261726  0.563552  0.928224  1
  Rh  Rh20  1  0.262218  0.071264  0.632035  1
