# generated using pymatgen
data_Tm3ZrAl18Ir5Pt
_symmetry_space_group_name_H-M   'P 1'
_cell_length_a   7.53258203
_cell_length_b   7.52317844
_cell_length_c   9.38397186
_cell_angle_alpha   89.96276288
_cell_angle_beta   89.99054920
_cell_angle_gamma   119.62396356
_symmetry_Int_Tables_number   1
_chemical_formula_structural   Tm3ZrAl18Ir5Pt
_chemical_formula_sum   'Tm3 Zr1 Al18 Ir5 Pt1'
_cell_volume   462.26986941
_cell_formula_units_Z   1
loop_
 _symmetry_equiv_pos_site_id
 _symmetry_equiv_pos_as_xyz
  1  'x, y, z'
loop_
 _atom_site_type_symbol
 _atom_site_label
 _atom_site_symmetry_multiplicity
 _atom_site_fract_x
 _atom_site_fract_y
 _atom_site_fract_z
 _atom_site_occupancy
  Tm  Tm0  1  0.005721  0.326922  0.749198  1
  Tm  Tm1  1  0.671496  0.994881  0.250613  1
  Tm  Tm2  1  0.327935  0.005853  0.749212  1
  Zr  Zr3  1  0.994146  0.670551  0.249963  1
  Al  Al4  1  0.126108  0.123188  0.250434  1
  Al  Al5  1  0.871032  0.868884  0.749725  1
  Al  Al6  1  0.002697  0.337841  0.080133  1
  Al  Al7  1  0.003217  0.668501  0.927853  1
  Al  Al8  1  0.000206  0.664537  0.570415  1
  Al  Al9  1  0.332976  0.997668  0.421314  1
  Al  Al10  1  0.000034  0.337579  0.421049  1
  Al  Al11  1  0.664420  0.998891  0.575504  1
  Al  Al12  1  0.664617  0.996164  0.923509  1
  Al  Al13  1  0.328983  0.994754  0.080510  1
  Al  Al14  1  0.333326  0.333365  0.551871  1
  Al  Al15  1  0.669771  0.668006  0.442688  1
  Al  Al16  1  0.669156  0.670115  0.059866  1
  Al  Al17  1  0.330968  0.334211  0.945907  1
  Al  Al18  1  0.336572  0.550580  0.250491  1
  Al  Al19  1  0.661243  0.453412  0.747751  1
  Al  Al20  1  0.553202  0.343789  0.252091  1
  Al  Al21  1  0.450150  0.659214  0.749658  1
  Ir  Ir22  1  0.328867  0.672931  0.000896  1
  Ir  Ir23  1  0.328591  0.672677  0.499240  1
  Ir  Ir24  1  0.672398  0.327012  0.499928  1
  Ir  Ir25  1  0.999762  0.001200  0.999940  1
  Ir  Ir26  1  0.000088  0.000502  0.500181  1
  Pt  Pt27  1  0.672324  0.326772  0.000059  1
