# generated using pymatgen
data_Ac6Er14Si15Os
_symmetry_space_group_name_H-M   'P 1'
_cell_length_a   7.53162826
_cell_length_b   7.90255122
_cell_length_c   14.82928500
_cell_angle_alpha   89.92450997
_cell_angle_beta   90.01505496
_cell_angle_gamma   90.07273300
_symmetry_Int_Tables_number   1
_chemical_formula_structural   Ac6Er14Si15Os
_chemical_formula_sum   'Ac6 Er14 Si15 Os1'
_cell_volume   882.62386501
_cell_formula_units_Z   1
loop_
 _symmetry_equiv_pos_site_id
 _symmetry_equiv_pos_as_xyz
  1  'x, y, z'
loop_
 _atom_site_type_symbol
 _atom_site_label
 _atom_site_symmetry_multiplicity
 _atom_site_fract_x
 _atom_site_fract_y
 _atom_site_fract_z
 _atom_site_occupancy
  Ac  Ac0  1  0.477973  0.322366  0.095910  1
  Ac  Ac1  1  0.979313  0.172646  0.406106  1
  Ac  Ac2  1  0.483825  0.323259  0.408675  1
  Ac  Ac3  1  0.983136  0.172287  0.090443  1
  Ac  Ac4  1  0.516240  0.669053  0.901971  1
  Ac  Ac5  1  0.016388  0.828817  0.594920  1
  Er  Er6  1  0.672139  0.185414  0.629725  1
  Er  Er7  1  0.189708  0.327414  0.870280  1
  Er  Er8  1  0.316487  0.823319  0.123222  1
  Er  Er9  1  0.817575  0.670320  0.375341  1
  Er  Er10  1  0.319735  0.820050  0.377702  1
  Er  Er11  1  0.819779  0.676877  0.122535  1
  Er  Er12  1  0.671233  0.185061  0.872880  1
  Er  Er13  1  0.192424  0.330200  0.627691  1
  Er  Er14  1  0.519910  0.675254  0.606519  1
  Er  Er15  1  0.026205  0.816350  0.894269  1
  Er  Er16  1  0.838873  0.506638  0.748846  1
  Er  Er17  1  0.355182  0.999911  0.750116  1
  Er  Er18  1  0.153345  0.490940  0.249556  1
  Er  Er19  1  0.650771  0.005040  0.250291  1
  Si  Si20  1  0.641951  0.950210  0.467068  1
  Si  Si21  1  0.142523  0.545672  0.033868  1
  Si  Si22  1  0.341330  0.024762  0.958203  1
  Si  Si23  1  0.846297  0.472382  0.542181  1
  Si  Si24  1  0.362475  0.017066  0.544028  1
  Si  Si25  1  0.865672  0.479279  0.955891  1
  Si  Si26  1  0.637372  0.965021  0.037101  1
  Si  Si27  1  0.140954  0.533027  0.461629  1
  Si  Si28  1  0.979543  0.109844  0.753727  1
  Si  Si29  1  0.523238  0.627558  0.249457  1
  Si  Si30  1  0.023028  0.873894  0.249611  1
  Si  Si31  1  0.735343  0.882693  0.754115  1
  Si  Si32  1  0.226208  0.627507  0.747746  1
  Si  Si33  1  0.277269  0.117854  0.250974  1
  Si  Si34  1  0.779800  0.379500  0.249345  1
  Os  Os35  1  0.476752  0.392514  0.748060  1
