# generated using pymatgen
data_AcNd(In2Ir9)2
_symmetry_space_group_name_H-M   'P 1'
_cell_length_a   5.24657600
_cell_length_b   8.94058300
_cell_length_c   8.94058300
_cell_angle_alpha   90.00000000
_cell_angle_beta   90.00000000
_cell_angle_gamma   90.00000000
_symmetry_Int_Tables_number   1
_chemical_formula_structural   AcNd(In2Ir9)2
_chemical_formula_sum   'Ac1 Nd1 In4 Ir18'
_cell_volume   419.37993389
_cell_formula_units_Z   1
loop_
 _symmetry_equiv_pos_site_id
 _symmetry_equiv_pos_as_xyz
  1  'x, y, z'
loop_
 _atom_site_type_symbol
 _atom_site_label
 _atom_site_symmetry_multiplicity
 _atom_site_fract_x
 _atom_site_fract_y
 _atom_site_fract_z
 _atom_site_occupancy
  Ac  Ac0  1  0.000000  0.500000  0.500000  1
  Nd  Nd1  1  0.000000  0.000000  0.000000  1
  In  In2  1  0.000000  0.622627  0.118697  1
  In  In3  1  0.000000  0.377373  0.881303  1
  In  In4  1  0.000000  0.881303  0.622627  1
  In  In5  1  0.000000  0.118697  0.377373  1
  Ir  Ir6  1  0.756151  0.178517  0.680884  1
  Ir  Ir7  1  0.756151  0.821483  0.319116  1
  Ir  Ir8  1  0.756151  0.319116  0.178517  1
  Ir  Ir9  1  0.756151  0.680884  0.821483  1
  Ir  Ir10  1  0.243849  0.821483  0.319116  1
  Ir  Ir11  1  0.243849  0.178517  0.680884  1
  Ir  Ir12  1  0.243849  0.680884  0.821483  1
  Ir  Ir13  1  0.243849  0.319116  0.178517  1
  Ir  Ir14  1  0.500000  0.705220  0.558498  1
  Ir  Ir15  1  0.500000  0.294780  0.441502  1
  Ir  Ir16  1  0.500000  0.797078  0.058319  1
  Ir  Ir17  1  0.500000  0.202922  0.941681  1
  Ir  Ir18  1  0.500000  0.558498  0.294780  1
  Ir  Ir19  1  0.500000  0.441502  0.705220  1
  Ir  Ir20  1  0.500000  0.058319  0.202922  1
  Ir  Ir21  1  0.500000  0.941681  0.797078  1
  Ir  Ir22  1  0.500000  0.000000  0.500000  1
  Ir  Ir23  1  0.500000  0.500000  0.000000  1
