# generated using pymatgen
data_Dy3BiRh3Pb2
_symmetry_space_group_name_H-M   'P 1'
_cell_length_a   7.72118592
_cell_length_b   7.75303179
_cell_length_c   3.88177600
_cell_angle_alpha   90.00000000
_cell_angle_beta   90.00000000
_cell_angle_gamma   120.13652400
_symmetry_Int_Tables_number   1
_chemical_formula_structural   Dy3BiRh3Pb2
_chemical_formula_sum   'Dy3 Bi1 Rh3 Pb2'
_cell_volume   200.96367774
_cell_formula_units_Z   1
loop_
 _symmetry_equiv_pos_site_id
 _symmetry_equiv_pos_as_xyz
  1  'x, y, z'
loop_
 _atom_site_type_symbol
 _atom_site_label
 _atom_site_symmetry_multiplicity
 _atom_site_fract_x
 _atom_site_fract_y
 _atom_site_fract_z
 _atom_site_occupancy
  Dy  Dy0  1  0.591870  0.995736  0.000000  1
  Dy  Dy1  1  0.408130  0.403866  0.000000  1
  Dy  Dy2  1  0.000000  0.600255  0.000000  1
  Bi  Bi3  1  0.000000  0.264688  0.500000  1
  Rh  Rh4  1  0.667821  0.334629  0.500000  1
  Rh  Rh5  1  0.000000  0.002391  0.000000  1
  Rh  Rh6  1  0.332179  0.666808  0.500000  1
  Pb  Pb7  1  0.266195  0.998911  0.500000  1
  Pb  Pb8  1  0.733805  0.732716  0.500000  1
