# generated using pymatgen
data_Tb2Ho2Ga16NiRu2
_symmetry_space_group_name_H-M   'P 1'
_cell_length_a   6.12332000
_cell_length_b   6.11688600
_cell_length_c   11.20993800
_cell_angle_alpha   90.00000000
_cell_angle_beta   90.00000000
_cell_angle_gamma   90.00000000
_symmetry_Int_Tables_number   1
_chemical_formula_structural   Tb2Ho2Ga16NiRu2
_chemical_formula_sum   'Tb2 Ho2 Ga16 Ni1 Ru2'
_cell_volume   419.87551853
_cell_formula_units_Z   1
loop_
 _symmetry_equiv_pos_site_id
 _symmetry_equiv_pos_as_xyz
  1  'x, y, z'
loop_
 _atom_site_type_symbol
 _atom_site_label
 _atom_site_symmetry_multiplicity
 _atom_site_fract_x
 _atom_site_fract_y
 _atom_site_fract_z
 _atom_site_occupancy
  Tb  Tb0  1  0.500000  0.000000  0.805186  1
  Tb  Tb1  1  0.500000  0.000000  0.194814  1
  Ho  Ho2  1  0.000000  0.500000  0.807459  1
  Ho  Ho3  1  0.000000  0.500000  0.192541  1
  Ga  Ga4  1  0.244761  0.252300  0.617381  1
  Ga  Ga5  1  0.755239  0.747700  0.617381  1
  Ga  Ga6  1  0.755239  0.252300  0.617381  1
  Ga  Ga7  1  0.244761  0.747700  0.617381  1
  Ga  Ga8  1  0.755239  0.747700  0.382619  1
  Ga  Ga9  1  0.244761  0.252300  0.382619  1
  Ga  Ga10  1  0.244761  0.747700  0.382619  1
  Ga  Ga11  1  0.755239  0.252300  0.382619  1
  Ga  Ga12  1  0.286639  0.286801  0.000000  1
  Ga  Ga13  1  0.713361  0.713199  0.000000  1
  Ga  Ga14  1  0.713361  0.286801  0.000000  1
  Ga  Ga15  1  0.286639  0.713199  0.000000  1
  Ga  Ga16  1  0.500000  0.500000  0.802933  1
  Ga  Ga17  1  0.500000  0.500000  0.197067  1
  Ga  Ga18  1  0.000000  0.000000  0.777737  1
  Ga  Ga19  1  0.000000  0.000000  0.222263  1
  Ni  Ni20  1  0.000000  0.500000  0.500000  1
  Ru  Ru21  1  0.500000  0.000000  0.500000  1
  Ru  Ru22  1  0.000000  0.000000  0.000000  1
