# generated using pymatgen
data_Hf3Ga3FePd2
_symmetry_space_group_name_H-M   'P 1'
_cell_length_a   7.22656900
_cell_length_b   7.22656846
_cell_length_c   6.66455000
_cell_angle_alpha   90.00000000
_cell_angle_beta   90.00000000
_cell_angle_gamma   119.99999790
_symmetry_Int_Tables_number   1
_chemical_formula_structural   Hf3Ga3FePd2
_chemical_formula_sum   'Hf6 Ga6 Fe2 Pd4'
_cell_volume   301.41561426
_cell_formula_units_Z   2
loop_
 _symmetry_equiv_pos_site_id
 _symmetry_equiv_pos_as_xyz
  1  'x, y, z'
loop_
 _atom_site_type_symbol
 _atom_site_label
 _atom_site_symmetry_multiplicity
 _atom_site_fract_x
 _atom_site_fract_y
 _atom_site_fract_z
 _atom_site_occupancy
  Hf  Hf0  1  0.747408  0.054122  0.000000  1
  Hf  Hf1  1  0.306713  0.252592  0.000000  1
  Hf  Hf2  1  0.945878  0.693287  0.000000  1
  Hf  Hf3  1  0.310162  0.253865  0.500000  1
  Hf  Hf4  1  0.746135  0.056297  0.500000  1
  Hf  Hf5  1  0.943703  0.689838  0.500000  1
  Ga  Ga6  1  0.608185  0.665938  0.749839  1
  Ga  Ga7  1  0.057753  0.391815  0.749839  1
  Ga  Ga8  1  0.334062  0.942247  0.749839  1
  Ga  Ga9  1  0.608185  0.665938  0.250161  1
  Ga  Ga10  1  0.057753  0.391815  0.250161  1
  Ga  Ga11  1  0.334062  0.942247  0.250161  1
  Fe  Fe12  1  0.000000  0.000000  0.252028  1
  Fe  Fe13  1  0.000000  0.000000  0.747972  1
  Pd  Pd14  1  0.333333  0.666667  0.000000  1
  Pd  Pd15  1  0.333333  0.666667  0.500000  1
  Pd  Pd16  1  0.666667  0.333333  0.754420  1
  Pd  Pd17  1  0.666667  0.333333  0.245580  1
