# generated using pymatgen
data_Zr4B8Mo3Ru7
_symmetry_space_group_name_H-M   'P 1'
_cell_length_a   3.08753800
_cell_length_b   8.73618241
_cell_length_c   10.02557366
_cell_angle_alpha   90.45894858
_cell_angle_beta   90.00000000
_cell_angle_gamma   90.00000000
_symmetry_Int_Tables_number   1
_chemical_formula_structural   Zr4B8Mo3Ru7
_chemical_formula_sum   'Zr4 B8 Mo3 Ru7'
_cell_volume   270.41408208
_cell_formula_units_Z   1
loop_
 _symmetry_equiv_pos_site_id
 _symmetry_equiv_pos_as_xyz
  1  'x, y, z'
loop_
 _atom_site_type_symbol
 _atom_site_label
 _atom_site_symmetry_multiplicity
 _atom_site_fract_x
 _atom_site_fract_y
 _atom_site_fract_z
 _atom_site_occupancy
  Zr  Zr0  1  0.500000  0.836400  0.180675  1
  Zr  Zr1  1  0.500000  0.162908  0.821072  1
  Zr  Zr2  1  0.500000  0.661639  0.681879  1
  Zr  Zr3  1  0.500000  0.338988  0.314819  1
  B  B4  1  0.500000  0.966204  0.587870  1
  B  B5  1  0.500000  0.031131  0.412624  1
  B  B6  1  0.500000  0.852275  0.902024  1
  B  B7  1  0.500000  0.149758  0.099370  1
  B  B8  1  0.500000  0.648758  0.399570  1
  B  B9  1  0.500000  0.351259  0.599008  1
  B  B10  1  0.500000  0.466058  0.914181  1
  B  B11  1  0.500000  0.533161  0.084484  1
  Mo  Mo12  1  0.000000  0.663419  0.951676  1
  Mo  Mo13  1  0.000000  0.335688  0.047186  1
  Mo  Mo14  1  0.000000  0.840322  0.454532  1
  Ru  Ru15  1  0.000000  0.165762  0.548698  1
  Ru  Ru16  1  0.000000  0.999939  0.001782  1
  Ru  Ru17  1  0.000000  0.407742  0.758308  1
  Ru  Ru18  1  0.000000  0.590378  0.239130  1
  Ru  Ru19  1  0.000000  0.497138  0.499389  1
  Ru  Ru20  1  0.000000  0.912392  0.738790  1
  Ru  Ru21  1  0.000000  0.088680  0.262933  1
