# generated using pymatgen
data_Tb2YMgCd2AgSn2
_symmetry_space_group_name_H-M   'P 1'
_cell_length_a   7.49799318
_cell_length_b   7.49362882
_cell_length_c   4.56595000
_cell_angle_alpha   90.00000000
_cell_angle_beta   90.00000000
_cell_angle_gamma   120.29181220
_symmetry_Int_Tables_number   1
_chemical_formula_structural   Tb2YMgCd2AgSn2
_chemical_formula_sum   'Tb2 Y1 Mg1 Cd2 Ag1 Sn2'
_cell_volume   221.52076214
_cell_formula_units_Z   1
loop_
 _symmetry_equiv_pos_site_id
 _symmetry_equiv_pos_as_xyz
  1  'x, y, z'
loop_
 _atom_site_type_symbol
 _atom_site_label
 _atom_site_symmetry_multiplicity
 _atom_site_fract_x
 _atom_site_fract_y
 _atom_site_fract_z
 _atom_site_occupancy
  Tb  Tb0  1  0.001515  0.583399  0.000000  1
  Tb  Tb1  1  0.413656  0.413651  0.000000  1
  Y  Y2  1  0.583723  0.001552  0.000000  1
  Mg  Mg3  1  0.768871  0.768917  0.500000  1
  Cd  Cd4  1  0.237372  0.998712  0.500000  1
  Cd  Cd5  1  0.998727  0.237450  0.500000  1
  Ag  Ag6  1  0.992397  0.992422  0.000000  1
  Sn  Sn7  1  0.337266  0.666861  0.500000  1
  Sn  Sn8  1  0.666473  0.337034  0.500000  1
