# generated using pymatgen
data_Dy2Er2Al17GeIr6
_symmetry_space_group_name_H-M   'P 1'
_cell_length_a   7.54240514
_cell_length_b   7.54240475
_cell_length_c   9.44373100
_cell_angle_alpha   90.00000000
_cell_angle_beta   90.00000000
_cell_angle_gamma   119.59599503
_symmetry_Int_Tables_number   1
_chemical_formula_structural   Dy2Er2Al17GeIr6
_chemical_formula_sum   'Dy2 Er2 Al17 Ge1 Ir6'
_cell_volume   467.14058116
_cell_formula_units_Z   1
loop_
 _symmetry_equiv_pos_site_id
 _symmetry_equiv_pos_as_xyz
  1  'x, y, z'
loop_
 _atom_site_type_symbol
 _atom_site_label
 _atom_site_symmetry_multiplicity
 _atom_site_fract_x
 _atom_site_fract_y
 _atom_site_fract_z
 _atom_site_occupancy
  Dy  Dy0  1  0.994758  0.675885  0.750000  1
  Dy  Dy1  1  0.675885  0.994758  0.750000  1
  Er  Er2  1  0.003558  0.328594  0.250000  1
  Er  Er3  1  0.328594  0.003558  0.250000  1
  Al  Al4  1  0.872125  0.872125  0.250000  1
  Al  Al5  1  0.000317  0.337660  0.573374  1
  Al  Al6  1  0.998619  0.664735  0.424131  1
  Al  Al7  1  0.998619  0.664735  0.075869  1
  Al  Al8  1  0.337660  0.000317  0.926626  1
  Al  Al9  1  0.000317  0.337660  0.926626  1
  Al  Al10  1  0.664735  0.998619  0.075869  1
  Al  Al11  1  0.664735  0.998619  0.424131  1
  Al  Al12  1  0.337660  0.000317  0.573374  1
  Al  Al13  1  0.332467  0.332467  0.059551  1
  Al  Al14  1  0.663922  0.663922  0.948625  1
  Al  Al15  1  0.663922  0.663922  0.551375  1
  Al  Al16  1  0.332467  0.332467  0.440449  1
  Al  Al17  1  0.337233  0.553190  0.750000  1
  Al  Al18  1  0.660880  0.450827  0.250000  1
  Al  Al19  1  0.553190  0.337233  0.750000  1
  Al  Al20  1  0.450827  0.660880  0.250000  1
  Ge  Ge21  1  0.135548  0.135548  0.750000  1
  Ir  Ir22  1  0.669754  0.326529  0.499859  1
  Ir  Ir23  1  0.326529  0.669754  0.499859  1
  Ir  Ir24  1  0.326529  0.669754  0.000141  1
  Ir  Ir25  1  0.669754  0.326529  0.000141  1
  Ir  Ir26  1  0.999700  0.999700  0.500671  1
  Ir  Ir27  1  0.999700  0.999700  0.999329  1
