# generated using pymatgen
data_VCo20NiB6W
_symmetry_space_group_name_H-M   'P 1'
_cell_length_a   7.38127144
_cell_length_b   7.38127049
_cell_length_c   7.38127100
_cell_angle_alpha   60.00000218
_cell_angle_beta   60.00000647
_cell_angle_gamma   59.99999744
_symmetry_Int_Tables_number   1
_chemical_formula_structural   VCo20NiB6W
_chemical_formula_sum   'V1 Co20 Ni1 B6 W1'
_cell_volume   284.36652427
_cell_formula_units_Z   1
loop_
 _symmetry_equiv_pos_site_id
 _symmetry_equiv_pos_as_xyz
  1  'x, y, z'
loop_
 _atom_site_type_symbol
 _atom_site_label
 _atom_site_symmetry_multiplicity
 _atom_site_fract_x
 _atom_site_fract_y
 _atom_site_fract_z
 _atom_site_occupancy
  V  V0  1  0.750000  0.750000  0.750000  1
  Co  Co1  1  0.850529  0.383158  0.383158  1
  Co  Co2  1  0.383158  0.850529  0.383158  1
  Co  Co3  1  0.383158  0.383158  0.850529  1
  Co  Co4  1  0.383158  0.383158  0.383158  1
  Co  Co5  1  0.138263  0.620578  0.620578  1
  Co  Co6  1  0.620578  0.138263  0.620578  1
  Co  Co7  1  0.620578  0.620578  0.138263  1
  Co  Co8  1  0.620578  0.620578  0.620578  1
  Co  Co9  1  0.660492  0.000054  0.000054  1
  Co  Co10  1  0.660492  0.000054  0.339401  1
  Co  Co11  1  0.660492  0.339401  0.000054  1
  Co  Co12  1  0.000054  0.660492  0.339401  1
  Co  Co13  1  0.000054  0.660492  0.000054  1
  Co  Co14  1  0.339401  0.660492  0.000054  1
  Co  Co15  1  0.000054  0.339401  0.660492  1
  Co  Co16  1  0.339401  0.000054  0.660492  1
  Co  Co17  1  0.000054  0.000054  0.660492  1
  Co  Co18  1  0.339401  0.000054  0.000054  1
  Co  Co19  1  0.000054  0.339401  0.000054  1
  Co  Co20  1  0.000054  0.000054  0.339401  1
  Ni  Ni21  1  0.000000  0.000000  0.000000  1
  B  B22  1  0.725169  0.274831  0.274831  1
  B  B23  1  0.725169  0.274831  0.725169  1
  B  B24  1  0.725169  0.725169  0.274831  1
  B  B25  1  0.274831  0.725169  0.725169  1
  B  B26  1  0.274831  0.725169  0.274831  1
  B  B27  1  0.274831  0.274831  0.725169  1
  W  W28  1  0.250000  0.250000  0.250000  1
