# generated using pymatgen
data_Pr2MnCo16
_symmetry_space_group_name_H-M   'P 1'
_cell_length_a   6.34063937
_cell_length_b   6.34063921
_cell_length_c   6.34063932
_cell_angle_alpha   83.22805966
_cell_angle_beta   83.22806133
_cell_angle_gamma   83.22806242
_symmetry_Int_Tables_number   1
_chemical_formula_structural   Pr2MnCo16
_chemical_formula_sum   'Pr2 Mn1 Co16'
_cell_volume   249.97039485
_cell_formula_units_Z   1
loop_
 _symmetry_equiv_pos_site_id
 _symmetry_equiv_pos_as_xyz
  1  'x, y, z'
loop_
 _atom_site_type_symbol
 _atom_site_label
 _atom_site_symmetry_multiplicity
 _atom_site_fract_x
 _atom_site_fract_y
 _atom_site_fract_z
 _atom_site_occupancy
  Pr  Pr0  1  0.655573  0.655573  0.655573  1
  Pr  Pr1  1  0.346274  0.346274  0.346274  1
  Mn  Mn2  1  0.095771  0.095771  0.095771  1
  Co  Co3  1  0.715978  0.283706  0.998775  1
  Co  Co4  1  0.998775  0.715978  0.283706  1
  Co  Co5  1  0.283706  0.998775  0.715978  1
  Co  Co6  1  0.998775  0.283706  0.715978  1
  Co  Co7  1  0.715978  0.998775  0.283706  1
  Co  Co8  1  0.283706  0.715978  0.998775  1
  Co  Co9  1  0.344450  0.344450  0.849282  1
  Co  Co10  1  0.849282  0.344450  0.344450  1
  Co  Co11  1  0.344450  0.849282  0.344450  1
  Co  Co12  1  0.658511  0.658511  0.150629  1
  Co  Co13  1  0.150629  0.658511  0.658511  1
  Co  Co14  1  0.658511  0.150629  0.658511  1
  Co  Co15  1  0.997554  0.997554  0.504635  1
  Co  Co16  1  0.504635  0.997554  0.997554  1
  Co  Co17  1  0.997554  0.504635  0.997554  1
  Co  Co18  1  0.899890  0.899890  0.899890  1
