# generated using pymatgen
data_Ga2Br3
_symmetry_space_group_name_H-M   'P 1'
_cell_length_a   11.80330100
_cell_length_b   7.19248679
_cell_length_c   8.77821614
_cell_angle_alpha   89.17941686
_cell_angle_beta   90.00000000
_cell_angle_gamma   90.00000000
_symmetry_Int_Tables_number   1
_chemical_formula_structural   Ga2Br3
_chemical_formula_sum   'Ga8 Br12'
_cell_volume   745.15099047
_cell_formula_units_Z   4
loop_
 _symmetry_equiv_pos_site_id
 _symmetry_equiv_pos_as_xyz
  1  'x, y, z'
loop_
 _atom_site_type_symbol
 _atom_site_label
 _atom_site_symmetry_multiplicity
 _atom_site_fract_x
 _atom_site_fract_y
 _atom_site_fract_z
 _atom_site_occupancy
  Ga  Ga0  1  0.500000  0.000000  0.500000  1
  Ga  Ga1  1  0.500000  0.500000  0.000000  1
  Ga  Ga2  1  0.000000  0.000000  0.500000  1
  Ga  Ga3  1  0.000000  0.500000  0.000000  1
  Ga  Ga4  1  0.250000  0.036662  0.966995  1
  Ga  Ga5  1  0.750000  0.860475  0.765687  1
  Ga  Ga6  1  0.750000  0.963338  0.033005  1
  Ga  Ga7  1  0.250000  0.139525  0.234313  1
  Br  Br8  1  0.590688  0.665790  0.691183  1
  Br  Br9  1  0.409312  0.334210  0.308817  1
  Br  Br10  1  0.909312  0.665790  0.691183  1
  Br  Br11  1  0.750000  0.295458  0.071001  1
  Br  Br12  1  0.087733  0.155904  0.822883  1
  Br  Br13  1  0.587733  0.844096  0.177117  1
  Br  Br14  1  0.912267  0.844096  0.177117  1
  Br  Br15  1  0.412267  0.155904  0.822883  1
  Br  Br16  1  0.090688  0.334210  0.308817  1
  Br  Br17  1  0.750000  0.113676  0.578129  1
  Br  Br18  1  0.250000  0.886324  0.421871  1
  Br  Br19  1  0.250000  0.704542  0.928999  1
