# generated using pymatgen
data_TbErPa2(Al3Ir)6
_symmetry_space_group_name_H-M   'P 1'
_cell_length_a   7.59989200
_cell_length_b   7.60411208
_cell_length_c   9.37166000
_cell_angle_alpha   90.00000000
_cell_angle_beta   90.00000000
_cell_angle_gamma   119.69637874
_symmetry_Int_Tables_number   1
_chemical_formula_structural   TbErPa2(Al3Ir)6
_chemical_formula_sum   'Tb1 Er1 Pa2 Al18 Ir6'
_cell_volume   470.46106987
_cell_formula_units_Z   1
loop_
 _symmetry_equiv_pos_site_id
 _symmetry_equiv_pos_as_xyz
  1  'x, y, z'
loop_
 _atom_site_type_symbol
 _atom_site_label
 _atom_site_symmetry_multiplicity
 _atom_site_fract_x
 _atom_site_fract_y
 _atom_site_fract_z
 _atom_site_occupancy
  Tb  Tb0  1  0.330579  0.006310  0.750000  1
  Er  Er1  1  0.669585  0.993746  0.250000  1
  Pa  Pa2  1  0.997551  0.671002  0.250000  1
  Pa  Pa3  1  0.002464  0.329044  0.750000  1
  Al  Al4  1  0.129998  0.127271  0.250000  1
  Al  Al5  1  0.869656  0.872608  0.750000  1
  Al  Al6  1  0.000306  0.331451  0.077482  1
  Al  Al7  1  0.999337  0.668213  0.922751  1
  Al  Al8  1  0.999337  0.668213  0.577249  1
  Al  Al9  1  0.338141  0.003186  0.425298  1
  Al  Al10  1  0.000306  0.331451  0.422518  1
  Al  Al11  1  0.662190  0.996819  0.574171  1
  Al  Al12  1  0.662190  0.996819  0.925829  1
  Al  Al13  1  0.338141  0.003186  0.074702  1
  Al  Al14  1  0.335288  0.333488  0.553358  1
  Al  Al15  1  0.664715  0.666777  0.446367  1
  Al  Al16  1  0.664715  0.666777  0.053633  1
  Al  Al17  1  0.335288  0.333488  0.946642  1
  Al  Al18  1  0.340689  0.548004  0.250000  1
  Al  Al19  1  0.659585  0.452389  0.750000  1
  Al  Al20  1  0.548443  0.340786  0.250000  1
  Al  Al21  1  0.451676  0.659080  0.750000  1
  Ir  Ir22  1  0.676106  0.329885  0.999865  1
  Ir  Ir23  1  0.324045  0.670090  0.000405  1
  Ir  Ir24  1  0.324045  0.670090  0.499595  1
  Ir  Ir25  1  0.676106  0.329885  0.500135  1
  Ir  Ir26  1  0.999759  0.999971  0.000176  1
  Ir  Ir27  1  0.999759  0.999971  0.499824  1
