# generated using pymatgen
data_Dy10BeSi16
_symmetry_space_group_name_H-M   'P 1'
_cell_length_a   6.62760008
_cell_length_b   8.28914375
_cell_length_c   11.00001900
_cell_angle_alpha   112.13428329
_cell_angle_beta   107.53293874
_cell_angle_gamma   89.99999810
_symmetry_Int_Tables_number   1
_chemical_formula_structural   Dy10BeSi16
_chemical_formula_sum   'Dy10 Be1 Si16'
_cell_volume   529.34333207
_cell_formula_units_Z   1
loop_
 _symmetry_equiv_pos_site_id
 _symmetry_equiv_pos_as_xyz
  1  'x, y, z'
loop_
 _atom_site_type_symbol
 _atom_site_label
 _atom_site_symmetry_multiplicity
 _atom_site_fract_x
 _atom_site_fract_y
 _atom_site_fract_z
 _atom_site_occupancy
  Dy  Dy0  1  0.239088  0.244014  0.000000  1
  Dy  Dy1  1  0.239088  0.755986  0.000000  1
  Dy  Dy2  1  0.832565  0.352911  0.201289  1
  Dy  Dy3  1  0.832565  0.848379  0.201289  1
  Dy  Dy4  1  0.437283  0.448365  0.398821  1
  Dy  Dy5  1  0.437283  0.950456  0.398821  1
  Dy  Dy6  1  0.038462  0.049544  0.601180  1
  Dy  Dy7  1  0.038462  0.551635  0.601180  1
  Dy  Dy8  1  0.631276  0.151621  0.798710  1
  Dy  Dy9  1  0.631276  0.647090  0.798710  1
  Be  Be10  1  0.568394  0.000000  0.000000  1
  Si  Si11  1  0.899788  0.000000  0.000000  1
  Si  Si12  1  0.611305  0.500000  0.000000  1
  Si  Si13  1  0.121711  0.580492  0.160983  1
  Si  Si14  1  0.499368  0.601035  0.202069  1
  Si  Si15  1  0.503027  0.098352  0.196704  1
  Si  Si16  1  0.160077  0.114722  0.229443  1
  Si  Si17  1  0.816809  0.199450  0.398901  1
  Si  Si18  1  0.102331  0.698993  0.397986  1
  Si  Si19  1  0.757190  0.716636  0.433272  1
  Si  Si20  1  0.323918  0.283364  0.566728  1
  Si  Si21  1  0.704345  0.301007  0.602013  1
  Si  Si22  1  0.417909  0.800550  0.601099  1
  Si  Si23  1  0.930634  0.885278  0.770557  1
  Si  Si24  1  0.306322  0.901647  0.803295  1
  Si  Si25  1  0.297299  0.398965  0.797932  1
  Si  Si26  1  0.960728  0.419508  0.839017  1
