# generated using pymatgen
data_Yb4Pr3Dy(Cu2Sn5)2
_symmetry_space_group_name_H-M   'P 1'
_cell_length_a   4.46992500
_cell_length_b   8.77155700
_cell_length_c   14.34537300
_cell_angle_alpha   90.00000000
_cell_angle_beta   90.00000000
_cell_angle_gamma   90.00000000
_symmetry_Int_Tables_number   1
_chemical_formula_structural   Yb4Pr3Dy(Cu2Sn5)2
_chemical_formula_sum   'Yb4 Pr3 Dy1 Cu4 Sn10'
_cell_volume   562.45628125
_cell_formula_units_Z   1
loop_
 _symmetry_equiv_pos_site_id
 _symmetry_equiv_pos_as_xyz
  1  'x, y, z'
loop_
 _atom_site_type_symbol
 _atom_site_label
 _atom_site_symmetry_multiplicity
 _atom_site_fract_x
 _atom_site_fract_y
 _atom_site_fract_z
 _atom_site_occupancy
  Yb  Yb0  1  0.500000  0.793213  0.746647  1
  Yb  Yb1  1  0.000000  0.206952  0.755703  1
  Yb  Yb2  1  0.000000  0.206952  0.244297  1
  Yb  Yb3  1  0.500000  0.793213  0.253353  1
  Pr  Pr4  1  0.000000  0.304904  0.500000  1
  Pr  Pr5  1  0.500000  0.143174  0.000000  1
  Pr  Pr6  1  0.000000  0.852629  0.500000  1
  Dy  Dy7  1  0.500000  0.695336  0.000000  1
  Cu  Cu8  1  0.500000  0.377583  0.649986  1
  Cu  Cu9  1  0.000000  0.623734  0.855302  1
  Cu  Cu10  1  0.000000  0.623734  0.144698  1
  Cu  Cu11  1  0.500000  0.377583  0.350014  1
  Sn  Sn12  1  0.500000  0.080289  0.395976  1
  Sn  Sn13  1  0.000000  0.558558  0.667475  1
  Sn  Sn14  1  0.000000  0.417342  0.000000  1
  Sn  Sn15  1  0.500000  0.444608  0.163411  1
  Sn  Sn16  1  0.500000  0.583123  0.500000  1
  Sn  Sn17  1  0.500000  0.444608  0.836589  1
  Sn  Sn18  1  0.000000  0.916810  0.897560  1
  Sn  Sn19  1  0.000000  0.558558  0.332525  1
  Sn  Sn20  1  0.500000  0.080289  0.604024  1
  Sn  Sn21  1  0.000000  0.916810  0.102440  1
