# generated using pymatgen
data_Tb7Th7Ru5Rh
_symmetry_space_group_name_H-M   'P 1'
_cell_length_a   9.86363900
_cell_length_b   9.75163343
_cell_length_c   6.37558578
_cell_angle_alpha   90.45257590
_cell_angle_beta   90.00000000
_cell_angle_gamma   120.38069124
_symmetry_Int_Tables_number   1
_chemical_formula_structural   Tb7Th7Ru5Rh
_chemical_formula_sum   'Tb7 Th7 Ru5 Rh1'
_cell_volume   529.01531588
_cell_formula_units_Z   1
loop_
 _symmetry_equiv_pos_site_id
 _symmetry_equiv_pos_as_xyz
  1  'x, y, z'
loop_
 _atom_site_type_symbol
 _atom_site_label
 _atom_site_symmetry_multiplicity
 _atom_site_fract_x
 _atom_site_fract_y
 _atom_site_fract_z
 _atom_site_occupancy
  Tb  Tb0  1  0.874450  0.748901  0.733183  1
  Tb  Tb1  1  0.538330  0.463850  0.448631  1
  Tb  Tb2  1  0.925520  0.463850  0.448631  1
  Tb  Tb3  1  0.538134  0.076267  0.444512  1
  Tb  Tb4  1  0.464862  0.538371  0.946696  1
  Tb  Tb5  1  0.073509  0.538371  0.946696  1
  Tb  Tb6  1  0.462916  0.925830  0.943992  1
  Th  Th7  1  0.334173  0.668347  0.473634  1
  Th  Th8  1  0.667592  0.335184  0.978201  1
  Th  Th9  1  0.124138  0.873121  0.233575  1
  Th  Th10  1  0.748983  0.873121  0.233575  1
  Th  Th11  1  0.125037  0.250073  0.229218  1
  Th  Th12  1  0.865486  0.120857  0.732980  1
  Th  Th13  1  0.255371  0.120857  0.732980  1
  Ru  Ru14  1  0.821481  0.183800  0.193639  1
  Ru  Ru15  1  0.362320  0.183800  0.193639  1
  Ru  Ru16  1  0.816069  0.632136  0.199260  1
  Ru  Ru17  1  0.193990  0.818963  0.686926  1
  Ru  Ru18  1  0.624972  0.818963  0.686926  1
  Rh  Rh19  1  0.182668  0.365338  0.699670  1
