# generated using pymatgen
data_Dy12Co4NiSn
_symmetry_space_group_name_H-M   'P 1'
_cell_length_a   8.30169493
_cell_length_b   8.30169515
_cell_length_c   8.30169533
_cell_angle_alpha   107.13578284
_cell_angle_beta   110.44718004
_cell_angle_gamma   110.85591312
_symmetry_Int_Tables_number   1
_chemical_formula_structural   Dy12Co4NiSn
_chemical_formula_sum   'Dy12 Co4 Ni1 Sn1'
_cell_volume   439.87971593
_cell_formula_units_Z   1
loop_
 _symmetry_equiv_pos_site_id
 _symmetry_equiv_pos_as_xyz
  1  'x, y, z'
loop_
 _atom_site_type_symbol
 _atom_site_label
 _atom_site_symmetry_multiplicity
 _atom_site_fract_x
 _atom_site_fract_y
 _atom_site_fract_z
 _atom_site_occupancy
  Dy  Dy0  1  0.476979  0.291883  0.185097  1
  Dy  Dy1  1  0.106786  0.291883  0.814903  1
  Dy  Dy2  1  0.893214  0.708117  0.185097  1
  Dy  Dy3  1  0.523021  0.708117  0.814903  1
  Dy  Dy4  1  0.305497  0.620249  0.314752  1
  Dy  Dy5  1  0.305497  0.990746  0.685248  1
  Dy  Dy6  1  0.694503  0.379751  0.685248  1
  Dy  Dy7  1  0.694503  0.009254  0.314752  1
  Dy  Dy8  1  0.196371  0.210905  0.407276  1
  Dy  Dy9  1  0.803629  0.789095  0.592724  1
  Dy  Dy10  1  0.196371  0.789095  0.985465  1
  Dy  Dy11  1  0.803629  0.210905  0.014535  1
  Co  Co12  1  0.500000  0.612433  0.112433  1
  Co  Co13  1  0.500000  0.387567  0.887567  1
  Co  Co14  1  0.376853  0.000000  0.376853  1
  Co  Co15  1  0.623147  0.000000  0.623147  1
  Ni  Ni16  1  0.000000  0.000000  0.000000  1
  Sn  Sn17  1  0.000000  0.500000  0.500000  1
