# generated using pymatgen
data_Zr3BeRe3P2
_symmetry_space_group_name_H-M   'P 1'
_cell_length_a   6.76457400
_cell_length_b   6.76457369
_cell_length_c   3.48470200
_cell_angle_alpha   90.00000000
_cell_angle_beta   90.00000000
_cell_angle_gamma   120.00001127
_symmetry_Int_Tables_number   1
_chemical_formula_structural   Zr3BeRe3P2
_chemical_formula_sum   'Zr3 Be1 Re3 P2'
_cell_volume   138.09473197
_cell_formula_units_Z   1
loop_
 _symmetry_equiv_pos_site_id
 _symmetry_equiv_pos_as_xyz
  1  'x, y, z'
loop_
 _atom_site_type_symbol
 _atom_site_label
 _atom_site_symmetry_multiplicity
 _atom_site_fract_x
 _atom_site_fract_y
 _atom_site_fract_z
 _atom_site_occupancy
  Zr  Zr0  1  0.399135  0.399135  0.500000  1
  Zr  Zr1  1  0.600865  0.000000  0.500000  1
  Zr  Zr2  1  0.000000  0.600865  0.500000  1
  Be  Be3  1  0.000000  0.000000  0.500000  1
  Re  Re4  1  0.754196  0.754196  0.000000  1
  Re  Re5  1  0.245804  0.000000  0.000000  1
  Re  Re6  1  0.000000  0.245804  0.000000  1
  P  P7  1  0.666667  0.333333  0.000000  1
  P  P8  1  0.333333  0.666667  0.000000  1
