# generated using pymatgen
data_Hf15Zr(Pt2C)4
_symmetry_space_group_name_H-M   'P 1'
_cell_length_a   8.83618279
_cell_length_b   8.82487065
_cell_length_c   8.82487101
_cell_angle_alpha   60.01140907
_cell_angle_beta   59.95758947
_cell_angle_gamma   59.95758921
_symmetry_Int_Tables_number   1
_chemical_formula_structural   Hf15Zr(Pt2C)4
_chemical_formula_sum   'Hf15 Zr1 Pt8 C4'
_cell_volume   486.32332152
_cell_formula_units_Z   1
loop_
 _symmetry_equiv_pos_site_id
 _symmetry_equiv_pos_as_xyz
  1  'x, y, z'
loop_
 _atom_site_type_symbol
 _atom_site_label
 _atom_site_symmetry_multiplicity
 _atom_site_fract_x
 _atom_site_fract_y
 _atom_site_fract_z
 _atom_site_occupancy
  Hf  Hf0  1  0.124964  0.624978  0.624978  1
  Hf  Hf1  1  0.625172  0.124954  0.624701  1
  Hf  Hf2  1  0.625172  0.624701  0.124954  1
  Hf  Hf3  1  0.625079  0.624978  0.624978  1
  Hf  Hf4  1  0.818011  0.817693  0.182292  1
  Hf  Hf5  1  0.182004  0.182292  0.817693  1
  Hf  Hf6  1  0.818011  0.182292  0.817693  1
  Hf  Hf7  1  0.182004  0.817693  0.182292  1
  Hf  Hf8  1  0.182303  0.817697  0.817697  1
  Hf  Hf9  1  0.817512  0.182488  0.182488  1
  Hf  Hf10  1  0.432350  0.432637  0.067718  1
  Hf  Hf11  1  0.067294  0.067718  0.432637  1
  Hf  Hf12  1  0.432350  0.067718  0.432637  1
  Hf  Hf13  1  0.067294  0.432637  0.067718  1
  Hf  Hf14  1  0.067731  0.432269  0.432269  1
  Zr  Zr15  1  0.433087  0.066913  0.066913  1
  Pt  Pt16  1  0.774196  0.408633  0.408633  1
  Pt  Pt17  1  0.408393  0.772223  0.410993  1
  Pt  Pt18  1  0.408393  0.410993  0.772223  1
  Pt  Pt19  1  0.408539  0.408633  0.408633  1
  Pt  Pt20  1  0.475780  0.841042  0.841042  1
  Pt  Pt21  1  0.841423  0.475921  0.841233  1
  Pt  Pt22  1  0.841423  0.841233  0.475921  1
  Pt  Pt23  1  0.842135  0.841042  0.841042  1
  C  C24  1  0.626584  0.125425  0.125425  1
  C  C25  1  0.125115  0.624817  0.124953  1
  C  C26  1  0.125115  0.124953  0.624817  1
  C  C27  1  0.122566  0.125425  0.125425  1
