# generated using pymatgen
data_Er12Ir3Pd
_symmetry_space_group_name_H-M   'P 1'
_cell_length_a   6.37321418
_cell_length_b   7.15567520
_cell_length_c   9.20608400
_cell_angle_alpha   90.00000000
_cell_angle_beta   90.00000000
_cell_angle_gamma   90.02725008
_symmetry_Int_Tables_number   1
_chemical_formula_structural   Er12Ir3Pd
_chemical_formula_sum   'Er12 Ir3 Pd1'
_cell_volume   419.84019736
_cell_formula_units_Z   1
loop_
 _symmetry_equiv_pos_site_id
 _symmetry_equiv_pos_as_xyz
  1  'x, y, z'
loop_
 _atom_site_type_symbol
 _atom_site_label
 _atom_site_symmetry_multiplicity
 _atom_site_fract_x
 _atom_site_fract_y
 _atom_site_fract_z
 _atom_site_occupancy
  Er  Er0  1  0.333553  0.675813  0.059269  1
  Er  Er1  1  0.173811  0.184311  0.440783  1
  Er  Er2  1  0.674385  0.319914  0.562808  1
  Er  Er3  1  0.823760  0.821244  0.935377  1
  Er  Er4  1  0.674385  0.319914  0.937192  1
  Er  Er5  1  0.823760  0.821244  0.564623  1
  Er  Er6  1  0.333553  0.675813  0.440731  1
  Er  Er7  1  0.173811  0.184311  0.059217  1
  Er  Er8  1  0.864905  0.525035  0.250000  1
  Er  Er9  1  0.625630  0.036606  0.250000  1
  Er  Er10  1  0.128246  0.467434  0.750000  1
  Er  Er11  1  0.370207  0.966100  0.750000  1
  Ir  Ir12  1  0.450403  0.384475  0.250000  1
  Ir  Ir13  1  0.956170  0.115985  0.750000  1
  Ir  Ir14  1  0.542997  0.615502  0.750000  1
  Pd  Pd15  1  0.050422  0.886299  0.250000  1
