# generated using pymatgen
data_Tb13Tm2Lu(InRh)4
_symmetry_space_group_name_H-M   'P 1'
_cell_length_a   9.68729207
_cell_length_b   9.67641359
_cell_length_c   9.66592183
_cell_angle_alpha   60.06846347
_cell_angle_beta   59.99057351
_cell_angle_gamma   59.88948527
_symmetry_Int_Tables_number   1
_chemical_formula_structural   Tb13Tm2Lu(InRh)4
_chemical_formula_sum   'Tb13 Tm2 Lu1 In4 Rh4'
_cell_volume   640.43337379
_cell_formula_units_Z   1
loop_
 _symmetry_equiv_pos_site_id
 _symmetry_equiv_pos_as_xyz
  1  'x, y, z'
loop_
 _atom_site_type_symbol
 _atom_site_label
 _atom_site_symmetry_multiplicity
 _atom_site_fract_x
 _atom_site_fract_y
 _atom_site_fract_z
 _atom_site_occupancy
  Tb  Tb0  1  0.647307  0.052578  0.648028  1
  Tb  Tb1  1  0.060100  0.060986  0.439000  1
  Tb  Tb2  1  0.438041  0.436340  0.061651  1
  Tb  Tb3  1  0.652193  0.650702  0.651685  1
  Tb  Tb4  1  0.813202  0.188625  0.187518  1
  Tb  Tb5  1  0.189346  0.812634  0.810721  1
  Tb  Tb6  1  0.051253  0.647195  0.649022  1
  Tb  Tb7  1  0.438593  0.060563  0.059524  1
  Tb  Tb8  1  0.437285  0.061556  0.438305  1
  Tb  Tb9  1  0.061083  0.436621  0.061133  1
  Tb  Tb10  1  0.649034  0.648024  0.050699  1
  Tb  Tb11  1  0.188965  0.813159  0.188377  1
  Tb  Tb12  1  0.060852  0.436242  0.439065  1
  Tm  Tm13  1  0.809621  0.811079  0.190618  1
  Tm  Tm14  1  0.811417  0.190154  0.810980  1
  Lu  Lu15  1  0.188782  0.189318  0.811440  1
  In  In16  1  0.416903  0.416992  0.417054  1
  In  In17  1  0.418226  0.418670  0.747250  1
  In  In18  1  0.417737  0.748068  0.418600  1
  In  In19  1  0.748129  0.418237  0.418538  1
  Rh  Rh20  1  0.861615  0.424029  0.856723  1
  Rh  Rh21  1  0.856501  0.859532  0.859831  1
  Rh  Rh22  1  0.857990  0.856943  0.426561  1
  Rh  Rh23  1  0.425825  0.861754  0.857676  1
