# generated using pymatgen
data_Dy5TiRhO12
_symmetry_space_group_name_H-M   'P 1'
_cell_length_a   6.81605268
_cell_length_b   6.81605166
_cell_length_c   7.37104568
_cell_angle_alpha   74.21734065
_cell_angle_beta   74.21734160
_cell_angle_gamma   50.72893504
_symmetry_Int_Tables_number   1
_chemical_formula_structural   Dy5TiRhO12
_chemical_formula_sum   'Dy5 Ti1 Rh1 O12'
_cell_volume   252.81454621
_cell_formula_units_Z   1
loop_
 _symmetry_equiv_pos_site_id
 _symmetry_equiv_pos_as_xyz
  1  'x, y, z'
loop_
 _atom_site_type_symbol
 _atom_site_label
 _atom_site_symmetry_multiplicity
 _atom_site_fract_x
 _atom_site_fract_y
 _atom_site_fract_z
 _atom_site_occupancy
  Dy  Dy0  1  0.300435  0.307745  0.359486  1
  Dy  Dy1  1  0.692255  0.699565  0.640514  1
  Dy  Dy2  1  0.315859  0.305927  0.827983  1
  Dy  Dy3  1  0.694073  0.684141  0.172017  1
  Dy  Dy4  1  0.997282  0.002718  0.500000  1
  Ti  Ti5  1  0.225021  0.774979  0.000000  1
  Rh  Rh6  1  0.753996  0.246004  0.000000  1
  O  O7  1  0.906470  0.420630  0.916275  1
  O  O8  1  0.429597  0.899244  0.917768  1
  O  O9  1  0.100756  0.570403  0.082232  1
  O  O10  1  0.579370  0.093530  0.083725  1
  O  O11  1  0.097055  0.594306  0.576962  1
  O  O12  1  0.596996  0.096794  0.572881  1
  O  O13  1  0.903206  0.403004  0.427119  1
  O  O14  1  0.405694  0.902945  0.423038  1
  O  O15  1  0.002662  0.996945  0.809582  1
  O  O16  1  0.003055  0.997338  0.190418  1
  O  O17  1  0.498288  0.502070  0.814701  1
  O  O18  1  0.497930  0.501712  0.185299  1
