# generated using pymatgen
data_Sr3TbIr8
_symmetry_space_group_name_H-M   'P 1'
_cell_length_a   5.45896700
_cell_length_b   5.45896666
_cell_length_c   17.78026400
_cell_angle_alpha   90.00000000
_cell_angle_beta   90.00000000
_cell_angle_gamma   119.99999598
_symmetry_Int_Tables_number   1
_chemical_formula_structural   Sr3TbIr8
_chemical_formula_sum   'Sr6 Tb2 Ir16'
_cell_volume   458.87010579
_cell_formula_units_Z   2
loop_
 _symmetry_equiv_pos_site_id
 _symmetry_equiv_pos_as_xyz
  1  'x, y, z'
loop_
 _atom_site_type_symbol
 _atom_site_label
 _atom_site_symmetry_multiplicity
 _atom_site_fract_x
 _atom_site_fract_y
 _atom_site_fract_z
 _atom_site_occupancy
  Sr  Sr0  1  0.000000  0.000000  0.091667  1
  Sr  Sr1  1  0.666667  0.333333  0.153468  1
  Sr  Sr2  1  0.666667  0.333333  0.343881  1
  Sr  Sr3  1  0.000000  0.000000  0.409304  1
  Sr  Sr4  1  0.000000  0.000000  0.593347  1
  Sr  Sr5  1  0.333333  0.666666  0.655535  1
  Tb  Tb6  1  0.333333  0.666666  0.841079  1
  Tb  Tb7  1  0.000000  0.000000  0.910068  1
  Ir  Ir8  1  0.494965  0.989930  0.992452  1
  Ir  Ir9  1  0.010070  0.505036  0.992452  1
  Ir  Ir10  1  0.494965  0.505036  0.992452  1
  Ir  Ir11  1  0.333333  0.666666  0.123790  1
  Ir  Ir12  1  0.164313  0.328626  0.249343  1
  Ir  Ir13  1  0.164313  0.835687  0.249343  1
  Ir  Ir14  1  0.671374  0.835687  0.249343  1
  Ir  Ir15  1  0.333333  0.666666  0.375080  1
  Ir  Ir16  1  0.499948  0.999893  0.501526  1
  Ir  Ir17  1  0.000107  0.500053  0.501526  1
  Ir  Ir18  1  0.499948  0.500053  0.501526  1
  Ir  Ir19  1  0.666667  0.333333  0.629454  1
  Ir  Ir20  1  0.323681  0.161839  0.755777  1
  Ir  Ir21  1  0.838160  0.161839  0.755777  1
  Ir  Ir22  1  0.838161  0.676319  0.755777  1
  Ir  Ir23  1  0.666667  0.333333  0.876025  1
