# generated using pymatgen
data_LiDy5Lu2(P3Ir4)4
_symmetry_space_group_name_H-M   'P 1'
_cell_length_a   12.92856767
_cell_length_b   12.77226839
_cell_length_c   3.98467000
_cell_angle_alpha   90.00000000
_cell_angle_beta   90.00000000
_cell_angle_gamma   119.60088401
_symmetry_Int_Tables_number   1
_chemical_formula_structural   LiDy5Lu2(P3Ir4)4
_chemical_formula_sum   'Li1 Dy5 Lu2 P12 Ir16'
_cell_volume   572.10277722
_cell_formula_units_Z   1
loop_
 _symmetry_equiv_pos_site_id
 _symmetry_equiv_pos_as_xyz
  1  'x, y, z'
loop_
 _atom_site_type_symbol
 _atom_site_label
 _atom_site_symmetry_multiplicity
 _atom_site_fract_x
 _atom_site_fract_y
 _atom_site_fract_z
 _atom_site_occupancy
  Li  Li0  1  0.000000  0.446077  0.500000  1
  Dy  Dy1  1  0.334343  0.666218  0.500000  1
  Dy  Dy2  1  0.665657  0.331874  0.500000  1
  Dy  Dy3  1  0.000000  0.806678  0.000000  1
  Dy  Dy4  1  0.186349  0.186079  0.000000  1
  Dy  Dy5  1  0.813651  0.999729  0.000000  1
  Lu  Lu6  1  0.557458  0.555655  0.500000  1
  Lu  Lu7  1  0.442542  0.998197  0.500000  1
  P  P8  1  0.000000  0.633339  0.500000  1
  P  P9  1  0.346293  0.354503  0.500000  1
  P  P10  1  0.653707  0.008209  0.500000  1
  P  P11  1  0.516565  0.686134  0.000000  1
  P  P12  1  0.308632  0.826735  0.000000  1
  P  P13  1  0.170534  0.484175  0.000000  1
  P  P14  1  0.483435  0.169568  0.000000  1
  P  P15  1  0.691368  0.518102  0.000000  1
  P  P16  1  0.829466  0.313640  0.000000  1
  P  P17  1  0.000000  0.181953  0.500000  1
  P  P18  1  0.824947  0.824972  0.500000  1
  P  P19  1  0.175053  0.000024  0.500000  1
  Ir  Ir20  1  0.501525  0.860137  0.000000  1
  Ir  Ir21  1  0.131401  0.640752  0.000000  1
  Ir  Ir22  1  0.354725  0.480956  0.000000  1
  Ir  Ir23  1  0.498475  0.358611  0.000000  1
  Ir  Ir24  1  0.868599  0.509350  0.000000  1
  Ir  Ir25  1  0.645275  0.126230  0.000000  1
  Ir  Ir26  1  0.000000  0.280467  0.000000  1
  Ir  Ir27  1  0.725360  0.725175  0.000000  1
  Ir  Ir28  1  0.274640  0.999815  0.000000  1
  Ir  Ir29  1  0.632267  0.814137  0.500000  1
  Ir  Ir30  1  0.188361  0.817406  0.500000  1
  Ir  Ir31  1  0.174110  0.376783  0.500000  1
  Ir  Ir32  1  0.367733  0.181870  0.500000  1
  Ir  Ir33  1  0.811639  0.629046  0.500000  1
  Ir  Ir34  1  0.825890  0.202673  0.500000  1
  Ir  Ir35  1  0.000000  0.004732  0.500000  1
