# generated using pymatgen
data_Th4Al24RePt8
_symmetry_space_group_name_H-M   'P 1'
_cell_length_a   7.61756943
_cell_length_b   7.66903215
_cell_length_c   13.26522372
_cell_angle_alpha   84.77483354
_cell_angle_beta   79.14881004
_cell_angle_gamma   59.74002337
_symmetry_Int_Tables_number   1
_chemical_formula_structural   Th4Al24RePt8
_chemical_formula_sum   'Th4 Al24 Re1 Pt8'
_cell_volume   657.38298058
_cell_formula_units_Z   1
loop_
 _symmetry_equiv_pos_site_id
 _symmetry_equiv_pos_as_xyz
  1  'x, y, z'
loop_
 _atom_site_type_symbol
 _atom_site_label
 _atom_site_symmetry_multiplicity
 _atom_site_fract_x
 _atom_site_fract_y
 _atom_site_fract_z
 _atom_site_occupancy
  Th  Th0  1  0.389769  0.171935  0.808235  1
  Th  Th1  1  0.610231  0.828065  0.191765  1
  Th  Th2  1  0.737371  0.498511  0.807998  1
  Th  Th3  1  0.262629  0.501489  0.192002  1
  Al  Al4  1  0.689306  0.831685  0.947189  1
  Al  Al5  1  0.310694  0.168315  0.052811  1
  Al  Al6  1  0.146462  0.832621  0.560545  1
  Al  Al7  1  0.853538  0.167379  0.439455  1
  Al  Al8  1  0.481912  0.165740  0.557777  1
  Al  Al9  1  0.518088  0.834260  0.442223  1
  Al  Al10  1  0.212830  0.164267  0.333786  1
  Al  Al11  1  0.787170  0.835733  0.666214  1
  Al  Al12  1  0.435560  0.510788  0.666668  1
  Al  Al13  1  0.564440  0.489212  0.333332  1
  Al  Al14  1  0.111837  0.155948  0.663481  1
  Al  Al15  1  0.888163  0.844052  0.336519  1
  Al  Al16  1  0.345718  0.503595  0.947037  1
  Al  Al17  1  0.654282  0.496405  0.052963  1
  Al  Al18  1  0.013359  0.168328  0.959323  1
  Al  Al19  1  0.986641  0.831672  0.040677  1
  Al  Al20  1  0.186536  0.499684  0.442745  1
  Al  Al21  1  0.813464  0.500316  0.557255  1
  Al  Al22  1  0.738413  0.161665  0.183803  1
  Al  Al23  1  0.261587  0.838335  0.816197  1
  Al  Al24  1  0.060513  0.636900  0.817221  1
  Al  Al25  1  0.939487  0.363100  0.182779  1
  Al  Al26  1  0.859842  0.039615  0.815763  1
  Al  Al27  1  0.140158  0.960385  0.184238  1
  Re  Re28  1  0.000000  0.500000  0.000000  1
  Pt  Pt29  1  0.120781  0.491336  0.638139  1
  Pt  Pt30  1  0.879219  0.508664  0.361861  1
  Pt  Pt31  1  0.656634  0.171704  0.999901  1
  Pt  Pt32  1  0.343366  0.828296  0.000099  1
  Pt  Pt33  1  0.536896  0.167337  0.362675  1
  Pt  Pt34  1  0.463104  0.832663  0.637325  1
  Pt  Pt35  1  0.779162  0.175002  0.636115  1
  Pt  Pt36  1  0.220838  0.824998  0.363885  1
