# generated using pymatgen
data_Ba2Fe2Ir5O18
_symmetry_space_group_name_H-M   'P 1'
_cell_length_a   6.86560097
_cell_length_b   7.15887078
_cell_length_c   7.76334256
_cell_angle_alpha   93.35873459
_cell_angle_beta   94.22468544
_cell_angle_gamma   115.51087731
_symmetry_Int_Tables_number   1
_chemical_formula_structural   Ba2Fe2Ir5O18
_chemical_formula_sum   'Ba2 Fe2 Ir5 O18'
_cell_volume   341.69731076
_cell_formula_units_Z   1
loop_
 _symmetry_equiv_pos_site_id
 _symmetry_equiv_pos_as_xyz
  1  'x, y, z'
loop_
 _atom_site_type_symbol
 _atom_site_label
 _atom_site_symmetry_multiplicity
 _atom_site_fract_x
 _atom_site_fract_y
 _atom_site_fract_z
 _atom_site_occupancy
  Ba  Ba0  1  0.318611  0.684189  0.617553  1
  Ba  Ba1  1  0.680578  0.317819  0.385446  1
  Fe  Fe2  1  0.392169  0.268749  0.882235  1
  Fe  Fe3  1  0.003558  0.998404  0.508304  1
  Ir  Ir4  1  0.811756  0.124242  0.810042  1
  Ir  Ir5  1  0.185858  0.876424  0.187282  1
  Ir  Ir6  1  0.605382  0.722856  0.113579  1
  Ir  Ir7  1  0.825638  0.618234  0.806095  1
  Ir  Ir8  1  0.169510  0.377046  0.193474  1
  O  O9  1  0.928094  0.721026  0.586836  1
  O  O10  1  0.286153  0.170550  0.118949  1
  O  O11  1  0.322521  0.519511  0.991668  1
  O  O12  1  0.463855  0.558024  0.305363  1
  O  O13  1  0.484462  0.917407  0.157105  1
  O  O14  1  0.910684  0.400246  0.727079  1
  O  O15  1  0.721373  0.834127  0.886200  1
  O  O16  1  0.916437  0.234746  0.043689  1
  O  O17  1  0.684019  0.498359  0.021022  1
  O  O18  1  0.074525  0.269995  0.410646  1
  O  O19  1  0.101464  0.137972  0.755780  1
  O  O20  1  0.724788  0.000587  0.573239  1
  O  O21  1  0.087014  0.596477  0.270208  1
  O  O22  1  0.892354  0.860350  0.246984  1
  O  O23  1  0.081642  0.767127  0.953706  1
  O  O24  1  0.516441  0.082426  0.828212  1
  O  O25  1  0.272519  0.993043  0.425747  1
  O  O26  1  0.538592  0.450065  0.693556  1
