# generated using pymatgen
data_MgTi2NbPd12
_symmetry_space_group_name_H-M   'P 1'
_cell_length_a   5.60611600
_cell_length_b   5.60611611
_cell_length_c   9.07403100
_cell_angle_alpha   90.00000000
_cell_angle_beta   90.00000000
_cell_angle_gamma   119.99999935
_symmetry_Int_Tables_number   1
_chemical_formula_structural   MgTi2NbPd12
_chemical_formula_sum   'Mg1 Ti2 Nb1 Pd12'
_cell_volume   246.97617560
_cell_formula_units_Z   1
loop_
 _symmetry_equiv_pos_site_id
 _symmetry_equiv_pos_as_xyz
  1  'x, y, z'
loop_
 _atom_site_type_symbol
 _atom_site_label
 _atom_site_symmetry_multiplicity
 _atom_site_fract_x
 _atom_site_fract_y
 _atom_site_fract_z
 _atom_site_occupancy
  Mg  Mg0  1  0.333333  0.666667  0.249083  1
  Ti  Ti1  1  0.000000  0.000000  0.002683  1
  Ti  Ti2  1  0.666667  0.333333  0.753104  1
  Nb  Nb3  1  0.000000  0.000000  0.496238  1
  Pd  Pd4  1  0.501871  0.498129  0.503905  1
  Pd  Pd5  1  0.501871  0.003742  0.503905  1
  Pd  Pd6  1  0.996258  0.498129  0.503905  1
  Pd  Pd7  1  0.502011  0.497989  0.995892  1
  Pd  Pd8  1  0.502011  0.004022  0.995892  1
  Pd  Pd9  1  0.995978  0.497989  0.995892  1
  Pd  Pd10  1  0.832988  0.665977  0.249433  1
  Pd  Pd11  1  0.334023  0.167012  0.249433  1
  Pd  Pd12  1  0.832988  0.167012  0.249433  1
  Pd  Pd13  1  0.166157  0.332313  0.750401  1
  Pd  Pd14  1  0.667687  0.833843  0.750401  1
  Pd  Pd15  1  0.166157  0.833843  0.750401  1
