# generated using pymatgen
data_TbEr19(CoBi2)4
_symmetry_space_group_name_H-M   'P 1'
_cell_length_a   7.90166476
_cell_length_b   8.83653300
_cell_length_c   12.31391580
_cell_angle_alpha   90.00000000
_cell_angle_beta   90.07689843
_cell_angle_gamma   90.00000000
_symmetry_Int_Tables_number   1
_chemical_formula_structural   TbEr19(CoBi2)4
_chemical_formula_sum   'Tb1 Er19 Co4 Bi8'
_cell_volume   859.79772648
_cell_formula_units_Z   1
loop_
 _symmetry_equiv_pos_site_id
 _symmetry_equiv_pos_as_xyz
  1  'x, y, z'
loop_
 _atom_site_type_symbol
 _atom_site_label
 _atom_site_symmetry_multiplicity
 _atom_site_fract_x
 _atom_site_fract_y
 _atom_site_fract_z
 _atom_site_occupancy
  Tb  Tb0  1  0.654048  0.750000  0.700413  1
  Er  Er1  1  0.346606  0.250000  0.300814  1
  Er  Er2  1  0.152814  0.250000  0.801144  1
  Er  Er3  1  0.846855  0.750000  0.198869  1
  Er  Er4  1  0.118619  0.750000  0.812440  1
  Er  Er5  1  0.882019  0.250000  0.187512  1
  Er  Er6  1  0.617747  0.250000  0.687272  1
  Er  Er7  1  0.382556  0.750000  0.312636  1
  Er  Er8  1  0.552239  0.750000  0.997975  1
  Er  Er9  1  0.446781  0.250000  0.003001  1
  Er  Er10  1  0.052564  0.250000  0.502022  1
  Er  Er11  1  0.948122  0.750000  0.497370  1
  Er  Er12  1  0.825608  0.463488  0.936354  1
  Er  Er13  1  0.174185  0.537188  0.063756  1
  Er  Er14  1  0.325350  0.536243  0.563067  1
  Er  Er15  1  0.174185  0.962812  0.063756  1
  Er  Er16  1  0.674609  0.462902  0.436072  1
  Er  Er17  1  0.825608  0.036512  0.936354  1
  Er  Er18  1  0.674609  0.037098  0.436072  1
  Er  Er19  1  0.325350  0.963757  0.563067  1
  Co  Co20  1  0.935821  0.750000  0.992142  1
  Co  Co21  1  0.063545  0.250000  0.007797  1
  Co  Co22  1  0.435907  0.250000  0.507421  1
  Co  Co23  1  0.563772  0.750000  0.492126  1
  Bi  Bi24  1  0.932007  0.009093  0.673072  1
  Bi  Bi25  1  0.069035  0.991620  0.326421  1
  Bi  Bi26  1  0.429957  0.992725  0.827158  1
  Bi  Bi27  1  0.069035  0.508380  0.326421  1
  Bi  Bi28  1  0.569242  0.008343  0.173624  1
  Bi  Bi29  1  0.932007  0.490907  0.673072  1
  Bi  Bi30  1  0.569242  0.491657  0.173624  1
  Bi  Bi31  1  0.429957  0.507275  0.827158  1
