# generated using pymatgen
data_Pr15Nd4HoPb16
_symmetry_space_group_name_H-M   'P 1'
_cell_length_a   8.49097775
_cell_length_b   8.59532322
_cell_length_c   16.31714039
_cell_angle_alpha   90.05239917
_cell_angle_beta   89.53414526
_cell_angle_gamma   90.04473898
_symmetry_Int_Tables_number   1
_chemical_formula_structural   Pr15Nd4HoPb16
_chemical_formula_sum   'Pr15 Nd4 Ho1 Pb16'
_cell_volume   1190.82871610
_cell_formula_units_Z   1
loop_
 _symmetry_equiv_pos_site_id
 _symmetry_equiv_pos_as_xyz
  1  'x, y, z'
loop_
 _atom_site_type_symbol
 _atom_site_label
 _atom_site_symmetry_multiplicity
 _atom_site_fract_x
 _atom_site_fract_y
 _atom_site_fract_z
 _atom_site_occupancy
  Pr  Pr0  1  0.125190  0.341343  0.881144  1
  Pr  Pr1  1  0.375264  0.842427  0.119335  1
  Pr  Pr2  1  0.871551  0.658866  0.380811  1
  Pr  Pr3  1  0.374253  0.841223  0.380326  1
  Pr  Pr4  1  0.873940  0.658494  0.119213  1
  Pr  Pr5  1  0.625112  0.158005  0.882030  1
  Pr  Pr6  1  0.126205  0.341274  0.618826  1
  Pr  Pr7  1  0.471913  0.678783  0.599922  1
  Pr  Pr8  1  0.969673  0.821447  0.899387  1
  Pr  Pr9  1  0.530588  0.320575  0.101072  1
  Pr  Pr10  1  0.028152  0.177826  0.399524  1
  Pr  Pr11  1  0.527502  0.319707  0.400540  1
  Pr  Pr12  1  0.029912  0.177943  0.101573  1
  Pr  Pr13  1  0.469687  0.678369  0.898691  1
  Pr  Pr14  1  0.973255  0.821796  0.599303  1
  Nd  Nd15  1  0.627923  0.158612  0.618961  1
  Nd  Nd16  1  0.794688  0.497427  0.749815  1
  Nd  Nd17  1  0.295053  0.003001  0.749557  1
  Nd  Nd18  1  0.204953  0.502140  0.249933  1
  Ho  Ho19  1  0.706195  0.996445  0.250320  1
  Pb  Pb20  1  0.715893  0.967201  0.454572  1
  Pb  Pb21  1  0.217989  0.532807  0.044103  1
  Pb  Pb22  1  0.281819  0.031799  0.955656  1
  Pb  Pb23  1  0.783584  0.465952  0.543833  1
  Pb  Pb24  1  0.287024  0.035808  0.543317  1
  Pb  Pb25  1  0.782023  0.468501  0.955600  1
  Pb  Pb26  1  0.718197  0.968349  0.047084  1
  Pb  Pb27  1  0.214411  0.534468  0.455882  1
  Pb  Pb28  1  0.429963  0.373802  0.749785  1
  Pb  Pb29  1  0.928692  0.124865  0.749950  1
  Pb  Pb30  1  0.571764  0.626788  0.249606  1
  Pb  Pb31  1  0.067048  0.877549  0.250005  1
  Pb  Pb32  1  0.662777  0.851844  0.749359  1
  Pb  Pb33  1  0.162905  0.649821  0.749730  1
  Pb  Pb34  1  0.339513  0.148288  0.250617  1
  Pb  Pb35  1  0.835389  0.346458  0.250616  1
