# generated using pymatgen
data_Y2Ho17Lu(Cd3Ru)2
_symmetry_space_group_name_H-M   'P 1'
_cell_length_a   9.55136201
_cell_length_b   9.55199081
_cell_length_c   9.80030100
_cell_angle_alpha   89.99934690
_cell_angle_beta   90.00081130
_cell_angle_gamma   119.99391967
_symmetry_Int_Tables_number   1
_chemical_formula_structural   Y2Ho17Lu(Cd3Ru)2
_chemical_formula_sum   'Y2 Ho17 Lu1 Cd6 Ru2'
_cell_volume   774.38307649
_cell_formula_units_Z   1
loop_
 _symmetry_equiv_pos_site_id
 _symmetry_equiv_pos_as_xyz
  1  'x, y, z'
loop_
 _atom_site_type_symbol
 _atom_site_label
 _atom_site_symmetry_multiplicity
 _atom_site_fract_x
 _atom_site_fract_y
 _atom_site_fract_z
 _atom_site_occupancy
  Y  Y0  1  0.458974  0.917789  0.749842  1
  Y  Y1  1  0.082215  0.541029  0.749842  1
  Ho  Ho2  1  0.999976  0.000027  0.999955  1
  Ho  Ho3  1  0.209218  0.790782  0.439819  1
  Ho  Ho4  1  0.209403  0.418533  0.439979  1
  Ho  Ho5  1  0.581457  0.790592  0.439987  1
  Ho  Ho6  1  0.790690  0.209314  0.559738  1
  Ho  Ho7  1  0.790492  0.581406  0.559845  1
  Ho  Ho8  1  0.418601  0.209514  0.559839  1
  Ho  Ho9  1  0.789972  0.210027  0.940326  1
  Ho  Ho10  1  0.789774  0.579977  0.940223  1
  Ho  Ho11  1  0.420034  0.210228  0.940228  1
  Ho  Ho12  1  0.209935  0.790070  0.060121  1
  Ho  Ho13  1  0.210114  0.419948  0.059964  1
  Ho  Ho14  1  0.580043  0.789883  0.059960  1
  Ho  Ho15  1  0.541104  0.458886  0.250157  1
  Ho  Ho16  1  0.541115  0.082200  0.250157  1
  Ho  Ho17  1  0.917794  0.458877  0.250157  1
  Ho  Ho18  1  0.459144  0.540861  0.749837  1
  Lu  Lu19  1  0.999995  0.999996  0.500041  1
  Cd  Cd20  1  0.885889  0.114123  0.251465  1
  Cd  Cd21  1  0.885870  0.771760  0.251463  1
  Cd  Cd22  1  0.228234  0.114133  0.251463  1
  Cd  Cd23  1  0.113954  0.886038  0.748523  1
  Cd  Cd24  1  0.114190  0.228121  0.748524  1
  Cd  Cd25  1  0.771883  0.885809  0.748523  1
  Ru  Ru26  1  0.333328  0.666681  0.250158  1
  Ru  Ru27  1  0.666602  0.333393  0.749863  1
