# generated using pymatgen
data_YbHo3Rh4F28
_symmetry_space_group_name_H-M   'P 1'
_cell_length_a   5.50086161
_cell_length_b   8.83201563
_cell_length_c   11.92033338
_cell_angle_alpha   62.72330319
_cell_angle_beta   89.98730905
_cell_angle_gamma   89.94744597
_symmetry_Int_Tables_number   1
_chemical_formula_structural   YbHo3Rh4F28
_chemical_formula_sum   'Yb1 Ho3 Rh4 F28'
_cell_volume   514.73607967
_cell_formula_units_Z   1
loop_
 _symmetry_equiv_pos_site_id
 _symmetry_equiv_pos_as_xyz
  1  'x, y, z'
loop_
 _atom_site_type_symbol
 _atom_site_label
 _atom_site_symmetry_multiplicity
 _atom_site_fract_x
 _atom_site_fract_y
 _atom_site_fract_z
 _atom_site_occupancy
  Yb  Yb0  1  0.761063  0.816211  0.765418  1
  Ho  Ho1  1  0.264260  0.179905  0.735372  1
  Ho  Ho2  1  0.238096  0.186505  0.234674  1
  Ho  Ho3  1  0.738598  0.813188  0.265731  1
  Rh  Rh4  1  0.758027  0.274632  0.955405  1
  Rh  Rh5  1  0.257744  0.725830  0.544706  1
  Rh  Rh6  1  0.240873  0.725538  0.044419  1
  Rh  Rh7  1  0.741542  0.273006  0.455573  1
  F  F8  1  0.433755  0.704041  0.919537  1
  F  F9  1  0.933815  0.296705  0.581727  1
  F  F10  1  0.562653  0.294296  0.084264  1
  F  F11  1  0.062026  0.705148  0.416357  1
  F  F12  1  0.440355  0.279408  0.540424  1
  F  F13  1  0.946521  0.720132  0.960244  1
  F  F14  1  0.557933  0.722305  0.456762  1
  F  F15  1  0.058563  0.276494  0.043577  1
  F  F16  1  0.773041  0.515603  0.861786  1
  F  F17  1  0.273632  0.480133  0.639892  1
  F  F18  1  0.225957  0.479028  0.141374  1
  F  F19  1  0.725222  0.518949  0.359462  1
  F  F20  1  0.755041  0.029609  0.049890  1
  F  F21  1  0.254856  0.971676  0.449814  1
  F  F22  1  0.244098  0.970510  0.952770  1
  F  F23  1  0.746776  0.032635  0.546602  1
  F  F24  1  0.967827  0.726631  0.633271  1
  F  F25  1  0.464462  0.273867  0.865723  1
  F  F26  1  0.035980  0.273179  0.363555  1
  F  F27  1  0.534039  0.727186  0.136768  1
  F  F28  1  0.049864  0.746162  0.175247  1
  F  F29  1  0.550997  0.253596  0.324172  1
  F  F30  1  0.950010  0.254224  0.825655  1
  F  F31  1  0.448596  0.745229  0.671889  1
  F  F32  1  0.414394  0.969677  0.231601  1
  F  F33  1  0.913987  0.029559  0.268308  1
  F  F34  1  0.586243  0.036002  0.768684  1
  F  F35  1  0.089151  0.973205  0.729347  1
