# generated using pymatgen
data_Cs4Ba2TiP4
_symmetry_space_group_name_H-M   'P 1'
_cell_length_a   10.78682405
_cell_length_b   10.78682554
_cell_length_c   8.01295106
_cell_angle_alpha   87.54071844
_cell_angle_beta   87.54071441
_cell_angle_gamma   119.04271524
_symmetry_Int_Tables_number   1
_chemical_formula_structural   Cs4Ba2TiP4
_chemical_formula_sum   'Cs8 Ba4 Ti2 P8'
_cell_volume   812.19386891
_cell_formula_units_Z   2
loop_
 _symmetry_equiv_pos_site_id
 _symmetry_equiv_pos_as_xyz
  1  'x, y, z'
loop_
 _atom_site_type_symbol
 _atom_site_label
 _atom_site_symmetry_multiplicity
 _atom_site_fract_x
 _atom_site_fract_y
 _atom_site_fract_z
 _atom_site_occupancy
  Cs  Cs0  1  0.473947  0.940543  0.390091  1
  Cs  Cs1  1  0.940543  0.473947  0.890091  1
  Cs  Cs2  1  0.869076  0.724919  0.158439  1
  Cs  Cs3  1  0.258750  0.123973  0.242935  1
  Cs  Cs4  1  0.857719  0.143329  0.192062  1
  Cs  Cs5  1  0.123973  0.258750  0.742935  1
  Cs  Cs6  1  0.724919  0.869076  0.658439  1
  Cs  Cs7  1  0.143329  0.857719  0.692062  1
  Ba  Ba8  1  0.073696  0.534903  0.399439  1
  Ba  Ba9  1  0.476502  0.530939  0.376984  1
  Ba  Ba10  1  0.534903  0.073696  0.899439  1
  Ba  Ba11  1  0.530939  0.476502  0.876984  1
  Ti  Ti12  1  0.663112  0.337068  0.489670  1
  Ti  Ti13  1  0.337068  0.663112  0.989670  1
  P  P14  1  0.632968  0.329092  0.185172  1
  P  P15  1  0.329092  0.632968  0.685172  1
  P  P16  1  0.222189  0.425234  0.131265  1
  P  P17  1  0.582006  0.784285  0.064439  1
  P  P18  1  0.222691  0.792870  0.087172  1
  P  P19  1  0.784285  0.582006  0.564439  1
  P  P20  1  0.425234  0.222189  0.631265  1
  P  P21  1  0.792870  0.222691  0.587172  1
