# generated using pymatgen
data_Pr10SnBi5Se2
_symmetry_space_group_name_H-M   'P 1'
_cell_length_a   9.66048900
_cell_length_b   9.63648357
_cell_length_c   6.89883000
_cell_angle_alpha   90.00000000
_cell_angle_beta   90.00000000
_cell_angle_gamma   120.08244257
_symmetry_Int_Tables_number   1
_chemical_formula_structural   Pr10SnBi5Se2
_chemical_formula_sum   'Pr10 Sn1 Bi5 Se2'
_cell_volume   555.72813248
_cell_formula_units_Z   1
loop_
 _symmetry_equiv_pos_site_id
 _symmetry_equiv_pos_as_xyz
  1  'x, y, z'
loop_
 _atom_site_type_symbol
 _atom_site_label
 _atom_site_symmetry_multiplicity
 _atom_site_fract_x
 _atom_site_fract_y
 _atom_site_fract_z
 _atom_site_occupancy
  Pr  Pr0  1  0.255522  0.000000  0.750000  1
  Pr  Pr1  1  0.746868  0.000000  0.250000  1
  Pr  Pr2  1  0.995002  0.249486  0.750000  1
  Pr  Pr3  1  0.999513  0.746582  0.250000  1
  Pr  Pr4  1  0.745517  0.750514  0.750000  1
  Pr  Pr5  1  0.252931  0.253418  0.250000  1
  Pr  Pr6  1  0.335262  0.669263  0.501323  1
  Pr  Pr7  1  0.665999  0.330737  0.501323  1
  Pr  Pr8  1  0.665999  0.330737  0.998677  1
  Pr  Pr9  1  0.335262  0.669263  0.998677  1
  Sn  Sn10  1  0.606347  0.000000  0.750000  1
  Bi  Bi11  1  0.393713  0.000000  0.250000  1
  Bi  Bi12  1  0.999385  0.607046  0.750000  1
  Bi  Bi13  1  0.000336  0.393274  0.250000  1
  Bi  Bi14  1  0.392339  0.392954  0.750000  1
  Bi  Bi15  1  0.607062  0.606726  0.250000  1
  Se  Se16  1  0.001472  0.000000  0.499795  1
  Se  Se17  1  0.001472  0.000000  0.000205  1
