# generated using pymatgen
data_Nd4Ga4Ni3Ir
_symmetry_space_group_name_H-M   'P 1'
_cell_length_a   4.40742000
_cell_length_b   7.08911533
_cell_length_c   7.55904244
_cell_angle_alpha   91.17028150
_cell_angle_beta   90.00000000
_cell_angle_gamma   90.00000000
_symmetry_Int_Tables_number   1
_chemical_formula_structural   Nd4Ga4Ni3Ir
_chemical_formula_sum   'Nd4 Ga4 Ni3 Ir1'
_cell_volume   236.13081468
_cell_formula_units_Z   1
loop_
 _symmetry_equiv_pos_site_id
 _symmetry_equiv_pos_as_xyz
  1  'x, y, z'
loop_
 _atom_site_type_symbol
 _atom_site_label
 _atom_site_symmetry_multiplicity
 _atom_site_fract_x
 _atom_site_fract_y
 _atom_site_fract_z
 _atom_site_occupancy
  Nd  Nd0  1  0.250000  0.031037  0.807899  1
  Nd  Nd1  1  0.250000  0.523867  0.694849  1
  Nd  Nd2  1  0.750000  0.973447  0.192714  1
  Nd  Nd3  1  0.750000  0.478735  0.304160  1
  Ga  Ga4  1  0.250000  0.172456  0.423317  1
  Ga  Ga5  1  0.250000  0.669609  0.071007  1
  Ga  Ga6  1  0.750000  0.832009  0.586751  1
  Ga  Ga7  1  0.750000  0.329625  0.923197  1
  Ni  Ni8  1  0.250000  0.293454  0.095292  1
  Ni  Ni9  1  0.750000  0.207222  0.595141  1
  Ni  Ni10  1  0.750000  0.701968  0.902580  1
  Ir  Ir11  1  0.250000  0.786573  0.403092  1
