# generated using pymatgen
data_Nd4As2S9
_symmetry_space_group_name_H-M   'P 1'
_cell_length_a   7.07638700
_cell_length_b   7.14005500
_cell_length_c   29.49246200
_cell_angle_alpha   90.00000000
_cell_angle_beta   90.00000000
_cell_angle_gamma   90.00000000
_symmetry_Int_Tables_number   1
_chemical_formula_structural   Nd4As2S9
_chemical_formula_sum   'Nd16 As8 S36'
_cell_volume   1490.13001182
_cell_formula_units_Z   4
loop_
 _symmetry_equiv_pos_site_id
 _symmetry_equiv_pos_as_xyz
  1  'x, y, z'
loop_
 _atom_site_type_symbol
 _atom_site_label
 _atom_site_symmetry_multiplicity
 _atom_site_fract_x
 _atom_site_fract_y
 _atom_site_fract_z
 _atom_site_occupancy
  Nd  Nd0  1  0.704485  0.545179  0.443507  1
  Nd  Nd1  1  0.795515  0.045179  0.056493  1
  Nd  Nd2  1  0.795515  0.454821  0.943507  1
  Nd  Nd3  1  0.704485  0.954821  0.556493  1
  Nd  Nd4  1  0.295515  0.454821  0.556493  1
  Nd  Nd5  1  0.204485  0.954821  0.943507  1
  Nd  Nd6  1  0.204485  0.545179  0.056493  1
  Nd  Nd7  1  0.295515  0.045179  0.443507  1
  Nd  Nd8  1  0.796836  0.821684  0.292676  1
  Nd  Nd9  1  0.703164  0.321684  0.207324  1
  Nd  Nd10  1  0.703164  0.178316  0.792676  1
  Nd  Nd11  1  0.796836  0.678316  0.707324  1
  Nd  Nd12  1  0.203164  0.178316  0.707324  1
  Nd  Nd13  1  0.296836  0.678316  0.792676  1
  Nd  Nd14  1  0.296836  0.821684  0.207324  1
  Nd  Nd15  1  0.203164  0.321684  0.292676  1
  As  As16  1  0.693731  0.574834  0.095548  1
  As  As17  1  0.806269  0.074834  0.404452  1
  As  As18  1  0.806269  0.425166  0.595548  1
  As  As19  1  0.693731  0.925166  0.904452  1
  As  As20  1  0.306269  0.425166  0.904452  1
  As  As21  1  0.193731  0.925166  0.595548  1
  As  As22  1  0.193731  0.574834  0.404452  1
  As  As23  1  0.306269  0.074834  0.095548  1
  S  S24  1  0.939188  0.750000  0.000000  1
  S  S25  1  0.560812  0.250000  0.500000  1
  S  S26  1  0.060812  0.250000  0.000000  1
  S  S27  1  0.439188  0.750000  0.500000  1
  S  S28  1  0.999423  0.073008  0.236017  1
  S  S29  1  0.500577  0.573008  0.263983  1
  S  S30  1  0.500577  0.926992  0.736017  1
  S  S31  1  0.999423  0.426992  0.763983  1
  S  S32  1  0.000577  0.926992  0.763983  1
  S  S33  1  0.499423  0.426992  0.736017  1
  S  S34  1  0.499423  0.073008  0.263983  1
  S  S35  1  0.000577  0.573008  0.236017  1
  S  S36  1  0.919668  0.882502  0.459220  1
  S  S37  1  0.580332  0.382502  0.040780  1
  S  S38  1  0.580332  0.117498  0.959220  1
  S  S39  1  0.919668  0.617498  0.540780  1
  S  S40  1  0.080332  0.117498  0.540780  1
  S  S41  1  0.419668  0.617498  0.959220  1
  S  S42  1  0.419668  0.882502  0.040780  1
  S  S43  1  0.080332  0.382502  0.459220  1
  S  S44  1  0.944881  0.521754  0.356039  1
  S  S45  1  0.555119  0.021754  0.143961  1
  S  S46  1  0.555119  0.478246  0.856039  1
  S  S47  1  0.944881  0.978246  0.643961  1
  S  S48  1  0.055119  0.478246  0.643961  1
  S  S49  1  0.444881  0.978246  0.856039  1
  S  S50  1  0.444881  0.521754  0.143961  1
  S  S51  1  0.055119  0.021754  0.356039  1
  S  S52  1  0.574747  0.869724  0.380583  1
  S  S53  1  0.925253  0.369724  0.119417  1
  S  S54  1  0.925253  0.130276  0.880583  1
  S  S55  1  0.574747  0.630276  0.619417  1
  S  S56  1  0.425253  0.130276  0.619417  1
  S  S57  1  0.074747  0.630276  0.880583  1
  S  S58  1  0.074747  0.869724  0.119417  1
  S  S59  1  0.425253  0.369724  0.380583  1
