# generated using pymatgen
data_Y7Er9Cd4(OsPt)2
_symmetry_space_group_name_H-M   'P 1'
_cell_length_a   9.64804682
_cell_length_b   9.64746856
_cell_length_c   9.71497521
_cell_angle_alpha   59.62615477
_cell_angle_beta   59.61585907
_cell_angle_gamma   59.60511729
_symmetry_Int_Tables_number   1
_chemical_formula_structural   Y7Er9Cd4(OsPt)2
_chemical_formula_sum   'Y7 Er9 Cd4 Os2 Pt2'
_cell_volume   633.82566658
_cell_formula_units_Z   1
loop_
 _symmetry_equiv_pos_site_id
 _symmetry_equiv_pos_as_xyz
  1  'x, y, z'
loop_
 _atom_site_type_symbol
 _atom_site_label
 _atom_site_symmetry_multiplicity
 _atom_site_fract_x
 _atom_site_fract_y
 _atom_site_fract_z
 _atom_site_occupancy
  Y  Y0  1  0.807646  0.807734  0.191244  1
  Y  Y1  1  0.939967  0.553732  0.566674  1
  Y  Y2  1  0.554000  0.938866  0.940311  1
  Y  Y3  1  0.553823  0.940195  0.566699  1
  Y  Y4  1  0.939150  0.553849  0.940116  1
  Y  Y5  1  0.562211  0.562187  0.939600  1
  Y  Y6  1  0.939298  0.939206  0.560881  1
  Er  Er7  1  0.349864  0.349984  0.352252  1
  Er  Er8  1  0.351212  0.351262  0.947016  1
  Er  Er9  1  0.344590  0.958484  0.348972  1
  Er  Er10  1  0.958349  0.344730  0.348876  1
  Er  Er11  1  0.814514  0.187660  0.190621  1
  Er  Er12  1  0.186283  0.815031  0.806343  1
  Er  Er13  1  0.187589  0.814593  0.190513  1
  Er  Er14  1  0.814965  0.186126  0.806529  1
  Er  Er15  1  0.187869  0.187842  0.811310  1
  Cd  Cd16  1  0.579599  0.579616  0.579934  1
  Cd  Cd17  1  0.579752  0.579374  0.259317  1
  Cd  Cd18  1  0.581143  0.256133  0.581579  1
  Cd  Cd19  1  0.256130  0.580774  0.580781  1
  Os  Os20  1  0.144874  0.144992  0.136271  1
  Os  Os21  1  0.145047  0.145223  0.574968  1
  Pt  Pt22  1  0.148153  0.574100  0.139525  1
  Pt  Pt23  1  0.573972  0.148308  0.139670  1
