# generated using pymatgen
data_Tm2LuAlHg2Au3
_symmetry_space_group_name_H-M   'P 1'
_cell_length_a   7.72408440
_cell_length_b   7.55282401
_cell_length_c   3.84976700
_cell_angle_alpha   90.00000000
_cell_angle_beta   90.00000000
_cell_angle_gamma   119.26920345
_symmetry_Int_Tables_number   1
_chemical_formula_structural   Tm2LuAlHg2Au3
_chemical_formula_sum   'Tm2 Lu1 Al1 Hg2 Au3'
_cell_volume   195.91726973
_cell_formula_units_Z   1
loop_
 _symmetry_equiv_pos_site_id
 _symmetry_equiv_pos_as_xyz
  1  'x, y, z'
loop_
 _atom_site_type_symbol
 _atom_site_label
 _atom_site_symmetry_multiplicity
 _atom_site_fract_x
 _atom_site_fract_y
 _atom_site_fract_z
 _atom_site_occupancy
  Tm  Tm0  1  0.410136  0.400943  0.500000  1
  Tm  Tm1  1  0.589864  0.990807  0.500000  1
  Lu  Lu2  1  0.000000  0.606492  0.500000  1
  Al  Al3  1  0.000000  0.262721  0.000000  1
  Hg  Hg4  1  0.730774  0.734048  0.000000  1
  Hg  Hg5  1  0.269226  0.003275  0.000000  1
  Au  Au6  1  0.689044  0.327371  0.000000  1
  Au  Au7  1  0.310956  0.638329  0.000000  1
  Au  Au8  1  0.000000  0.036013  0.500000  1
