# generated using pymatgen
data_Th10Tl2Bi5Au
_symmetry_space_group_name_H-M   'P 1'
_cell_length_a   9.75198024
_cell_length_b   9.75198024
_cell_length_c   6.67183500
_cell_angle_alpha   90.02890646
_cell_angle_beta   90.02890646
_cell_angle_gamma   120.04548346
_symmetry_Int_Tables_number   1
_chemical_formula_structural   Th10Tl2Bi5Au
_chemical_formula_sum   'Th10 Tl2 Bi5 Au1'
_cell_volume   549.23993107
_cell_formula_units_Z   1
loop_
 _symmetry_equiv_pos_site_id
 _symmetry_equiv_pos_as_xyz
  1  'x, y, z'
loop_
 _atom_site_type_symbol
 _atom_site_label
 _atom_site_symmetry_multiplicity
 _atom_site_fract_x
 _atom_site_fract_y
 _atom_site_fract_z
 _atom_site_occupancy
  Th  Th0  1  0.667526  0.332717  0.501636  1
  Th  Th1  1  0.332717  0.667526  0.501636  1
  Th  Th2  1  0.331377  0.666132  0.997753  1
  Th  Th3  1  0.666132  0.331377  0.997753  1
  Th  Th4  1  0.723985  0.723985  0.264213  1
  Th  Th5  1  0.276273  0.999901  0.262830  1
  Th  Th6  1  0.999901  0.276273  0.262830  1
  Th  Th7  1  0.277451  0.277451  0.736438  1
  Th  Th8  1  0.723245  0.002050  0.736989  1
  Th  Th9  1  0.002050  0.723245  0.736989  1
  Tl  Tl10  1  0.378893  0.000816  0.753907  1
  Tl  Tl11  1  0.000816  0.378893  0.753907  1
  Bi  Bi12  1  0.999985  0.999985  0.999217  1
  Bi  Bi13  1  0.379712  0.379712  0.245206  1
  Bi  Bi14  1  0.619348  0.000533  0.245288  1
  Bi  Bi15  1  0.000533  0.619348  0.245288  1
  Bi  Bi16  1  0.619495  0.619495  0.754575  1
  Au  Au17  1  0.000561  0.000561  0.503546  1
