# generated using pymatgen
data_Li12Sm11Dy(TeO6)8
_symmetry_space_group_name_H-M   'P 1'
_cell_length_a   10.88634563
_cell_length_b   10.87637754
_cell_length_c   10.87636851
_cell_angle_alpha   109.39330169
_cell_angle_beta   109.49167398
_cell_angle_gamma   109.49169897
_symmetry_Int_Tables_number   1
_chemical_formula_structural   Li12Sm11Dy(TeO6)8
_chemical_formula_sum   'Li12 Sm11 Dy1 Te8 O48'
_cell_volume   991.80474456
_cell_formula_units_Z   1
loop_
 _symmetry_equiv_pos_site_id
 _symmetry_equiv_pos_as_xyz
  1  'x, y, z'
loop_
 _atom_site_type_symbol
 _atom_site_label
 _atom_site_symmetry_multiplicity
 _atom_site_fract_x
 _atom_site_fract_y
 _atom_site_fract_z
 _atom_site_occupancy
  Li  Li0  1  0.750001  0.374994  0.124993  1
  Li  Li1  1  0.875459  0.750160  0.125001  1
  Li  Li2  1  0.125017  0.375022  0.249923  1
  Li  Li3  1  0.624541  0.874998  0.249840  1
  Li  Li4  1  0.624538  0.249542  0.374699  1
  Li  Li5  1  0.250001  0.124258  0.374258  1
  Li  Li6  1  0.749998  0.875007  0.625007  1
  Li  Li7  1  0.374983  0.750077  0.624978  1
  Li  Li8  1  0.374979  0.124903  0.750002  1
  Li  Li9  1  0.875463  0.625301  0.750459  1
  Li  Li10  1  0.249999  0.625741  0.875742  1
  Li  Li11  1  0.125021  0.249999  0.875097  1
  Sm  Sm12  1  0.374861  0.249424  0.125234  1
  Sm  Sm13  1  0.374861  0.625437  0.249627  1
  Sm  Sm14  1  0.874978  0.125005  0.249986  1
  Sm  Sm15  1  0.750000  0.625000  0.375000  1
  Sm  Sm16  1  0.125138  0.750373  0.374563  1
  Sm  Sm17  1  0.874978  0.249973  0.624992  1
  Sm  Sm18  1  0.250000  0.375000  0.625000  1
  Sm  Sm19  1  0.125138  0.874765  0.750575  1
  Sm  Sm20  1  0.625022  0.375008  0.750027  1
  Sm  Sm21  1  0.750000  0.125000  0.875000  1
  Sm  Sm22  1  0.625022  0.750015  0.874995  1
  Dy  Dy23  1  0.250000  0.875000  0.125000  1
  Te  Te24  1  0.000613  0.999120  0.000472  1
  Te  Te25  1  0.499388  0.999528  0.000881  1
  Te  Te26  1  0.000613  0.501493  0.000140  1
  Te  Te27  1  0.499952  0.499971  0.000049  1
  Te  Te28  1  0.000048  0.999951  0.500029  1
  Te  Te29  1  0.499952  0.499981  0.499903  1
  Te  Te30  1  0.499387  0.999860  0.498507  1
  Te  Te31  1  0.000048  0.500097  0.500019  1
  O  O32  1  0.196904  0.622495  0.026346  1
  O  O33  1  0.328500  0.406739  0.024610  1
  O  O34  1  0.695307  0.171064  0.077976  1
  O  O35  1  0.881913  0.906388  0.078187  1
  O  O36  1  0.618087  0.921813  0.093612  1
  O  O37  1  0.976399  0.170976  0.093828  1
  O  O38  1  0.026423  0.698310  0.118063  1
  O  O39  1  0.593272  0.421852  0.118016  1
  O  O40  1  0.196904  0.074409  0.170558  1
  O  O41  1  0.473578  0.091641  0.171888  1
  O  O42  1  0.118082  0.524941  0.195726  1
  O  O43  1  0.577926  0.671358  0.195964  1
  O  O44  1  0.473577  0.881937  0.301689  1
  O  O45  1  0.328501  0.421761  0.303891  1
  O  O46  1  0.906728  0.524744  0.328579  1
  O  O47  1  0.922074  0.804037  0.328643  1
  O  O48  1  0.303096  0.973654  0.377505  1
  O  O49  1  0.577925  0.406569  0.381963  1
  O  O50  1  0.828580  0.024489  0.406553  1
  O  O51  1  0.077875  0.382057  0.406583  1
  O  O52  1  0.828581  0.304091  0.422027  1
  O  O53  1  0.093498  0.118043  0.421938  1
  O  O54  1  0.381917  0.804273  0.475059  1
  O  O55  1  0.593272  0.671421  0.475257  1
  O  O56  1  0.618088  0.196276  0.524475  1
  O  O57  1  0.406501  0.328438  0.524544  1
  O  O58  1  0.171499  0.696109  0.578238  1
  O  O59  1  0.906729  0.881984  0.578148  1
  O  O60  1  0.171500  0.975391  0.593261  1
  O  O61  1  0.922074  0.618037  0.593431  1
  O  O62  1  0.422125  0.593416  0.617943  1
  O  O63  1  0.695306  0.024243  0.617331  1
  O  O64  1  0.077875  0.195818  0.671291  1
  O  O65  1  0.093499  0.475456  0.671561  1
  O  O66  1  0.671418  0.577973  0.695908  1
  O  O67  1  0.523602  0.117430  0.694578  1
  O  O68  1  0.881913  0.475525  0.803725  1
  O  O69  1  0.422126  0.328708  0.804182  1
  O  O70  1  0.804693  0.922025  0.828936  1
  O  O71  1  0.523601  0.906172  0.829023  1
  O  O72  1  0.976397  0.305422  0.882570  1
  O  O73  1  0.406501  0.578062  0.881956  1
  O  O74  1  0.381918  0.077643  0.906860  1
  O  O75  1  0.026421  0.828113  0.908359  1
  O  O76  1  0.118082  0.093141  0.922356  1
  O  O77  1  0.303096  0.829442  0.925592  1
  O  O78  1  0.804693  0.382669  0.975757  1
  O  O79  1  0.671420  0.593447  0.975511  1
