# generated using pymatgen
data_Y3Mg3CuAgRu
_symmetry_space_group_name_H-M   'P 1'
_cell_length_a   7.65344000
_cell_length_b   7.65344096
_cell_length_c   3.94409000
_cell_angle_alpha   90.00000000
_cell_angle_beta   90.00000000
_cell_angle_gamma   120.00000449
_symmetry_Int_Tables_number   1
_chemical_formula_structural   Y3Mg3CuAgRu
_chemical_formula_sum   'Y3 Mg3 Cu1 Ag1 Ru1'
_cell_volume   200.07408845
_cell_formula_units_Z   1
loop_
 _symmetry_equiv_pos_site_id
 _symmetry_equiv_pos_as_xyz
  1  'x, y, z'
loop_
 _atom_site_type_symbol
 _atom_site_label
 _atom_site_symmetry_multiplicity
 _atom_site_fract_x
 _atom_site_fract_y
 _atom_site_fract_z
 _atom_site_occupancy
  Y  Y0  1  0.426455  0.394222  0.500000  1
  Y  Y1  1  0.967767  0.573545  0.500000  1
  Y  Y2  1  0.605778  0.032233  0.500000  1
  Mg  Mg3  1  0.753581  0.753768  0.000000  1
  Mg  Mg4  1  0.246232  0.999813  0.000000  1
  Mg  Mg5  1  0.000187  0.246419  0.000000  1
  Cu  Cu6  1  0.000000  0.000000  0.500000  1
  Ag  Ag7  1  0.333333  0.666667  0.000000  1
  Ru  Ru8  1  0.666667  0.333333  0.000000  1
