# generated using pymatgen
data_Lu8Re(B8Os)3
_symmetry_space_group_name_H-M   'P 1'
_cell_length_a   3.60419500
_cell_length_b   9.03702007
_cell_length_c   11.40634961
_cell_angle_alpha   90.07760930
_cell_angle_beta   90.00000000
_cell_angle_gamma   90.00000000
_symmetry_Int_Tables_number   1
_chemical_formula_structural   Lu8Re(B8Os)3
_chemical_formula_sum   'Lu8 Re1 B24 Os3'
_cell_volume   371.51795487
_cell_formula_units_Z   1
loop_
 _symmetry_equiv_pos_site_id
 _symmetry_equiv_pos_as_xyz
  1  'x, y, z'
loop_
 _atom_site_type_symbol
 _atom_site_label
 _atom_site_symmetry_multiplicity
 _atom_site_fract_x
 _atom_site_fract_y
 _atom_site_fract_z
 _atom_site_occupancy
  Lu  Lu0  1  0.000000  0.321517  0.415024  1
  Lu  Lu1  1  0.000000  0.681341  0.588234  1
  Lu  Lu2  1  0.000000  0.821633  0.083220  1
  Lu  Lu3  1  0.000000  0.177159  0.913212  1
  Lu  Lu4  1  0.000000  0.943544  0.372455  1
  Lu  Lu5  1  0.000000  0.055714  0.627439  1
  Lu  Lu6  1  0.000000  0.443179  0.127254  1
  Lu  Lu7  1  0.000000  0.556320  0.873080  1
  Re  Re8  1  0.000000  0.862409  0.821331  1
  B  B9  1  0.500000  0.553477  0.434063  1
  B  B10  1  0.500000  0.446649  0.566217  1
  B  B11  1  0.500000  0.053360  0.066599  1
  B  B12  1  0.500000  0.947452  0.933992  1
  B  B13  1  0.500000  0.749560  0.420212  1
  B  B14  1  0.500000  0.250479  0.579658  1
  B  B15  1  0.500000  0.249253  0.079947  1
  B  B16  1  0.500000  0.750200  0.920062  1
  B  B17  1  0.500000  0.791751  0.265470  1
  B  B18  1  0.500000  0.208038  0.733775  1
  B  B19  1  0.500000  0.292216  0.234576  1
  B  B20  1  0.500000  0.707175  0.765413  1
  B  B21  1  0.500000  0.630717  0.184436  1
  B  B22  1  0.500000  0.368830  0.815174  1
  B  B23  1  0.500000  0.131324  0.315752  1
  B  B24  1  0.500000  0.869048  0.684558  1
  B  B25  1  0.500000  0.981761  0.212880  1
  B  B26  1  0.500000  0.019234  0.787100  1
  B  B27  1  0.500000  0.481558  0.287597  1
  B  B28  1  0.500000  0.518303  0.712848  1
  B  B29  1  0.500000  0.603956  0.029425  1
  B  B30  1  0.500000  0.394369  0.971059  1
  B  B31  1  0.500000  0.105339  0.470617  1
  B  B32  1  0.500000  0.895259  0.528478  1
  Os  Os33  1  0.000000  0.637299  0.321372  1
  Os  Os34  1  0.000000  0.362696  0.678076  1
  Os  Os35  1  0.000000  0.137885  0.179393  1
