# generated using pymatgen
data_Ti5Ga2Bi
_symmetry_space_group_name_H-M   'P 1'
_cell_length_a   5.17677781
_cell_length_b   7.76211791
_cell_length_c   7.88531744
_cell_angle_alpha   83.71575143
_cell_angle_beta   70.83716352
_cell_angle_gamma   70.52083234
_symmetry_Int_Tables_number   1
_chemical_formula_structural   Ti5Ga2Bi
_chemical_formula_sum   'Ti10 Ga4 Bi2'
_cell_volume   282.16587222
_cell_formula_units_Z   2
loop_
 _symmetry_equiv_pos_site_id
 _symmetry_equiv_pos_as_xyz
  1  'x, y, z'
loop_
 _atom_site_type_symbol
 _atom_site_label
 _atom_site_symmetry_multiplicity
 _atom_site_fract_x
 _atom_site_fract_y
 _atom_site_fract_z
 _atom_site_occupancy
  Ti  Ti0  1  0.713323  0.874034  0.699321  1
  Ti  Ti1  1  0.286677  0.125966  0.300679  1
  Ti  Ti2  1  0.776860  0.287666  0.158615  1
  Ti  Ti3  1  0.223140  0.712334  0.841385  1
  Ti  Ti4  1  0.564525  0.712334  0.158615  1
  Ti  Ti5  1  0.435475  0.287666  0.841385  1
  Ti  Ti6  1  0.087356  0.125966  0.699321  1
  Ti  Ti7  1  0.912644  0.874034  0.300679  1
  Ti  Ti8  1  0.736966  0.500000  0.500000  1
  Ti  Ti9  1  0.263034  0.500000  0.500000  1
  Ga  Ga10  1  0.338371  0.823259  0.500000  1
  Ga  Ga11  1  0.661629  0.176741  0.500000  1
  Ga  Ga12  1  0.250000  0.000000  0.000000  1
  Ga  Ga13  1  0.750000  0.000000  0.000000  1
  Bi  Bi14  1  0.166412  0.500000  0.167175  1
  Bi  Bi15  1  0.833588  0.500000  0.832825  1
