# generated using pymatgen
data_Lu12Cd2Fe2Re
_symmetry_space_group_name_H-M   'P 1'
_cell_length_a   8.17666691
_cell_length_b   8.17666660
_cell_length_c   8.17666574
_cell_angle_alpha   108.66335148
_cell_angle_beta   108.66336037
_cell_angle_gamma   111.09931709
_symmetry_Int_Tables_number   1
_chemical_formula_structural   Lu12Cd2Fe2Re
_chemical_formula_sum   'Lu12 Cd2 Fe2 Re1'
_cell_volume   420.57460088
_cell_formula_units_Z   1
loop_
 _symmetry_equiv_pos_site_id
 _symmetry_equiv_pos_as_xyz
  1  'x, y, z'
loop_
 _atom_site_type_symbol
 _atom_site_label
 _atom_site_symmetry_multiplicity
 _atom_site_fract_x
 _atom_site_fract_y
 _atom_site_fract_z
 _atom_site_occupancy
  Lu  Lu0  1  0.308462  0.308462  0.616924  1
  Lu  Lu1  1  0.691538  0.691538  0.383076  1
  Lu  Lu2  1  0.691538  0.308462  0.000000  1
  Lu  Lu3  1  0.308462  0.691538  0.000000  1
  Lu  Lu4  1  0.193384  0.432018  0.238634  1
  Lu  Lu5  1  0.806616  0.567982  0.761366  1
  Lu  Lu6  1  0.193384  0.954750  0.761366  1
  Lu  Lu7  1  0.954750  0.193384  0.761366  1
  Lu  Lu8  1  0.806616  0.045250  0.238634  1
  Lu  Lu9  1  0.045250  0.806616  0.238634  1
  Lu  Lu10  1  0.432018  0.193384  0.238634  1
  Lu  Lu11  1  0.567982  0.806616  0.761366  1
  Cd  Cd12  1  0.000000  0.500000  0.500000  1
  Cd  Cd13  1  0.500000  0.000000  0.500000  1
  Fe  Fe14  1  0.383117  0.383117  0.000000  1
  Fe  Fe15  1  0.616883  0.616883  0.000000  1
  Re  Re16  1  0.000000  0.000000  0.000000  1
