# generated using pymatgen
data_Li2Nd8AlSi12Pd
_symmetry_space_group_name_H-M   'P 1'
_cell_length_a   8.28040600
_cell_length_b   8.28040691
_cell_length_c   8.47271200
_cell_angle_alpha   90.00000000
_cell_angle_beta   90.00000000
_cell_angle_gamma   119.99999637
_symmetry_Int_Tables_number   1
_chemical_formula_structural   Li2Nd8AlSi12Pd
_chemical_formula_sum   'Li2 Nd8 Al1 Si12 Pd1'
_cell_volume   503.10241543
_cell_formula_units_Z   1
loop_
 _symmetry_equiv_pos_site_id
 _symmetry_equiv_pos_as_xyz
  1  'x, y, z'
loop_
 _atom_site_type_symbol
 _atom_site_label
 _atom_site_symmetry_multiplicity
 _atom_site_fract_x
 _atom_site_fract_y
 _atom_site_fract_z
 _atom_site_occupancy
  Li  Li0  1  0.333333  0.666667  0.001203  1
  Li  Li1  1  0.333333  0.666667  0.499456  1
  Nd  Nd2  1  0.500983  0.499017  0.750112  1
  Nd  Nd3  1  0.501264  0.498736  0.249899  1
  Nd  Nd4  1  0.998035  0.499017  0.750112  1
  Nd  Nd5  1  0.997472  0.498736  0.249899  1
  Nd  Nd6  1  0.500983  0.001965  0.750112  1
  Nd  Nd7  1  0.501264  0.002528  0.249899  1
  Nd  Nd8  1  0.000000  0.000000  0.748985  1
  Nd  Nd9  1  0.000000  0.000000  0.251002  1
  Al  Al10  1  0.666667  0.333333  0.999359  1
  Si  Si11  1  0.837503  0.162497  0.000058  1
  Si  Si12  1  0.168265  0.831735  0.999855  1
  Si  Si13  1  0.324995  0.162497  0.000058  1
  Si  Si14  1  0.165355  0.834645  0.499972  1
  Si  Si15  1  0.663469  0.831735  0.999855  1
  Si  Si16  1  0.833294  0.166706  0.500129  1
  Si  Si17  1  0.837503  0.675005  0.000058  1
  Si  Si18  1  0.669289  0.834645  0.499972  1
  Si  Si19  1  0.168265  0.336531  0.999855  1
  Si  Si20  1  0.333412  0.166706  0.500129  1
  Si  Si21  1  0.165355  0.330711  0.499972  1
  Si  Si22  1  0.833294  0.666588  0.500129  1
  Pd  Pd23  1  0.666667  0.333333  0.499918  1
