# generated using pymatgen
data_Yb2HoTm(B4Os)4
_symmetry_space_group_name_H-M   'P 1'
_cell_length_a   3.54556200
_cell_length_b   5.95436509
_cell_length_c   11.50755828
_cell_angle_alpha   89.83987200
_cell_angle_beta   90.00000000
_cell_angle_gamma   90.00000000
_symmetry_Int_Tables_number   1
_chemical_formula_structural   Yb2HoTm(B4Os)4
_chemical_formula_sum   'Yb2 Ho1 Tm1 B16 Os4'
_cell_volume   242.94168041
_cell_formula_units_Z   1
loop_
 _symmetry_equiv_pos_site_id
 _symmetry_equiv_pos_as_xyz
  1  'x, y, z'
loop_
 _atom_site_type_symbol
 _atom_site_label
 _atom_site_symmetry_multiplicity
 _atom_site_fract_x
 _atom_site_fract_y
 _atom_site_fract_z
 _atom_site_occupancy
  Yb  Yb0  1  0.000000  0.628791  0.850914  1
  Yb  Yb1  1  0.000000  0.371232  0.149151  1
  Ho  Ho2  1  0.000000  0.128638  0.650600  1
  Tm  Tm3  1  0.000000  0.871287  0.349392  1
  B  B4  1  0.500000  0.474835  0.692043  1
  B  B5  1  0.500000  0.525714  0.307906  1
  B  B6  1  0.500000  0.975346  0.808782  1
  B  B7  1  0.500000  0.024452  0.191635  1
  B  B8  1  0.500000  0.288925  0.815354  1
  B  B9  1  0.500000  0.711118  0.184946  1
  B  B10  1  0.500000  0.787531  0.686053  1
  B  B11  1  0.500000  0.211756  0.313924  1
  B  B12  1  0.500000  0.363948  0.969500  1
  B  B13  1  0.500000  0.636101  0.030550  1
  B  B14  1  0.500000  0.863766  0.530006  1
  B  B15  1  0.500000  0.135982  0.469496  1
  B  B16  1  0.500000  0.387874  0.547343  1
  B  B17  1  0.500000  0.612916  0.452236  1
  B  B18  1  0.500000  0.885985  0.953197  1
  B  B19  1  0.500000  0.113906  0.046911  1
  Os  Os20  1  0.000000  0.136995  0.909207  1
  Os  Os21  1  0.000000  0.863046  0.091294  1
  Os  Os22  1  0.000000  0.641793  0.591365  1
  Os  Os23  1  0.000000  0.358062  0.408196  1
