# generated using pymatgen
data_YTh(GaIr)2
_symmetry_space_group_name_H-M   'P 1'
_cell_length_a   4.39577800
_cell_length_b   6.92250100
_cell_length_c   7.90004000
_cell_angle_alpha   90.00000000
_cell_angle_beta   90.00000000
_cell_angle_gamma   90.00000000
_symmetry_Int_Tables_number   1
_chemical_formula_structural   YTh(GaIr)2
_chemical_formula_sum   'Y2 Th2 Ga4 Ir4'
_cell_volume   240.39646024
_cell_formula_units_Z   2
loop_
 _symmetry_equiv_pos_site_id
 _symmetry_equiv_pos_as_xyz
  1  'x, y, z'
loop_
 _atom_site_type_symbol
 _atom_site_label
 _atom_site_symmetry_multiplicity
 _atom_site_fract_x
 _atom_site_fract_y
 _atom_site_fract_z
 _atom_site_occupancy
  Y  Y0  1  0.750000  0.026908  0.694026  1
  Y  Y1  1  0.750000  0.526908  0.805974  1
  Th  Th2  1  0.250000  0.972813  0.316765  1
  Th  Th3  1  0.250000  0.472813  0.183235  1
  Ga  Ga4  1  0.250000  0.347535  0.576761  1
  Ga  Ga5  1  0.250000  0.847535  0.923239  1
  Ga  Ga6  1  0.750000  0.653334  0.440239  1
  Ga  Ga7  1  0.750000  0.153334  0.059761  1
  Ir  Ir8  1  0.250000  0.233578  0.892313  1
  Ir  Ir9  1  0.250000  0.733578  0.607687  1
  Ir  Ir10  1  0.750000  0.765832  0.114707  1
  Ir  Ir11  1  0.750000  0.265832  0.385293  1
