# generated using pymatgen
data_Nd6Fe2Mo(P4Rh5)3
_symmetry_space_group_name_H-M   'P 1'
_cell_length_a   3.93848700
_cell_length_b   11.26730100
_cell_length_c   12.99274000
_cell_angle_alpha   90.00000000
_cell_angle_beta   90.00000000
_cell_angle_gamma   90.00000000
_symmetry_Int_Tables_number   1
_chemical_formula_structural   Nd6Fe2Mo(P4Rh5)3
_chemical_formula_sum   'Nd6 Fe2 Mo1 P12 Rh15'
_cell_volume   576.56737006
_cell_formula_units_Z   1
loop_
 _symmetry_equiv_pos_site_id
 _symmetry_equiv_pos_as_xyz
  1  'x, y, z'
loop_
 _atom_site_type_symbol
 _atom_site_label
 _atom_site_symmetry_multiplicity
 _atom_site_fract_x
 _atom_site_fract_y
 _atom_site_fract_z
 _atom_site_occupancy
  Nd  Nd0  1  0.000000  0.500000  0.518338  1
  Nd  Nd1  1  0.500000  0.000000  0.479433  1
  Nd  Nd2  1  0.500000  0.816519  0.202080  1
  Nd  Nd3  1  0.500000  0.183481  0.202080  1
  Nd  Nd4  1  0.000000  0.680773  0.800514  1
  Nd  Nd5  1  0.000000  0.319227  0.800514  1
  Fe  Fe6  1  0.000000  0.500000  0.991471  1
  Fe  Fe7  1  0.500000  0.000000  0.010787  1
  Mo  Mo8  1  0.500000  0.500000  0.154903  1
  P  P9  1  0.500000  0.500000  0.886716  1
  P  P10  1  0.000000  0.000000  0.113184  1
  P  P11  1  0.500000  0.500000  0.339784  1
  P  P12  1  0.000000  0.000000  0.656207  1
  P  P13  1  0.500000  0.312408  0.618803  1
  P  P14  1  0.500000  0.687592  0.618803  1
  P  P15  1  0.000000  0.188781  0.381897  1
  P  P16  1  0.000000  0.811219  0.381897  1
  P  P17  1  0.500000  0.852854  0.896771  1
  P  P18  1  0.500000  0.147146  0.896771  1
  P  P19  1  0.000000  0.646582  0.103004  1
  P  P20  1  0.000000  0.353418  0.103004  1
  Rh  Rh21  1  0.000000  0.000000  0.837834  1
  Rh  Rh22  1  0.500000  0.500000  0.702511  1
  Rh  Rh23  1  0.000000  0.000000  0.296943  1
  Rh  Rh24  1  0.500000  0.333483  0.992161  1
  Rh  Rh25  1  0.500000  0.666517  0.992161  1
  Rh  Rh26  1  0.000000  0.164998  0.007820  1
  Rh  Rh27  1  0.000000  0.835002  0.007820  1
  Rh  Rh28  1  0.500000  0.291408  0.431715  1
  Rh  Rh29  1  0.500000  0.708592  0.431715  1
  Rh  Rh30  1  0.000000  0.206304  0.571083  1
  Rh  Rh31  1  0.000000  0.793696  0.571083  1
  Rh  Rh32  1  0.500000  0.875929  0.712526  1
  Rh  Rh33  1  0.500000  0.124071  0.712526  1
  Rh  Rh34  1  0.000000  0.623882  0.287570  1
  Rh  Rh35  1  0.000000  0.376118  0.287570  1
