# generated using pymatgen
data_Tm16In6FeCo
_symmetry_space_group_name_H-M   'P 1'
_cell_length_a   10.23377200
_cell_length_b   10.23377154
_cell_length_c   6.93002600
_cell_angle_alpha   90.00000000
_cell_angle_beta   90.00000000
_cell_angle_gamma   120.00000148
_symmetry_Int_Tables_number   1
_chemical_formula_structural   Tm16In6FeCo
_chemical_formula_sum   'Tm16 In6 Fe1 Co1'
_cell_volume   628.54582185
_cell_formula_units_Z   1
loop_
 _symmetry_equiv_pos_site_id
 _symmetry_equiv_pos_as_xyz
  1  'x, y, z'
loop_
 _atom_site_type_symbol
 _atom_site_label
 _atom_site_symmetry_multiplicity
 _atom_site_fract_x
 _atom_site_fract_y
 _atom_site_fract_z
 _atom_site_occupancy
  Tm  Tm0  1  0.534482  0.068964  0.513372  1
  Tm  Tm1  1  0.931036  0.465518  0.513372  1
  Tm  Tm2  1  0.534482  0.465518  0.513372  1
  Tm  Tm3  1  0.466109  0.932218  0.013852  1
  Tm  Tm4  1  0.067782  0.533891  0.013852  1
  Tm  Tm5  1  0.466109  0.533891  0.013852  1
  Tm  Tm6  1  0.178726  0.357452  0.720314  1
  Tm  Tm7  1  0.642548  0.821274  0.720314  1
  Tm  Tm8  1  0.178726  0.821274  0.720314  1
  Tm  Tm9  1  0.821131  0.642263  0.220838  1
  Tm  Tm10  1  0.357737  0.178869  0.220838  1
  Tm  Tm11  1  0.821131  0.178869  0.220838  1
  Tm  Tm12  1  0.666667  0.333333  0.901959  1
  Tm  Tm13  1  0.333333  0.666667  0.402714  1
  Tm  Tm14  1  0.000000  0.000000  0.500554  1
  Tm  Tm15  1  0.000000  0.000000  0.000269  1
  In  In16  1  0.837067  0.674134  0.760749  1
  In  In17  1  0.325866  0.162933  0.760749  1
  In  In18  1  0.837067  0.162933  0.760749  1
  In  In19  1  0.163286  0.326571  0.261192  1
  In  In20  1  0.673429  0.836714  0.261192  1
  In  In21  1  0.163286  0.836714  0.261192  1
  Fe  Fe22  1  0.666667  0.333333  0.291291  1
  Co  Co23  1  0.333333  0.666667  0.790267  1
