# generated using pymatgen
data_ScGaSnO5
_symmetry_space_group_name_H-M   'P 1'
_cell_length_a   3.21255900
_cell_length_b   10.95742425
_cell_length_c   11.90019498
_cell_angle_alpha   81.11599543
_cell_angle_beta   90.00000000
_cell_angle_gamma   90.00000000
_symmetry_Int_Tables_number   1
_chemical_formula_structural   ScGaSnO5
_chemical_formula_sum   'Sc4 Ga4 Sn4 O20'
_cell_volume   413.87761509
_cell_formula_units_Z   4
loop_
 _symmetry_equiv_pos_site_id
 _symmetry_equiv_pos_as_xyz
  1  'x, y, z'
loop_
 _atom_site_type_symbol
 _atom_site_label
 _atom_site_symmetry_multiplicity
 _atom_site_fract_x
 _atom_site_fract_y
 _atom_site_fract_z
 _atom_site_occupancy
  Sc  Sc0  1  0.500000  0.697648  0.077152  1
  Sc  Sc1  1  0.500000  0.302352  0.922848  1
  Sc  Sc2  1  0.000000  0.618055  0.326567  1
  Sc  Sc3  1  0.000000  0.381945  0.673433  1
  Ga  Ga4  1  0.500000  0.911522  0.263297  1
  Ga  Ga5  1  0.500000  0.088478  0.736703  1
  Ga  Ga6  1  0.000000  0.402857  0.149852  1
  Ga  Ga7  1  0.000000  0.597143  0.850148  1
  Sn  Sn8  1  0.000000  0.000000  0.000000  1
  Sn  Sn9  1  0.000000  0.000000  0.500000  1
  Sn  Sn10  1  0.500000  0.686557  0.591898  1
  Sn  Sn11  1  0.500000  0.313443  0.408102  1
  O  O12  1  0.000000  0.683879  0.481283  1
  O  O13  1  0.000000  0.316121  0.518717  1
  O  O14  1  0.500000  0.882387  0.547391  1
  O  O15  1  0.500000  0.117613  0.452609  1
  O  O16  1  0.000000  0.574987  0.149296  1
  O  O17  1  0.000000  0.425013  0.850704  1
  O  O18  1  0.500000  0.000723  0.116203  1
  O  O19  1  0.500000  0.999277  0.883797  1
  O  O20  1  0.500000  0.742764  0.254807  1
  O  O21  1  0.500000  0.257236  0.745193  1
  O  O22  1  0.500000  0.501743  0.360802  1
  O  O23  1  0.500000  0.498257  0.639198  1
  O  O24  1  0.000000  0.811623  0.034409  1
  O  O25  1  0.000000  0.188377  0.965591  1
  O  O26  1  0.000000  0.301761  0.293055  1
  O  O27  1  0.000000  0.698239  0.706945  1
  O  O28  1  0.000000  0.951221  0.333106  1
  O  O29  1  0.000000  0.048779  0.666894  1
  O  O30  1  0.500000  0.369398  0.079490  1
  O  O31  1  0.500000  0.630602  0.920510  1
