# generated using pymatgen
data_Tb6TcTe2
_symmetry_space_group_name_H-M   'P 1'
_cell_length_a   8.37736600
_cell_length_b   8.37736578
_cell_length_c   4.06458900
_cell_angle_alpha   90.00000000
_cell_angle_beta   90.00000000
_cell_angle_gamma   119.99950180
_symmetry_Int_Tables_number   1
_chemical_formula_structural   Tb6TcTe2
_chemical_formula_sum   'Tb6 Tc1 Te2'
_cell_volume   247.03837244
_cell_formula_units_Z   1
loop_
 _symmetry_equiv_pos_site_id
 _symmetry_equiv_pos_as_xyz
  1  'x, y, z'
loop_
 _atom_site_type_symbol
 _atom_site_label
 _atom_site_symmetry_multiplicity
 _atom_site_fract_x
 _atom_site_fract_y
 _atom_site_fract_z
 _atom_site_occupancy
  Tb  Tb0  1  0.238860  0.000011  0.000000  1
  Tb  Tb1  1  0.000011  0.238860  0.000000  1
  Tb  Tb2  1  0.761154  0.761154  0.000000  1
  Tb  Tb3  1  0.603277  0.000010  0.500000  1
  Tb  Tb4  1  0.396729  0.396729  0.500000  1
  Tb  Tb5  1  0.000010  0.603276  0.500000  1
  Tc  Tc6  1  0.000014  0.000014  0.500000  1
  Te  Te7  1  0.666671  0.333337  0.000000  1
  Te  Te8  1  0.333337  0.666671  0.000000  1
