# generated using pymatgen
data_Pr2Nd10Co(PtBr4)3
_symmetry_space_group_name_H-M   'P 1'
_cell_length_a   10.46398556
_cell_length_b   10.47022738
_cell_length_c   10.47092903
_cell_angle_alpha   109.33107392
_cell_angle_beta   109.25324785
_cell_angle_gamma   109.22567709
_symmetry_Int_Tables_number   1
_chemical_formula_structural   Pr2Nd10Co(PtBr4)3
_chemical_formula_sum   'Pr2 Nd10 Co1 Pt3 Br12'
_cell_volume   889.63136390
_cell_formula_units_Z   1
loop_
 _symmetry_equiv_pos_site_id
 _symmetry_equiv_pos_as_xyz
  1  'x, y, z'
loop_
 _atom_site_type_symbol
 _atom_site_label
 _atom_site_symmetry_multiplicity
 _atom_site_fract_x
 _atom_site_fract_y
 _atom_site_fract_z
 _atom_site_occupancy
  Pr  Pr0  1  0.260460  0.022724  0.032212  1
  Pr  Pr1  1  0.236837  0.263238  0.749992  1
  Nd  Nd2  1  0.466833  0.477066  0.239386  1
  Nd  Nd3  1  0.750282  0.236532  0.263781  1
  Nd  Nd4  1  0.749710  0.013864  0.485858  1
  Nd  Nd5  1  0.239207  0.466792  0.476309  1
  Nd  Nd6  1  0.263592  0.749719  0.236420  1
  Nd  Nd7  1  0.033147  0.261191  0.023597  1
  Nd  Nd8  1  0.023099  0.033190  0.260927  1
  Nd  Nd9  1  0.486098  0.750150  0.014279  1
  Nd  Nd10  1  0.476914  0.239180  0.467053  1
  Nd  Nd11  1  0.013915  0.486014  0.749980  1
  Co  Co12  1  0.249999  0.250418  0.250460  1
  Pt  Pt13  1  0.499996  0.000593  0.250643  1
  Pt  Pt14  1  0.000023  0.250090  0.498904  1
  Pt  Pt15  1  0.249929  0.500043  0.001117  1
  Br  Br16  1  0.250023  0.752594  0.746252  1
  Br  Br17  1  0.510005  0.505653  0.754182  1
  Br  Br18  1  0.990042  0.745036  0.995525  1
  Br  Br19  1  0.746812  0.250058  0.753217  1
  Br  Br20  1  0.993449  0.989976  0.744915  1
  Br  Br21  1  0.249977  0.994231  0.504188  1
  Br  Br22  1  0.754203  0.509211  0.504683  1
  Br  Br23  1  0.506789  0.250987  0.996013  1
  Br  Br24  1  0.753197  0.746779  0.249954  1
  Br  Br25  1  0.745789  0.995330  0.990817  1
  Br  Br26  1  0.994923  0.505013  0.250024  1
  Br  Br27  1  0.504750  0.754327  0.509310  1
