# generated using pymatgen
data_La7PrCd2OsPt
_symmetry_space_group_name_H-M   'P 1'
_cell_length_a   10.14071643
_cell_length_b   10.14071637
_cell_length_c   10.22907100
_cell_angle_alpha   59.71135669
_cell_angle_beta   59.71135690
_cell_angle_gamma   59.60630890
_symmetry_Int_Tables_number   1
_chemical_formula_structural   La7PrCd2OsPt
_chemical_formula_sum   'La14 Pr2 Cd4 Os2 Pt2'
_cell_volume   738.33310530
_cell_formula_units_Z   2
loop_
 _symmetry_equiv_pos_site_id
 _symmetry_equiv_pos_as_xyz
  1  'x, y, z'
loop_
 _atom_site_type_symbol
 _atom_site_label
 _atom_site_symmetry_multiplicity
 _atom_site_fract_x
 _atom_site_fract_y
 _atom_site_fract_z
 _atom_site_occupancy
  La  La0  1  0.346954  0.346954  0.353472  1
  La  La1  1  0.346954  0.346954  0.952620  1
  La  La2  1  0.343243  0.959121  0.348818  1
  La  La3  1  0.959121  0.343243  0.348818  1
  La  La4  1  0.815452  0.189983  0.190776  1
  La  La5  1  0.189983  0.815452  0.803789  1
  La  La6  1  0.189983  0.815452  0.190776  1
  La  La7  1  0.815452  0.189983  0.803789  1
  La  La8  1  0.188789  0.188789  0.811211  1
  La  La9  1  0.806049  0.806049  0.193951  1
  La  La10  1  0.938364  0.557017  0.564933  1
  La  La11  1  0.557017  0.938364  0.939686  1
  La  La12  1  0.557017  0.938364  0.564933  1
  La  La13  1  0.938364  0.557017  0.939686  1
  Pr  Pr14  1  0.562314  0.562314  0.937686  1
  Pr  Pr15  1  0.939408  0.939408  0.560592  1
  Cd  Cd16  1  0.579384  0.579384  0.580151  1
  Cd  Cd17  1  0.579384  0.579384  0.261082  1
  Cd  Cd18  1  0.580239  0.260230  0.579764  1
  Cd  Cd19  1  0.260230  0.580239  0.579764  1
  Os  Os20  1  0.142749  0.142749  0.137269  1
  Os  Os21  1  0.142749  0.142749  0.577235  1
  Pt  Pt22  1  0.145147  0.575659  0.139597  1
  Pt  Pt23  1  0.575659  0.145147  0.139597  1
