# generated using pymatgen
data_Li6Sc12Ir5Pt
_symmetry_space_group_name_H-M   'P 1'
_cell_length_a   4.69405100
_cell_length_b   6.55283900
_cell_length_c   13.79634400
_cell_angle_alpha   89.99982950
_cell_angle_beta   89.99971807
_cell_angle_gamma   89.99994590
_symmetry_Int_Tables_number   1
_chemical_formula_structural   Li6Sc12Ir5Pt
_chemical_formula_sum   'Li6 Sc12 Ir5 Pt1'
_cell_volume   424.36671817
_cell_formula_units_Z   1
loop_
 _symmetry_equiv_pos_site_id
 _symmetry_equiv_pos_as_xyz
  1  'x, y, z'
loop_
 _atom_site_type_symbol
 _atom_site_label
 _atom_site_symmetry_multiplicity
 _atom_site_fract_x
 _atom_site_fract_y
 _atom_site_fract_z
 _atom_site_occupancy
  Li  Li0  1  0.999983  0.499999  0.999746  1
  Li  Li1  1  0.499763  0.000001  0.167359  1
  Li  Li2  1  0.999784  0.500000  0.333322  1
  Li  Li3  1  0.499998  0.000002  0.499324  1
  Li  Li4  1  0.000228  0.499998  0.666955  1
  Li  Li5  1  0.500237  0.000000  0.833323  1
  Sc  Sc6  1  0.499991  0.248646  0.002249  1
  Sc  Sc7  1  0.499990  0.751353  0.002248  1
  Sc  Sc8  1  0.999846  0.248315  0.166969  1
  Sc  Sc9  1  0.999843  0.751685  0.166969  1
  Sc  Sc10  1  0.499836  0.251561  0.333407  1
  Sc  Sc11  1  0.499840  0.748440  0.333406  1
  Sc  Sc12  1  0.999996  0.248321  0.499784  1
  Sc  Sc13  1  0.999997  0.751682  0.499785  1
  Sc  Sc14  1  0.500180  0.248643  0.664317  1
  Sc  Sc15  1  0.500188  0.751354  0.664319  1
  Sc  Sc16  1  0.000176  0.243148  0.833215  1
  Sc  Sc17  1  0.000177  0.756844  0.833216  1
  Ir  Ir18  1  0.999996  0.000001  0.999520  1
  Ir  Ir19  1  0.499821  0.500000  0.166398  1
  Ir  Ir20  1  0.999786  0.000002  0.333326  1
  Ir  Ir21  1  0.500001  0.499999  0.500273  1
  Ir  Ir22  1  0.000164  0.999998  0.667201  1
  Pt  Pt23  1  0.500169  0.499998  0.833365  1
