# generated using pymatgen
data_YAlGa2Ag
_symmetry_space_group_name_H-M   'P 1'
_cell_length_a   4.16346818
_cell_length_b   4.15369338
_cell_length_c   6.32488691
_cell_angle_alpha   70.83067508
_cell_angle_beta   70.78379305
_cell_angle_gamma   90.00000224
_symmetry_Int_Tables_number   1
_chemical_formula_structural   YAlGa2Ag
_chemical_formula_sum   'Y1 Al1 Ga2 Ag1'
_cell_volume   96.84092595
_cell_formula_units_Z   1
loop_
 _symmetry_equiv_pos_site_id
 _symmetry_equiv_pos_as_xyz
  1  'x, y, z'
loop_
 _atom_site_type_symbol
 _atom_site_label
 _atom_site_symmetry_multiplicity
 _atom_site_fract_x
 _atom_site_fract_y
 _atom_site_fract_z
 _atom_site_occupancy
  Y  Y0  1  0.000114  0.000114  0.999771  1
  Al  Al1  1  0.249804  0.749804  0.500393  1
  Ga  Ga2  1  0.607848  0.607848  0.784305  1
  Ga  Ga3  1  0.391990  0.391990  0.216020  1
  Ag  Ag4  1  0.750245  0.250245  0.499511  1
