# generated using pymatgen
data_Ho2Re(BRu)4
_symmetry_space_group_name_H-M   'P 1'
_cell_length_a   3.08229400
_cell_length_b   8.76628117
_cell_length_c   10.22286014
_cell_angle_alpha   90.16439556
_cell_angle_beta   90.00000000
_cell_angle_gamma   90.00000000
_symmetry_Int_Tables_number   1
_chemical_formula_structural   Ho2Re(BRu)4
_chemical_formula_sum   'Ho4 Re2 B8 Ru8'
_cell_volume   276.22315930
_cell_formula_units_Z   2
loop_
 _symmetry_equiv_pos_site_id
 _symmetry_equiv_pos_as_xyz
  1  'x, y, z'
loop_
 _atom_site_type_symbol
 _atom_site_label
 _atom_site_symmetry_multiplicity
 _atom_site_fract_x
 _atom_site_fract_y
 _atom_site_fract_z
 _atom_site_occupancy
  Ho  Ho0  1  0.500000  0.840711  0.180515  1
  Ho  Ho1  1  0.500000  0.159289  0.819485  1
  Ho  Ho2  1  0.500000  0.659821  0.683080  1
  Ho  Ho3  1  0.500000  0.340179  0.316920  1
  Re  Re4  1  0.000000  0.658674  0.954036  1
  Re  Re5  1  0.000000  0.341326  0.045964  1
  B  B6  1  0.500000  0.966448  0.588859  1
  B  B7  1  0.500000  0.033552  0.411141  1
  B  B8  1  0.500000  0.847019  0.903391  1
  B  B9  1  0.500000  0.152981  0.096609  1
  B  B10  1  0.500000  0.646584  0.399028  1
  B  B11  1  0.500000  0.353416  0.600972  1
  B  B12  1  0.500000  0.464990  0.913401  1
  B  B13  1  0.500000  0.535010  0.086599  1
  Ru  Ru14  1  0.000000  0.842751  0.454366  1
  Ru  Ru15  1  0.000000  0.157249  0.545634  1
  Ru  Ru16  1  0.000000  0.000000  0.000000  1
  Ru  Ru17  1  0.000000  0.406003  0.759020  1
  Ru  Ru18  1  0.000000  0.593997  0.240980  1
  Ru  Ru19  1  0.000000  0.500000  0.500000  1
  Ru  Ru20  1  0.000000  0.907692  0.738719  1
  Ru  Ru21  1  0.000000  0.092308  0.261281  1
