# generated using pymatgen
data_Tm9LuSi5Sn
_symmetry_space_group_name_H-M   'P 1'
_cell_length_a   8.40161710
_cell_length_b   8.40457990
_cell_length_c   6.25521210
_cell_angle_alpha   89.98159997
_cell_angle_beta   90.01713197
_cell_angle_gamma   120.16753445
_symmetry_Int_Tables_number   1
_chemical_formula_structural   Tm9LuSi5Sn
_chemical_formula_sum   'Tm9 Lu1 Si5 Sn1'
_cell_volume   381.87030648
_cell_formula_units_Z   1
loop_
 _symmetry_equiv_pos_site_id
 _symmetry_equiv_pos_as_xyz
  1  'x, y, z'
loop_
 _atom_site_type_symbol
 _atom_site_label
 _atom_site_symmetry_multiplicity
 _atom_site_fract_x
 _atom_site_fract_y
 _atom_site_fract_z
 _atom_site_occupancy
  Tm  Tm0  1  0.331481  0.673844  0.503115  1
  Tm  Tm1  1  0.331422  0.673841  0.996900  1
  Tm  Tm2  1  0.673825  0.331485  0.996954  1
  Tm  Tm3  1  0.765808  0.765641  0.250194  1
  Tm  Tm4  1  0.240212  0.989608  0.250169  1
  Tm  Tm5  1  0.989216  0.240044  0.250249  1
  Tm  Tm6  1  0.240842  0.240677  0.749796  1
  Tm  Tm7  1  0.756550  0.998767  0.749761  1
  Tm  Tm8  1  0.998388  0.756380  0.749790  1
  Lu  Lu9  1  0.673909  0.331438  0.502990  1
  Si  Si10  1  0.604335  0.999136  0.250522  1
  Si  Si11  1  0.997999  0.603714  0.250535  1
  Si  Si12  1  0.605514  0.605019  0.749568  1
  Si  Si13  1  0.394168  0.002041  0.749515  1
  Si  Si14  1  0.000846  0.393546  0.749418  1
  Sn  Sn15  1  0.395487  0.394819  0.250527  1
