# generated using pymatgen
data_TmLu3(InGa2)2
_symmetry_space_group_name_H-M   'P 1'
_cell_length_a   7.12310568
_cell_length_b   7.12310568
_cell_length_c   4.36390500
_cell_angle_alpha   90.00000000
_cell_angle_beta   90.00000000
_cell_angle_gamma   89.92131700
_symmetry_Int_Tables_number   1
_chemical_formula_structural   TmLu3(InGa2)2
_chemical_formula_sum   'Tm1 Lu3 In2 Ga4'
_cell_volume   221.41837207
_cell_formula_units_Z   1
loop_
 _symmetry_equiv_pos_site_id
 _symmetry_equiv_pos_as_xyz
  1  'x, y, z'
loop_
 _atom_site_type_symbol
 _atom_site_label
 _atom_site_symmetry_multiplicity
 _atom_site_fract_x
 _atom_site_fract_y
 _atom_site_fract_z
 _atom_site_occupancy
  Tm  Tm0  1  0.671410  0.171410  0.500000  1
  Lu  Lu1  1  0.328461  0.828461  0.500000  1
  Lu  Lu2  1  0.171423  0.328681  0.500000  1
  Lu  Lu3  1  0.828681  0.671423  0.500000  1
  In  In4  1  0.499947  0.500055  0.000000  1
  In  In5  1  0.000055  0.999947  0.000000  1
  Ga  Ga6  1  0.127170  0.627170  0.000000  1
  Ga  Ga7  1  0.873054  0.373054  0.000000  1
  Ga  Ga8  1  0.627129  0.872671  0.000000  1
  Ga  Ga9  1  0.372671  0.127129  0.000000  1
