# generated using pymatgen
data_Tb3YGeS3
_symmetry_space_group_name_H-M   'P 1'
_cell_length_a   6.92790819
_cell_length_b   6.92790850
_cell_length_c   6.92790834
_cell_angle_alpha   131.89191118
_cell_angle_beta   131.94186808
_cell_angle_gamma   70.36033221
_symmetry_Int_Tables_number   1
_chemical_formula_structural   Tb3YGeS3
_chemical_formula_sum   'Tb3 Y1 Ge1 S3'
_cell_volume   180.43114296
_cell_formula_units_Z   1
loop_
 _symmetry_equiv_pos_site_id
 _symmetry_equiv_pos_as_xyz
  1  'x, y, z'
loop_
 _atom_site_type_symbol
 _atom_site_label
 _atom_site_symmetry_multiplicity
 _atom_site_fract_x
 _atom_site_fract_y
 _atom_site_fract_z
 _atom_site_occupancy
  Tb  Tb0  1  0.249506  0.249506  0.000000  1
  Tb  Tb1  1  0.750494  0.750494  0.000000  1
  Tb  Tb2  1  0.000000  0.500000  0.500000  1
  Y  Y3  1  0.500000  0.000000  0.500000  1
  Ge  Ge4  1  0.000000  0.000000  0.000000  1
  S  S5  1  0.500000  0.500000  0.000000  1
  S  S6  1  0.749956  0.249957  0.500000  1
  S  S7  1  0.250043  0.750042  0.500000  1
