# generated using pymatgen
data_Cs6LaNpI12
_symmetry_space_group_name_H-M   'P 1'
_cell_length_a   10.78186293
_cell_length_b   10.73836556
_cell_length_c   8.90119800
_cell_angle_alpha   90.00000000
_cell_angle_beta   90.00000000
_cell_angle_gamma   90.23560650
_symmetry_Int_Tables_number   1
_chemical_formula_structural   Cs6LaNpI12
_chemical_formula_sum   'Cs6 La1 Np1 I12'
_cell_volume   1030.56830199
_cell_formula_units_Z   1
loop_
 _symmetry_equiv_pos_site_id
 _symmetry_equiv_pos_as_xyz
  1  'x, y, z'
loop_
 _atom_site_type_symbol
 _atom_site_label
 _atom_site_symmetry_multiplicity
 _atom_site_fract_x
 _atom_site_fract_y
 _atom_site_fract_z
 _atom_site_occupancy
  Cs  Cs0  1  0.000000  0.000000  0.500000  1
  Cs  Cs1  1  0.000000  0.000000  0.000000  1
  Cs  Cs2  1  0.233395  0.588110  0.500000  1
  Cs  Cs3  1  0.766605  0.411890  0.500000  1
  Cs  Cs4  1  0.412270  0.232636  0.000000  1
  Cs  Cs5  1  0.587730  0.767364  0.000000  1
  La  La6  1  0.000000  0.500000  0.000000  1
  Np  Np7  1  0.500000  0.000000  0.500000  1
  I  I8  1  0.698580  0.060578  0.747356  1
  I  I9  1  0.301420  0.939422  0.747356  1
  I  I10  1  0.938413  0.701051  0.251362  1
  I  I11  1  0.061587  0.298949  0.251362  1
  I  I12  1  0.301420  0.939422  0.252644  1
  I  I13  1  0.698580  0.060578  0.252644  1
  I  I14  1  0.061587  0.298949  0.748638  1
  I  I15  1  0.938413  0.701051  0.748638  1
  I  I16  1  0.570770  0.718491  0.500000  1
  I  I17  1  0.429230  0.281509  0.500000  1
  I  I18  1  0.284959  0.571351  0.000000  1
  I  I19  1  0.715041  0.428649  0.000000  1
