# generated using pymatgen
data_HfScBe17
_symmetry_space_group_name_H-M   'P 1'
_cell_length_a   5.65787001
_cell_length_b   5.65787019
_cell_length_c   5.65787004
_cell_angle_alpha   97.08147819
_cell_angle_beta   82.91852205
_cell_angle_gamma   97.08148602
_symmetry_Int_Tables_number   1
_chemical_formula_structural   HfScBe17
_chemical_formula_sum   'Hf1 Sc1 Be17'
_cell_volume   177.28676404
_cell_formula_units_Z   1
loop_
 _symmetry_equiv_pos_site_id
 _symmetry_equiv_pos_as_xyz
  1  'x, y, z'
loop_
 _atom_site_type_symbol
 _atom_site_label
 _atom_site_symmetry_multiplicity
 _atom_site_fract_x
 _atom_site_fract_y
 _atom_site_fract_z
 _atom_site_occupancy
  Hf  Hf0  1  0.836607  0.163394  0.836607  1
  Sc  Sc1  1  0.162627  0.837374  0.162627  1
  Be  Be2  1  0.501582  0.498420  0.999458  1
  Be  Be3  1  0.658633  0.843063  0.156937  1
  Be  Be4  1  0.156938  0.341368  0.156937  1
  Be  Be5  1  0.788088  0.500464  0.211698  1
  Be  Be6  1  0.499536  0.211911  0.211698  1
  Be  Be7  1  0.842760  0.157241  0.341221  1
  Be  Be8  1  0.402838  0.597163  0.402838  1
  Be  Be9  1  0.501582  0.000543  0.501581  1
  Be  Be10  1  0.999458  0.498419  0.501581  1
  Be  Be11  1  0.788089  0.788302  0.499536  1
  Be  Be12  1  0.211699  0.211912  0.499536  1
  Be  Be13  1  0.597413  0.402588  0.597413  1
  Be  Be14  1  0.156937  0.843064  0.658633  1
  Be  Be15  1  0.499536  0.788301  0.788088  1
  Be  Be16  1  0.211699  0.500464  0.788088  1
  Be  Be17  1  0.842761  0.658780  0.842760  1
  Be  Be18  1  0.341221  0.157240  0.842760  1
