# generated using pymatgen
data_Y8Lu2Sn5Pb3
_symmetry_space_group_name_H-M   'P 1'
_cell_length_a   8.09217200
_cell_length_b   8.18400912
_cell_length_c   15.54322323
_cell_angle_alpha   89.98020905
_cell_angle_beta   90.00000000
_cell_angle_gamma   90.00000000
_symmetry_Int_Tables_number   1
_chemical_formula_structural   Y8Lu2Sn5Pb3
_chemical_formula_sum   'Y16 Lu4 Sn10 Pb6'
_cell_volume   1029.37180475
_cell_formula_units_Z   2
loop_
 _symmetry_equiv_pos_site_id
 _symmetry_equiv_pos_as_xyz
  1  'x, y, z'
loop_
 _atom_site_type_symbol
 _atom_site_label
 _atom_site_symmetry_multiplicity
 _atom_site_fract_x
 _atom_site_fract_y
 _atom_site_fract_z
 _atom_site_occupancy
  Y  Y0  1  0.468021  0.822444  0.399144  1
  Y  Y1  1  0.033297  0.321304  0.899181  1
  Y  Y2  1  0.030569  0.324425  0.600696  1
  Y  Y3  1  0.877135  0.841413  0.877431  1
  Y  Y4  1  0.466072  0.823926  0.100386  1
  Y  Y5  1  0.374594  0.660880  0.877558  1
  Y  Y6  1  0.624693  0.341162  0.123120  1
  Y  Y7  1  0.625085  0.342200  0.377764  1
  Y  Y8  1  0.533297  0.178696  0.600819  1
  Y  Y9  1  0.377135  0.658587  0.622569  1
  Y  Y10  1  0.530569  0.175575  0.899304  1
  Y  Y11  1  0.966072  0.676074  0.399614  1
  Y  Y12  1  0.968021  0.677556  0.100856  1
  Y  Y13  1  0.125085  0.157800  0.122236  1
  Y  Y14  1  0.874594  0.839120  0.622442  1
  Y  Y15  1  0.124693  0.158838  0.376880  1
  Lu  Lu16  1  0.792439  0.004088  0.249977  1
  Lu  Lu17  1  0.707994  0.504245  0.748815  1
  Lu  Lu18  1  0.292439  0.495912  0.250023  1
  Lu  Lu19  1  0.207994  0.995755  0.751185  1
  Sn  Sn20  1  0.841590  0.150688  0.750025  1
  Sn  Sn21  1  0.716116  0.533075  0.543721  1
  Sn  Sn22  1  0.928305  0.377045  0.249923  1
  Sn  Sn23  1  0.216116  0.966925  0.956279  1
  Sn  Sn24  1  0.572458  0.878115  0.749962  1
  Sn  Sn25  1  0.341590  0.349312  0.749975  1
  Sn  Sn26  1  0.072458  0.621885  0.750038  1
  Sn  Sn27  1  0.157790  0.848782  0.250121  1
  Sn  Sn28  1  0.657790  0.651218  0.249879  1
  Sn  Sn29  1  0.428305  0.122955  0.250077  1
  Pb  Pb30  1  0.283656  0.466466  0.043399  1
  Pb  Pb31  1  0.783656  0.033534  0.456601  1
  Pb  Pb32  1  0.283741  0.466321  0.456700  1
  Pb  Pb33  1  0.216445  0.966547  0.543435  1
  Pb  Pb34  1  0.783741  0.033679  0.043300  1
  Pb  Pb35  1  0.716445  0.533453  0.956565  1
