# generated using pymatgen
data_BaDyIn3B4Ir9
_symmetry_space_group_name_H-M   'P 1'
_cell_length_a   5.67509200
_cell_length_b   5.67509127
_cell_length_c   10.34166900
_cell_angle_alpha   90.00000000
_cell_angle_beta   90.00000000
_cell_angle_gamma   120.00000424
_symmetry_Int_Tables_number   1
_chemical_formula_structural   BaDyIn3B4Ir9
_chemical_formula_sum   'Ba1 Dy1 In3 B4 Ir9'
_cell_volume   288.44764897
_cell_formula_units_Z   1
loop_
 _symmetry_equiv_pos_site_id
 _symmetry_equiv_pos_as_xyz
  1  'x, y, z'
loop_
 _atom_site_type_symbol
 _atom_site_label
 _atom_site_symmetry_multiplicity
 _atom_site_fract_x
 _atom_site_fract_y
 _atom_site_fract_z
 _atom_site_occupancy
  Ba  Ba0  1  0.000000  0.000000  0.526548  1
  Dy  Dy1  1  0.000000  0.000000  0.878644  1
  In  In2  1  0.666667  0.333333  0.525580  1
  In  In3  1  0.000000  0.000000  0.194465  1
  In  In4  1  0.333333  0.666667  0.525580  1
  B  B5  1  0.666667  0.333333  0.173465  1
  B  B6  1  0.333333  0.666667  0.881996  1
  B  B7  1  0.666667  0.333333  0.881996  1
  B  B8  1  0.333333  0.666667  0.173465  1
  Ir  Ir9  1  0.000000  0.468510  0.300929  1
  Ir  Ir10  1  0.494807  0.000000  0.751165  1
  Ir  Ir11  1  0.468510  0.000000  0.300929  1
  Ir  Ir12  1  0.000000  0.466264  0.027327  1
  Ir  Ir13  1  0.505193  0.505193  0.751165  1
  Ir  Ir14  1  0.000000  0.494807  0.751165  1
  Ir  Ir15  1  0.533736  0.533736  0.027327  1
  Ir  Ir16  1  0.466264  0.000000  0.027327  1
  Ir  Ir17  1  0.531490  0.531490  0.300929  1
