# generated using pymatgen
data_Er2Ni17H3
_symmetry_space_group_name_H-M   'P 1'
_cell_length_a   6.25791825
_cell_length_b   6.25791844
_cell_length_c   6.25791849
_cell_angle_alpha   83.38738736
_cell_angle_beta   83.38738779
_cell_angle_gamma   83.38738286
_symmetry_Int_Tables_number   1
_chemical_formula_structural   Er2Ni17H3
_chemical_formula_sum   'Er2 Ni17 H3'
_cell_volume   240.52711830
_cell_formula_units_Z   1
loop_
 _symmetry_equiv_pos_site_id
 _symmetry_equiv_pos_as_xyz
  1  'x, y, z'
loop_
 _atom_site_type_symbol
 _atom_site_label
 _atom_site_symmetry_multiplicity
 _atom_site_fract_x
 _atom_site_fract_y
 _atom_site_fract_z
 _atom_site_occupancy
  Er  Er0  1  0.659005  0.659005  0.659005  1
  Er  Er1  1  0.340995  0.340995  0.340995  1
  Ni  Ni2  1  0.000000  0.000000  0.500000  1
  Ni  Ni3  1  0.000000  0.500000  0.000000  1
  Ni  Ni4  1  0.500000  0.000000  0.000000  1
  Ni  Ni5  1  0.290423  0.709577  0.000000  1
  Ni  Ni6  1  0.709577  0.000000  0.290423  1
  Ni  Ni7  1  0.000000  0.290423  0.709577  1
  Ni  Ni8  1  0.290423  0.000000  0.709577  1
  Ni  Ni9  1  0.000000  0.709577  0.290423  1
  Ni  Ni10  1  0.709577  0.290423  0.000000  1
  Ni  Ni11  1  0.347633  0.347633  0.849260  1
  Ni  Ni12  1  0.347633  0.849260  0.347633  1
  Ni  Ni13  1  0.849260  0.347633  0.347633  1
  Ni  Ni14  1  0.652367  0.652367  0.150740  1
  Ni  Ni15  1  0.652367  0.150740  0.652367  1
  Ni  Ni16  1  0.150740  0.652367  0.652367  1
  Ni  Ni17  1  0.899595  0.899595  0.899595  1
  Ni  Ni18  1  0.100405  0.100405  0.100405  1
  H  H19  1  0.500000  0.500000  0.000000  1
  H  H20  1  0.500000  0.000000  0.500000  1
  H  H21  1  0.000000  0.500000  0.500000  1
