# generated using pymatgen
data_Sr8Ga3Si12Hg
_symmetry_space_group_name_H-M   'P 1'
_cell_length_a   11.98420554
_cell_length_b   10.28068565
_cell_length_c   8.50959823
_cell_angle_alpha   78.63318487
_cell_angle_beta   57.29030479
_cell_angle_gamma   44.11813798
_symmetry_Int_Tables_number   1
_chemical_formula_structural   Sr8Ga3Si12Hg
_chemical_formula_sum   'Sr8 Ga3 Si12 Hg1'
_cell_volume   580.60119632
_cell_formula_units_Z   1
loop_
 _symmetry_equiv_pos_site_id
 _symmetry_equiv_pos_as_xyz
  1  'x, y, z'
loop_
 _atom_site_type_symbol
 _atom_site_label
 _atom_site_symmetry_multiplicity
 _atom_site_fract_x
 _atom_site_fract_y
 _atom_site_fract_z
 _atom_site_occupancy
  Sr  Sr0  1  0.120876  0.126692  0.880214  1
  Sr  Sr1  1  0.880215  0.872219  0.120875  1
  Sr  Sr2  1  0.122703  0.126125  0.373989  1
  Sr  Sr3  1  0.373990  0.377184  0.122702  1
  Sr  Sr4  1  0.626501  0.619833  0.374646  1
  Sr  Sr5  1  0.374646  0.379021  0.626501  1
  Sr  Sr6  1  0.625828  0.624801  0.875007  1
  Sr  Sr7  1  0.875008  0.874365  0.625827  1
  Ga  Ga8  1  0.081238  0.418762  0.081238  1
  Ga  Ga9  1  0.832492  0.167508  0.832492  1
  Ga  Ga10  1  0.167870  0.832130  0.167870  1
  Si  Si11  1  0.920203  0.586822  0.418911  1
  Si  Si12  1  0.063740  0.428897  0.594898  1
  Si  Si13  1  0.418911  0.074065  0.920203  1
  Si  Si14  1  0.594898  0.912465  0.063740  1
  Si  Si15  1  0.330433  0.661693  0.831804  1
  Si  Si16  1  0.661168  0.330134  0.176250  1
  Si  Si17  1  0.831804  0.176069  0.330433  1
  Si  Si18  1  0.176250  0.832448  0.661168  1
  Si  Si19  1  0.914956  0.585045  0.914955  1
  Si  Si20  1  0.589118  0.910883  0.589117  1
  Si  Si21  1  0.334389  0.665612  0.334389  1
  Si  Si22  1  0.665830  0.334170  0.665830  1
  Hg  Hg23  1  0.416937  0.083063  0.416937  1
