# generated using pymatgen
data_TbHo3Th6(Si3C)2
_symmetry_space_group_name_H-M   'P 1'
_cell_length_a   8.74397600
_cell_length_b   8.74397843
_cell_length_c   6.35522700
_cell_angle_alpha   90.00000000
_cell_angle_beta   90.00000000
_cell_angle_gamma   120.00000593
_symmetry_Int_Tables_number   1
_chemical_formula_structural   TbHo3Th6(Si3C)2
_chemical_formula_sum   'Tb1 Ho3 Th6 Si6 C2'
_cell_volume   420.80385326
_cell_formula_units_Z   1
loop_
 _symmetry_equiv_pos_site_id
 _symmetry_equiv_pos_as_xyz
  1  'x, y, z'
loop_
 _atom_site_type_symbol
 _atom_site_label
 _atom_site_symmetry_multiplicity
 _atom_site_fract_x
 _atom_site_fract_y
 _atom_site_fract_z
 _atom_site_occupancy
  Tb  Tb0  1  0.666667  0.333333  0.500000  1
  Ho  Ho1  1  0.666667  0.333333  0.000000  1
  Ho  Ho2  1  0.333333  0.666667  0.000000  1
  Ho  Ho3  1  0.333333  0.666667  0.500000  1
  Th  Th4  1  0.766260  0.766368  0.750135  1
  Th  Th5  1  0.233632  0.999891  0.750135  1
  Th  Th6  1  0.000109  0.233740  0.750135  1
  Th  Th7  1  0.233632  0.233740  0.249865  1
  Th  Th8  1  0.766260  0.999891  0.249865  1
  Th  Th9  1  0.000109  0.766368  0.249865  1
  Si  Si10  1  0.401325  0.401707  0.750280  1
  Si  Si11  1  0.598293  0.999618  0.750280  1
  Si  Si12  1  0.000382  0.598675  0.750280  1
  Si  Si13  1  0.598293  0.598675  0.249720  1
  Si  Si14  1  0.401325  0.999618  0.249720  1
  Si  Si15  1  0.000382  0.401707  0.249720  1
  C  C16  1  0.000000  0.000000  0.000000  1
  C  C17  1  0.000000  0.000000  0.500000  1
