# generated using pymatgen
data_Ba7Ca4Re4SnN16
_symmetry_space_group_name_H-M   'P 1'
_cell_length_a   10.79887165
_cell_length_b   10.57311338
_cell_length_c   8.11971395
_cell_angle_alpha   71.27022803
_cell_angle_beta   66.20502608
_cell_angle_gamma   44.64229005
_symmetry_Int_Tables_number   1
_chemical_formula_structural   Ba7Ca4Re4SnN16
_chemical_formula_sum   'Ba7 Ca4 Re4 Sn1 N16'
_cell_volume   595.23430295
_cell_formula_units_Z   1
loop_
 _symmetry_equiv_pos_site_id
 _symmetry_equiv_pos_as_xyz
  1  'x, y, z'
loop_
 _atom_site_type_symbol
 _atom_site_label
 _atom_site_symmetry_multiplicity
 _atom_site_fract_x
 _atom_site_fract_y
 _atom_site_fract_z
 _atom_site_occupancy
  Ba  Ba0  1  0.932342  0.567658  0.567658  1
  Ba  Ba1  1  0.314075  0.685925  0.685925  1
  Ba  Ba2  1  0.132407  0.107064  0.890978  1
  Ba  Ba3  1  0.145033  0.128853  0.360164  1
  Ba  Ba4  1  0.365950  0.360164  0.128853  1
  Ba  Ba5  1  0.684729  0.315271  0.315271  1
  Ba  Ba6  1  0.869551  0.890978  0.107064  1
  Ca  Ca7  1  0.354066  0.320764  0.656251  1
  Ca  Ca8  1  0.859766  0.934130  0.629650  1
  Ca  Ca9  1  0.668919  0.656251  0.320764  1
  Ca  Ca10  1  0.576455  0.629650  0.934130  1
  Re  Re11  1  0.492274  0.999359  0.487363  1
  Re  Re12  1  0.021003  0.487363  0.999359  1
  Re  Re13  1  0.758145  0.263154  0.744568  1
  Re  Re14  1  0.234134  0.744568  0.263154  1
  Sn  Sn15  1  0.525215  0.974785  0.974785  1
  N  N16  1  0.039235  0.634456  0.815610  1
  N  N17  1  0.688907  0.316021  0.978194  1
  N  N18  1  0.651751  0.018434  0.481527  1
  N  N19  1  0.510702  0.815610  0.634456  1
  N  N20  1  0.234505  0.570637  0.410167  1
  N  N21  1  0.784691  0.410167  0.570637  1
  N  N22  1  0.978971  0.026904  0.714552  1
  N  N23  1  0.539937  0.962095  0.248772  1
  N  N24  1  0.422847  0.705016  0.286491  1
  N  N25  1  0.983898  0.544351  0.220837  1
  N  N26  1  0.279573  0.714552  0.026904  1
  N  N27  1  0.848290  0.481527  0.018434  1
  N  N28  1  0.249196  0.248772  0.962095  1
  N  N29  1  0.585644  0.286491  0.705016  1
  N  N30  1  0.250914  0.220837  0.544351  1
  N  N31  1  0.016878  0.978194  0.316021  1
