# generated using pymatgen
data_Ba4Re2O11
_symmetry_space_group_name_H-M   'P 1'
_cell_length_a   6.02116219
_cell_length_b   6.02116230
_cell_length_c   9.05332077
_cell_angle_alpha   109.42294335
_cell_angle_beta   109.42294803
_cell_angle_gamma   89.99999388
_symmetry_Int_Tables_number   1
_chemical_formula_structural   Ba4Re2O11
_chemical_formula_sum   'Ba4 Re2 O11'
_cell_volume   289.66200784
_cell_formula_units_Z   1
loop_
 _symmetry_equiv_pos_site_id
 _symmetry_equiv_pos_as_xyz
  1  'x, y, z'
loop_
 _atom_site_type_symbol
 _atom_site_label
 _atom_site_symmetry_multiplicity
 _atom_site_fract_x
 _atom_site_fract_y
 _atom_site_fract_z
 _atom_site_occupancy
  Ba  Ba0  1  0.500000  0.000000  0.000000  1
  Ba  Ba1  1  0.000000  0.500000  0.000000  1
  Ba  Ba2  1  0.750000  0.250000  0.500000  1
  Ba  Ba3  1  0.250000  0.750000  0.500000  1
  Re  Re4  1  0.127589  0.127589  0.255178  1
  Re  Re5  1  0.872411  0.872411  0.744823  1
  O  O6  1  0.340043  0.340043  0.236554  1
  O  O7  1  0.896511  0.340043  0.236554  1
  O  O8  1  0.340043  0.896511  0.236554  1
  O  O9  1  0.896511  0.896511  0.236554  1
  O  O10  1  0.241629  0.241629  0.483257  1
  O  O11  1  0.758372  0.758372  0.516743  1
  O  O12  1  0.103489  0.103489  0.763446  1
  O  O13  1  0.659957  0.103489  0.763446  1
  O  O14  1  0.103489  0.659957  0.763446  1
  O  O15  1  0.659957  0.659957  0.763446  1
  O  O16  1  0.000000  0.000000  0.000000  1
