# generated using pymatgen
data_TbTmIr2F14
_symmetry_space_group_name_H-M   'P 1'
_cell_length_a   5.54365317
_cell_length_b   8.89426476
_cell_length_c   11.93469618
_cell_angle_alpha   62.56409524
_cell_angle_beta   90.12072465
_cell_angle_gamma   90.04329236
_symmetry_Int_Tables_number   1
_chemical_formula_structural   TbTmIr2F14
_chemical_formula_sum   'Tb2 Tm2 Ir4 F28'
_cell_volume   522.27349200
_cell_formula_units_Z   2
loop_
 _symmetry_equiv_pos_site_id
 _symmetry_equiv_pos_as_xyz
  1  'x, y, z'
loop_
 _atom_site_type_symbol
 _atom_site_label
 _atom_site_symmetry_multiplicity
 _atom_site_fract_x
 _atom_site_fract_y
 _atom_site_fract_z
 _atom_site_occupancy
  Tb  Tb0  1  0.759877  0.184045  0.235028  1
  Tb  Tb1  1  0.240123  0.815955  0.764972  1
  Tm  Tm2  1  0.260508  0.813053  0.265290  1
  Tm  Tm3  1  0.739492  0.186947  0.734710  1
  Ir  Ir4  1  0.757873  0.728303  0.044760  1
  Ir  Ir5  1  0.242127  0.271697  0.955240  1
  Ir  Ir6  1  0.257997  0.275498  0.457251  1
  Ir  Ir7  1  0.742003  0.724502  0.542749  1
  F  F8  1  0.942657  0.705607  0.414083  1
  F  F9  1  0.057343  0.294393  0.585917  1
  F  F10  1  0.441099  0.292528  0.084000  1
  F  F11  1  0.558901  0.707472  0.916000  1
  F  F12  1  0.466397  0.730671  0.138913  1
  F  F13  1  0.533603  0.269329  0.861087  1
  F  F14  1  0.967112  0.272114  0.363291  1
  F  F15  1  0.032888  0.727886  0.636709  1
  F  F16  1  0.955573  0.747733  0.175243  1
  F  F17  1  0.044427  0.252267  0.824757  1
  F  F18  1  0.452614  0.256526  0.326352  1
  F  F19  1  0.547386  0.743474  0.673648  1
  F  F20  1  0.769302  0.482303  0.141128  1
  F  F21  1  0.230698  0.517697  0.858872  1
  F  F22  1  0.269449  0.522044  0.359988  1
  F  F23  1  0.730551  0.477956  0.640012  1
  F  F24  1  0.944425  0.278601  0.043857  1
  F  F25  1  0.055575  0.721399  0.956143  1
  F  F26  1  0.441678  0.720684  0.453305  1
  F  F27  1  0.558322  0.279316  0.546695  1
  F  F28  1  0.742116  0.970757  0.449221  1
  F  F29  1  0.257884  0.029243  0.550779  1
  F  F30  1  0.241317  0.025950  0.050967  1
  F  F31  1  0.758683  0.974050  0.949033  1
  F  F32  1  0.579747  0.966715  0.231509  1
  F  F33  1  0.420253  0.033285  0.768491  1
  F  F34  1  0.086960  0.024953  0.268668  1
  F  F35  1  0.913040  0.975047  0.731332  1
