# generated using pymatgen
data_Pr2DyY3IrI10
_symmetry_space_group_name_H-M   'P 1'
_cell_length_a   7.82822124
_cell_length_b   9.86412754
_cell_length_c   9.90611305
_cell_angle_alpha   106.90777813
_cell_angle_beta   96.33709762
_cell_angle_gamma   105.04660835
_symmetry_Int_Tables_number   1
_chemical_formula_structural   Pr2DyY3IrI10
_chemical_formula_sum   'Pr2 Dy1 Y3 Ir1 I10'
_cell_volume   692.32889441
_cell_formula_units_Z   1
loop_
 _symmetry_equiv_pos_site_id
 _symmetry_equiv_pos_as_xyz
  1  'x, y, z'
loop_
 _atom_site_type_symbol
 _atom_site_label
 _atom_site_symmetry_multiplicity
 _atom_site_fract_x
 _atom_site_fract_y
 _atom_site_fract_z
 _atom_site_occupancy
  Pr  Pr0  1  0.117151  0.043769  0.761199  1
  Pr  Pr1  1  0.882864  0.956239  0.238805  1
  Dy  Dy2  1  0.970417  0.285989  0.086216  1
  Y  Y3  1  0.029708  0.713323  0.913642  1
  Y  Y4  1  0.348438  0.125585  0.165236  1
  Y  Y5  1  0.651519  0.874393  0.834739  1
  Ir  Ir6  1  0.000003  0.000606  0.000196  1
  I  I7  1  0.347826  0.447221  0.269934  1
  I  I8  1  0.651946  0.552746  0.729965  1
  I  I9  1  0.267671  0.090093  0.457276  1
  I  I10  1  0.732341  0.909894  0.542725  1
  I  I11  1  0.083554  0.378768  0.825440  1
  I  I12  1  0.916425  0.621271  0.174643  1
  I  I13  1  0.447942  0.817257  0.087809  1
  I  I14  1  0.552155  0.182778  0.912248  1
  I  I15  1  0.775103  0.261537  0.342125  1
  I  I16  1  0.224937  0.738532  0.657804  1
