# generated using pymatgen
data_HoEr3Lu4(B6Rh)4
_symmetry_space_group_name_H-M   'P 1'
_cell_length_a   3.61189300
_cell_length_b   9.09804200
_cell_length_c   11.43279000
_cell_angle_alpha   90.00278497
_cell_angle_beta   90.00000000
_cell_angle_gamma   90.00000000
_symmetry_Int_Tables_number   1
_chemical_formula_structural   HoEr3Lu4(B6Rh)4
_chemical_formula_sum   'Ho1 Er3 Lu4 B24 Rh4'
_cell_volume   375.69467506
_cell_formula_units_Z   1
loop_
 _symmetry_equiv_pos_site_id
 _symmetry_equiv_pos_as_xyz
  1  'x, y, z'
loop_
 _atom_site_type_symbol
 _atom_site_label
 _atom_site_symmetry_multiplicity
 _atom_site_fract_x
 _atom_site_fract_y
 _atom_site_fract_z
 _atom_site_occupancy
  Ho  Ho0  1  0.500000  0.321619  0.413671  1
  Er  Er1  1  0.500000  0.678483  0.586318  1
  Er  Er2  1  0.500000  0.178454  0.913712  1
  Er  Er3  1  0.500000  0.821541  0.086307  1
  Lu  Lu4  1  0.500000  0.444459  0.126648  1
  Lu  Lu5  1  0.500000  0.555580  0.873323  1
  Lu  Lu6  1  0.500000  0.055500  0.626752  1
  Lu  Lu7  1  0.500000  0.944346  0.373288  1
  B  B8  1  0.000000  0.106462  0.471171  1
  B  B9  1  0.000000  0.893245  0.528907  1
  B  B10  1  0.000000  0.393216  0.971072  1
  B  B11  1  0.000000  0.606814  0.028913  1
  B  B12  1  0.000000  0.132312  0.316693  1
  B  B13  1  0.000000  0.867486  0.683215  1
  B  B14  1  0.000000  0.367513  0.816812  1
  B  B15  1  0.000000  0.632525  0.183168  1
  B  B16  1  0.000000  0.054117  0.065206  1
  B  B17  1  0.000000  0.945881  0.934771  1
  B  B18  1  0.000000  0.445999  0.565425  1
  B  B19  1  0.000000  0.554331  0.434766  1
  B  B20  1  0.000000  0.482641  0.286187  1
  B  B21  1  0.000000  0.517610  0.713692  1
  B  B22  1  0.000000  0.017537  0.786373  1
  B  B23  1  0.000000  0.982387  0.213642  1
  B  B24  1  0.000000  0.250837  0.079463  1
  B  B25  1  0.000000  0.749172  0.920497  1
  B  B26  1  0.000000  0.249068  0.579735  1
  B  B27  1  0.000000  0.750863  0.420514  1
  B  B28  1  0.000000  0.295039  0.235803  1
  B  B29  1  0.000000  0.704917  0.764012  1
  B  B30  1  0.000000  0.204881  0.736052  1
  B  B31  1  0.000000  0.795120  0.263962  1
  Rh  Rh32  1  0.500000  0.140249  0.179174  1
  Rh  Rh33  1  0.500000  0.859752  0.820723  1
  Rh  Rh34  1  0.500000  0.359793  0.679158  1
  Rh  Rh35  1  0.500000  0.640252  0.320877  1
