# generated using pymatgen
data_AcGd(SO4)3
_symmetry_space_group_name_H-M   'P 1'
_cell_length_a   8.82104155
_cell_length_b   8.82104153
_cell_length_c   9.44827600
_cell_angle_alpha   65.27661054
_cell_angle_beta   65.27661060
_cell_angle_gamma   65.53676874
_symmetry_Int_Tables_number   1
_chemical_formula_structural   AcGd(SO4)3
_chemical_formula_sum   'Ac2 Gd2 S6 O24'
_cell_volume   580.53069437
_cell_formula_units_Z   2
loop_
 _symmetry_equiv_pos_site_id
 _symmetry_equiv_pos_as_xyz
  1  'x, y, z'
loop_
 _atom_site_type_symbol
 _atom_site_label
 _atom_site_symmetry_multiplicity
 _atom_site_fract_x
 _atom_site_fract_y
 _atom_site_fract_z
 _atom_site_occupancy
  Ac  Ac0  1  0.105362  0.619680  0.081524  1
  Ac  Ac1  1  0.619680  0.105362  0.581524  1
  Gd  Gd2  1  0.376420  0.889282  0.437118  1
  Gd  Gd3  1  0.889282  0.376420  0.937118  1
  S  S4  1  0.735556  0.535543  0.292885  1
  S  S5  1  0.535543  0.735556  0.792885  1
  S  S6  1  0.042560  0.981819  0.248221  1
  S  S7  1  0.981819  0.042560  0.748221  1
  S  S8  1  0.489018  0.218207  0.203204  1
  S  S9  1  0.218207  0.489018  0.703204  1
  O  O10  1  0.874159  0.977213  0.377083  1
  O  O11  1  0.977213  0.874159  0.877083  1
  O  O12  1  0.869649  0.535451  0.348533  1
  O  O13  1  0.582825  0.690174  0.309556  1
  O  O14  1  0.817302  0.547656  0.113140  1
  O  O15  1  0.535451  0.869649  0.848533  1
  O  O16  1  0.176094  0.951691  0.320655  1
  O  O17  1  0.682191  0.375611  0.380382  1
  O  O18  1  0.690174  0.582825  0.809556  1
  O  O19  1  0.547656  0.817302  0.613140  1
  O  O20  1  0.951691  0.176094  0.820655  1
  O  O21  1  0.651860  0.267674  0.116281  1
  O  O22  1  0.375611  0.682191  0.880382  1
  O  O23  1  0.098622  0.842233  0.173671  1
  O  O24  1  0.467474  0.143190  0.385945  1
  O  O25  1  0.337451  0.372902  0.180773  1
  O  O26  1  0.267674  0.651860  0.616281  1
  O  O27  1  0.842233  0.098622  0.673671  1
  O  O28  1  0.487891  0.076339  0.159543  1
  O  O29  1  0.143190  0.467474  0.885945  1
  O  O30  1  0.372902  0.337451  0.680773  1
  O  O31  1  0.076339  0.487891  0.659543  1
  O  O32  1  0.026951  0.153948  0.121485  1
  O  O33  1  0.153948  0.026951  0.621485  1
