# generated using pymatgen
data_Sc8Ta7Ti2Nb2Si16Ag
_symmetry_space_group_name_H-M   'P 1'
_cell_length_a   6.70435512
_cell_length_b   6.90644792
_cell_length_c   13.15193900
_cell_angle_alpha   90.05700171
_cell_angle_beta   89.98906960
_cell_angle_gamma   90.42220560
_symmetry_Int_Tables_number   1
_chemical_formula_structural   Sc8Ta7Ti2Nb2Si16Ag
_chemical_formula_sum   'Sc8 Ta7 Ti2 Nb2 Si16 Ag1'
_cell_volume   608.96106181
_cell_formula_units_Z   1
loop_
 _symmetry_equiv_pos_site_id
 _symmetry_equiv_pos_as_xyz
  1  'x, y, z'
loop_
 _atom_site_type_symbol
 _atom_site_label
 _atom_site_symmetry_multiplicity
 _atom_site_fract_x
 _atom_site_fract_y
 _atom_site_fract_z
 _atom_site_occupancy
  Sc  Sc0  1  0.499005  0.675353  0.592854  1
  Sc  Sc1  1  0.003865  0.828447  0.907018  1
  Sc  Sc2  1  0.497167  0.326414  0.096066  1
  Sc  Sc3  1  0.000897  0.172338  0.402402  1
  Sc  Sc4  1  0.497150  0.326708  0.404372  1
  Sc  Sc5  1  0.999969  0.171401  0.097889  1
  Sc  Sc6  1  0.501459  0.675466  0.906349  1
  Sc  Sc7  1  0.003075  0.824750  0.593229  1
  Ta  Ta8  1  0.335718  0.824172  0.123916  1
  Ta  Ta9  1  0.836312  0.676740  0.376174  1
  Ta  Ta10  1  0.337305  0.825564  0.375565  1
  Ta  Ta11  1  0.837427  0.676022  0.124174  1
  Ta  Ta12  1  0.667324  0.174436  0.873935  1
  Ta  Ta13  1  0.159780  0.322293  0.626150  1
  Ta  Ta14  1  0.335792  0.002448  0.750169  1
  Ti  Ti15  1  0.668559  0.175575  0.626697  1
  Ti  Ti16  1  0.157338  0.321635  0.873250  1
  Nb  Nb17  1  0.162957  0.507076  0.249737  1
  Nb  Nb18  1  0.663077  0.995526  0.250288  1
  Si  Si19  1  0.669835  0.970420  0.462015  1
  Si  Si20  1  0.168632  0.530043  0.036603  1
  Si  Si21  1  0.333013  0.036813  0.959362  1
  Si  Si22  1  0.829135  0.456186  0.532840  1
  Si  Si23  1  0.334579  0.034529  0.540867  1
  Si  Si24  1  0.830436  0.458207  0.967770  1
  Si  Si25  1  0.668709  0.967952  0.039320  1
  Si  Si26  1  0.167712  0.533237  0.461510  1
  Si  Si27  1  0.457121  0.377738  0.750570  1
  Si  Si28  1  0.962475  0.105699  0.749875  1
  Si  Si29  1  0.539754  0.614766  0.249934  1
  Si  Si30  1  0.040446  0.886850  0.250146  1
  Si  Si31  1  0.700887  0.872310  0.747941  1
  Si  Si32  1  0.214048  0.632175  0.750846  1
  Si  Si33  1  0.296053  0.137119  0.250175  1
  Si  Si34  1  0.792941  0.365308  0.249915  1
  Ag  Ag35  1  0.830047  0.518289  0.750073  1
