# generated using pymatgen
data_K5Hg6
_symmetry_space_group_name_H-M   'P 1'
_cell_length_a   18.66649733
_cell_length_b   18.66649706
_cell_length_c   5.22513900
_cell_angle_alpha   90.00000000
_cell_angle_beta   90.00000000
_cell_angle_gamma   166.32465972
_symmetry_Int_Tables_number   1
_chemical_formula_structural   K5Hg6
_chemical_formula_sum   'K5 Hg6'
_cell_volume   430.43509666
_cell_formula_units_Z   1
loop_
 _symmetry_equiv_pos_site_id
 _symmetry_equiv_pos_as_xyz
  1  'x, y, z'
loop_
 _atom_site_type_symbol
 _atom_site_label
 _atom_site_symmetry_multiplicity
 _atom_site_fract_x
 _atom_site_fract_y
 _atom_site_fract_z
 _atom_site_occupancy
  K  K0  1  0.000000  0.000000  0.000000  1
  K  K1  1  0.617982  0.382018  0.000000  1
  K  K2  1  0.382018  0.617982  0.000000  1
  K  K3  1  0.805927  0.194072  0.500000  1
  K  K4  1  0.194072  0.805927  0.500000  1
  Hg  Hg5  1  0.720170  0.279830  0.000000  1
  Hg  Hg6  1  0.279830  0.720170  0.000000  1
  Hg  Hg7  1  0.904417  0.095583  0.500000  1
  Hg  Hg8  1  0.540060  0.459939  0.500000  1
  Hg  Hg9  1  0.459939  0.540060  0.500000  1
  Hg  Hg10  1  0.095583  0.904417  0.500000  1
