# generated using pymatgen
data_Rb4ZnO3
_symmetry_space_group_name_H-M   'P 1'
_cell_length_a   7.18907228
_cell_length_b   12.03881068
_cell_length_c   9.78668935
_cell_angle_alpha   109.90073715
_cell_angle_beta   101.12794568
_cell_angle_gamma   89.28249086
_symmetry_Int_Tables_number   1
_chemical_formula_structural   Rb4ZnO3
_chemical_formula_sum   'Rb16 Zn4 O12'
_cell_volume   780.16348589
_cell_formula_units_Z   4
loop_
 _symmetry_equiv_pos_site_id
 _symmetry_equiv_pos_as_xyz
  1  'x, y, z'
loop_
 _atom_site_type_symbol
 _atom_site_label
 _atom_site_symmetry_multiplicity
 _atom_site_fract_x
 _atom_site_fract_y
 _atom_site_fract_z
 _atom_site_occupancy
  Rb  Rb0  1  0.413053  0.168680  0.598435  1
  Rb  Rb1  1  0.913126  0.668709  0.598462  1
  Rb  Rb2  1  0.086929  0.331321  0.401548  1
  Rb  Rb3  1  0.586861  0.831286  0.401570  1
  Rb  Rb4  1  0.494546  0.286915  0.989820  1
  Rb  Rb5  1  0.994551  0.786884  0.989826  1
  Rb  Rb6  1  0.005435  0.213089  0.010192  1
  Rb  Rb7  1  0.505482  0.713108  0.010168  1
  Rb  Rb8  1  0.608689  0.968081  0.854168  1
  Rb  Rb9  1  0.108809  0.468047  0.854179  1
  Rb  Rb10  1  0.891375  0.531959  0.145853  1
  Rb  Rb11  1  0.391128  0.031966  0.145808  1
  Rb  Rb12  1  0.069960  0.871199  0.375525  1
  Rb  Rb13  1  0.570056  0.371182  0.375570  1
  Rb  Rb14  1  0.430033  0.628793  0.624468  1
  Rb  Rb15  1  0.929976  0.128801  0.624431  1
  Zn  Zn16  1  0.639018  0.436590  0.762894  1
  Zn  Zn17  1  0.860917  0.063429  0.237120  1
  Zn  Zn18  1  0.138933  0.936609  0.762881  1
  Zn  Zn19  1  0.361106  0.563400  0.237137  1
  O  O20  1  0.125282  0.089329  0.338095  1
  O  O21  1  0.625484  0.589271  0.338059  1
  O  O22  1  0.374656  0.410681  0.661909  1
  O  O23  1  0.874578  0.910698  0.661914  1
  O  O24  1  0.266636  0.087403  0.796707  1
  O  O25  1  0.766705  0.587394  0.796704  1
  O  O26  1  0.233435  0.412583  0.203281  1
  O  O27  1  0.733278  0.912620  0.203345  1
  O  O28  1  0.276261  0.818364  0.825479  1
  O  O29  1  0.776335  0.318360  0.825498  1
  O  O30  1  0.223782  0.681627  0.174500  1
  O  O31  1  0.723585  0.181623  0.174457  1
