# generated using pymatgen
data_Ho4Si2B8Os
_symmetry_space_group_name_H-M   'P 1'
_cell_length_a   7.05043900
_cell_length_b   7.05043900
_cell_length_c   7.54614400
_cell_angle_alpha   90.00000000
_cell_angle_beta   90.00000000
_cell_angle_gamma   90.00000000
_symmetry_Int_Tables_number   1
_chemical_formula_structural   Ho4Si2B8Os
_chemical_formula_sum   'Ho8 Si4 B16 Os2'
_cell_volume   375.10893349
_cell_formula_units_Z   2
loop_
 _symmetry_equiv_pos_site_id
 _symmetry_equiv_pos_as_xyz
  1  'x, y, z'
loop_
 _atom_site_type_symbol
 _atom_site_label
 _atom_site_symmetry_multiplicity
 _atom_site_fract_x
 _atom_site_fract_y
 _atom_site_fract_z
 _atom_site_occupancy
  Ho  Ho0  1  0.678578  0.178578  0.237281  1
  Ho  Ho1  1  0.321422  0.821422  0.762719  1
  Ho  Ho2  1  0.321422  0.821422  0.237281  1
  Ho  Ho3  1  0.821422  0.678578  0.237281  1
  Ho  Ho4  1  0.821422  0.678578  0.762719  1
  Ho  Ho5  1  0.678578  0.178578  0.762719  1
  Ho  Ho6  1  0.178578  0.321422  0.762719  1
  Ho  Ho7  1  0.178578  0.321422  0.237281  1
  Si  Si8  1  0.123779  0.623779  0.500000  1
  Si  Si9  1  0.876221  0.376221  0.500000  1
  Si  Si10  1  0.376221  0.123779  0.500000  1
  Si  Si11  1  0.623779  0.876221  0.500000  1
  B  B12  1  0.172143  0.041242  0.000000  1
  B  B13  1  0.827857  0.958758  0.000000  1
  B  B14  1  0.958758  0.172143  0.000000  1
  B  B15  1  0.327857  0.541242  0.000000  1
  B  B16  1  0.041242  0.827857  0.000000  1
  B  B17  1  0.672143  0.458758  0.000000  1
  B  B18  1  0.541242  0.672143  0.000000  1
  B  B19  1  0.458758  0.327857  0.000000  1
  B  B20  1  0.089884  0.589884  0.000000  1
  B  B21  1  0.910116  0.410116  0.000000  1
  B  B22  1  0.410116  0.089884  0.000000  1
  B  B23  1  0.589884  0.910116  0.000000  1
  B  B24  1  0.000000  0.000000  0.175484  1
  B  B25  1  0.000000  0.000000  0.824516  1
  B  B26  1  0.500000  0.500000  0.824516  1
  B  B27  1  0.500000  0.500000  0.175484  1
  Os  Os28  1  0.000000  0.000000  0.500000  1
  Os  Os29  1  0.500000  0.500000  0.500000  1
