# generated using pymatgen
data_DyEr11Ir3Rh
_symmetry_space_group_name_H-M   'P 1'
_cell_length_a   6.32775975
_cell_length_b   7.21062420
_cell_length_c   9.15139000
_cell_angle_alpha   90.00000000
_cell_angle_beta   90.00000000
_cell_angle_gamma   90.11775111
_symmetry_Int_Tables_number   1
_chemical_formula_structural   DyEr11Ir3Rh
_chemical_formula_sum   'Dy1 Er11 Ir3 Rh1'
_cell_volume   417.55048274
_cell_formula_units_Z   1
loop_
 _symmetry_equiv_pos_site_id
 _symmetry_equiv_pos_as_xyz
  1  'x, y, z'
loop_
 _atom_site_type_symbol
 _atom_site_label
 _atom_site_symmetry_multiplicity
 _atom_site_fract_x
 _atom_site_fract_y
 _atom_site_fract_z
 _atom_site_occupancy
  Dy  Dy0  1  0.868412  0.533672  0.250000  1
  Er  Er1  1  0.329708  0.676823  0.061482  1
  Er  Er2  1  0.171703  0.177434  0.437935  1
  Er  Er3  1  0.671678  0.322651  0.562549  1
  Er  Er4  1  0.827434  0.822766  0.936811  1
  Er  Er5  1  0.671678  0.322651  0.937451  1
  Er  Er6  1  0.827434  0.822766  0.563189  1
  Er  Er7  1  0.329708  0.676823  0.438518  1
  Er  Er8  1  0.171703  0.177434  0.062065  1
  Er  Er9  1  0.631114  0.035028  0.250000  1
  Er  Er10  1  0.131281  0.465731  0.750000  1
  Er  Er11  1  0.368659  0.965573  0.750000  1
  Ir  Ir12  1  0.453314  0.382200  0.250000  1
  Ir  Ir13  1  0.954924  0.117456  0.750000  1
  Ir  Ir14  1  0.544825  0.617457  0.750000  1
  Rh  Rh15  1  0.046426  0.883533  0.250000  1
