# generated using pymatgen
data_Pa5SiTe3
_symmetry_space_group_name_H-M   'P 1'
_cell_length_a   9.10310500
_cell_length_b   9.10310459
_cell_length_c   6.18840600
_cell_angle_alpha   90.00000000
_cell_angle_beta   90.00000000
_cell_angle_gamma   119.99999785
_symmetry_Int_Tables_number   1
_chemical_formula_structural   Pa5SiTe3
_chemical_formula_sum   'Pa10 Si2 Te6'
_cell_volume   444.10792631
_cell_formula_units_Z   2
loop_
 _symmetry_equiv_pos_site_id
 _symmetry_equiv_pos_as_xyz
  1  'x, y, z'
loop_
 _atom_site_type_symbol
 _atom_site_label
 _atom_site_symmetry_multiplicity
 _atom_site_fract_x
 _atom_site_fract_y
 _atom_site_fract_z
 _atom_site_occupancy
  Pa  Pa0  1  0.265738  0.000000  0.250000  1
  Pa  Pa1  1  0.265738  0.265738  0.750000  1
  Pa  Pa2  1  0.000000  0.734262  0.750000  1
  Pa  Pa3  1  0.000000  0.265738  0.250000  1
  Pa  Pa4  1  0.734262  0.734262  0.250000  1
  Pa  Pa5  1  0.734262  0.000000  0.750000  1
  Pa  Pa6  1  0.333333  0.666667  0.000000  1
  Pa  Pa7  1  0.666667  0.333333  0.500000  1
  Pa  Pa8  1  0.666667  0.333333  0.000000  1
  Pa  Pa9  1  0.333333  0.666667  0.500000  1
  Si  Si10  1  0.000000  0.000000  0.000000  1
  Si  Si11  1  0.000000  0.000000  0.500000  1
  Te  Te12  1  0.614430  0.000000  0.250000  1
  Te  Te13  1  0.614430  0.614430  0.750000  1
  Te  Te14  1  0.000000  0.385570  0.750000  1
  Te  Te15  1  0.000000  0.614430  0.250000  1
  Te  Te16  1  0.385570  0.385570  0.250000  1
  Te  Te17  1  0.385570  0.000000  0.750000  1
