# generated using pymatgen
data_TbHo4In4CoNi
_symmetry_space_group_name_H-M   'P 1'
_cell_length_a   3.57407200
_cell_length_b   7.99417760
_cell_length_c   17.90945258
_cell_angle_alpha   90.01199302
_cell_angle_beta   90.00000000
_cell_angle_gamma   90.00000000
_symmetry_Int_Tables_number   1
_chemical_formula_structural   TbHo4In4CoNi
_chemical_formula_sum   'Tb2 Ho8 In8 Co2 Ni2'
_cell_volume   511.70468250
_cell_formula_units_Z   2
loop_
 _symmetry_equiv_pos_site_id
 _symmetry_equiv_pos_as_xyz
  1  'x, y, z'
loop_
 _atom_site_type_symbol
 _atom_site_label
 _atom_site_symmetry_multiplicity
 _atom_site_fract_x
 _atom_site_fract_y
 _atom_site_fract_z
 _atom_site_occupancy
  Tb  Tb0  1  0.000000  0.500000  0.500000  1
  Tb  Tb1  1  0.000000  0.000000  0.000000  1
  Ho  Ho2  1  0.000000  0.740363  0.277332  1
  Ho  Ho3  1  0.000000  0.259637  0.722668  1
  Ho  Ho4  1  0.000000  0.745713  0.778396  1
  Ho  Ho5  1  0.000000  0.254287  0.221604  1
  Ho  Ho6  1  0.000000  0.616128  0.090189  1
  Ho  Ho7  1  0.000000  0.383872  0.909811  1
  Ho  Ho8  1  0.000000  0.882320  0.589299  1
  Ho  Ho9  1  0.000000  0.117680  0.410701  1
  In  In10  1  0.500000  0.704002  0.929942  1
  In  In11  1  0.500000  0.295998  0.070058  1
  In  In12  1  0.500000  0.795705  0.430664  1
  In  In13  1  0.500000  0.204295  0.569336  1
  In  In14  1  0.500000  0.569211  0.652100  1
  In  In15  1  0.500000  0.430789  0.347900  1
  In  In16  1  0.500000  0.929426  0.152522  1
  In  In17  1  0.500000  0.070574  0.847478  1
  Co  Co18  1  0.500000  0.520357  0.195299  1
  Co  Co19  1  0.500000  0.479643  0.804701  1
  Ni  Ni20  1  0.500000  0.978993  0.695691  1
  Ni  Ni21  1  0.500000  0.021007  0.304309  1
