# generated using pymatgen
data_Hf6Ga6Fe2PdPt3
_symmetry_space_group_name_H-M   'P 1'
_cell_length_a   7.19907900
_cell_length_b   7.19907849
_cell_length_c   6.73582300
_cell_angle_alpha   90.00000000
_cell_angle_beta   90.00000000
_cell_angle_gamma   119.99999774
_symmetry_Int_Tables_number   1
_chemical_formula_structural   Hf6Ga6Fe2PdPt3
_chemical_formula_sum   'Hf6 Ga6 Fe2 Pd1 Pt3'
_cell_volume   302.32576203
_cell_formula_units_Z   1
loop_
 _symmetry_equiv_pos_site_id
 _symmetry_equiv_pos_as_xyz
  1  'x, y, z'
loop_
 _atom_site_type_symbol
 _atom_site_label
 _atom_site_symmetry_multiplicity
 _atom_site_fract_x
 _atom_site_fract_y
 _atom_site_fract_z
 _atom_site_occupancy
  Hf  Hf0  1  0.742462  0.053857  0.000000  1
  Hf  Hf1  1  0.311394  0.257538  0.000000  1
  Hf  Hf2  1  0.946143  0.688606  0.000000  1
  Hf  Hf3  1  0.311943  0.252105  0.500000  1
  Hf  Hf4  1  0.747895  0.059838  0.500000  1
  Hf  Hf5  1  0.940162  0.688057  0.500000  1
  Ga  Ga6  1  0.609759  0.670208  0.748752  1
  Ga  Ga7  1  0.060449  0.390241  0.748752  1
  Ga  Ga8  1  0.329792  0.939551  0.748752  1
  Ga  Ga9  1  0.609759  0.670208  0.251248  1
  Ga  Ga10  1  0.060449  0.390241  0.251248  1
  Ga  Ga11  1  0.329792  0.939551  0.251248  1
  Fe  Fe12  1  0.000000  0.000000  0.250336  1
  Fe  Fe13  1  0.000000  0.000000  0.749664  1
  Pd  Pd14  1  0.333333  0.666667  0.500000  1
  Pt  Pt15  1  0.333333  0.666667  0.000000  1
  Pt  Pt16  1  0.666667  0.333333  0.752563  1
  Pt  Pt17  1  0.666667  0.333333  0.247437  1
