# generated using pymatgen
data_Nb3AsSe3
_symmetry_space_group_name_H-M   'P 1'
_cell_length_a   10.04155300
_cell_length_b   10.04155189
_cell_length_c   3.54054400
_cell_angle_alpha   90.00000000
_cell_angle_beta   90.00000000
_cell_angle_gamma   120.00000036
_symmetry_Int_Tables_number   1
_chemical_formula_structural   Nb3AsSe3
_chemical_formula_sum   'Nb6 As2 Se6'
_cell_volume   309.17356078
_cell_formula_units_Z   2
loop_
 _symmetry_equiv_pos_site_id
 _symmetry_equiv_pos_as_xyz
  1  'x, y, z'
loop_
 _atom_site_type_symbol
 _atom_site_label
 _atom_site_symmetry_multiplicity
 _atom_site_fract_x
 _atom_site_fract_y
 _atom_site_fract_z
 _atom_site_occupancy
  Nb  Nb0  1  0.625797  0.119664  0.750000  1
  Nb  Nb1  1  0.493866  0.374203  0.750000  1
  Nb  Nb2  1  0.374203  0.880336  0.250000  1
  Nb  Nb3  1  0.880336  0.506134  0.750000  1
  Nb  Nb4  1  0.506134  0.625797  0.250000  1
  Nb  Nb5  1  0.119664  0.493866  0.250000  1
  As  As6  1  0.333333  0.666667  0.750000  1
  As  As7  1  0.666667  0.333333  0.250000  1
  Se  Se8  1  0.714695  0.660396  0.750000  1
  Se  Se9  1  0.285305  0.339604  0.250000  1
  Se  Se10  1  0.660396  0.945701  0.250000  1
  Se  Se11  1  0.945701  0.285305  0.750000  1
  Se  Se12  1  0.054299  0.714695  0.250000  1
  Se  Se13  1  0.339604  0.054299  0.750000  1
