# generated using pymatgen
data_Pr3Nd3CoBr10
_symmetry_space_group_name_H-M   'P 1'
_cell_length_a   7.64546970
_cell_length_b   9.43402813
_cell_length_c   9.56212030
_cell_angle_alpha   108.79926557
_cell_angle_beta   106.08181202
_cell_angle_gamma   97.11173922
_symmetry_Int_Tables_number   1
_chemical_formula_structural   Pr3Nd3CoBr10
_chemical_formula_sum   'Pr3 Nd3 Co1 Br10'
_cell_volume   609.89541606
_cell_formula_units_Z   1
loop_
 _symmetry_equiv_pos_site_id
 _symmetry_equiv_pos_as_xyz
  1  'x, y, z'
loop_
 _atom_site_type_symbol
 _atom_site_label
 _atom_site_symmetry_multiplicity
 _atom_site_fract_x
 _atom_site_fract_y
 _atom_site_fract_z
 _atom_site_occupancy
  Pr  Pr0  1  0.635086  0.811832  0.861326  1
  Pr  Pr1  1  0.877151  0.236709  0.953465  1
  Pr  Pr2  1  0.973669  0.100060  0.302869  1
  Nd  Nd3  1  0.363083  0.186938  0.136873  1
  Nd  Nd4  1  0.027598  0.900252  0.699463  1
  Nd  Nd5  1  0.123463  0.764862  0.046999  1
  Co  Co6  1  0.000389  0.999944  0.999927  1
  Br  Br7  1  0.451522  0.079565  0.823192  1
  Br  Br8  1  0.750837  0.541637  0.918093  1
  Br  Br9  1  0.251808  0.459244  0.082856  1
  Br  Br10  1  0.913102  0.169645  0.633508  1
  Br  Br11  1  0.640393  0.725516  0.541773  1
  Br  Br12  1  0.546483  0.920441  0.174882  1
  Br  Br13  1  0.087843  0.829507  0.367602  1
  Br  Br14  1  0.793382  0.353244  0.257375  1
  Br  Br15  1  0.201130  0.644538  0.742942  1
  Br  Br16  1  0.363061  0.276067  0.456855  1
