# generated using pymatgen
data_La7TbSc12Si15Pb
_symmetry_space_group_name_H-M   'P 1'
_cell_length_a   7.34133228
_cell_length_b   7.61832111
_cell_length_c   14.39116516
_cell_angle_alpha   89.76153799
_cell_angle_beta   89.62037457
_cell_angle_gamma   90.32154898
_symmetry_Int_Tables_number   1
_chemical_formula_structural   La7TbSc12Si15Pb
_chemical_formula_sum   'La7 Tb1 Sc12 Si15 Pb1'
_cell_volume   804.84066657
_cell_formula_units_Z   1
loop_
 _symmetry_equiv_pos_site_id
 _symmetry_equiv_pos_as_xyz
  1  'x, y, z'
loop_
 _atom_site_type_symbol
 _atom_site_label
 _atom_site_symmetry_multiplicity
 _atom_site_fract_x
 _atom_site_fract_y
 _atom_site_fract_z
 _atom_site_occupancy
  La  La0  1  0.011576  0.171881  0.097670  1
  La  La1  1  0.988433  0.829167  0.901840  1
  La  La2  1  0.490506  0.669756  0.903790  1
  La  La3  1  0.989731  0.836565  0.599216  1
  La  La4  1  0.509734  0.329386  0.097175  1
  La  La5  1  0.007609  0.164020  0.399650  1
  La  La6  1  0.513421  0.323075  0.398325  1
  Tb  Tb7  1  0.504486  0.684666  0.604072  1
  Sc  Sc8  1  0.160682  0.499601  0.756378  1
  Sc  Sc9  1  0.838548  0.504528  0.249083  1
  Sc  Sc10  1  0.340660  0.993183  0.249284  1
  Sc  Sc11  1  0.661964  0.003941  0.750703  1
  Sc  Sc12  1  0.343723  0.160715  0.632152  1
  Sc  Sc13  1  0.662283  0.823567  0.373263  1
  Sc  Sc14  1  0.166920  0.680794  0.369755  1
  Sc  Sc15  1  0.670465  0.824604  0.124103  1
  Sc  Sc16  1  0.817599  0.327380  0.625846  1
  Sc  Sc17  1  0.329304  0.173570  0.873024  1
  Sc  Sc18  1  0.829295  0.326092  0.874433  1
  Sc  Sc19  1  0.167636  0.675005  0.124716  1
  Si  Si20  1  0.031289  0.134227  0.750121  1
  Si  Si21  1  0.963440  0.871497  0.247663  1
  Si  Si22  1  0.463986  0.627945  0.248484  1
  Si  Si23  1  0.532199  0.377600  0.750480  1
  Si  Si24  1  0.294747  0.875277  0.750669  1
  Si  Si25  1  0.708216  0.111989  0.247840  1
  Si  Si26  1  0.206819  0.385682  0.249476  1
  Si  Si27  1  0.791244  0.618481  0.748816  1
  Si  Si28  1  0.832843  0.543906  0.458292  1
  Si  Si29  1  0.348358  0.956697  0.462680  1
  Si  Si30  1  0.849311  0.536498  0.039961  1
  Si  Si31  1  0.650796  0.034708  0.540109  1
  Si  Si32  1  0.149179  0.463389  0.959854  1
  Si  Si33  1  0.648660  0.037847  0.959927  1
  Si  Si34  1  0.350087  0.963461  0.039027  1
  Pb  Pb35  1  0.174246  0.459301  0.542126  1
