# generated using pymatgen
data_Th3Al3ZnPdRh
_symmetry_space_group_name_H-M   'P 1'
_cell_length_a   7.19503500
_cell_length_b   7.19503467
_cell_length_c   4.29247400
_cell_angle_alpha   90.00000000
_cell_angle_beta   90.00000000
_cell_angle_gamma   119.99999691
_symmetry_Int_Tables_number   1
_chemical_formula_structural   Th3Al3ZnPdRh
_chemical_formula_sum   'Th3 Al3 Zn1 Pd1 Rh1'
_cell_volume   192.44388707
_cell_formula_units_Z   1
loop_
 _symmetry_equiv_pos_site_id
 _symmetry_equiv_pos_as_xyz
  1  'x, y, z'
loop_
 _atom_site_type_symbol
 _atom_site_label
 _atom_site_symmetry_multiplicity
 _atom_site_fract_x
 _atom_site_fract_y
 _atom_site_fract_z
 _atom_site_occupancy
  Th  Th0  1  0.417078  0.425039  0.500000  1
  Th  Th1  1  0.574961  0.992039  0.500000  1
  Th  Th2  1  0.007961  0.582922  0.500000  1
  Al  Al3  1  0.763499  0.769409  0.000000  1
  Al  Al4  1  0.230591  0.994089  0.000000  1
  Al  Al5  1  0.005911  0.236501  0.000000  1
  Zn  Zn6  1  0.666667  0.333333  0.000000  1
  Pd  Pd7  1  0.000000  0.000000  0.500000  1
  Rh  Rh8  1  0.333333  0.666667  0.000000  1
