# generated using pymatgen
data_Pr7NdTe12
_symmetry_space_group_name_H-M   'P 1'
_cell_length_a   4.47216700
_cell_length_b   12.06191301
_cell_length_c   12.43908701
_cell_angle_alpha   89.99456992
_cell_angle_beta   89.99992011
_cell_angle_gamma   89.99997769
_symmetry_Int_Tables_number   1
_chemical_formula_structural   Pr7NdTe12
_chemical_formula_sum   'Pr7 Nd1 Te12'
_cell_volume   671.00029122
_cell_formula_units_Z   1
loop_
 _symmetry_equiv_pos_site_id
 _symmetry_equiv_pos_as_xyz
  1  'x, y, z'
loop_
 _atom_site_type_symbol
 _atom_site_label
 _atom_site_symmetry_multiplicity
 _atom_site_fract_x
 _atom_site_fract_y
 _atom_site_fract_z
 _atom_site_occupancy
  Pr  Pr0  1  0.249999  0.497184  0.696575  1
  Pr  Pr1  1  0.750000  0.502681  0.303438  1
  Pr  Pr2  1  0.749999  0.997307  0.803521  1
  Pr  Pr3  1  0.250001  0.002879  0.196441  1
  Pr  Pr4  1  0.250000  0.187521  0.516638  1
  Pr  Pr5  1  0.750001  0.812505  0.483383  1
  Pr  Pr6  1  0.750000  0.687508  0.983369  1
  Nd  Nd7  1  0.250000  0.312431  0.016576  1
  Te  Te8  1  0.250000  0.877350  0.957814  1
  Te  Te9  1  0.750000  0.123648  0.041997  1
  Te  Te10  1  0.750002  0.377296  0.542214  1
  Te  Te11  1  0.249997  0.622700  0.457793  1
  Te  Te12  1  0.250001  0.198185  0.775022  1
  Te  Te13  1  0.750000  0.801942  0.225447  1
  Te  Te14  1  0.749999  0.698009  0.725477  1
  Te  Te15  1  0.250000  0.301982  0.273893  1
  Te  Te16  1  0.249999  0.556817  0.119335  1
  Te  Te17  1  0.750002  0.442017  0.881050  1
  Te  Te18  1  0.750001  0.057470  0.380362  1
  Te  Te19  1  0.249998  0.942571  0.619655  1
