# generated using pymatgen
data_Hf4Ti3MnSiP3
_symmetry_space_group_name_H-M   'P 1'
_cell_length_a   3.53681500
_cell_length_b   6.71602114
_cell_length_c   8.02977868
_cell_angle_alpha   89.87320037
_cell_angle_beta   90.00000000
_cell_angle_gamma   90.00000000
_symmetry_Int_Tables_number   1
_chemical_formula_structural   Hf4Ti3MnSiP3
_chemical_formula_sum   'Hf4 Ti3 Mn1 Si1 P3'
_cell_volume   190.73347001
_cell_formula_units_Z   1
loop_
 _symmetry_equiv_pos_site_id
 _symmetry_equiv_pos_as_xyz
  1  'x, y, z'
loop_
 _atom_site_type_symbol
 _atom_site_label
 _atom_site_symmetry_multiplicity
 _atom_site_fract_x
 _atom_site_fract_y
 _atom_site_fract_z
 _atom_site_occupancy
  Hf  Hf0  1  0.250000  0.539512  0.168043  1
  Hf  Hf1  1  0.750000  0.457995  0.833312  1
  Hf  Hf2  1  0.750000  0.966258  0.672180  1
  Hf  Hf3  1  0.250000  0.035359  0.330013  1
  Ti  Ti4  1  0.250000  0.633946  0.563268  1
  Ti  Ti5  1  0.750000  0.361738  0.442521  1
  Ti  Ti6  1  0.750000  0.871863  0.055990  1
  Mn  Mn7  1  0.250000  0.133353  0.938433  1
  Si  Si8  1  0.750000  0.238131  0.127852  1
  P  P9  1  0.250000  0.763878  0.860569  1
  P  P10  1  0.750000  0.739004  0.361107  1
  P  P11  1  0.250000  0.258961  0.646712  1
