# generated using pymatgen
data_Na12Li8Zr(SnP4)3
_symmetry_space_group_name_H-M   'P 1'
_cell_length_a   9.53627353
_cell_length_b   9.53627363
_cell_length_c   13.85310083
_cell_angle_alpha   89.97411701
_cell_angle_beta   89.97411698
_cell_angle_gamma   143.30011832
_symmetry_Int_Tables_number   1
_chemical_formula_structural   Na12Li8Zr(SnP4)3
_chemical_formula_sum   'Na12 Li8 Zr1 Sn3 P12'
_cell_volume   752.89014423
_cell_formula_units_Z   1
loop_
 _symmetry_equiv_pos_site_id
 _symmetry_equiv_pos_as_xyz
  1  'x, y, z'
loop_
 _atom_site_type_symbol
 _atom_site_label
 _atom_site_symmetry_multiplicity
 _atom_site_fract_x
 _atom_site_fract_y
 _atom_site_fract_z
 _atom_site_occupancy
  Na  Na0  1  0.098359  0.438672  0.679185  1
  Na  Na1  1  0.728305  0.730744  0.682533  1
  Na  Na2  1  0.233285  0.233800  0.818896  1
  Na  Na3  1  0.766200  0.766715  0.181104  1
  Na  Na4  1  0.939641  0.597208  0.819291  1
  Na  Na5  1  0.561328  0.901641  0.320815  1
  Na  Na6  1  0.402792  0.060359  0.180709  1
  Na  Na7  1  0.058735  0.400092  0.179620  1
  Na  Na8  1  0.896272  0.552804  0.320918  1
  Na  Na9  1  0.447196  0.103728  0.679082  1
  Na  Na10  1  0.599908  0.941266  0.820380  1
  Na  Na11  1  0.269256  0.271695  0.317467  1
  Li  Li12  1  0.917083  0.082917  0.000000  1
  Li  Li13  1  0.583342  0.416658  0.500000  1
  Li  Li14  1  0.083027  0.916973  0.000000  1
  Li  Li15  1  0.416190  0.583810  0.500000  1
  Li  Li16  1  0.756195  0.243805  0.000000  1
  Li  Li17  1  0.744176  0.255824  0.500000  1
  Li  Li18  1  0.243669  0.756331  0.000000  1
  Li  Li19  1  0.256206  0.743794  0.500000  1
  Zr  Zr20  1  0.086349  0.913651  0.500000  1
  Sn  Sn21  1  0.407450  0.592550  0.000000  1
  Sn  Sn22  1  0.909610  0.090390  0.500000  1
  Sn  Sn23  1  0.592615  0.407385  0.000000  1
  P  P24  1  0.912417  0.580339  0.110747  1
  P  P25  1  0.419661  0.087583  0.889253  1
  P  P26  1  0.589883  0.918971  0.610214  1
  P  P27  1  0.927579  0.598521  0.607188  1
  P  P28  1  0.088076  0.420375  0.889360  1
  P  P29  1  0.579625  0.911924  0.110640  1
  P  P30  1  0.401479  0.072421  0.392812  1
  P  P31  1  0.241609  0.238781  0.604031  1
  P  P32  1  0.735186  0.734952  0.897074  1
  P  P33  1  0.265048  0.264814  0.102926  1
  P  P34  1  0.081029  0.410117  0.389786  1
  P  P35  1  0.761219  0.758391  0.395969  1
