# generated using pymatgen
data_NaCa21Ga13Ag
_symmetry_space_group_name_H-M   'P 1'
_cell_length_a   11.36819313
_cell_length_b   11.37984505
_cell_length_c   11.36819398
_cell_angle_alpha   59.96609376
_cell_angle_beta   60.06781662
_cell_angle_gamma   59.96609419
_symmetry_Int_Tables_number   1
_chemical_formula_structural   NaCa21Ga13Ag
_chemical_formula_sum   'Na1 Ca21 Ga13 Ag1'
_cell_volume   1039.92823764
_cell_formula_units_Z   1
loop_
 _symmetry_equiv_pos_site_id
 _symmetry_equiv_pos_as_xyz
  1  'x, y, z'
loop_
 _atom_site_type_symbol
 _atom_site_label
 _atom_site_symmetry_multiplicity
 _atom_site_fract_x
 _atom_site_fract_y
 _atom_site_fract_z
 _atom_site_occupancy
  Na  Na0  1  0.499716  0.500284  0.499716  1
  Ca  Ca1  1  0.998008  0.001992  0.998008  1
  Ca  Ca2  1  0.126743  0.134872  0.126743  1
  Ca  Ca3  1  0.388357  0.873257  0.865128  1
  Ca  Ca4  1  0.871198  0.387181  0.871198  1
  Ca  Ca5  1  0.865128  0.873257  0.388357  1
  Ca  Ca6  1  0.126743  0.611643  0.126743  1
  Ca  Ca7  1  0.129579  0.128802  0.612819  1
  Ca  Ca8  1  0.612819  0.128802  0.129579  1
  Ca  Ca9  1  0.871198  0.870421  0.871198  1
  Ca  Ca10  1  0.499677  0.831917  0.499677  1
  Ca  Ca11  1  0.833430  0.500052  0.499948  1
  Ca  Ca12  1  0.506311  0.832147  0.167853  1
  Ca  Ca13  1  0.168083  0.500323  0.831270  1
  Ca  Ca14  1  0.831270  0.500323  0.168083  1
  Ca  Ca15  1  0.499948  0.500052  0.833430  1
  Ca  Ca16  1  0.167853  0.832147  0.506311  1
  Ca  Ca17  1  0.499948  0.166570  0.833430  1
  Ca  Ca18  1  0.506311  0.493689  0.167853  1
  Ca  Ca19  1  0.833430  0.166570  0.499948  1
  Ca  Ca20  1  0.167853  0.493689  0.506311  1
  Ca  Ca21  1  0.499677  0.168730  0.499677  1
  Ga  Ga22  1  0.218609  0.781391  0.784403  1
  Ga  Ga23  1  0.784403  0.215597  0.218609  1
  Ga  Ga24  1  0.784403  0.781391  0.218609  1
  Ga  Ga25  1  0.218609  0.215597  0.784403  1
  Ga  Ga26  1  0.781562  0.218438  0.781562  1
  Ga  Ga27  1  0.307716  0.312125  0.307715  1
  Ga  Ga28  1  0.927555  0.692285  0.687875  1
  Ga  Ga29  1  0.690178  0.929084  0.690178  1
  Ga  Ga30  1  0.687875  0.692285  0.927555  1
  Ga  Ga31  1  0.307715  0.072445  0.307715  1
  Ga  Ga32  1  0.309439  0.309822  0.070916  1
  Ga  Ga33  1  0.070916  0.309822  0.309439  1
  Ga  Ga34  1  0.690178  0.690561  0.690177  1
  Ag  Ag35  1  0.217561  0.782439  0.217561  1
