# generated using pymatgen
data_La3Zn3NiPt2
_symmetry_space_group_name_H-M   'P 1'
_cell_length_a   7.47665000
_cell_length_b   7.47665014
_cell_length_c   4.00495400
_cell_angle_alpha   90.00000000
_cell_angle_beta   90.00000000
_cell_angle_gamma   119.99999937
_symmetry_Int_Tables_number   1
_chemical_formula_structural   La3Zn3NiPt2
_chemical_formula_sum   'La3 Zn3 Ni1 Pt2'
_cell_volume   193.88413637
_cell_formula_units_Z   1
loop_
 _symmetry_equiv_pos_site_id
 _symmetry_equiv_pos_as_xyz
  1  'x, y, z'
loop_
 _atom_site_type_symbol
 _atom_site_label
 _atom_site_symmetry_multiplicity
 _atom_site_fract_x
 _atom_site_fract_y
 _atom_site_fract_z
 _atom_site_occupancy
  La  La0  1  0.000000  0.591376  0.000000  1
  La  La1  1  0.408624  0.408624  0.000000  1
  La  La2  1  0.591376  0.000000  0.000000  1
  Zn  Zn3  1  0.223726  0.000000  0.500000  1
  Zn  Zn4  1  0.776274  0.776274  0.500000  1
  Zn  Zn5  1  0.000000  0.223726  0.500000  1
  Ni  Ni6  1  0.000000  0.000000  0.000000  1
  Pt  Pt7  1  0.666667  0.333333  0.500000  1
  Pt  Pt8  1  0.333333  0.666667  0.500000  1
