# generated using pymatgen
data_Ho8MgSc11Si15Ge
_symmetry_space_group_name_H-M   'P 1'
_cell_length_a   7.05311769
_cell_length_b   7.37849855
_cell_length_c   13.98871817
_cell_angle_alpha   90.01161231
_cell_angle_beta   89.85178205
_cell_angle_gamma   89.93706648
_symmetry_Int_Tables_number   1
_chemical_formula_structural   Ho8MgSc11Si15Ge
_chemical_formula_sum   'Ho8 Mg1 Sc11 Si15 Ge1'
_cell_volume   727.98984914
_cell_formula_units_Z   1
loop_
 _symmetry_equiv_pos_site_id
 _symmetry_equiv_pos_as_xyz
  1  'x, y, z'
loop_
 _atom_site_type_symbol
 _atom_site_label
 _atom_site_symmetry_multiplicity
 _atom_site_fract_x
 _atom_site_fract_y
 _atom_site_fract_z
 _atom_site_occupancy
  Ho  Ho0  1  0.010543  0.175410  0.096496  1
  Ho  Ho1  1  0.990098  0.820240  0.902602  1
  Ho  Ho2  1  0.487061  0.674389  0.902868  1
  Ho  Ho3  1  0.990505  0.820942  0.597602  1
  Ho  Ho4  1  0.510489  0.324419  0.096755  1
  Ho  Ho5  1  0.008922  0.174665  0.402821  1
  Ho  Ho6  1  0.511222  0.322844  0.402184  1
  Ho  Ho7  1  0.489882  0.676105  0.597635  1
  Mg  Mg8  1  0.161395  0.505254  0.751529  1
  Sc  Sc9  1  0.836877  0.497722  0.249972  1
  Sc  Sc10  1  0.337509  0.003690  0.249946  1
  Sc  Sc11  1  0.660334  0.996544  0.750007  1
  Sc  Sc12  1  0.331142  0.176674  0.626396  1
  Sc  Sc13  1  0.668756  0.824737  0.374329  1
  Sc  Sc14  1  0.166067  0.679909  0.373469  1
  Sc  Sc15  1  0.669589  0.823708  0.124897  1
  Sc  Sc16  1  0.835046  0.324156  0.625552  1
  Sc  Sc17  1  0.328629  0.179352  0.874749  1
  Sc  Sc18  1  0.835116  0.323740  0.874626  1
  Sc  Sc19  1  0.168150  0.679436  0.125851  1
  Si  Si20  1  0.032346  0.104166  0.750173  1
  Si  Si21  1  0.966091  0.887375  0.249333  1
  Si  Si22  1  0.465253  0.616558  0.249686  1
  Si  Si23  1  0.539069  0.382497  0.750319  1
  Si  Si24  1  0.289895  0.879264  0.750456  1
  Si  Si25  1  0.712358  0.128690  0.249416  1
  Si  Si26  1  0.211389  0.373206  0.249981  1
  Si  Si27  1  0.778788  0.628478  0.750231  1
  Si  Si28  1  0.835710  0.537776  0.461481  1
  Si  Si29  1  0.341096  0.965295  0.461495  1
  Si  Si30  1  0.841589  0.536046  0.037849  1
  Si  Si31  1  0.660031  0.034633  0.539864  1
  Si  Si32  1  0.160823  0.462037  0.966400  1
  Si  Si33  1  0.658477  0.033897  0.959836  1
  Si  Si34  1  0.342758  0.965930  0.038638  1
  Ge  Ge35  1  0.166991  0.460213  0.534560  1
