# generated using pymatgen
data_LaYb3DyRu2
_symmetry_space_group_name_H-M   'P 1'
_cell_length_a   8.69097882
_cell_length_b   8.69097923
_cell_length_c   7.37341030
_cell_angle_alpha   83.33284463
_cell_angle_beta   83.33283718
_cell_angle_gamma   43.57318848
_symmetry_Int_Tables_number   1
_chemical_formula_structural   LaYb3DyRu2
_chemical_formula_sum   'La2 Yb6 Dy2 Ru4'
_cell_volume   380.87316022
_cell_formula_units_Z   2
loop_
 _symmetry_equiv_pos_site_id
 _symmetry_equiv_pos_as_xyz
  1  'x, y, z'
loop_
 _atom_site_type_symbol
 _atom_site_label
 _atom_site_symmetry_multiplicity
 _atom_site_fract_x
 _atom_site_fract_y
 _atom_site_fract_z
 _atom_site_occupancy
  La  La0  1  0.987770  0.197127  0.083647  1
  La  La1  1  0.802873  0.012230  0.416353  1
  Yb  Yb2  1  0.200095  0.979897  0.582127  1
  Yb  Yb3  1  0.020103  0.799905  0.917873  1
  Yb  Yb4  1  0.204838  0.366831  0.318692  1
  Yb  Yb5  1  0.633169  0.795162  0.181308  1
  Yb  Yb6  1  0.800886  0.626110  0.678207  1
  Yb  Yb7  1  0.373890  0.199114  0.821793  1
  Dy  Dy8  1  0.557626  0.442374  0.750000  1
  Dy  Dy9  1  0.427308  0.572692  0.250000  1
  Ru  Ru10  1  0.167536  0.617353  0.569749  1
  Ru  Ru11  1  0.382647  0.832464  0.930251  1
  Ru  Ru12  1  0.822199  0.380942  0.411958  1
  Ru  Ru13  1  0.619058  0.177801  0.088042  1
