# generated using pymatgen
data_Ca2La3Pb3Br
_symmetry_space_group_name_H-M   'P 1'
_cell_length_a   9.59146700
_cell_length_b   9.59146718
_cell_length_c   6.90713600
_cell_angle_alpha   90.00000000
_cell_angle_beta   90.00000000
_cell_angle_gamma   120.00000283
_symmetry_Int_Tables_number   1
_chemical_formula_structural   Ca2La3Pb3Br
_chemical_formula_sum   'Ca4 La6 Pb6 Br2'
_cell_volume   550.29898088
_cell_formula_units_Z   2
loop_
 _symmetry_equiv_pos_site_id
 _symmetry_equiv_pos_as_xyz
  1  'x, y, z'
loop_
 _atom_site_type_symbol
 _atom_site_label
 _atom_site_symmetry_multiplicity
 _atom_site_fract_x
 _atom_site_fract_y
 _atom_site_fract_z
 _atom_site_occupancy
  Ca  Ca0  1  0.333333  0.666667  0.500000  1
  Ca  Ca1  1  0.333333  0.666667  0.000000  1
  Ca  Ca2  1  0.666667  0.333333  0.500000  1
  Ca  Ca3  1  0.666667  0.333333  0.000000  1
  La  La4  1  0.728369  0.000000  0.750000  1
  La  La5  1  0.000000  0.271631  0.250000  1
  La  La6  1  0.728369  0.728369  0.250000  1
  La  La7  1  0.271631  0.000000  0.250000  1
  La  La8  1  0.271631  0.271631  0.750000  1
  La  La9  1  0.000000  0.728369  0.750000  1
  Pb  Pb10  1  0.385462  0.000000  0.750000  1
  Pb  Pb11  1  0.614538  0.000000  0.250000  1
  Pb  Pb12  1  0.000000  0.614538  0.250000  1
  Pb  Pb13  1  0.614538  0.614538  0.750000  1
  Pb  Pb14  1  0.000000  0.385462  0.750000  1
  Pb  Pb15  1  0.385462  0.385462  0.250000  1
  Br  Br16  1  0.000000  0.000000  0.500000  1
  Br  Br17  1  0.000000  0.000000  0.000000  1
