# generated using pymatgen
data_Dy4YHf3(Ni4P3)4
_symmetry_space_group_name_H-M   'P 1'
_cell_length_a   12.32035200
_cell_length_b   12.32035179
_cell_length_c   3.79497600
_cell_angle_alpha   90.00000000
_cell_angle_beta   90.00000000
_cell_angle_gamma   120.00000592
_symmetry_Int_Tables_number   1
_chemical_formula_structural   Dy4YHf3(Ni4P3)4
_chemical_formula_sum   'Dy4 Y1 Hf3 Ni16 P12'
_cell_volume   498.86824974
_cell_formula_units_Z   1
loop_
 _symmetry_equiv_pos_site_id
 _symmetry_equiv_pos_as_xyz
  1  'x, y, z'
loop_
 _atom_site_type_symbol
 _atom_site_label
 _atom_site_symmetry_multiplicity
 _atom_site_fract_x
 _atom_site_fract_y
 _atom_site_fract_z
 _atom_site_occupancy
  Dy  Dy0  1  0.184531  0.184531  0.500000  1
  Dy  Dy1  1  0.815469  0.000000  0.500000  1
  Dy  Dy2  1  0.000000  0.815469  0.500000  1
  Dy  Dy3  1  0.333333  0.666667  0.000000  1
  Y  Y4  1  0.666667  0.333333  0.000000  1
  Hf  Hf5  1  0.561640  0.561660  0.000000  1
  Hf  Hf6  1  0.438340  0.999980  0.000000  1
  Hf  Hf7  1  0.000020  0.438360  0.000000  1
  Ni  Ni8  1  0.725191  0.725192  0.500000  1
  Ni  Ni9  1  0.274808  0.999999  0.500000  1
  Ni  Ni10  1  0.000001  0.274809  0.500000  1
  Ni  Ni11  1  0.184539  0.376942  0.000000  1
  Ni  Ni12  1  0.623058  0.807597  0.000000  1
  Ni  Ni13  1  0.192403  0.815461  0.000000  1
  Ni  Ni14  1  0.807648  0.623176  0.000000  1
  Ni  Ni15  1  0.815528  0.192352  0.000000  1
  Ni  Ni16  1  0.376824  0.184472  0.000000  1
  Ni  Ni17  1  0.361017  0.484726  0.500000  1
  Ni  Ni18  1  0.515274  0.876292  0.500000  1
  Ni  Ni19  1  0.123708  0.638983  0.500000  1
  Ni  Ni20  1  0.876406  0.515381  0.500000  1
  Ni  Ni21  1  0.638976  0.123594  0.500000  1
  Ni  Ni22  1  0.484619  0.361024  0.500000  1
  Ni  Ni23  1  0.000000  0.000000  0.000000  1
  P  P24  1  0.822033  0.822037  0.000000  1
  P  P25  1  0.177963  0.999997  0.000000  1
  P  P26  1  0.000003  0.177967  0.000000  1
  P  P27  1  0.170104  0.476436  0.500000  1
  P  P28  1  0.523564  0.693668  0.500000  1
  P  P29  1  0.306332  0.829896  0.500000  1
  P  P30  1  0.693694  0.523716  0.500000  1
  P  P31  1  0.830022  0.306306  0.500000  1
  P  P32  1  0.476284  0.169978  0.500000  1
  P  P33  1  0.356572  0.356566  0.000000  1
  P  P34  1  0.643434  0.000006  0.000000  1
  P  P35  1  0.999994  0.643428  0.000000  1
