# generated using pymatgen
data_In2Bi3PbO12
_symmetry_space_group_name_H-M   'P 1'
_cell_length_a   5.04131890
_cell_length_b   5.04131890
_cell_length_c   10.25843600
_cell_angle_alpha   90.00000000
_cell_angle_beta   90.00000000
_cell_angle_gamma   90.18961769
_symmetry_Int_Tables_number   1
_chemical_formula_structural   In2Bi3PbO12
_chemical_formula_sum   'In2 Bi3 Pb1 O12'
_cell_volume   260.71565909
_cell_formula_units_Z   1
loop_
 _symmetry_equiv_pos_site_id
 _symmetry_equiv_pos_as_xyz
  1  'x, y, z'
loop_
 _atom_site_type_symbol
 _atom_site_label
 _atom_site_symmetry_multiplicity
 _atom_site_fract_x
 _atom_site_fract_y
 _atom_site_fract_z
 _atom_site_occupancy
  In  In0  1  0.000000  0.000000  0.999475  1
  In  In1  1  0.500000  0.500000  0.500943  1
  Bi  Bi2  1  0.000000  0.000000  0.333318  1
  Bi  Bi3  1  0.500000  0.500000  0.164880  1
  Bi  Bi4  1  0.000000  0.000000  0.668861  1
  Pb  Pb5  1  0.500000  0.500000  0.832565  1
  O  O6  1  0.695278  0.695278  0.664705  1
  O  O7  1  0.304722  0.304722  0.664705  1
  O  O8  1  0.691309  0.691309  0.331389  1
  O  O9  1  0.194187  0.805813  0.167724  1
  O  O10  1  0.805813  0.194187  0.167724  1
  O  O11  1  0.809135  0.190865  0.832020  1
  O  O12  1  0.306631  0.306631  0.003272  1
  O  O13  1  0.191661  0.808339  0.500871  1
  O  O14  1  0.808339  0.191661  0.500871  1
  O  O15  1  0.693369  0.693369  0.003272  1
  O  O16  1  0.308691  0.308691  0.331389  1
  O  O17  1  0.190865  0.809135  0.832020  1
