# generated using pymatgen
data_Ca2Co17Si8Ru
_symmetry_space_group_name_H-M   'P 1'
_cell_length_a   7.95604946
_cell_length_b   8.00078422
_cell_length_c   7.95994629
_cell_angle_alpha   122.07351129
_cell_angle_beta   121.89450293
_cell_angle_gamma   86.73744743
_symmetry_Int_Tables_number   1
_chemical_formula_structural   Ca2Co17Si8Ru
_chemical_formula_sum   'Ca2 Co17 Si8 Ru1'
_cell_volume   346.46683995
_cell_formula_units_Z   1
loop_
 _symmetry_equiv_pos_site_id
 _symmetry_equiv_pos_as_xyz
  1  'x, y, z'
loop_
 _atom_site_type_symbol
 _atom_site_label
 _atom_site_symmetry_multiplicity
 _atom_site_fract_x
 _atom_site_fract_y
 _atom_site_fract_z
 _atom_site_occupancy
  Ca  Ca0  1  0.750120  0.750322  0.001049  1
  Ca  Ca1  1  0.249070  0.249272  0.998951  1
  Co  Co2  1  0.448918  0.950866  0.758960  1
  Co  Co3  1  0.189958  0.691907  0.241040  1
  Co  Co4  1  0.546887  0.042445  0.236072  1
  Co  Co5  1  0.949624  0.191068  0.500000  1
  Co  Co6  1  0.196847  0.927528  0.126810  1
  Co  Co7  1  0.800890  0.069455  0.871084  1
  Co  Co8  1  0.429806  0.698372  0.128916  1
  Co  Co9  1  0.570036  0.300717  0.873190  1
  Co  Co10  1  0.700674  0.574610  0.264067  1
  Co  Co11  1  0.301395  0.429374  0.732472  1
  Co  Co12  1  0.936606  0.810542  0.735933  1
  Co  Co13  1  0.311395  0.548854  0.500000  1
  Co  Co14  1  0.810816  0.306374  0.763928  1
  Co  Co15  1  0.002368  0.502314  0.500000  1
  Co  Co16  1  0.499966  0.000799  0.500000  1
  Co  Co17  1  0.068923  0.196903  0.267528  1
  Co  Co18  1  0.051104  0.810668  0.500000  1
  Si  Si19  1  0.291864  0.789608  0.833705  1
  Si  Si20  1  0.048941  0.543081  0.839109  1
  Si  Si21  1  0.539756  0.715499  0.500000  1
  Si  Si22  1  0.792039  0.956195  0.500000  1
  Si  Si23  1  0.447898  0.286120  0.500000  1
  Si  Si24  1  0.958160  0.455903  0.166295  1
  Si  Si25  1  0.709832  0.203971  0.160891  1
  Si  Si26  1  0.208869  0.045227  0.500000  1
  Ru  Ru27  1  0.687241  0.452006  0.500000  1
