# generated using pymatgen
data_Tb8Gd4TlGaCo4
_symmetry_space_group_name_H-M   'P 1'
_cell_length_a   8.38383474
_cell_length_b   8.38383384
_cell_length_c   8.38383471
_cell_angle_alpha   112.24191636
_cell_angle_beta   109.30177487
_cell_angle_gamma   106.91413941
_symmetry_Int_Tables_number   1
_chemical_formula_structural   Tb8Gd4TlGaCo4
_chemical_formula_sum   'Tb8 Gd4 Tl1 Ga1 Co4'
_cell_volume   452.64788331
_cell_formula_units_Z   1
loop_
 _symmetry_equiv_pos_site_id
 _symmetry_equiv_pos_as_xyz
  1  'x, y, z'
loop_
 _atom_site_type_symbol
 _atom_site_label
 _atom_site_symmetry_multiplicity
 _atom_site_fract_x
 _atom_site_fract_y
 _atom_site_fract_z
 _atom_site_occupancy
  Tb  Tb0  1  0.674461  0.860335  0.185874  1
  Tb  Tb1  1  0.325539  0.511413  0.185874  1
  Tb  Tb2  1  0.325539  0.139665  0.814126  1
  Tb  Tb3  1  0.674461  0.488587  0.814126  1
  Tb  Tb4  1  0.179280  0.218068  0.397348  1
  Tb  Tb5  1  0.820720  0.218068  0.038788  1
  Tb  Tb6  1  0.179280  0.781932  0.961212  1
  Tb  Tb7  1  0.820720  0.781932  0.602652  1
  Gd  Gd8  1  0.032371  0.732946  0.299424  1
  Gd  Gd9  1  0.967629  0.267054  0.700576  1
  Gd  Gd10  1  0.566478  0.267054  0.299424  1
  Gd  Gd11  1  0.433522  0.732946  0.700576  1
  Tl  Tl12  1  0.500000  0.000000  0.500000  1
  Ga  Ga13  1  0.000000  0.500000  0.500000  1
  Co  Co14  1  0.662493  0.500000  0.162493  1
  Co  Co15  1  0.337507  0.500000  0.837507  1
  Co  Co16  1  0.886609  0.886609  0.000000  1
  Co  Co17  1  0.113391  0.113391  0.000000  1
