# generated using pymatgen
data_YLu3ReB12Rh
_symmetry_space_group_name_H-M   'P 1'
_cell_length_a   3.63175500
_cell_length_b   9.06106757
_cell_length_c   11.45535700
_cell_angle_alpha   90.38508611
_cell_angle_beta   90.00000000
_cell_angle_gamma   90.00000000
_symmetry_Int_Tables_number   1
_chemical_formula_structural   YLu3ReB12Rh
_chemical_formula_sum   'Y2 Lu6 Re2 B24 Rh2'
_cell_volume   376.95953374
_cell_formula_units_Z   2
loop_
 _symmetry_equiv_pos_site_id
 _symmetry_equiv_pos_as_xyz
  1  'x, y, z'
loop_
 _atom_site_type_symbol
 _atom_site_label
 _atom_site_symmetry_multiplicity
 _atom_site_fract_x
 _atom_site_fract_y
 _atom_site_fract_z
 _atom_site_occupancy
  Y  Y0  1  0.000000  0.317865  0.411077  1
  Y  Y1  1  0.000000  0.682135  0.588923  1
  Lu  Lu2  1  0.000000  0.825783  0.082160  1
  Lu  Lu3  1  0.000000  0.174217  0.917840  1
  Lu  Lu4  1  0.000000  0.945607  0.371494  1
  Lu  Lu5  1  0.000000  0.054393  0.628506  1
  Lu  Lu6  1  0.000000  0.442176  0.125903  1
  Lu  Lu7  1  0.000000  0.557824  0.874097  1
  Re  Re8  1  0.000000  0.138234  0.178929  1
  Re  Re9  1  0.000000  0.861766  0.821071  1
  B  B10  1  0.500000  0.554963  0.433802  1
  B  B11  1  0.500000  0.445037  0.566198  1
  B  B12  1  0.500000  0.052641  0.066603  1
  B  B13  1  0.500000  0.947359  0.933397  1
  B  B14  1  0.500000  0.750730  0.420574  1
  B  B15  1  0.500000  0.249270  0.579426  1
  B  B16  1  0.500000  0.249468  0.080328  1
  B  B17  1  0.500000  0.750532  0.919672  1
  B  B18  1  0.500000  0.792526  0.263908  1
  B  B19  1  0.500000  0.207474  0.736092  1
  B  B20  1  0.500000  0.293361  0.234146  1
  B  B21  1  0.500000  0.706639  0.765854  1
  B  B22  1  0.500000  0.632380  0.182067  1
  B  B23  1  0.500000  0.367620  0.817933  1
  B  B24  1  0.500000  0.130621  0.314913  1
  B  B25  1  0.500000  0.869379  0.685087  1
  B  B26  1  0.500000  0.981327  0.212761  1
  B  B27  1  0.500000  0.018673  0.787239  1
  B  B28  1  0.500000  0.483347  0.286586  1
  B  B29  1  0.500000  0.516653  0.713414  1
  B  B30  1  0.500000  0.604640  0.028957  1
  B  B31  1  0.500000  0.395360  0.971043  1
  B  B32  1  0.500000  0.103593  0.472163  1
  B  B33  1  0.500000  0.896407  0.527837  1
  Rh  Rh34  1  0.000000  0.639286  0.319617  1
  Rh  Rh35  1  0.000000  0.360714  0.680383  1
