# generated using pymatgen
data_NdHo3(NiP)4
_symmetry_space_group_name_H-M   'P 1'
_cell_length_a   3.90821500
_cell_length_b   3.90821521
_cell_length_c   15.56677500
_cell_angle_alpha   90.00000000
_cell_angle_beta   90.00000000
_cell_angle_gamma   119.99998979
_symmetry_Int_Tables_number   1
_chemical_formula_structural   NdHo3(NiP)4
_chemical_formula_sum   'Nd1 Ho3 Ni4 P4'
_cell_volume   205.91417395
_cell_formula_units_Z   1
loop_
 _symmetry_equiv_pos_site_id
 _symmetry_equiv_pos_as_xyz
  1  'x, y, z'
loop_
 _atom_site_type_symbol
 _atom_site_label
 _atom_site_symmetry_multiplicity
 _atom_site_fract_x
 _atom_site_fract_y
 _atom_site_fract_z
 _atom_site_occupancy
  Nd  Nd0  1  0.000000  0.000000  0.000000  1
  Ho  Ho1  1  0.000000  0.000000  0.500000  1
  Ho  Ho2  1  0.000000  0.000000  0.254292  1
  Ho  Ho3  1  0.000000  0.000000  0.745708  1
  Ni  Ni4  1  0.333333  0.666667  0.372899  1
  Ni  Ni5  1  0.666667  0.333333  0.627101  1
  Ni  Ni6  1  0.666667  0.333333  0.864635  1
  Ni  Ni7  1  0.333333  0.666667  0.135365  1
  P  P8  1  0.333333  0.666667  0.869525  1
  P  P9  1  0.666667  0.333333  0.130475  1
  P  P10  1  0.666667  0.333333  0.379997  1
  P  P11  1  0.333333  0.666667  0.620003  1
