# generated using pymatgen
data_Tb6Dy4AlSb5
_symmetry_space_group_name_H-M   'P 1'
_cell_length_a   6.40417100
_cell_length_b   8.97320289
_cell_length_c   8.96563060
_cell_angle_alpha   120.02795205
_cell_angle_beta   89.99998869
_cell_angle_gamma   90.00001896
_symmetry_Int_Tables_number   1
_chemical_formula_structural   Tb6Dy4AlSb5
_chemical_formula_sum   'Tb6 Dy4 Al1 Sb5'
_cell_volume   446.06637464
_cell_formula_units_Z   1
loop_
 _symmetry_equiv_pos_site_id
 _symmetry_equiv_pos_as_xyz
  1  'x, y, z'
loop_
 _atom_site_type_symbol
 _atom_site_label
 _atom_site_symmetry_multiplicity
 _atom_site_fract_x
 _atom_site_fract_y
 _atom_site_fract_z
 _atom_site_occupancy
  Tb  Tb0  1  0.749999  0.248167  0.000000  1
  Tb  Tb1  1  0.749999  0.752995  0.761918  1
  Tb  Tb2  1  0.749999  0.991077  0.238082  1
  Tb  Tb3  1  0.249998  0.756853  0.000000  1
  Tb  Tb4  1  0.250000  0.245918  0.244867  1
  Tb  Tb5  1  0.250000  0.001052  0.755133  1
  Dy  Dy6  1  0.500764  0.338432  0.673059  1
  Dy  Dy7  1  0.500764  0.665375  0.326941  1
  Dy  Dy8  1  0.999235  0.665376  0.326942  1
  Dy  Dy9  1  0.999235  0.338433  0.673058  1
  Al  Al10  1  0.749998  0.604046  0.000000  1
  Sb  Sb11  1  0.750006  0.388493  0.390326  1
  Sb  Sb12  1  0.750006  0.998167  0.609674  1
  Sb  Sb13  1  0.249999  0.392478  0.000000  1
  Sb  Sb14  1  0.250000  0.610701  0.608262  1
  Sb  Sb15  1  0.250000  0.002439  0.391738  1
