# generated using pymatgen
data_K2Rb4YLuSb4
_symmetry_space_group_name_H-M   'P 1'
_cell_length_a   10.15661720
_cell_length_b   10.15667275
_cell_length_c   10.15601674
_cell_angle_alpha   131.35149726
_cell_angle_beta   67.85082094
_cell_angle_gamma   135.75349490
_symmetry_Int_Tables_number   1
_chemical_formula_structural   K2Rb4YLuSb4
_chemical_formula_sum   'K2 Rb4 Y1 Lu1 Sb4'
_cell_volume   539.40064516
_cell_formula_units_Z   1
loop_
 _symmetry_equiv_pos_site_id
 _symmetry_equiv_pos_as_xyz
  1  'x, y, z'
loop_
 _atom_site_type_symbol
 _atom_site_label
 _atom_site_symmetry_multiplicity
 _atom_site_fract_x
 _atom_site_fract_y
 _atom_site_fract_z
 _atom_site_occupancy
  K  K0  1  0.250037  0.250069  0.999993  1
  K  K1  1  0.750019  0.750061  0.000005  1
  Rb  Rb2  1  0.821584  0.281076  0.092613  1
  Rb  Rb3  1  0.678444  0.771022  0.459429  1
  Rb  Rb4  1  0.311611  0.218914  0.540512  1
  Rb  Rb5  1  0.188424  0.729038  0.907467  1
  Y  Y6  1  0.749994  0.250023  0.500001  1
  Lu  Lu7  1  0.249797  0.749653  0.500015  1
  Sb  Sb8  1  0.398227  0.797358  0.202136  1
  Sb  Sb9  1  0.101828  0.303934  0.399083  1
  Sb  Sb10  1  0.904845  0.702750  0.600883  1
  Sb  Sb11  1  0.595195  0.196105  0.797864  1
