# generated using pymatgen
data_Er7Tm9Cd4(RuPt)2
_symmetry_space_group_name_H-M   'P 1'
_cell_length_a   9.55126294
_cell_length_b   9.55126327
_cell_length_c   9.59025100
_cell_angle_alpha   59.86487476
_cell_angle_beta   59.86487362
_cell_angle_gamma   59.70103405
_symmetry_Int_Tables_number   1
_chemical_formula_structural   Er7Tm9Cd4(RuPt)2
_chemical_formula_sum   'Er7 Tm9 Cd4 Ru2 Pt2'
_cell_volume   615.97017253
_cell_formula_units_Z   1
loop_
 _symmetry_equiv_pos_site_id
 _symmetry_equiv_pos_as_xyz
  1  'x, y, z'
loop_
 _atom_site_type_symbol
 _atom_site_label
 _atom_site_symmetry_multiplicity
 _atom_site_fract_x
 _atom_site_fract_y
 _atom_site_fract_z
 _atom_site_occupancy
  Er  Er0  1  0.809343  0.809343  0.190657  1
  Er  Er1  1  0.937063  0.559688  0.566570  1
  Er  Er2  1  0.559688  0.937063  0.936679  1
  Er  Er3  1  0.559688  0.937063  0.566570  1
  Er  Er4  1  0.937063  0.559688  0.936679  1
  Er  Er5  1  0.564167  0.564167  0.935833  1
  Er  Er6  1  0.938426  0.938426  0.561574  1
  Tm  Tm7  1  0.349138  0.349138  0.352924  1
  Tm  Tm8  1  0.349138  0.349138  0.948803  1
  Tm  Tm9  1  0.346977  0.953310  0.349856  1
  Tm  Tm10  1  0.953310  0.346977  0.349856  1
  Tm  Tm11  1  0.815629  0.188254  0.188916  1
  Tm  Tm12  1  0.188254  0.815629  0.807200  1
  Tm  Tm13  1  0.188254  0.815629  0.188916  1
  Tm  Tm14  1  0.815629  0.188254  0.807200  1
  Tm  Tm15  1  0.187342  0.187342  0.812658  1
  Cd  Cd16  1  0.579868  0.579868  0.581774  1
  Cd  Cd17  1  0.579868  0.579868  0.258492  1
  Cd  Cd18  1  0.581278  0.254977  0.581872  1
  Cd  Cd19  1  0.254977  0.581278  0.581872  1
  Ru  Ru20  1  0.143657  0.143657  0.139568  1
  Ru  Ru21  1  0.143657  0.143657  0.573117  1
  Pt  Pt22  1  0.144440  0.573146  0.141206  1
  Pt  Pt23  1  0.573146  0.144440  0.141206  1
