# generated using pymatgen
data_Ce5Ta3Fe9P12Ru7
_symmetry_space_group_name_H-M   'P 1'
_cell_length_a   12.55191800
_cell_length_b   12.55191676
_cell_length_c   3.80508300
_cell_angle_alpha   90.00000000
_cell_angle_beta   90.00000000
_cell_angle_gamma   119.99999800
_symmetry_Int_Tables_number   1
_chemical_formula_structural   Ce5Ta3Fe9P12Ru7
_chemical_formula_sum   'Ce5 Ta3 Fe9 P12 Ru7'
_cell_volume   519.17637146
_cell_formula_units_Z   1
loop_
 _symmetry_equiv_pos_site_id
 _symmetry_equiv_pos_as_xyz
  1  'x, y, z'
loop_
 _atom_site_type_symbol
 _atom_site_label
 _atom_site_symmetry_multiplicity
 _atom_site_fract_x
 _atom_site_fract_y
 _atom_site_fract_z
 _atom_site_occupancy
  Ce  Ce0  1  0.181889  0.181889  0.500000  1
  Ce  Ce1  1  0.818111  0.000000  0.500000  1
  Ce  Ce2  1  0.000000  0.818111  0.500000  1
  Ce  Ce3  1  0.333333  0.666667  0.000000  1
  Ce  Ce4  1  0.666667  0.333333  0.000000  1
  Ta  Ta5  1  0.568918  0.568918  0.000000  1
  Ta  Ta6  1  0.431082  0.000000  0.000000  1
  Ta  Ta7  1  0.000000  0.431082  0.000000  1
  Fe  Fe8  1  0.718850  0.718850  0.500000  1
  Fe  Fe9  1  0.281150  0.000000  0.500000  1
  Fe  Fe10  1  0.000000  0.281150  0.500000  1
  Fe  Fe11  1  0.178073  0.374167  0.000000  1
  Fe  Fe12  1  0.625833  0.803906  0.000000  1
  Fe  Fe13  1  0.196094  0.821927  0.000000  1
  Fe  Fe14  1  0.803906  0.625833  0.000000  1
  Fe  Fe15  1  0.821927  0.196094  0.000000  1
  Fe  Fe16  1  0.374167  0.178073  0.000000  1
  P  P17  1  0.809091  0.809091  0.000000  1
  P  P18  1  0.190909  0.000000  0.000000  1
  P  P19  1  0.000000  0.190909  0.000000  1
  P  P20  1  0.164677  0.471026  0.500000  1
  P  P21  1  0.528974  0.693651  0.500000  1
  P  P22  1  0.306349  0.835323  0.500000  1
  P  P23  1  0.693651  0.528974  0.500000  1
  P  P24  1  0.835323  0.306349  0.500000  1
  P  P25  1  0.471026  0.164677  0.500000  1
  P  P26  1  0.359401  0.359401  0.000000  1
  P  P27  1  0.640599  0.000000  0.000000  1
  P  P28  1  0.000000  0.640599  0.000000  1
  Ru  Ru29  1  0.358382  0.484339  0.500000  1
  Ru  Ru30  1  0.515661  0.874042  0.500000  1
  Ru  Ru31  1  0.125958  0.641618  0.500000  1
  Ru  Ru32  1  0.874042  0.515661  0.500000  1
  Ru  Ru33  1  0.641618  0.125958  0.500000  1
  Ru  Ru34  1  0.484339  0.358382  0.500000  1
  Ru  Ru35  1  0.000000  0.000000  0.000000  1
