# generated using pymatgen
data_Co3Sb11TeOs
_symmetry_space_group_name_H-M   'P 1'
_cell_length_a   7.96644497
_cell_length_b   8.02197361
_cell_length_c   8.02846896
_cell_angle_alpha   109.53066899
_cell_angle_beta   109.21351245
_cell_angle_gamma   109.36841842
_symmetry_Int_Tables_number   1
_chemical_formula_structural   Co3Sb11TeOs
_chemical_formula_sum   'Co3 Sb11 Te1 Os1'
_cell_volume   396.42161630
_cell_formula_units_Z   1
loop_
 _symmetry_equiv_pos_site_id
 _symmetry_equiv_pos_as_xyz
  1  'x, y, z'
loop_
 _atom_site_type_symbol
 _atom_site_label
 _atom_site_symmetry_multiplicity
 _atom_site_fract_x
 _atom_site_fract_y
 _atom_site_fract_z
 _atom_site_occupancy
  Co  Co0  1  0.497571  0.497615  0.498518  1
  Co  Co1  1  0.001946  0.500403  0.000700  1
  Co  Co2  1  0.001047  0.000970  0.498412  1
  Sb  Sb3  1  0.669100  0.818030  0.160614  1
  Sb  Sb4  1  0.179755  0.840230  0.337463  1
  Sb  Sb5  1  0.664845  0.504094  0.839660  1
  Sb  Sb6  1  0.825775  0.159180  0.666812  1
  Sb  Sb7  1  0.330219  0.176411  0.836748  1
  Sb  Sb8  1  0.510274  0.838077  0.660439  1
  Sb  Sb9  1  0.496556  0.162047  0.343402  1
  Sb  Sb10  1  0.336253  0.492729  0.158032  1
  Sb  Sb11  1  0.149418  0.671978  0.833044  1
  Sb  Sb12  1  0.841651  0.340029  0.170669  1
  Sb  Sb13  1  0.839179  0.665674  0.504143  1
  Te  Te14  1  0.156222  0.334741  0.491312  1
  Os  Os15  1  0.500191  0.997792  0.000031  1
