# generated using pymatgen
data_Gd5LuI18
_symmetry_space_group_name_H-M   'P 1'
_cell_length_a   7.75292025
_cell_length_b   7.75292071
_cell_length_c   25.22183400
_cell_angle_alpha   89.98552256
_cell_angle_beta   89.98552995
_cell_angle_gamma   119.97815689
_symmetry_Int_Tables_number   1
_chemical_formula_structural   Gd5LuI18
_chemical_formula_sum   'Gd5 Lu1 I18'
_cell_volume   1313.20777996
_cell_formula_units_Z   1
loop_
 _symmetry_equiv_pos_site_id
 _symmetry_equiv_pos_as_xyz
  1  'x, y, z'
loop_
 _atom_site_type_symbol
 _atom_site_label
 _atom_site_symmetry_multiplicity
 _atom_site_fract_x
 _atom_site_fract_y
 _atom_site_fract_z
 _atom_site_occupancy
  Gd  Gd0  1  0.221134  0.110541  0.999733  1
  Gd  Gd1  1  0.554610  0.777044  0.000085  1
  Gd  Gd2  1  0.222956  0.445391  0.333248  1
  Gd  Gd3  1  0.889459  0.778866  0.333600  1
  Gd  Gd4  1  0.889176  0.110825  0.666666  1
  Lu  Lu5  1  0.222718  0.777280  0.666666  1
  I  I6  1  0.528006  0.443514  0.071401  1
  I  I7  1  0.888089  0.084381  0.071492  1
  I  I8  1  0.247880  0.804164  0.071745  1
  I  I9  1  0.195836  0.752120  0.261588  1
  I  I10  1  0.915620  0.111912  0.261842  1
  I  I11  1  0.556485  0.471994  0.261932  1
  I  I12  1  0.916136  0.471458  0.405015  1
  I  I13  1  0.196867  0.112752  0.405010  1
  I  I14  1  0.555418  0.751481  0.405067  1
  I  I15  1  0.548022  0.803999  0.596961  1
  I  I16  1  0.196327  0.076482  0.596975  1
  I  I17  1  0.923601  0.452171  0.597025  1
  I  I18  1  0.547828  0.076399  0.736308  1
  I  I19  1  0.923519  0.803673  0.736358  1
  I  I20  1  0.196000  0.451978  0.736372  1
  I  I21  1  0.248520  0.444582  0.928267  1
  I  I22  1  0.887248  0.803134  0.928323  1
  I  I23  1  0.528541  0.083864  0.928319  1
