# generated using pymatgen
data_Y5Ge10P2Ir19
_symmetry_space_group_name_H-M   'P 1'
_cell_length_a   13.11323837
_cell_length_b   13.11323877
_cell_length_c   4.00648900
_cell_angle_alpha   90.00000000
_cell_angle_beta   90.00000000
_cell_angle_gamma   120.02891370
_symmetry_Int_Tables_number   1
_chemical_formula_structural   Y5Ge10P2Ir19
_chemical_formula_sum   'Y5 Ge10 P2 Ir19'
_cell_volume   596.46903729
_cell_formula_units_Z   1
loop_
 _symmetry_equiv_pos_site_id
 _symmetry_equiv_pos_as_xyz
  1  'x, y, z'
loop_
 _atom_site_type_symbol
 _atom_site_label
 _atom_site_symmetry_multiplicity
 _atom_site_fract_x
 _atom_site_fract_y
 _atom_site_fract_z
 _atom_site_occupancy
  Y  Y0  1  0.666955  0.332984  0.000000  1
  Y  Y1  1  0.332984  0.666955  0.000000  1
  Y  Y2  1  0.814609  0.814609  0.500000  1
  Y  Y3  1  0.184684  0.999626  0.500000  1
  Y  Y4  1  0.999626  0.184684  0.500000  1
  Ge  Ge5  1  0.684037  0.165213  0.500000  1
  Ge  Ge6  1  0.834567  0.517590  0.500000  1
  Ge  Ge7  1  0.483707  0.316160  0.500000  1
  Ge  Ge8  1  0.165213  0.684037  0.500000  1
  Ge  Ge9  1  0.517590  0.834567  0.500000  1
  Ge  Ge10  1  0.316160  0.483707  0.500000  1
  Ge  Ge11  1  0.635897  0.635897  0.000000  1
  Ge  Ge12  1  0.364782  0.000506  0.000000  1
  Ge  Ge13  1  0.000506  0.364782  0.000000  1
  Ge  Ge14  1  0.173585  0.173585  0.000000  1
  P  P15  1  0.819862  0.999380  0.000000  1
  P  P16  1  0.999380  0.819862  0.000000  1
  Ir  Ir17  1  0.808260  0.175454  0.000000  1
  Ir  Ir18  1  0.824316  0.631380  0.000000  1
  Ir  Ir19  1  0.374366  0.194367  0.000000  1
  Ir  Ir20  1  0.175454  0.808260  0.000000  1
  Ir  Ir21  1  0.631380  0.824316  0.000000  1
  Ir  Ir22  1  0.194367  0.374366  0.000000  1
  Ir  Ir23  1  0.446745  0.446745  0.000000  1
  Ir  Ir24  1  0.554090  0.999282  0.000000  1
  Ir  Ir25  1  0.999282  0.554090  0.000000  1
  Ir  Ir26  1  0.281316  0.281316  0.500000  1
  Ir  Ir27  1  0.726501  0.999982  0.500000  1
  Ir  Ir28  1  0.999982  0.726501  0.500000  1
  Ir  Ir29  1  0.872621  0.355927  0.500000  1
  Ir  Ir30  1  0.644209  0.516932  0.500000  1
  Ir  Ir31  1  0.485169  0.126105  0.500000  1
  Ir  Ir32  1  0.355927  0.872621  0.500000  1
  Ir  Ir33  1  0.516932  0.644209  0.500000  1
  Ir  Ir34  1  0.126105  0.485169  0.500000  1
  Ir  Ir35  1  0.988834  0.988834  0.000000  1
