# generated using pymatgen
data_Pa2CrOs3
_symmetry_space_group_name_H-M   'P 1'
_cell_length_a   5.58002080
_cell_length_b   5.08877031
_cell_length_c   5.58002100
_cell_angle_alpha   56.75172747
_cell_angle_beta   60.00000476
_cell_angle_gamma   56.75171790
_symmetry_Int_Tables_number   1
_chemical_formula_structural   Pa2CrOs3
_chemical_formula_sum   'Pa2 Cr1 Os3'
_cell_volume   106.21896525
_cell_formula_units_Z   1
loop_
 _symmetry_equiv_pos_site_id
 _symmetry_equiv_pos_as_xyz
  1  'x, y, z'
loop_
 _atom_site_type_symbol
 _atom_site_label
 _atom_site_symmetry_multiplicity
 _atom_site_fract_x
 _atom_site_fract_y
 _atom_site_fract_z
 _atom_site_occupancy
  Pa  Pa0  1  0.501130  0.496608  0.501130  1
  Pa  Pa1  1  0.748870  0.753392  0.748870  1
  Cr  Cr2  1  0.125000  0.625000  0.125000  1
  Os  Os3  1  0.125000  0.125000  0.125000  1
  Os  Os4  1  0.625000  0.125000  0.125000  1
  Os  Os5  1  0.125000  0.125000  0.625000  1
