# generated using pymatgen
data_Ho4Ga3Co3SiNi
_symmetry_space_group_name_H-M   'P 1'
_cell_length_a   4.31885600
_cell_length_b   6.93091421
_cell_length_c   6.98918574
_cell_angle_alpha   90.61273856
_cell_angle_beta   90.00000000
_cell_angle_gamma   90.00000000
_symmetry_Int_Tables_number   1
_chemical_formula_structural   Ho4Ga3Co3SiNi
_chemical_formula_sum   'Ho4 Ga3 Co3 Si1 Ni1'
_cell_volume   209.19966943
_cell_formula_units_Z   1
loop_
 _symmetry_equiv_pos_site_id
 _symmetry_equiv_pos_as_xyz
  1  'x, y, z'
loop_
 _atom_site_type_symbol
 _atom_site_label
 _atom_site_symmetry_multiplicity
 _atom_site_fract_x
 _atom_site_fract_y
 _atom_site_fract_z
 _atom_site_occupancy
  Ho  Ho0  1  0.750000  0.020320  0.304662  1
  Ho  Ho1  1  0.250000  0.986547  0.694622  1
  Ho  Ho2  1  0.250000  0.474309  0.804644  1
  Ho  Ho3  1  0.750000  0.515618  0.194730  1
  Ga  Ga4  1  0.750000  0.690726  0.606138  1
  Ga  Ga5  1  0.250000  0.304133  0.398955  1
  Ga  Ga6  1  0.250000  0.803395  0.095678  1
  Co  Co7  1  0.750000  0.858249  0.932279  1
  Co  Co8  1  0.250000  0.159033  0.058477  1
  Co  Co9  1  0.750000  0.324117  0.582728  1
  Si  Si10  1  0.750000  0.194121  0.900186  1
  Ni  Ni11  1  0.250000  0.669432  0.426900  1
