# generated using pymatgen
data_La9Pr7CdHg3Pt4
_symmetry_space_group_name_H-M   'P 1'
_cell_length_a   10.15124075
_cell_length_b   10.17343501
_cell_length_c   10.15104600
_cell_angle_alpha   60.07277299
_cell_angle_beta   60.00063461
_cell_angle_gamma   60.14025849
_symmetry_Int_Tables_number   1
_chemical_formula_structural   La9Pr7CdHg3Pt4
_chemical_formula_sum   'La9 Pr7 Cd1 Hg3 Pt4'
_cell_volume   742.47470683
_cell_formula_units_Z   1
loop_
 _symmetry_equiv_pos_site_id
 _symmetry_equiv_pos_as_xyz
  1  'x, y, z'
loop_
 _atom_site_type_symbol
 _atom_site_label
 _atom_site_symmetry_multiplicity
 _atom_site_fract_x
 _atom_site_fract_y
 _atom_site_fract_z
 _atom_site_occupancy
  La  La0  1  0.350383  0.350191  0.349850  1
  La  La1  1  0.350383  0.350191  0.949576  1
  La  La2  1  0.352144  0.947932  0.349962  1
  La  La3  1  0.944453  0.352898  0.351324  1
  La  La4  1  0.805914  0.193544  0.194235  1
  La  La5  1  0.191529  0.807365  0.807602  1
  La  La6  1  0.191529  0.807365  0.193504  1
  La  La7  1  0.805914  0.193544  0.806306  1
  La  La8  1  0.191666  0.192811  0.807762  1
  Pr  Pr9  1  0.804410  0.804872  0.195359  1
  Pr  Pr10  1  0.935706  0.565227  0.565845  1
  Pr  Pr11  1  0.564221  0.935735  0.934233  1
  Pr  Pr12  1  0.564221  0.935735  0.565810  1
  Pr  Pr13  1  0.935706  0.565227  0.933221  1
  Pr  Pr14  1  0.563285  0.564823  0.935945  1
  Pr  Pr15  1  0.935351  0.933231  0.565709  1
  Cd  Cd16  1  0.261487  0.579900  0.579306  1
  Hg  Hg17  1  0.583843  0.586725  0.585327  1
  Hg  Hg18  1  0.583843  0.586725  0.244103  1
  Hg  Hg19  1  0.583347  0.244687  0.585982  1
  Pt  Pt20  1  0.141944  0.142248  0.143729  1
  Pt  Pt21  1  0.141944  0.142248  0.572079  1
  Pt  Pt22  1  0.144324  0.572388  0.141644  1
  Pt  Pt23  1  0.572455  0.144383  0.141581  1
