# generated using pymatgen
data_Ho2Fe6Co3Ni3P7
_symmetry_space_group_name_H-M   'P 1'
_cell_length_a   8.99907600
_cell_length_b   8.99907563
_cell_length_c   3.63233800
_cell_angle_alpha   90.00000000
_cell_angle_beta   90.00000000
_cell_angle_gamma   120.00000136
_symmetry_Int_Tables_number   1
_chemical_formula_structural   Ho2Fe6Co3Ni3P7
_chemical_formula_sum   'Ho2 Fe6 Co3 Ni3 P7'
_cell_volume   254.74912514
_cell_formula_units_Z   1
loop_
 _symmetry_equiv_pos_site_id
 _symmetry_equiv_pos_as_xyz
  1  'x, y, z'
loop_
 _atom_site_type_symbol
 _atom_site_label
 _atom_site_symmetry_multiplicity
 _atom_site_fract_x
 _atom_site_fract_y
 _atom_site_fract_z
 _atom_site_occupancy
  Ho  Ho0  1  0.000000  0.000000  0.000000  1
  Ho  Ho1  1  0.333333  0.666667  0.500000  1
  Fe  Fe2  1  0.785650  0.178254  0.000000  1
  Fe  Fe3  1  0.392604  0.214350  0.000000  1
  Fe  Fe4  1  0.821746  0.607396  0.000000  1
  Fe  Fe5  1  0.544869  0.115815  0.500000  1
  Fe  Fe6  1  0.570947  0.455131  0.500000  1
  Fe  Fe7  1  0.884185  0.429053  0.500000  1
  Co  Co8  1  0.715692  0.946665  0.500000  1
  Co  Co9  1  0.230974  0.284308  0.500000  1
  Co  Co10  1  0.053335  0.769026  0.500000  1
  Ni  Ni11  1  0.295118  0.899821  0.000000  1
  Ni  Ni12  1  0.604703  0.704882  0.000000  1
  Ni  Ni13  1  0.100179  0.395297  0.000000  1
  P  P14  1  0.557314  0.927736  0.000000  1
  P  P15  1  0.370422  0.442686  0.000000  1
  P  P16  1  0.072264  0.629578  0.000000  1
  P  P17  1  0.951088  0.216281  0.500000  1
  P  P18  1  0.265195  0.048912  0.500000  1
  P  P19  1  0.783719  0.734805  0.500000  1
  P  P20  1  0.666667  0.333333  0.000000  1
