# generated using pymatgen
data_Th4Sb6Ru7
_symmetry_space_group_name_H-M   'P 1'
_cell_length_a   7.71349516
_cell_length_b   7.71349538
_cell_length_c   7.71349600
_cell_angle_alpha   109.47121963
_cell_angle_beta   109.47122021
_cell_angle_gamma   109.47121677
_symmetry_Int_Tables_number   1
_chemical_formula_structural   Th4Sb6Ru7
_chemical_formula_sum   'Th4 Sb6 Ru7'
_cell_volume   353.29039595
_cell_formula_units_Z   1
loop_
 _symmetry_equiv_pos_site_id
 _symmetry_equiv_pos_as_xyz
  1  'x, y, z'
loop_
 _atom_site_type_symbol
 _atom_site_label
 _atom_site_symmetry_multiplicity
 _atom_site_fract_x
 _atom_site_fract_y
 _atom_site_fract_z
 _atom_site_occupancy
  Th  Th0  1  0.000000  0.000000  0.500000  1
  Th  Th1  1  0.000000  0.500000  0.000000  1
  Th  Th2  1  0.500000  0.000000  0.000000  1
  Th  Th3  1  0.500000  0.500000  0.500000  1
  Sb  Sb4  1  0.681938  0.681938  0.000000  1
  Sb  Sb5  1  0.318062  0.000000  0.318062  1
  Sb  Sb6  1  0.000000  0.318062  0.318062  1
  Sb  Sb7  1  0.318062  0.318062  0.000000  1
  Sb  Sb8  1  0.681938  0.000000  0.681938  1
  Sb  Sb9  1  0.000000  0.681938  0.681938  1
  Ru  Ru10  1  0.750000  0.250000  0.500000  1
  Ru  Ru11  1  0.750000  0.500000  0.250000  1
  Ru  Ru12  1  0.500000  0.250000  0.750000  1
  Ru  Ru13  1  0.250000  0.500000  0.750000  1
  Ru  Ru14  1  0.250000  0.750000  0.500000  1
  Ru  Ru15  1  0.500000  0.750000  0.250000  1
  Ru  Ru16  1  0.000000  0.000000  0.000000  1
