# generated using pymatgen
data_DyY19Cd6NiRu
_symmetry_space_group_name_H-M   'P 1'
_cell_length_a   9.65289300
_cell_length_b   9.65289140
_cell_length_c   9.82949200
_cell_angle_alpha   90.00000000
_cell_angle_beta   90.00000000
_cell_angle_gamma   120.00000205
_symmetry_Int_Tables_number   1
_chemical_formula_structural   DyY19Cd6NiRu
_chemical_formula_sum   'Dy1 Y19 Cd6 Ni1 Ru1'
_cell_volume   793.18886465
_cell_formula_units_Z   1
loop_
 _symmetry_equiv_pos_site_id
 _symmetry_equiv_pos_as_xyz
  1  'x, y, z'
loop_
 _atom_site_type_symbol
 _atom_site_label
 _atom_site_symmetry_multiplicity
 _atom_site_fract_x
 _atom_site_fract_y
 _atom_site_fract_z
 _atom_site_occupancy
  Dy  Dy0  1  0.000000  0.000000  0.499725  1
  Y  Y1  1  0.000000  0.000000  0.000369  1
  Y  Y2  1  0.210564  0.789436  0.438344  1
  Y  Y3  1  0.210564  0.421128  0.438344  1
  Y  Y4  1  0.578872  0.789436  0.438344  1
  Y  Y5  1  0.790705  0.209295  0.560251  1
  Y  Y6  1  0.790705  0.581409  0.560251  1
  Y  Y7  1  0.418591  0.209295  0.560251  1
  Y  Y8  1  0.790565  0.209435  0.939380  1
  Y  Y9  1  0.790565  0.581130  0.939380  1
  Y  Y10  1  0.418870  0.209435  0.939380  1
  Y  Y11  1  0.210746  0.789254  0.061974  1
  Y  Y12  1  0.210746  0.421491  0.061974  1
  Y  Y13  1  0.578509  0.789254  0.061974  1
  Y  Y14  1  0.542733  0.457267  0.249952  1
  Y  Y15  1  0.542733  0.085466  0.249952  1
  Y  Y16  1  0.914534  0.457267  0.249952  1
  Y  Y17  1  0.458330  0.541670  0.750027  1
  Y  Y18  1  0.458330  0.916662  0.750027  1
  Y  Y19  1  0.083338  0.541670  0.750027  1
  Cd  Cd20  1  0.884968  0.115032  0.250155  1
  Cd  Cd21  1  0.884968  0.769938  0.250155  1
  Cd  Cd22  1  0.230062  0.115032  0.250155  1
  Cd  Cd23  1  0.114863  0.885137  0.749848  1
  Cd  Cd24  1  0.114863  0.229724  0.749848  1
  Cd  Cd25  1  0.770276  0.885137  0.749848  1
  Ni  Ni26  1  0.333333  0.666667  0.250139  1
  Ru  Ru27  1  0.666667  0.333333  0.749977  1
