# generated using pymatgen
data_PrNd7(Pt2Pb)4
_symmetry_space_group_name_H-M   'P 1'
_cell_length_a   8.09016700
_cell_length_b   8.09016774
_cell_length_c   7.49094600
_cell_angle_alpha   90.00000000
_cell_angle_beta   90.00000000
_cell_angle_gamma   89.42334747
_symmetry_Int_Tables_number   1
_chemical_formula_structural   PrNd7(Pt2Pb)4
_chemical_formula_sum   'Pr1 Nd7 Pt8 Pb4'
_cell_volume   490.26363747
_cell_formula_units_Z   1
loop_
 _symmetry_equiv_pos_site_id
 _symmetry_equiv_pos_as_xyz
  1  'x, y, z'
loop_
 _atom_site_type_symbol
 _atom_site_label
 _atom_site_symmetry_multiplicity
 _atom_site_fract_x
 _atom_site_fract_y
 _atom_site_fract_z
 _atom_site_occupancy
  Pr  Pr0  1  0.167066  0.832934  0.000000  1
  Nd  Nd1  1  0.673074  0.671191  0.000000  1
  Nd  Nd2  1  0.331832  0.332925  0.500000  1
  Nd  Nd3  1  0.827999  0.172001  0.500000  1
  Nd  Nd4  1  0.667075  0.668168  0.500000  1
  Nd  Nd5  1  0.328809  0.326926  0.000000  1
  Nd  Nd6  1  0.172929  0.827071  0.500000  1
  Nd  Nd7  1  0.831198  0.168802  0.000000  1
  Pt  Pt8  1  0.872156  0.872900  0.744050  1
  Pt  Pt9  1  0.127100  0.127844  0.744050  1
  Pt  Pt10  1  0.626811  0.373189  0.753339  1
  Pt  Pt11  1  0.626811  0.373189  0.246661  1
  Pt  Pt12  1  0.373203  0.626797  0.243642  1
  Pt  Pt13  1  0.127100  0.127844  0.255950  1
  Pt  Pt14  1  0.872156  0.872900  0.255950  1
  Pt  Pt15  1  0.373203  0.626797  0.756358  1
  Pb  Pb16  1  0.500200  0.999460  0.750216  1
  Pb  Pb17  1  0.500200  0.999460  0.249784  1
  Pb  Pb18  1  0.000540  0.499800  0.750216  1
  Pb  Pb19  1  0.000540  0.499800  0.249784  1
