# generated using pymatgen
data_Er20Cd6IrRu
_symmetry_space_group_name_H-M   'P 1'
_cell_length_a   9.52461700
_cell_length_b   9.52461650
_cell_length_c   9.75465600
_cell_angle_alpha   90.00000000
_cell_angle_beta   90.00000000
_cell_angle_gamma   119.99999825
_symmetry_Int_Tables_number   1
_chemical_formula_structural   Er20Cd6IrRu
_chemical_formula_sum   'Er20 Cd6 Ir1 Ru1'
_cell_volume   766.36845004
_cell_formula_units_Z   1
loop_
 _symmetry_equiv_pos_site_id
 _symmetry_equiv_pos_as_xyz
  1  'x, y, z'
loop_
 _atom_site_type_symbol
 _atom_site_label
 _atom_site_symmetry_multiplicity
 _atom_site_fract_x
 _atom_site_fract_y
 _atom_site_fract_z
 _atom_site_occupancy
  Er  Er0  1  0.000000  0.000000  0.499644  1
  Er  Er1  1  0.000000  0.000000  0.000356  1
  Er  Er2  1  0.209262  0.790738  0.440804  1
  Er  Er3  1  0.209262  0.418524  0.440804  1
  Er  Er4  1  0.581476  0.790738  0.440804  1
  Er  Er5  1  0.790472  0.209528  0.559688  1
  Er  Er6  1  0.790472  0.580942  0.559688  1
  Er  Er7  1  0.419058  0.209528  0.559688  1
  Er  Er8  1  0.790472  0.209528  0.940312  1
  Er  Er9  1  0.790472  0.580942  0.940312  1
  Er  Er10  1  0.419058  0.209528  0.940312  1
  Er  Er11  1  0.209262  0.790738  0.059196  1
  Er  Er12  1  0.209262  0.418524  0.059196  1
  Er  Er13  1  0.581476  0.790738  0.059196  1
  Er  Er14  1  0.541364  0.458636  0.250000  1
  Er  Er15  1  0.541364  0.082727  0.250000  1
  Er  Er16  1  0.917273  0.458636  0.250000  1
  Er  Er17  1  0.458635  0.541365  0.750000  1
  Er  Er18  1  0.458635  0.917270  0.750000  1
  Er  Er19  1  0.082730  0.541365  0.750000  1
  Cd  Cd20  1  0.885374  0.114626  0.250000  1
  Cd  Cd21  1  0.885374  0.770748  0.250000  1
  Cd  Cd22  1  0.229252  0.114626  0.250000  1
  Cd  Cd23  1  0.114665  0.885335  0.750000  1
  Cd  Cd24  1  0.114665  0.229330  0.750000  1
  Cd  Cd25  1  0.770670  0.885335  0.750000  1
  Ir  Ir26  1  0.333333  0.666667  0.250000  1
  Ru  Ru27  1  0.666667  0.333333  0.750000  1
