# generated using pymatgen
data_Dy4YTm3Ga3Co
_symmetry_space_group_name_H-M   'P 1'
_cell_length_a   9.93292000
_cell_length_b   9.93291231
_cell_length_c   6.94501000
_cell_angle_alpha   90.00000000
_cell_angle_beta   90.00000000
_cell_angle_gamma   120.00004492
_symmetry_Int_Tables_number   1
_chemical_formula_structural   Dy4YTm3Ga3Co
_chemical_formula_sum   'Dy8 Y2 Tm6 Ga6 Co2'
_cell_volume   593.41271767
_cell_formula_units_Z   2
loop_
 _symmetry_equiv_pos_site_id
 _symmetry_equiv_pos_as_xyz
  1  'x, y, z'
loop_
 _atom_site_type_symbol
 _atom_site_label
 _atom_site_symmetry_multiplicity
 _atom_site_fract_x
 _atom_site_fract_y
 _atom_site_fract_z
 _atom_site_occupancy
  Dy  Dy0  1  0.333333  0.666662  0.673575  1
  Dy  Dy1  1  0.666667  0.333338  0.173575  1
  Dy  Dy2  1  0.463461  0.536538  0.292947  1
  Dy  Dy3  1  0.536539  0.463462  0.792947  1
  Dy  Dy4  1  0.463459  0.926920  0.292950  1
  Dy  Dy5  1  0.073079  0.536541  0.292949  1
  Dy  Dy6  1  0.926921  0.463459  0.792949  1
  Dy  Dy7  1  0.536541  0.073080  0.792950  1
  Y  Y8  1  0.000001  0.000000  0.269229  1
  Y  Y9  1  0.999999  0.000000  0.769229  1
  Tm  Tm10  1  0.173596  0.826405  0.989611  1
  Tm  Tm11  1  0.826404  0.173595  0.489611  1
  Tm  Tm12  1  0.173595  0.347191  0.989616  1
  Tm  Tm13  1  0.652808  0.826404  0.989614  1
  Tm  Tm14  1  0.347192  0.173596  0.489614  1
  Tm  Tm15  1  0.826405  0.652809  0.489616  1
  Ga  Ga16  1  0.163042  0.836959  0.542177  1
  Ga  Ga17  1  0.836958  0.163041  0.042177  1
  Ga  Ga18  1  0.163041  0.326083  0.542176  1
  Ga  Ga19  1  0.673916  0.836958  0.542177  1
  Ga  Ga20  1  0.326084  0.163042  0.042177  1
  Ga  Ga21  1  0.836959  0.673917  0.042176  1
  Co  Co22  1  0.333333  0.666665  0.056043  1
  Co  Co23  1  0.666667  0.333335  0.556043  1
