# generated using pymatgen
data_Er3Ga5Pt
_symmetry_space_group_name_H-M   'P 1'
_cell_length_a   6.93552100
_cell_length_b   6.93552043
_cell_length_c   4.26145600
_cell_angle_alpha   90.00000000
_cell_angle_beta   90.00000000
_cell_angle_gamma   119.99999797
_symmetry_Int_Tables_number   1
_chemical_formula_structural   Er3Ga5Pt
_chemical_formula_sum   'Er3 Ga5 Pt1'
_cell_volume   177.51979815
_cell_formula_units_Z   1
loop_
 _symmetry_equiv_pos_site_id
 _symmetry_equiv_pos_as_xyz
  1  'x, y, z'
loop_
 _atom_site_type_symbol
 _atom_site_label
 _atom_site_symmetry_multiplicity
 _atom_site_fract_x
 _atom_site_fract_y
 _atom_site_fract_z
 _atom_site_occupancy
  Er  Er0  1  0.586007  0.000000  0.000000  1
  Er  Er1  1  0.413994  0.413994  0.000000  1
  Er  Er2  1  0.000000  0.586006  0.000000  1
  Ga  Ga3  1  0.242369  0.000000  0.499999  1
  Ga  Ga4  1  0.000000  0.242369  0.499999  1
  Ga  Ga5  1  0.666667  0.333333  0.499999  1
  Ga  Ga6  1  0.333333  0.666667  0.499999  1
  Ga  Ga7  1  0.757631  0.757631  0.499999  1
  Pt  Pt8  1  0.000000  0.000000  0.000000  1
