# generated using pymatgen
data_Zr2ScUC4
_symmetry_space_group_name_H-M   'P 1'
_cell_length_a   5.84553079
_cell_length_b   5.84553162
_cell_length_c   5.84553144
_cell_angle_alpha   131.61507296
_cell_angle_beta   131.61507612
_cell_angle_gamma   70.83766002
_symmetry_Int_Tables_number   1
_chemical_formula_structural   Zr2ScUC4
_chemical_formula_sum   'Zr2 Sc1 U1 C4'
_cell_volume   109.34691809
_cell_formula_units_Z   1
loop_
 _symmetry_equiv_pos_site_id
 _symmetry_equiv_pos_as_xyz
  1  'x, y, z'
loop_
 _atom_site_type_symbol
 _atom_site_label
 _atom_site_symmetry_multiplicity
 _atom_site_fract_x
 _atom_site_fract_y
 _atom_site_fract_z
 _atom_site_occupancy
  Zr  Zr0  1  0.000000  0.000000  0.000000  1
  Zr  Zr1  1  0.750000  0.250000  0.500000  1
  Sc  Sc2  1  0.500000  0.500000  0.000000  1
  U  U3  1  0.250000  0.750000  0.500000  1
  C  C4  1  0.753041  0.753041  0.000000  1
  C  C5  1  0.246959  0.246959  0.000000  1
  C  C6  1  0.009173  0.509173  0.500000  1
  C  C7  1  0.490827  0.990827  0.500000  1
