# generated using pymatgen
data_Ho3Fe2Co3(Ni2P3)2
_symmetry_space_group_name_H-M   'P 1'
_cell_length_a   3.72455400
_cell_length_b   10.49900200
_cell_length_c   12.16735300
_cell_angle_alpha   90.00000000
_cell_angle_beta   90.00000000
_cell_angle_gamma   90.00000000
_symmetry_Int_Tables_number   1
_chemical_formula_structural   Ho3Fe2Co3(Ni2P3)2
_chemical_formula_sum   'Ho6 Fe4 Co6 Ni8 P12'
_cell_volume   475.79338717
_cell_formula_units_Z   2
loop_
 _symmetry_equiv_pos_site_id
 _symmetry_equiv_pos_as_xyz
  1  'x, y, z'
loop_
 _atom_site_type_symbol
 _atom_site_label
 _atom_site_symmetry_multiplicity
 _atom_site_fract_x
 _atom_site_fract_y
 _atom_site_fract_z
 _atom_site_occupancy
  Ho  Ho0  1  0.000000  0.500000  0.519412  1
  Ho  Ho1  1  0.500000  0.000000  0.479944  1
  Ho  Ho2  1  0.500000  0.817420  0.204728  1
  Ho  Ho3  1  0.500000  0.182580  0.204728  1
  Ho  Ho4  1  0.000000  0.681903  0.795446  1
  Ho  Ho5  1  0.000000  0.318097  0.795446  1
  Fe  Fe6  1  0.000000  0.500000  0.987968  1
  Fe  Fe7  1  0.500000  0.000000  0.013912  1
  Fe  Fe8  1  0.500000  0.500000  0.153552  1
  Fe  Fe9  1  0.000000  0.000000  0.846723  1
  Co  Co10  1  0.000000  0.620391  0.286987  1
  Co  Co11  1  0.000000  0.379609  0.286987  1
  Co  Co12  1  0.500000  0.332525  0.994852  1
  Co  Co13  1  0.500000  0.667475  0.994852  1
  Co  Co14  1  0.000000  0.167941  0.006646  1
  Co  Co15  1  0.000000  0.832059  0.006646  1
  Ni  Ni16  1  0.500000  0.304137  0.426958  1
  Ni  Ni17  1  0.500000  0.695863  0.426958  1
  Ni  Ni18  1  0.000000  0.199229  0.569907  1
  Ni  Ni19  1  0.000000  0.800771  0.569907  1
  Ni  Ni20  1  0.500000  0.879477  0.713083  1
  Ni  Ni21  1  0.500000  0.120523  0.713083  1
  Ni  Ni22  1  0.500000  0.500000  0.703772  1
  Ni  Ni23  1  0.000000  0.000000  0.298163  1
  P  P24  1  0.500000  0.314373  0.616113  1
  P  P25  1  0.500000  0.685627  0.616113  1
  P  P26  1  0.000000  0.188728  0.382026  1
  P  P27  1  0.000000  0.811272  0.382026  1
  P  P28  1  0.500000  0.500000  0.884888  1
  P  P29  1  0.000000  0.000000  0.116545  1
  P  P30  1  0.500000  0.845826  0.897325  1
  P  P31  1  0.500000  0.154174  0.897325  1
  P  P32  1  0.000000  0.653134  0.105731  1
  P  P33  1  0.000000  0.346866  0.105731  1
  P  P34  1  0.500000  0.500000  0.338179  1
  P  P35  1  0.000000  0.000000  0.657336  1
