# generated using pymatgen
data_Lu7Sc3In8(NiAu)2
_symmetry_space_group_name_H-M   'P 1'
_cell_length_a   3.53072400
_cell_length_b   7.89628331
_cell_length_c   17.71620363
_cell_angle_alpha   90.00641210
_cell_angle_beta   90.00000000
_cell_angle_gamma   90.00000000
_symmetry_Int_Tables_number   1
_chemical_formula_structural   Lu7Sc3In8(NiAu)2
_chemical_formula_sum   'Lu7 Sc3 In8 Ni2 Au2'
_cell_volume   493.92061407
_cell_formula_units_Z   1
loop_
 _symmetry_equiv_pos_site_id
 _symmetry_equiv_pos_as_xyz
  1  'x, y, z'
loop_
 _atom_site_type_symbol
 _atom_site_label
 _atom_site_symmetry_multiplicity
 _atom_site_fract_x
 _atom_site_fract_y
 _atom_site_fract_z
 _atom_site_occupancy
  Lu  Lu0  1  0.000000  0.740255  0.282709  1
  Lu  Lu1  1  0.000000  0.726794  0.776107  1
  Lu  Lu2  1  0.000000  0.385107  0.413104  1
  Lu  Lu3  1  0.000000  0.121427  0.920371  1
  Lu  Lu4  1  0.000000  0.261036  0.716845  1
  Lu  Lu5  1  0.000000  0.272743  0.223791  1
  Lu  Lu6  1  0.000000  0.614879  0.586676  1
  Sc  Sc7  1  0.000000  0.877260  0.080385  1
  Sc  Sc8  1  0.000000  0.501107  0.000730  1
  Sc  Sc9  1  0.000000  0.000133  0.499991  1
  In  In10  1  0.500000  0.210283  0.066133  1
  In  In11  1  0.500000  0.427830  0.851952  1
  In  In12  1  0.500000  0.577253  0.147312  1
  In  In13  1  0.500000  0.077437  0.354646  1
  In  In14  1  0.500000  0.922073  0.644595  1
  In  In15  1  0.500000  0.786341  0.936704  1
  In  In16  1  0.500000  0.710297  0.434812  1
  In  In17  1  0.500000  0.289660  0.565018  1
  Ni  Ni18  1  0.500000  0.525267  0.695933  1
  Ni  Ni19  1  0.500000  0.474912  0.303942  1
  Au  Au20  1  0.500000  0.970758  0.196413  1
  Au  Au21  1  0.500000  0.027148  0.801830  1
