# generated using pymatgen
data_Er3Pa(InNi2)2
_symmetry_space_group_name_H-M   'P 1'
_cell_length_a   7.40201343
_cell_length_b   7.40201343
_cell_length_c   3.56987200
_cell_angle_alpha   90.00000000
_cell_angle_beta   90.00000000
_cell_angle_gamma   92.19542098
_symmetry_Int_Tables_number   1
_chemical_formula_structural   Er3Pa(InNi2)2
_chemical_formula_sum   'Er3 Pa1 In2 Ni4'
_cell_volume   195.44901427
_cell_formula_units_Z   1
loop_
 _symmetry_equiv_pos_site_id
 _symmetry_equiv_pos_as_xyz
  1  'x, y, z'
loop_
 _atom_site_type_symbol
 _atom_site_label
 _atom_site_symmetry_multiplicity
 _atom_site_fract_x
 _atom_site_fract_y
 _atom_site_fract_z
 _atom_site_occupancy
  Er  Er0  1  0.323823  0.823823  0.500000  1
  Er  Er1  1  0.174492  0.330680  0.500000  1
  Er  Er2  1  0.830680  0.674492  0.500000  1
  Pa  Pa3  1  0.670356  0.170356  0.500000  1
  In  In4  1  0.498827  0.506918  0.000000  1
  In  In5  1  0.006918  0.998827  0.000000  1
  Ni  Ni6  1  0.112439  0.612439  0.000000  1
  Ni  Ni7  1  0.860285  0.360285  0.000000  1
  Ni  Ni8  1  0.628987  0.893192  0.000000  1
  Ni  Ni9  1  0.393192  0.128987  0.000000  1
