# generated using pymatgen
data_YbHo3Co12(GeB3)2
_symmetry_space_group_name_H-M   'P 1'
_cell_length_a   5.14491902
_cell_length_b   5.14486672
_cell_length_c   12.33061500
_cell_angle_alpha   90.00019890
_cell_angle_beta   89.99979217
_cell_angle_gamma   120.00365882
_symmetry_Int_Tables_number   1
_chemical_formula_structural   YbHo3Co12(GeB3)2
_chemical_formula_sum   'Yb1 Ho3 Co12 Ge2 B6'
_cell_volume   282.65197781
_cell_formula_units_Z   1
loop_
 _symmetry_equiv_pos_site_id
 _symmetry_equiv_pos_as_xyz
  1  'x, y, z'
loop_
 _atom_site_type_symbol
 _atom_site_label
 _atom_site_symmetry_multiplicity
 _atom_site_fract_x
 _atom_site_fract_y
 _atom_site_fract_z
 _atom_site_occupancy
  Yb  Yb0  1  0.999994  0.999991  0.999995  1
  Ho  Ho1  1  0.999990  0.000012  0.499996  1
  Ho  Ho2  1  0.000005  0.999992  0.255888  1
  Ho  Ho3  1  0.999987  0.000002  0.744115  1
  Co  Co4  1  0.499999  0.000002  0.384148  1
  Co  Co5  1  0.999999  0.500002  0.384150  1
  Co  Co6  1  0.499999  0.500002  0.384154  1
  Co  Co7  1  0.499992  0.000006  0.615860  1
  Co  Co8  1  0.499993  0.500006  0.615855  1
  Co  Co9  1  0.999992  0.500008  0.615859  1
  Co  Co10  1  0.500004  0.999994  0.156749  1
  Co  Co11  1  0.000001  0.499990  0.156752  1
  Co  Co12  1  0.500002  0.499993  0.156758  1
  Co  Co13  1  0.499988  0.000001  0.843250  1
  Co  Co14  1  0.499991  0.500001  0.843256  1
  Co  Co15  1  0.999990  0.500003  0.843251  1
  Ge  Ge16  1  0.333309  0.666653  0.999971  1
  Ge  Ge17  1  0.666682  0.333336  0.999973  1
  B  B18  1  0.333360  0.666688  0.267396  1
  B  B19  1  0.666642  0.333305  0.267395  1
  B  B20  1  0.666700  0.333377  0.732617  1
  B  B21  1  0.333285  0.666628  0.732616  1
  B  B22  1  0.333316  0.666672  0.499998  1
  B  B23  1  0.666675  0.333339  0.499998  1
