# generated using pymatgen
data_ErCl19
_symmetry_space_group_name_H-M   'P 1'
_cell_length_a   8.75352240
_cell_length_b   11.04364406
_cell_length_c   8.33317700
_cell_angle_alpha   72.01688111
_cell_angle_beta   81.02450991
_cell_angle_gamma   90.05718931
_symmetry_Int_Tables_number   1
_chemical_formula_structural   ErCl19
_chemical_formula_sum   'Er1 Cl19'
_cell_volume   755.80119070
_cell_formula_units_Z   1
loop_
 _symmetry_equiv_pos_site_id
 _symmetry_equiv_pos_as_xyz
  1  'x, y, z'
loop_
 _atom_site_type_symbol
 _atom_site_label
 _atom_site_symmetry_multiplicity
 _atom_site_fract_x
 _atom_site_fract_y
 _atom_site_fract_z
 _atom_site_occupancy
  Er  Er0  1  0.885955  0.583101  0.343998  1
  Cl  Cl1  1  0.422620  0.471220  0.583772  1
  Cl  Cl2  1  0.879204  0.509887  0.081256  1
  Cl  Cl3  1  0.688176  0.389579  0.575428  1
  Cl  Cl4  1  0.129965  0.633812  0.063558  1
  Cl  Cl5  1  0.067764  0.659374  0.497244  1
  Cl  Cl6  1  0.561060  0.313503  0.070183  1
  Cl  Cl7  1  0.928030  0.337290  0.547593  1
  Cl  Cl8  1  0.336375  0.733700  0.067670  1
  Cl  Cl9  1  0.159127  0.894819  0.541516  1
  Cl  Cl10  1  0.683164  0.089648  0.943270  1
  Cl  Cl11  1  0.829614  0.111097  0.401633  1
  Cl  Cl12  1  0.217612  0.967172  0.035472  1
  Cl  Cl13  1  0.225783  0.058250  0.578812  1
  Cl  Cl14  1  0.767801  0.940521  0.874955  1
  Cl  Cl15  1  0.750576  0.943134  0.389497  1
  Cl  Cl16  1  0.115331  0.136475  0.009428  1
  Cl  Cl17  1  0.647684  0.703979  0.349943  1
  Cl  Cl18  1  0.289181  0.318022  0.764074  1
  Cl  Cl19  1  0.414977  0.205416  0.280700  1
