# generated using pymatgen
data_Y4CdRh
_symmetry_space_group_name_H-M   'P 1'
_cell_length_a   9.68141703
_cell_length_b   9.68227750
_cell_length_c   9.68144544
_cell_angle_alpha   59.87511894
_cell_angle_beta   59.88072459
_cell_angle_gamma   59.87602789
_symmetry_Int_Tables_number   1
_chemical_formula_structural   Y4CdRh
_chemical_formula_sum   'Y16 Cd4 Rh4'
_cell_volume   639.92750211
_cell_formula_units_Z   4
loop_
 _symmetry_equiv_pos_site_id
 _symmetry_equiv_pos_as_xyz
  1  'x, y, z'
loop_
 _atom_site_type_symbol
 _atom_site_label
 _atom_site_symmetry_multiplicity
 _atom_site_fract_x
 _atom_site_fract_y
 _atom_site_fract_z
 _atom_site_occupancy
  Y  Y0  1  0.599206  0.599136  0.599219  1
  Y  Y1  1  0.600480  0.600525  0.200769  1
  Y  Y2  1  0.600529  0.200727  0.600557  1
  Y  Y3  1  0.200776  0.600528  0.600470  1
  Y  Y4  1  0.059258  0.439528  0.439487  1
  Y  Y5  1  0.438227  0.060606  0.060538  1
  Y  Y6  1  0.439536  0.059251  0.439540  1
  Y  Y7  1  0.060546  0.438268  0.060547  1
  Y  Y8  1  0.439492  0.439522  0.059254  1
  Y  Y9  1  0.060547  0.060597  0.438225  1
  Y  Y10  1  0.187670  0.813439  0.813459  1
  Y  Y11  1  0.813476  0.186468  0.186467  1
  Y  Y12  1  0.813455  0.187647  0.813453  1
  Y  Y13  1  0.186488  0.813440  0.186482  1
  Y  Y14  1  0.813461  0.813449  0.187662  1
  Y  Y15  1  0.186472  0.186471  0.813470  1
  Cd  Cd16  1  0.830477  0.830553  0.830480  1
  Cd  Cd17  1  0.831077  0.831094  0.506255  1
  Cd  Cd18  1  0.831116  0.506166  0.831115  1
  Cd  Cd19  1  0.506259  0.831093  0.831075  1
  Rh  Rh20  1  0.392273  0.392325  0.392273  1
  Rh  Rh21  1  0.393185  0.393067  0.822924  1
  Rh  Rh22  1  0.393086  0.823016  0.393090  1
  Rh  Rh23  1  0.822908  0.393084  0.393190  1
