# generated using pymatgen
data_Dy8Al(Si4Pt)3
_symmetry_space_group_name_H-M   'P 1'
_cell_length_a   8.14333900
_cell_length_b   8.14334010
_cell_length_c   8.14513400
_cell_angle_alpha   90.00000000
_cell_angle_beta   90.00000000
_cell_angle_gamma   119.99999149
_symmetry_Int_Tables_number   1
_chemical_formula_structural   Dy8Al(Si4Pt)3
_chemical_formula_sum   'Dy8 Al1 Si12 Pt3'
_cell_volume   467.77174980
_cell_formula_units_Z   1
loop_
 _symmetry_equiv_pos_site_id
 _symmetry_equiv_pos_as_xyz
  1  'x, y, z'
loop_
 _atom_site_type_symbol
 _atom_site_label
 _atom_site_symmetry_multiplicity
 _atom_site_fract_x
 _atom_site_fract_y
 _atom_site_fract_z
 _atom_site_occupancy
  Dy  Dy0  1  0.000000  0.000000  0.250421  1
  Dy  Dy1  1  0.000000  0.000000  0.749881  1
  Dy  Dy2  1  0.005825  0.502912  0.248949  1
  Dy  Dy3  1  0.497088  0.502912  0.248949  1
  Dy  Dy4  1  0.500235  0.000469  0.750322  1
  Dy  Dy5  1  0.497088  0.994175  0.248949  1
  Dy  Dy6  1  0.500235  0.499765  0.750322  1
  Dy  Dy7  1  0.999531  0.499765  0.750322  1
  Al  Al8  1  0.666667  0.333333  0.492503  1
  Si  Si9  1  0.165651  0.331301  0.998824  1
  Si  Si10  1  0.668699  0.834349  0.998824  1
  Si  Si11  1  0.167017  0.334034  0.498692  1
  Si  Si12  1  0.331407  0.165704  0.001270  1
  Si  Si13  1  0.165651  0.834349  0.998824  1
  Si  Si14  1  0.665966  0.832983  0.498692  1
  Si  Si15  1  0.834296  0.668593  0.001270  1
  Si  Si16  1  0.327348  0.163674  0.501358  1
  Si  Si17  1  0.167017  0.832983  0.498692  1
  Si  Si18  1  0.836326  0.672652  0.501358  1
  Si  Si19  1  0.834296  0.165704  0.001270  1
  Si  Si20  1  0.836326  0.163674  0.501358  1
  Pt  Pt21  1  0.333333  0.666667  0.997959  1
  Pt  Pt22  1  0.333333  0.666667  0.507240  1
  Pt  Pt23  1  0.666667  0.333333  0.003752  1
