# generated using pymatgen
data_TbDy3Fe5Os3
_symmetry_space_group_name_H-M   'P 1'
_cell_length_a   5.25777527
_cell_length_b   5.23219592
_cell_length_c   9.04162076
_cell_angle_alpha   72.92939366
_cell_angle_beta   90.59764990
_cell_angle_gamma   120.19041810
_symmetry_Int_Tables_number   1
_chemical_formula_structural   TbDy3Fe5Os3
_chemical_formula_sum   'Tb1 Dy3 Fe5 Os3'
_cell_volume   202.66964818
_cell_formula_units_Z   1
loop_
 _symmetry_equiv_pos_site_id
 _symmetry_equiv_pos_as_xyz
  1  'x, y, z'
loop_
 _atom_site_type_symbol
 _atom_site_label
 _atom_site_symmetry_multiplicity
 _atom_site_fract_x
 _atom_site_fract_y
 _atom_site_fract_z
 _atom_site_occupancy
  Tb  Tb0  1  0.876346  0.750845  0.376131  1
  Dy  Dy1  1  0.375740  0.749783  0.873616  1
  Dy  Dy2  1  0.998623  0.999222  0.998894  1
  Dy  Dy3  1  0.499170  0.000246  0.501380  1
  Fe  Fe4  1  0.937469  0.874784  0.687935  1
  Fe  Fe5  1  0.184259  0.369710  0.443846  1
  Fe  Fe6  1  0.690797  0.380299  0.931290  1
  Fe  Fe7  1  0.937499  0.375301  0.187011  1
  Fe  Fe8  1  0.437352  0.374617  0.687972  1
  Os  Os9  1  0.437535  0.375510  0.187013  1
  Os  Os10  1  0.937648  0.374466  0.687910  1
  Os  Os11  1  0.437560  0.875216  0.186999  1
