# generated using pymatgen
data_Ho5Tm3Sc12(GaSi3)4
_symmetry_space_group_name_H-M   'P 1'
_cell_length_a   7.10381516
_cell_length_b   7.38750404
_cell_length_c   14.09689316
_cell_angle_alpha   89.98806275
_cell_angle_beta   89.87070151
_cell_angle_gamma   90.15020389
_symmetry_Int_Tables_number   1
_chemical_formula_structural   Ho5Tm3Sc12(GaSi3)4
_chemical_formula_sum   'Ho5 Tm3 Sc12 Ga4 Si12'
_cell_volume   739.79294265
_cell_formula_units_Z   1
loop_
 _symmetry_equiv_pos_site_id
 _symmetry_equiv_pos_as_xyz
  1  'x, y, z'
loop_
 _atom_site_type_symbol
 _atom_site_label
 _atom_site_symmetry_multiplicity
 _atom_site_fract_x
 _atom_site_fract_y
 _atom_site_fract_z
 _atom_site_occupancy
  Ho  Ho0  1  0.013482  0.175231  0.096998  1
  Ho  Ho1  1  0.988201  0.824549  0.901917  1
  Ho  Ho2  1  0.487208  0.677304  0.901756  1
  Ho  Ho3  1  0.987894  0.827074  0.599954  1
  Ho  Ho4  1  0.510699  0.321049  0.097140  1
  Tm  Tm5  1  0.009647  0.175417  0.400582  1
  Tm  Tm6  1  0.510907  0.323924  0.400577  1
  Tm  Tm7  1  0.490439  0.676319  0.600413  1
  Sc  Sc8  1  0.162792  0.501349  0.751407  1
  Sc  Sc9  1  0.836684  0.497743  0.250210  1
  Sc  Sc10  1  0.336304  0.002698  0.248524  1
  Sc  Sc11  1  0.663274  0.997783  0.749921  1
  Sc  Sc12  1  0.333669  0.174609  0.627767  1
  Sc  Sc13  1  0.669082  0.826440  0.373700  1
  Sc  Sc14  1  0.170124  0.673513  0.373010  1
  Sc  Sc15  1  0.668587  0.826305  0.125661  1
  Sc  Sc16  1  0.828993  0.324810  0.626658  1
  Sc  Sc17  1  0.330617  0.175571  0.874551  1
  Sc  Sc18  1  0.829267  0.323446  0.874203  1
  Sc  Sc19  1  0.173186  0.675326  0.124560  1
  Ga  Ga20  1  0.162897  0.461534  0.539623  1
  Ga  Ga21  1  0.838118  0.537319  0.461287  1
  Ga  Ga22  1  0.338520  0.962338  0.461396  1
  Ga  Ga23  1  0.839018  0.538005  0.038616  1
  Si  Si24  1  0.032860  0.115099  0.751121  1
  Si  Si25  1  0.967398  0.885304  0.249373  1
  Si  Si26  1  0.467696  0.613237  0.248666  1
  Si  Si27  1  0.532846  0.386694  0.751014  1
  Si  Si28  1  0.286059  0.870452  0.750889  1
  Si  Si29  1  0.714907  0.129251  0.249030  1
  Si  Si30  1  0.214043  0.370620  0.249101  1
  Si  Si31  1  0.786204  0.629855  0.751245  1
  Si  Si32  1  0.658706  0.035909  0.539178  1
  Si  Si33  1  0.158755  0.463817  0.960879  1
  Si  Si34  1  0.657452  0.035698  0.961320  1
  Si  Si35  1  0.343468  0.964409  0.037756  1
