# generated using pymatgen
data_Na8Sr4TiSiP8
_symmetry_space_group_name_H-M   'P 1'
_cell_length_a   9.34854258
_cell_length_b   9.35665457
_cell_length_c   7.35810561
_cell_angle_alpha   89.58991157
_cell_angle_beta   89.68942323
_cell_angle_gamma   120.11397779
_symmetry_Int_Tables_number   1
_chemical_formula_structural   Na8Sr4TiSiP8
_chemical_formula_sum   'Na8 Sr4 Ti1 Si1 P8'
_cell_volume   556.70679434
_cell_formula_units_Z   1
loop_
 _symmetry_equiv_pos_site_id
 _symmetry_equiv_pos_as_xyz
  1  'x, y, z'
loop_
 _atom_site_type_symbol
 _atom_site_label
 _atom_site_symmetry_multiplicity
 _atom_site_fract_x
 _atom_site_fract_y
 _atom_site_fract_z
 _atom_site_occupancy
  Na  Na0  1  0.471596  0.939877  0.387209  1
  Na  Na1  1  0.939905  0.471649  0.891502  1
  Na  Na2  1  0.869948  0.734227  0.202820  1
  Na  Na3  1  0.276336  0.128740  0.231881  1
  Na  Na4  1  0.854751  0.132850  0.221880  1
  Na  Na5  1  0.132174  0.285464  0.732537  1
  Na  Na6  1  0.723723  0.865460  0.702516  1
  Na  Na7  1  0.136702  0.849870  0.721290  1
  Sr  Sr8  1  0.048778  0.528618  0.390424  1
  Sr  Sr9  1  0.479729  0.530642  0.387532  1
  Sr  Sr10  1  0.533786  0.058673  0.889659  1
  Sr  Sr11  1  0.536545  0.476152  0.889169  1
  Ti  Ti12  1  0.327915  0.663333  0.998035  1
  Si  Si13  1  0.661623  0.326966  0.503553  1
  P  P14  1  0.662658  0.336610  0.189861  1
  P  P15  1  0.337121  0.664117  0.671817  1
  P  P16  1  0.194956  0.383682  0.111208  1
  P  P17  1  0.615915  0.806916  0.092915  1
  P  P18  1  0.194955  0.808708  0.100364  1
  P  P19  1  0.803391  0.606628  0.593643  1
  P  P20  1  0.392300  0.198539  0.609266  1
  P  P21  1  0.804206  0.201295  0.599990  1
