# generated using pymatgen
data_Zn7Co8TcSb8
_symmetry_space_group_name_H-M   'P 1'
_cell_length_a   8.19479692
_cell_length_b   8.19479743
_cell_length_c   8.19479700
_cell_angle_alpha   59.99999771
_cell_angle_beta   59.99999564
_cell_angle_gamma   59.99999916
_symmetry_Int_Tables_number   1
_chemical_formula_structural   Zn7Co8TcSb8
_chemical_formula_sum   'Zn7 Co8 Tc1 Sb8'
_cell_volume   389.13437391
_cell_formula_units_Z   1
loop_
 _symmetry_equiv_pos_site_id
 _symmetry_equiv_pos_as_xyz
  1  'x, y, z'
loop_
 _atom_site_type_symbol
 _atom_site_label
 _atom_site_symmetry_multiplicity
 _atom_site_fract_x
 _atom_site_fract_y
 _atom_site_fract_z
 _atom_site_occupancy
  Zn  Zn0  1  0.500000  0.500000  0.000000  1
  Zn  Zn1  1  0.000000  0.000000  0.000000  1
  Zn  Zn2  1  0.500000  0.000000  0.500000  1
  Zn  Zn3  1  0.000000  0.500000  0.000000  1
  Zn  Zn4  1  0.000000  0.000000  0.500000  1
  Zn  Zn5  1  0.000000  0.500000  0.500000  1
  Zn  Zn6  1  0.500000  0.000000  0.000000  1
  Co  Co7  1  0.122097  0.122097  0.122097  1
  Co  Co8  1  0.633707  0.122097  0.122097  1
  Co  Co9  1  0.122097  0.122097  0.633707  1
  Co  Co10  1  0.877903  0.366293  0.877903  1
  Co  Co11  1  0.122097  0.633707  0.122097  1
  Co  Co12  1  0.366293  0.877903  0.877903  1
  Co  Co13  1  0.877903  0.877903  0.366293  1
  Co  Co14  1  0.877903  0.877903  0.877903  1
  Tc  Tc15  1  0.500000  0.500000  0.500000  1
  Sb  Sb16  1  0.250000  0.250000  0.250000  1
  Sb  Sb17  1  0.267045  0.732955  0.267045  1
  Sb  Sb18  1  0.267045  0.267045  0.732955  1
  Sb  Sb19  1  0.732955  0.267045  0.267045  1
  Sb  Sb20  1  0.267045  0.732955  0.732955  1
  Sb  Sb21  1  0.732955  0.732955  0.267045  1
  Sb  Sb22  1  0.732955  0.267045  0.732955  1
  Sb  Sb23  1  0.750000  0.750000  0.750000  1
