# generated using pymatgen
data_Nd2TeSe
_symmetry_space_group_name_H-M   'P 1'
_cell_length_a   7.61990982
_cell_length_b   7.61990998
_cell_length_c   7.61991008
_cell_angle_alpha   33.16319713
_cell_angle_beta   33.16319514
_cell_angle_gamma   33.16319672
_symmetry_Int_Tables_number   1
_chemical_formula_structural   Nd2TeSe
_chemical_formula_sum   'Nd2 Te1 Se1'
_cell_volume   117.84952121
_cell_formula_units_Z   1
loop_
 _symmetry_equiv_pos_site_id
 _symmetry_equiv_pos_as_xyz
  1  'x, y, z'
loop_
 _atom_site_type_symbol
 _atom_site_label
 _atom_site_symmetry_multiplicity
 _atom_site_fract_x
 _atom_site_fract_y
 _atom_site_fract_z
 _atom_site_occupancy
  Nd  Nd0  1  0.260818  0.260818  0.260818  1
  Nd  Nd1  1  0.739182  0.739182  0.739182  1
  Te  Te2  1  0.500000  0.500000  0.500000  1
  Se  Se3  1  0.000000  0.000000  0.000000  1
