# generated using pymatgen
data_CeMnFe(Sb6Os)2
_symmetry_space_group_name_H-M   'P 1'
_cell_length_a   8.08471572
_cell_length_b   8.09505747
_cell_length_c   8.08315915
_cell_angle_alpha   109.29065950
_cell_angle_beta   109.33530288
_cell_angle_gamma   109.52510426
_symmetry_Int_Tables_number   1
_chemical_formula_structural   CeMnFe(Sb6Os)2
_chemical_formula_sum   'Ce1 Mn1 Fe1 Sb12 Os2'
_cell_volume   408.54688142
_cell_formula_units_Z   1
loop_
 _symmetry_equiv_pos_site_id
 _symmetry_equiv_pos_as_xyz
  1  'x, y, z'
loop_
 _atom_site_type_symbol
 _atom_site_label
 _atom_site_symmetry_multiplicity
 _atom_site_fract_x
 _atom_site_fract_y
 _atom_site_fract_z
 _atom_site_occupancy
  Ce  Ce0  1  0.000000  0.000000  0.000000  1
  Mn  Mn1  1  0.500000  0.000000  0.000000  1
  Fe  Fe2  1  0.500000  0.500000  0.500000  1
  Sb  Sb3  1  0.339228  0.180911  0.844700  1
  Sb  Sb4  1  0.660772  0.819089  0.155300  1
  Sb  Sb5  1  0.659341  0.504964  0.833948  1
  Sb  Sb6  1  0.340659  0.495036  0.166052  1
  Sb  Sb7  1  0.183219  0.842841  0.339790  1
  Sb  Sb8  1  0.816781  0.157159  0.660210  1
  Sb  Sb9  1  0.506576  0.834664  0.661412  1
  Sb  Sb10  1  0.493424  0.165336  0.338588  1
  Sb  Sb11  1  0.841527  0.336323  0.181536  1
  Sb  Sb12  1  0.158473  0.663677  0.818464  1
  Sb  Sb13  1  0.834043  0.659279  0.504776  1
  Sb  Sb14  1  0.165957  0.340721  0.495224  1
  Os  Os15  1  0.000000  0.000000  0.500000  1
  Os  Os16  1  0.000000  0.500000  0.000000  1
