# generated using pymatgen
data_Ti3Nb(GeRh5)2
_symmetry_space_group_name_H-M   'P 1'
_cell_length_a   3.99048000
_cell_length_b   5.47510317
_cell_length_c   10.70004101
_cell_angle_alpha   90.21001798
_cell_angle_beta   90.00000000
_cell_angle_gamma   90.00000000
_symmetry_Int_Tables_number   1
_chemical_formula_structural   Ti3Nb(GeRh5)2
_chemical_formula_sum   'Ti3 Nb1 Ge2 Rh10'
_cell_volume   233.77602548
_cell_formula_units_Z   1
loop_
 _symmetry_equiv_pos_site_id
 _symmetry_equiv_pos_as_xyz
  1  'x, y, z'
loop_
 _atom_site_type_symbol
 _atom_site_label
 _atom_site_symmetry_multiplicity
 _atom_site_fract_x
 _atom_site_fract_y
 _atom_site_fract_z
 _atom_site_occupancy
  Ti  Ti0  1  0.500000  0.678470  0.855085  1
  Ti  Ti1  1  0.500000  0.824675  0.362117  1
  Ti  Ti2  1  0.500000  0.175935  0.642024  1
  Nb  Nb3  1  0.500000  0.321991  0.141255  1
  Ge  Ge4  1  0.000000  0.997186  0.997969  1
  Ge  Ge5  1  0.000000  0.499942  0.500897  1
  Rh  Rh6  1  0.000000  0.998830  0.500657  1
  Rh  Rh7  1  0.000000  0.505170  0.997741  1
  Rh  Rh8  1  0.000000  0.067175  0.245272  1
  Rh  Rh9  1  0.000000  0.928699  0.757095  1
  Rh  Rh10  1  0.000000  0.568792  0.256767  1
  Rh  Rh11  1  0.000000  0.428554  0.742088  1
  Rh  Rh12  1  0.500000  0.306614  0.392561  1
  Rh  Rh13  1  0.500000  0.694101  0.608801  1
  Rh  Rh14  1  0.500000  0.807651  0.109052  1
  Rh  Rh15  1  0.500000  0.196215  0.890619  1
