# generated using pymatgen
data_YEr4CoSb2
_symmetry_space_group_name_H-M   'P 1'
_cell_length_a   7.83175600
_cell_length_b   8.73732900
_cell_length_c   12.13368800
_cell_angle_alpha   90.00000000
_cell_angle_beta   90.00000000
_cell_angle_gamma   90.00000000
_symmetry_Int_Tables_number   1
_chemical_formula_structural   YEr4CoSb2
_chemical_formula_sum   'Y4 Er16 Co4 Sb8'
_cell_volume   830.29163237
_cell_formula_units_Z   4
loop_
 _symmetry_equiv_pos_site_id
 _symmetry_equiv_pos_as_xyz
  1  'x, y, z'
loop_
 _atom_site_type_symbol
 _atom_site_label
 _atom_site_symmetry_multiplicity
 _atom_site_fract_x
 _atom_site_fract_y
 _atom_site_fract_z
 _atom_site_occupancy
  Y  Y0  1  0.158164  0.750000  0.205334  1
  Y  Y1  1  0.658164  0.250000  0.294666  1
  Y  Y2  1  0.841836  0.250000  0.794666  1
  Y  Y3  1  0.341836  0.750000  0.705334  1
  Er  Er4  1  0.451751  0.750000  0.998122  1
  Er  Er5  1  0.951751  0.250000  0.501878  1
  Er  Er6  1  0.548249  0.250000  0.001878  1
  Er  Er7  1  0.048249  0.750000  0.498122  1
  Er  Er8  1  0.622980  0.750000  0.307982  1
  Er  Er9  1  0.122980  0.250000  0.192018  1
  Er  Er10  1  0.377020  0.250000  0.692018  1
  Er  Er11  1  0.877020  0.750000  0.807982  1
  Er  Er12  1  0.823161  0.962672  0.065360  1
  Er  Er13  1  0.323161  0.037328  0.434640  1
  Er  Er14  1  0.176839  0.462672  0.934640  1
  Er  Er15  1  0.676839  0.537328  0.565360  1
  Er  Er16  1  0.176839  0.037328  0.934640  1
  Er  Er17  1  0.676839  0.962672  0.565360  1
  Er  Er18  1  0.823161  0.537328  0.065360  1
  Er  Er19  1  0.323161  0.462672  0.434640  1
  Co  Co20  1  0.431322  0.750000  0.489289  1
  Co  Co21  1  0.931322  0.250000  0.010711  1
  Co  Co22  1  0.568678  0.250000  0.510711  1
  Co  Co23  1  0.068678  0.750000  0.989289  1
  Sb  Sb24  1  0.931012  0.991716  0.327810  1
  Sb  Sb25  1  0.431012  0.008284  0.172190  1
  Sb  Sb26  1  0.068988  0.491716  0.672190  1
  Sb  Sb27  1  0.568988  0.508284  0.827810  1
  Sb  Sb28  1  0.068988  0.008284  0.672190  1
  Sb  Sb29  1  0.568988  0.991716  0.827810  1
  Sb  Sb30  1  0.931012  0.508284  0.327810  1
  Sb  Sb31  1  0.431012  0.491716  0.172190  1
