# generated using pymatgen
data_Tb5Cr3Co15NiAs12
_symmetry_space_group_name_H-M   'P 1'
_cell_length_a   12.53096400
_cell_length_b   12.53096213
_cell_length_c   3.81580100
_cell_angle_alpha   90.00000000
_cell_angle_beta   90.00000000
_cell_angle_gamma   120.00000493
_symmetry_Int_Tables_number   1
_chemical_formula_structural   Tb5Cr3Co15NiAs12
_chemical_formula_sum   'Tb5 Cr3 Co15 Ni1 As12'
_cell_volume   518.90186002
_cell_formula_units_Z   1
loop_
 _symmetry_equiv_pos_site_id
 _symmetry_equiv_pos_as_xyz
  1  'x, y, z'
loop_
 _atom_site_type_symbol
 _atom_site_label
 _atom_site_symmetry_multiplicity
 _atom_site_fract_x
 _atom_site_fract_y
 _atom_site_fract_z
 _atom_site_occupancy
  Tb  Tb0  1  0.188182  0.188182  0.500000  1
  Tb  Tb1  1  0.811818  0.000000  0.500000  1
  Tb  Tb2  1  0.000000  0.811818  0.500000  1
  Tb  Tb3  1  0.333333  0.666667  0.000000  1
  Tb  Tb4  1  0.666667  0.333333  0.000000  1
  Cr  Cr5  1  0.562047  0.562047  0.000000  1
  Cr  Cr6  1  0.437953  0.000000  0.000000  1
  Cr  Cr7  1  0.000000  0.437953  0.000000  1
  Co  Co8  1  0.715305  0.715305  0.500000  1
  Co  Co9  1  0.284695  0.000000  0.500000  1
  Co  Co10  1  0.000000  0.284695  0.500000  1
  Co  Co11  1  0.178917  0.376688  0.000000  1
  Co  Co12  1  0.623312  0.802230  0.000000  1
  Co  Co13  1  0.197770  0.821083  0.000000  1
  Co  Co14  1  0.802230  0.623312  0.000000  1
  Co  Co15  1  0.821083  0.197770  0.000000  1
  Co  Co16  1  0.376688  0.178917  0.000000  1
  Co  Co17  1  0.358227  0.481494  0.500000  1
  Co  Co18  1  0.518506  0.876734  0.500000  1
  Co  Co19  1  0.123266  0.641773  0.500000  1
  Co  Co20  1  0.876734  0.518506  0.500000  1
  Co  Co21  1  0.641773  0.123266  0.500000  1
  Co  Co22  1  0.481494  0.358227  0.500000  1
  Ni  Ni23  1  0.000000  0.000000  0.000000  1
  As  As24  1  0.820095  0.820095  0.000000  1
  As  As25  1  0.179905  0.000000  0.000000  1
  As  As26  1  0.000000  0.179905  0.000000  1
  As  As27  1  0.167488  0.481440  0.500000  1
  As  As28  1  0.518560  0.686046  0.500000  1
  As  As29  1  0.313954  0.832512  0.500000  1
  As  As30  1  0.686046  0.518560  0.500000  1
  As  As31  1  0.832512  0.313954  0.500000  1
  As  As32  1  0.481440  0.167488  0.500000  1
  As  As33  1  0.364467  0.364467  0.000000  1
  As  As34  1  0.635533  0.000000  0.000000  1
  As  As35  1  0.000000  0.635533  0.000000  1
