# generated using pymatgen
data_HfTa5(B2Ru5)2
_symmetry_space_group_name_H-M   'P 1'
_cell_length_a   9.46059400
_cell_length_b   9.46059400
_cell_length_c   3.03954500
_cell_angle_alpha   90.00000000
_cell_angle_beta   90.00000000
_cell_angle_gamma   90.00325827
_symmetry_Int_Tables_number   1
_chemical_formula_structural   HfTa5(B2Ru5)2
_chemical_formula_sum   'Hf1 Ta5 B4 Ru10'
_cell_volume   272.04790604
_cell_formula_units_Z   1
loop_
 _symmetry_equiv_pos_site_id
 _symmetry_equiv_pos_as_xyz
  1  'x, y, z'
loop_
 _atom_site_type_symbol
 _atom_site_label
 _atom_site_symmetry_multiplicity
 _atom_site_fract_x
 _atom_site_fract_y
 _atom_site_fract_z
 _atom_site_occupancy
  Hf  Hf0  1  0.824440  0.675560  0.000000  1
  Ta  Ta1  1  0.176300  0.323700  0.000000  1
  Ta  Ta2  1  0.324388  0.823484  0.000000  1
  Ta  Ta3  1  0.676516  0.175612  0.000000  1
  Ta  Ta4  1  0.499946  0.500131  0.000000  1
  Ta  Ta5  1  0.999869  0.000054  0.000000  1
  B  B6  1  0.621211  0.878789  0.000000  1
  B  B7  1  0.378542  0.121458  0.000000  1
  B  B8  1  0.121308  0.621614  0.000000  1
  B  B9  1  0.878386  0.378692  0.000000  1
  Ru  Ru10  1  0.567520  0.719679  0.500000  1
  Ru  Ru11  1  0.428096  0.281874  0.500000  1
  Ru  Ru12  1  0.074526  0.782441  0.500000  1
  Ru  Ru13  1  0.929081  0.217931  0.500000  1
  Ru  Ru14  1  0.282069  0.570919  0.500000  1
  Ru  Ru15  1  0.717559  0.425474  0.500000  1
  Ru  Ru16  1  0.218126  0.071904  0.500000  1
  Ru  Ru17  1  0.780321  0.932480  0.500000  1
  Ru  Ru18  1  0.499092  0.000908  0.500000  1
  Ru  Ru19  1  0.002705  0.497295  0.500000  1
