# generated using pymatgen
data_TmPa7(Si3Os)4
_symmetry_space_group_name_H-M   'P 1'
_cell_length_a   8.07619300
_cell_length_b   8.07619299
_cell_length_c   8.05366200
_cell_angle_alpha   90.00000000
_cell_angle_beta   90.00000000
_cell_angle_gamma   120.00000415
_symmetry_Int_Tables_number   1
_chemical_formula_structural   TmPa7(Si3Os)4
_chemical_formula_sum   'Tm1 Pa7 Si12 Os4'
_cell_volume   454.92247118
_cell_formula_units_Z   1
loop_
 _symmetry_equiv_pos_site_id
 _symmetry_equiv_pos_as_xyz
  1  'x, y, z'
loop_
 _atom_site_type_symbol
 _atom_site_label
 _atom_site_symmetry_multiplicity
 _atom_site_fract_x
 _atom_site_fract_y
 _atom_site_fract_z
 _atom_site_occupancy
  Tm  Tm0  1  0.000000  0.000000  0.750000  1
  Pa  Pa1  1  0.500455  0.000909  0.250000  1
  Pa  Pa2  1  0.499430  0.998859  0.750000  1
  Pa  Pa3  1  0.999091  0.499545  0.250000  1
  Pa  Pa4  1  0.001141  0.500570  0.750000  1
  Pa  Pa5  1  0.500455  0.499545  0.250000  1
  Pa  Pa6  1  0.499430  0.500570  0.750000  1
  Pa  Pa7  1  0.000000  0.000000  0.250000  1
  Si  Si8  1  0.164332  0.328664  0.999664  1
  Si  Si9  1  0.835666  0.671331  0.998659  1
  Si  Si10  1  0.671336  0.835668  0.999664  1
  Si  Si11  1  0.835666  0.671331  0.501341  1
  Si  Si12  1  0.328669  0.164334  0.998659  1
  Si  Si13  1  0.164332  0.328664  0.500336  1
  Si  Si14  1  0.164332  0.835668  0.999664  1
  Si  Si15  1  0.328669  0.164334  0.501341  1
  Si  Si16  1  0.835666  0.164334  0.998659  1
  Si  Si17  1  0.671336  0.835668  0.500336  1
  Si  Si18  1  0.835666  0.164334  0.501341  1
  Si  Si19  1  0.164332  0.835668  0.500336  1
  Os  Os20  1  0.333333  0.666667  0.996872  1
  Os  Os21  1  0.666667  0.333333  0.995139  1
  Os  Os22  1  0.666667  0.333333  0.504861  1
  Os  Os23  1  0.333333  0.666667  0.503128  1
