# generated using pymatgen
data_Y4Al18Co3NiPt2
_symmetry_space_group_name_H-M   'P 1'
_cell_length_a   7.49003477
_cell_length_b   7.49003497
_cell_length_c   9.34672024
_cell_angle_alpha   90.01299639
_cell_angle_beta   90.01300122
_cell_angle_gamma   119.61340189
_symmetry_Int_Tables_number   1
_chemical_formula_structural   Y4Al18Co3NiPt2
_chemical_formula_sum   'Y4 Al18 Co3 Ni1 Pt2'
_cell_volume   455.86495715
_cell_formula_units_Z   1
loop_
 _symmetry_equiv_pos_site_id
 _symmetry_equiv_pos_as_xyz
  1  'x, y, z'
loop_
 _atom_site_type_symbol
 _atom_site_label
 _atom_site_symmetry_multiplicity
 _atom_site_fract_x
 _atom_site_fract_y
 _atom_site_fract_z
 _atom_site_occupancy
  Y  Y0  1  0.993363  0.668945  0.250393  1
  Y  Y1  1  0.006358  0.330943  0.750243  1
  Y  Y2  1  0.669057  0.993642  0.249757  1
  Y  Y3  1  0.331055  0.006637  0.749607  1
  Al  Al4  1  0.121478  0.121572  0.252598  1
  Al  Al5  1  0.878428  0.878522  0.747402  1
  Al  Al6  1  0.330926  0.325099  0.546521  1
  Al  Al7  1  0.666089  0.672278  0.047822  1
  Al  Al8  1  0.327722  0.333911  0.952178  1
  Al  Al9  1  0.674901  0.669074  0.453479  1
  Al  Al10  1  0.340426  0.549275  0.242536  1
  Al  Al11  1  0.659695  0.450657  0.741457  1
  Al  Al12  1  0.549343  0.340305  0.258543  1
  Al  Al13  1  0.450725  0.659574  0.757464  1
  Al  Al14  1  0.006862  0.337108  0.074044  1
  Al  Al15  1  0.994290  0.666215  0.572319  1
  Al  Al16  1  0.333785  0.005710  0.427681  1
  Al  Al17  1  0.662892  0.993138  0.925956  1
  Al  Al18  1  0.009839  0.670930  0.925803  1
  Al  Al19  1  0.989747  0.326160  0.427600  1
  Al  Al20  1  0.673840  0.010253  0.572400  1
  Al  Al21  1  0.329070  0.990161  0.074197  1
  Co  Co22  1  0.999756  0.000244  0.500000  1
  Co  Co23  1  0.329372  0.670628  0.000000  1
  Co  Co24  1  0.670780  0.329220  0.500000  1
  Ni  Ni25  1  0.000196  0.999804  0.000000  1
  Pt  Pt26  1  0.672017  0.327983  0.000000  1
  Pt  Pt27  1  0.327986  0.672014  0.500000  1
