# generated using pymatgen
data_TbCeNi2Hg
_symmetry_space_group_name_H-M   'P 1'
_cell_length_a   7.43485319
_cell_length_b   7.43485319
_cell_length_c   3.62870500
_cell_angle_alpha   90.00000000
_cell_angle_beta   90.00000000
_cell_angle_gamma   92.71293873
_symmetry_Int_Tables_number   1
_chemical_formula_structural   TbCeNi2Hg
_chemical_formula_sum   'Tb2 Ce2 Ni4 Hg2'
_cell_volume   200.35926612
_cell_formula_units_Z   2
loop_
 _symmetry_equiv_pos_site_id
 _symmetry_equiv_pos_as_xyz
  1  'x, y, z'
loop_
 _atom_site_type_symbol
 _atom_site_label
 _atom_site_symmetry_multiplicity
 _atom_site_fract_x
 _atom_site_fract_y
 _atom_site_fract_z
 _atom_site_occupancy
  Tb  Tb0  1  0.173683  0.326317  0.500000  1
  Tb  Tb1  1  0.826317  0.673683  0.500000  1
  Ce  Ce2  1  0.675172  0.175172  0.500000  1
  Ce  Ce3  1  0.324828  0.824828  0.500000  1
  Ni  Ni4  1  0.125758  0.625758  0.000000  1
  Ni  Ni5  1  0.874242  0.374242  0.000000  1
  Ni  Ni6  1  0.617359  0.882641  0.000000  1
  Ni  Ni7  1  0.382641  0.117359  0.000000  1
  Hg  Hg8  1  0.000000  0.000000  0.000000  1
  Hg  Hg9  1  0.500000  0.500000  0.000000  1
