# generated using pymatgen
data_SrTb2Yb(ReN3)4
_symmetry_space_group_name_H-M   'P 1'
_cell_length_a   7.41114268
_cell_length_b   7.41114296
_cell_length_c   6.27562675
_cell_angle_alpha   74.90867319
_cell_angle_beta   74.90866603
_cell_angle_gamma   84.61700328
_symmetry_Int_Tables_number   1
_chemical_formula_structural   SrTb2Yb(ReN3)4
_chemical_formula_sum   'Sr1 Tb2 Yb1 Re4 N12'
_cell_volume   321.19851785
_cell_formula_units_Z   1
loop_
 _symmetry_equiv_pos_site_id
 _symmetry_equiv_pos_as_xyz
  1  'x, y, z'
loop_
 _atom_site_type_symbol
 _atom_site_label
 _atom_site_symmetry_multiplicity
 _atom_site_fract_x
 _atom_site_fract_y
 _atom_site_fract_z
 _atom_site_occupancy
  Sr  Sr0  1  0.695859  0.304141  0.250000  1
  Tb  Tb1  1  0.911066  0.088934  0.750000  1
  Tb  Tb2  1  0.094752  0.905248  0.250000  1
  Yb  Yb3  1  0.299170  0.700830  0.750000  1
  Re  Re4  1  0.622615  0.797722  0.261088  1
  Re  Re5  1  0.202278  0.377385  0.238912  1
  Re  Re6  1  0.374126  0.201464  0.742964  1
  Re  Re7  1  0.798536  0.625874  0.757036  1
  N  N8  1  0.346093  0.352257  0.952723  1
  N  N9  1  0.015790  0.210532  0.348317  1
  N  N10  1  0.789468  0.984210  0.151683  1
  N  N11  1  0.216702  0.005368  0.848243  1
  N  N12  1  0.652733  0.658106  0.038932  1
  N  N13  1  0.877245  0.386956  0.813829  1
  N  N14  1  0.122154  0.615897  0.169902  1
  N  N15  1  0.994632  0.783298  0.651757  1
  N  N16  1  0.384103  0.877846  0.330098  1
  N  N17  1  0.647743  0.653907  0.547277  1
  N  N18  1  0.613044  0.122755  0.686171  1
  N  N19  1  0.341894  0.347267  0.461068  1
