# generated using pymatgen
data_Y4Al(SiIr2)2
_symmetry_space_group_name_H-M   'P 1'
_cell_length_a   10.72504434
_cell_length_b   10.72504444
_cell_length_c   7.73045200
_cell_angle_alpha   71.25828482
_cell_angle_beta   71.25828465
_cell_angle_gamma   30.31346993
_symmetry_Int_Tables_number   1
_chemical_formula_structural   Y4Al(SiIr2)2
_chemical_formula_sum   'Y8 Al2 Si4 Ir8'
_cell_volume   423.21385183
_cell_formula_units_Z   2
loop_
 _symmetry_equiv_pos_site_id
 _symmetry_equiv_pos_as_xyz
  1  'x, y, z'
loop_
 _atom_site_type_symbol
 _atom_site_label
 _atom_site_symmetry_multiplicity
 _atom_site_fract_x
 _atom_site_fract_y
 _atom_site_fract_z
 _atom_site_occupancy
  Y  Y0  1  0.209691  0.446818  0.401720  1
  Y  Y1  1  0.553182  0.790309  0.098280  1
  Y  Y2  1  0.446818  0.209691  0.901720  1
  Y  Y3  1  0.923960  0.214479  0.332983  1
  Y  Y4  1  0.785521  0.076040  0.167017  1
  Y  Y5  1  0.076040  0.785521  0.667017  1
  Y  Y6  1  0.214479  0.923960  0.832983  1
  Y  Y7  1  0.790309  0.553182  0.598280  1
  Al  Al8  1  0.618988  0.381012  0.750000  1
  Al  Al9  1  0.381012  0.618988  0.250000  1
  Si  Si10  1  0.299974  0.047201  0.441535  1
  Si  Si11  1  0.952799  0.700026  0.058465  1
  Si  Si12  1  0.700026  0.952799  0.558465  1
  Si  Si13  1  0.047201  0.299974  0.941535  1
  Ir  Ir14  1  0.281548  0.588880  0.025514  1
  Ir  Ir15  1  0.588880  0.281548  0.525514  1
  Ir  Ir16  1  0.718452  0.411120  0.974486  1
  Ir  Ir17  1  0.070832  0.368583  0.191844  1
  Ir  Ir18  1  0.631417  0.929168  0.308156  1
  Ir  Ir19  1  0.411120  0.718452  0.474486  1
  Ir  Ir20  1  0.929168  0.631417  0.808156  1
  Ir  Ir21  1  0.368583  0.070832  0.691844  1
