# generated using pymatgen
data_Er3Lu17Bi12
_symmetry_space_group_name_H-M   'P 1'
_cell_length_a   8.14001932
_cell_length_b   9.41328300
_cell_length_c   11.80287547
_cell_angle_alpha   90.00000000
_cell_angle_beta   90.03214339
_cell_angle_gamma   90.00000000
_symmetry_Int_Tables_number   1
_chemical_formula_structural   Er3Lu17Bi12
_chemical_formula_sum   'Er3 Lu17 Bi12'
_cell_volume   904.38699288
_cell_formula_units_Z   1
loop_
 _symmetry_equiv_pos_site_id
 _symmetry_equiv_pos_as_xyz
  1  'x, y, z'
loop_
 _atom_site_type_symbol
 _atom_site_label
 _atom_site_symmetry_multiplicity
 _atom_site_fract_x
 _atom_site_fract_y
 _atom_site_fract_z
 _atom_site_occupancy
  Er  Er0  1  0.812877  0.250000  0.282626  1
  Er  Er1  1  0.687014  0.750000  0.782572  1
  Er  Er2  1  0.187014  0.750000  0.717361  1
  Lu  Lu3  1  0.352877  0.750000  0.217566  1
  Lu  Lu4  1  0.852779  0.750000  0.282501  1
  Lu  Lu5  1  0.647159  0.250000  0.782488  1
  Lu  Lu6  1  0.147262  0.250000  0.717574  1
  Lu  Lu7  1  0.692219  0.566715  0.059040  1
  Lu  Lu8  1  0.192077  0.933221  0.440930  1
  Lu  Lu9  1  0.307824  0.066744  0.941090  1
  Lu  Lu10  1  0.807923  0.433296  0.558980  1
  Lu  Lu11  1  0.307824  0.433256  0.941090  1
  Lu  Lu12  1  0.807923  0.066704  0.558980  1
  Lu  Lu13  1  0.692219  0.933285  0.059040  1
  Lu  Lu14  1  0.192077  0.566779  0.440930  1
  Lu  Lu15  1  0.477838  0.250000  0.489136  1
  Lu  Lu16  1  0.978214  0.250000  0.010803  1
  Lu  Lu17  1  0.521941  0.750000  0.510621  1
  Lu  Lu18  1  0.022067  0.750000  0.989429  1
  Lu  Lu19  1  0.312750  0.250000  0.217007  1
  Bi  Bi20  1  0.402932  0.750000  0.957442  1
  Bi  Bi21  1  0.902815  0.750000  0.542532  1
  Bi  Bi22  1  0.596641  0.250000  0.043072  1
  Bi  Bi23  1  0.097445  0.250000  0.457247  1
  Bi  Bi24  1  0.564767  0.995764  0.325042  1
  Bi  Bi25  1  0.065599  0.504051  0.174845  1
  Bi  Bi26  1  0.434972  0.495518  0.674799  1
  Bi  Bi27  1  0.934808  0.004496  0.825286  1
  Bi  Bi28  1  0.434972  0.004482  0.674799  1
  Bi  Bi29  1  0.934808  0.495504  0.825286  1
  Bi  Bi30  1  0.564767  0.504236  0.325042  1
  Bi  Bi31  1  0.065599  0.995949  0.174845  1
