# generated using pymatgen
data_PrMg2CuIr8
_symmetry_space_group_name_H-M   'P 1'
_cell_length_a   8.80473000
_cell_length_b   8.80473000
_cell_length_c   5.12507700
_cell_angle_alpha   90.00000000
_cell_angle_beta   90.00000000
_cell_angle_gamma   90.00000000
_symmetry_Int_Tables_number   1
_chemical_formula_structural   PrMg2CuIr8
_chemical_formula_sum   'Pr2 Mg4 Cu2 Ir16'
_cell_volume   397.31272995
_cell_formula_units_Z   2
loop_
 _symmetry_equiv_pos_site_id
 _symmetry_equiv_pos_as_xyz
  1  'x, y, z'
loop_
 _atom_site_type_symbol
 _atom_site_label
 _atom_site_symmetry_multiplicity
 _atom_site_fract_x
 _atom_site_fract_y
 _atom_site_fract_z
 _atom_site_occupancy
  Pr  Pr0  1  0.000000  0.000000  0.000000  1
  Pr  Pr1  1  0.500000  0.500000  0.000000  1
  Mg  Mg2  1  0.120383  0.620383  0.000000  1
  Mg  Mg3  1  0.879617  0.379617  0.000000  1
  Mg  Mg4  1  0.620383  0.879617  0.000000  1
  Mg  Mg5  1  0.379617  0.120383  0.000000  1
  Cu  Cu6  1  0.500000  0.000000  0.500000  1
  Cu  Cu7  1  0.000000  0.500000  0.500000  1
  Ir  Ir8  1  0.207353  0.064116  0.500000  1
  Ir  Ir9  1  0.792647  0.935884  0.500000  1
  Ir  Ir10  1  0.064116  0.792647  0.500000  1
  Ir  Ir11  1  0.707353  0.435884  0.500000  1
  Ir  Ir12  1  0.935884  0.207353  0.500000  1
  Ir  Ir13  1  0.292647  0.564116  0.500000  1
  Ir  Ir14  1  0.564116  0.707353  0.500000  1
  Ir  Ir15  1  0.435884  0.292647  0.500000  1
  Ir  Ir16  1  0.676902  0.176902  0.235940  1
  Ir  Ir17  1  0.323098  0.823098  0.764060  1
  Ir  Ir18  1  0.323098  0.823098  0.235940  1
  Ir  Ir19  1  0.176902  0.323098  0.235940  1
  Ir  Ir20  1  0.176902  0.323098  0.764060  1
  Ir  Ir21  1  0.676902  0.176902  0.764060  1
  Ir  Ir22  1  0.823098  0.676902  0.764060  1
  Ir  Ir23  1  0.823098  0.676902  0.235940  1
