# generated using pymatgen
data_HoAl2GaAu
_symmetry_space_group_name_H-M   'P 1'
_cell_length_a   4.13376789
_cell_length_b   4.13376710
_cell_length_c   6.38528933
_cell_angle_alpha   71.11348514
_cell_angle_beta   71.11349213
_cell_angle_gamma   90.00000020
_symmetry_Int_Tables_number   1
_chemical_formula_structural   HoAl2GaAu
_chemical_formula_sum   'Ho1 Al2 Ga1 Au1'
_cell_volume   97.00812031
_cell_formula_units_Z   1
loop_
 _symmetry_equiv_pos_site_id
 _symmetry_equiv_pos_as_xyz
  1  'x, y, z'
loop_
 _atom_site_type_symbol
 _atom_site_label
 _atom_site_symmetry_multiplicity
 _atom_site_fract_x
 _atom_site_fract_y
 _atom_site_fract_z
 _atom_site_occupancy
  Ho  Ho0  1  0.990339  0.990339  0.019321  1
  Al  Al1  1  0.749825  0.249825  0.500351  1
  Al  Al2  1  0.249825  0.749825  0.500351  1
  Ga  Ga3  1  0.393973  0.393973  0.212055  1
  Au  Au4  1  0.616038  0.616038  0.767923  1
