# generated using pymatgen
data_Ho2Er6SbPd24
_symmetry_space_group_name_H-M   'P 1'
_cell_length_a   8.36991200
_cell_length_b   8.36995900
_cell_length_c   8.36995900
_cell_angle_alpha   89.99828865
_cell_angle_beta   90.00000000
_cell_angle_gamma   90.00000000
_symmetry_Int_Tables_number   1
_chemical_formula_structural   Ho2Er6SbPd24
_chemical_formula_sum   'Ho2 Er6 Sb1 Pd24'
_cell_volume   586.36434327
_cell_formula_units_Z   1
loop_
 _symmetry_equiv_pos_site_id
 _symmetry_equiv_pos_as_xyz
  1  'x, y, z'
loop_
 _atom_site_type_symbol
 _atom_site_label
 _atom_site_symmetry_multiplicity
 _atom_site_fract_x
 _atom_site_fract_y
 _atom_site_fract_z
 _atom_site_occupancy
  Ho  Ho0  1  0.745729  0.745719  0.254281  1
  Ho  Ho1  1  0.745729  0.254281  0.745719  1
  Er  Er2  1  0.254305  0.745702  0.745702  1
  Er  Er3  1  0.745698  0.745696  0.745696  1
  Er  Er4  1  0.745698  0.254304  0.254304  1
  Er  Er5  1  0.254312  0.254296  0.745704  1
  Er  Er6  1  0.254312  0.745704  0.254296  1
  Er  Er7  1  0.254305  0.254298  0.254298  1
  Sb  Sb8  1  0.999964  0.000000  0.000000  1
  Pd  Pd9  1  0.000123  0.000111  0.304451  1
  Pd  Pd10  1  0.735871  0.000000  0.500000  1
  Pd  Pd11  1  0.735871  0.500000  0.000000  1
  Pd  Pd12  1  0.499890  0.999880  0.735870  1
  Pd  Pd13  1  0.000126  0.735871  0.500109  1
  Pd  Pd14  1  0.499890  0.000120  0.264130  1
  Pd  Pd15  1  0.000126  0.264129  0.499891  1
  Pd  Pd16  1  0.499890  0.735870  0.999880  1
  Pd  Pd17  1  0.254838  0.500000  0.500000  1
  Pd  Pd18  1  0.499863  0.500128  0.745153  1
  Pd  Pd19  1  0.499863  0.499872  0.254847  1
  Pd  Pd20  1  0.499863  0.254847  0.499872  1
  Pd  Pd21  1  0.499863  0.745153  0.500128  1
  Pd  Pd22  1  0.745144  0.500000  0.500000  1
  Pd  Pd23  1  0.304419  0.000000  0.000000  1
  Pd  Pd24  1  0.000123  0.999889  0.695549  1
  Pd  Pd25  1  0.000126  0.499891  0.264129  1
  Pd  Pd26  1  0.000123  0.304451  0.000111  1
  Pd  Pd27  1  0.000123  0.695549  0.999889  1
  Pd  Pd28  1  0.695518  0.000000  0.000000  1
  Pd  Pd29  1  0.264137  0.500000  0.000000  1
  Pd  Pd30  1  0.264137  0.000000  0.500000  1
  Pd  Pd31  1  0.000126  0.500109  0.735871  1
  Pd  Pd32  1  0.499890  0.264130  0.000120  1
