# generated using pymatgen
data_Nd2Ga2Ir5
_symmetry_space_group_name_H-M   'P 1'
_cell_length_a   5.56687166
_cell_length_b   5.56687091
_cell_length_c   12.63176996
_cell_angle_alpha   77.27027737
_cell_angle_beta   77.27029003
_cell_angle_gamma   59.99999825
_symmetry_Int_Tables_number   1
_chemical_formula_structural   Nd2Ga2Ir5
_chemical_formula_sum   'Nd4 Ga4 Ir10'
_cell_volume   327.85616364
_cell_formula_units_Z   2
loop_
 _symmetry_equiv_pos_site_id
 _symmetry_equiv_pos_as_xyz
  1  'x, y, z'
loop_
 _atom_site_type_symbol
 _atom_site_label
 _atom_site_symmetry_multiplicity
 _atom_site_fract_x
 _atom_site_fract_y
 _atom_site_fract_z
 _atom_site_occupancy
  Nd  Nd0  1  0.951099  0.951099  0.146704  1
  Nd  Nd1  1  0.048901  0.048901  0.853296  1
  Nd  Nd2  1  0.852587  0.852587  0.442240  1
  Nd  Nd3  1  0.147413  0.147413  0.557760  1
  Ga  Ga4  1  0.720540  0.720540  0.838379  1
  Ga  Ga5  1  0.279460  0.279460  0.161621  1
  Ga  Ga6  1  0.611347  0.611347  0.165959  1
  Ga  Ga7  1  0.388653  0.388653  0.834041  1
  Ir  Ir8  1  0.500000  0.500000  0.500000  1
  Ir  Ir9  1  0.000000  0.500000  0.000000  1
  Ir  Ir10  1  0.500000  0.000000  0.000000  1
  Ir  Ir11  1  0.500000  0.500000  0.000000  1
  Ir  Ir12  1  0.387707  0.387707  0.328515  1
  Ir  Ir13  1  0.896072  0.387707  0.328515  1
  Ir  Ir14  1  0.387707  0.896072  0.328515  1
  Ir  Ir15  1  0.612293  0.612293  0.671485  1
  Ir  Ir16  1  0.103928  0.612293  0.671485  1
  Ir  Ir17  1  0.612293  0.103928  0.671485  1
