# generated using pymatgen
data_ErTm(BeB14)2
_symmetry_space_group_name_H-M   'P 1'
_cell_length_a   7.18506144
_cell_length_b   7.18506068
_cell_length_c   7.18512302
_cell_angle_alpha   132.65474376
_cell_angle_beta   110.39266592
_cell_angle_gamma   88.50785667
_symmetry_Int_Tables_number   1
_chemical_formula_structural   ErTm(BeB14)2
_chemical_formula_sum   'Er1 Tm1 Be2 B28'
_cell_volume   243.54382127
_cell_formula_units_Z   1
loop_
 _symmetry_equiv_pos_site_id
 _symmetry_equiv_pos_as_xyz
  1  'x, y, z'
loop_
 _atom_site_type_symbol
 _atom_site_label
 _atom_site_symmetry_multiplicity
 _atom_site_fract_x
 _atom_site_fract_y
 _atom_site_fract_z
 _atom_site_occupancy
  Er  Er0  1  0.892847  0.250018  0.642864  1
  Tm  Tm1  1  0.107378  0.749983  0.357361  1
  Be  Be2  1  0.500002  0.499993  0.499996  1
  Be  Be3  1  0.500003  0.000006  0.000009  1
  B  B4  1  0.131948  0.166466  0.965490  1
  B  B5  1  0.868178  0.833520  0.034651  1
  B  B6  1  0.701132  0.666473  0.034651  1
  B  B7  1  0.299023  0.333542  0.965490  1
  B  B8  1  0.289738  0.656208  0.633536  1
  B  B9  1  0.710030  0.343864  0.366159  1
  B  B10  1  0.522296  0.156130  0.366159  1
  B  B11  1  0.477328  0.843799  0.633536  1
  B  B12  1  0.424708  0.592588  0.832128  1
  B  B13  1  0.575231  0.407421  0.167801  1
  B  B14  1  0.260379  0.092569  0.167801  1
  B  B15  1  0.739541  0.907421  0.832128  1
  B  B16  1  0.898698  0.896507  0.676019  1
  B  B17  1  0.101440  0.777564  0.998155  1
  B  B18  1  0.720591  0.396715  0.998155  1
  B  B19  1  0.279511  0.277319  0.676019  1
  B  B20  1  0.101443  0.103289  0.323873  1
  B  B21  1  0.898702  0.222686  0.002191  1
  B  B22  1  0.279505  0.603489  0.002191  1
  B  B23  1  0.720585  0.722431  0.323873  1
  B  B24  1  0.533229  0.328354  0.698732  1
  B  B25  1  0.466680  0.165421  0.795020  1
  B  B26  1  0.129600  0.828339  0.795020  1
  B  B27  1  0.870377  0.665504  0.698732  1
  B  B28  1  0.466682  0.671669  0.301262  1
  B  B29  1  0.533231  0.834495  0.204867  1
  B  B30  1  0.870371  0.171638  0.204867  1
  B  B31  1  0.129594  0.334580  0.301262  1
