# generated using pymatgen
data_Zr2AlGaFe8
_symmetry_space_group_name_H-M   'P 1'
_cell_length_a   8.40493660
_cell_length_b   8.40493763
_cell_length_c   8.40493714
_cell_angle_alpha   33.51998654
_cell_angle_beta   33.51998757
_cell_angle_gamma   33.51998363
_symmetry_Int_Tables_number   1
_chemical_formula_structural   Zr2AlGaFe8
_chemical_formula_sum   'Zr2 Al1 Ga1 Fe8'
_cell_volume   161.27099697
_cell_formula_units_Z   1
loop_
 _symmetry_equiv_pos_site_id
 _symmetry_equiv_pos_as_xyz
  1  'x, y, z'
loop_
 _atom_site_type_symbol
 _atom_site_label
 _atom_site_symmetry_multiplicity
 _atom_site_fract_x
 _atom_site_fract_y
 _atom_site_fract_z
 _atom_site_occupancy
  Zr  Zr0  1  0.999577  0.999577  0.999577  1
  Zr  Zr1  1  0.500137  0.500137  0.500137  1
  Al  Al2  1  0.125192  0.125192  0.125192  1
  Ga  Ga3  1  0.625003  0.625003  0.625003  1
  Fe  Fe4  1  0.563871  0.061149  0.563871  1
  Fe  Fe5  1  0.063731  0.559636  0.063731  1
  Fe  Fe6  1  0.061149  0.563871  0.563871  1
  Fe  Fe7  1  0.559636  0.063731  0.063731  1
  Fe  Fe8  1  0.812024  0.812024  0.812024  1
  Fe  Fe9  1  0.312078  0.312078  0.312078  1
  Fe  Fe10  1  0.563871  0.563871  0.061149  1
  Fe  Fe11  1  0.063731  0.063731  0.559636  1
