# generated using pymatgen
data_LiPr5NdCoBr12
_symmetry_space_group_name_H-M   'P 1'
_cell_length_a   9.49822330
_cell_length_b   9.66702792
_cell_length_c   9.50078365
_cell_angle_alpha   108.07867005
_cell_angle_beta   107.40272443
_cell_angle_gamma   107.94223764
_symmetry_Int_Tables_number   1
_chemical_formula_structural   LiPr5NdCoBr12
_chemical_formula_sum   'Li1 Pr5 Nd1 Co1 Br12'
_cell_volume   709.86789972
_cell_formula_units_Z   1
loop_
 _symmetry_equiv_pos_site_id
 _symmetry_equiv_pos_as_xyz
  1  'x, y, z'
loop_
 _atom_site_type_symbol
 _atom_site_label
 _atom_site_symmetry_multiplicity
 _atom_site_fract_x
 _atom_site_fract_y
 _atom_site_fract_z
 _atom_site_occupancy
  Li  Li0  1  0.500010  0.500407  0.499824  1
  Pr  Pr1  1  0.313777  0.032793  0.111829  1
  Pr  Pr2  1  0.033575  0.112148  0.315335  1
  Pr  Pr3  1  0.966856  0.888997  0.685367  1
  Pr  Pr4  1  0.686198  0.966655  0.888504  1
  Pr  Pr5  1  0.880165  0.670250  0.964609  1
  Nd  Nd6  1  0.119300  0.327745  0.035433  1
  Co  Co7  1  0.000169  0.000108  0.000412  1
  Br  Br8  1  0.219180  0.686219  0.072182  1
  Br  Br9  1  0.462450  0.381446  0.173120  1
  Br  Br10  1  0.684732  0.072741  0.221236  1
  Br  Br11  1  0.927895  0.782676  0.315618  1
  Br  Br12  1  0.173388  0.460786  0.381797  1
  Br  Br13  1  0.384758  0.175923  0.464664  1
  Br  Br14  1  0.615534  0.824872  0.535691  1
  Br  Br15  1  0.825793  0.539514  0.615659  1
  Br  Br16  1  0.073224  0.219387  0.687132  1
  Br  Br17  1  0.315459  0.927806  0.779104  1
  Br  Br18  1  0.534898  0.617900  0.825111  1
  Br  Br19  1  0.782644  0.311632  0.927377  1
