# generated using pymatgen
data_HoTm2Zr(Co4P3)2
_symmetry_space_group_name_H-M   'P 1'
_cell_length_a   3.70475600
_cell_length_b   10.66084800
_cell_length_c   12.36434300
_cell_angle_alpha   90.00000000
_cell_angle_beta   90.00000000
_cell_angle_gamma   90.00000000
_symmetry_Int_Tables_number   1
_chemical_formula_structural   HoTm2Zr(Co4P3)2
_chemical_formula_sum   'Ho2 Tm4 Zr2 Co16 P12'
_cell_volume   488.34012017
_cell_formula_units_Z   2
loop_
 _symmetry_equiv_pos_site_id
 _symmetry_equiv_pos_as_xyz
  1  'x, y, z'
loop_
 _atom_site_type_symbol
 _atom_site_label
 _atom_site_symmetry_multiplicity
 _atom_site_fract_x
 _atom_site_fract_y
 _atom_site_fract_z
 _atom_site_occupancy
  Ho  Ho0  1  0.000000  0.500000  0.529465  1
  Ho  Ho1  1  0.500000  0.000000  0.470535  1
  Tm  Tm2  1  0.500000  0.821946  0.204725  1
  Tm  Tm3  1  0.500000  0.178054  0.204725  1
  Tm  Tm4  1  0.000000  0.678054  0.795275  1
  Tm  Tm5  1  0.000000  0.321946  0.795275  1
  Zr  Zr6  1  0.500000  0.500000  0.158308  1
  Zr  Zr7  1  0.000000  0.000000  0.841692  1
  Co  Co8  1  0.000000  0.500000  0.985296  1
  Co  Co9  1  0.500000  0.000000  0.014704  1
  Co  Co10  1  0.500000  0.295049  0.433291  1
  Co  Co11  1  0.500000  0.704951  0.433291  1
  Co  Co12  1  0.000000  0.204951  0.566709  1
  Co  Co13  1  0.000000  0.795049  0.566709  1
  Co  Co14  1  0.500000  0.876890  0.701454  1
  Co  Co15  1  0.500000  0.123110  0.701454  1
  Co  Co16  1  0.000000  0.623110  0.298546  1
  Co  Co17  1  0.000000  0.376890  0.298546  1
  Co  Co18  1  0.500000  0.331879  0.992487  1
  Co  Co19  1  0.500000  0.668121  0.992487  1
  Co  Co20  1  0.000000  0.168121  0.007513  1
  Co  Co21  1  0.000000  0.831879  0.007513  1
  Co  Co22  1  0.500000  0.500000  0.703397  1
  Co  Co23  1  0.000000  0.000000  0.296603  1
  P  P24  1  0.500000  0.310668  0.616162  1
  P  P25  1  0.500000  0.689332  0.616162  1
  P  P26  1  0.000000  0.189332  0.383838  1
  P  P27  1  0.000000  0.810668  0.383838  1
  P  P28  1  0.500000  0.500000  0.882443  1
  P  P29  1  0.000000  0.000000  0.117557  1
  P  P30  1  0.500000  0.837404  0.893308  1
  P  P31  1  0.500000  0.162596  0.893308  1
  P  P32  1  0.000000  0.662596  0.106692  1
  P  P33  1  0.000000  0.337404  0.106692  1
  P  P34  1  0.500000  0.500000  0.363625  1
  P  P35  1  0.000000  0.000000  0.636375  1
