# generated using pymatgen
data_TbHoTm6(WO6)4
_symmetry_space_group_name_H-M   'P 1'
_cell_length_a   5.34978400
_cell_length_b   7.64569601
_cell_length_c   11.38423811
_cell_angle_alpha   75.26955032
_cell_angle_beta   90.00000000
_cell_angle_gamma   90.00000000
_symmetry_Int_Tables_number   1
_chemical_formula_structural   TbHoTm6(WO6)4
_chemical_formula_sum   'Tb1 Ho1 Tm6 W4 O24'
_cell_volume   450.34291848
_cell_formula_units_Z   1
loop_
 _symmetry_equiv_pos_site_id
 _symmetry_equiv_pos_as_xyz
  1  'x, y, z'
loop_
 _atom_site_type_symbol
 _atom_site_label
 _atom_site_symmetry_multiplicity
 _atom_site_fract_x
 _atom_site_fract_y
 _atom_site_fract_z
 _atom_site_occupancy
  Tb  Tb0  1  0.684646  0.500000  0.750000  1
  Ho  Ho1  1  0.315437  0.500000  0.250000  1
  Tm  Tm2  1  0.740514  0.000000  0.750000  1
  Tm  Tm3  1  0.260130  0.000000  0.250000  1
  Tm  Tm4  1  0.185202  0.796349  0.577941  1
  Tm  Tm5  1  0.815086  0.795742  0.078482  1
  Tm  Tm6  1  0.185202  0.203651  0.922059  1
  Tm  Tm7  1  0.815086  0.204258  0.421518  1
  W  W8  1  0.254941  0.724397  0.885773  1
  W  W9  1  0.744999  0.724052  0.385056  1
  W  W10  1  0.254941  0.275603  0.614227  1
  W  W11  1  0.744999  0.275948  0.114944  1
  O  O12  1  0.040385  0.941300  0.895946  1
  O  O13  1  0.536052  0.848267  0.930873  1
  O  O14  1  0.959205  0.941607  0.395066  1
  O  O15  1  0.459344  0.793020  0.726132  1
  O  O16  1  0.464613  0.848490  0.430698  1
  O  O17  1  0.981843  0.714083  0.769760  1
  O  O18  1  0.539959  0.792318  0.225997  1
  O  O19  1  0.853543  0.635460  0.548609  1
  O  O20  1  0.357645  0.488248  0.887024  1
  O  O21  1  0.019484  0.712087  0.270063  1
  O  O22  1  0.357645  0.511752  0.612976  1
  O  O23  1  0.853543  0.364540  0.951391  1
  O  O24  1  0.147643  0.635693  0.049736  1
  O  O25  1  0.639693  0.488344  0.386148  1
  O  O26  1  0.981843  0.285917  0.730240  1
  O  O27  1  0.639693  0.511656  0.113852  1
  O  O28  1  0.147643  0.364307  0.450264  1
  O  O29  1  0.459344  0.206980  0.773868  1
  O  O30  1  0.019484  0.287913  0.229937  1
  O  O31  1  0.536052  0.151733  0.569127  1
  O  O32  1  0.539959  0.207682  0.274003  1
  O  O33  1  0.040385  0.058700  0.604054  1
  O  O34  1  0.464613  0.151510  0.069302  1
  O  O35  1  0.959205  0.058393  0.104934  1
