# generated using pymatgen
data_Y16Cd3AgIr4
_symmetry_space_group_name_H-M   'P 1'
_cell_length_a   9.68394227
_cell_length_b   9.68394189
_cell_length_c   9.68394228
_cell_angle_alpha   59.75096393
_cell_angle_beta   59.75096622
_cell_angle_gamma   59.75096915
_symmetry_Int_Tables_number   1
_chemical_formula_structural   Y16Cd3AgIr4
_chemical_formula_sum   'Y16 Cd3 Ag1 Ir4'
_cell_volume   638.52610664
_cell_formula_units_Z   1
loop_
 _symmetry_equiv_pos_site_id
 _symmetry_equiv_pos_as_xyz
  1  'x, y, z'
loop_
 _atom_site_type_symbol
 _atom_site_label
 _atom_site_symmetry_multiplicity
 _atom_site_fract_x
 _atom_site_fract_y
 _atom_site_fract_z
 _atom_site_occupancy
  Y  Y0  1  0.348998  0.348998  0.348998  1
  Y  Y1  1  0.349925  0.349925  0.953097  1
  Y  Y2  1  0.349925  0.953097  0.349925  1
  Y  Y3  1  0.953097  0.349925  0.349925  1
  Y  Y4  1  0.809676  0.190193  0.190193  1
  Y  Y5  1  0.187437  0.809042  0.809042  1
  Y  Y6  1  0.190193  0.809676  0.190193  1
  Y  Y7  1  0.809042  0.187437  0.809042  1
  Y  Y8  1  0.190193  0.190193  0.809676  1
  Y  Y9  1  0.809042  0.809042  0.187437  1
  Y  Y10  1  0.937383  0.560982  0.560982  1
  Y  Y11  1  0.561415  0.936989  0.936989  1
  Y  Y12  1  0.560982  0.937383  0.560982  1
  Y  Y13  1  0.936989  0.561415  0.936989  1
  Y  Y14  1  0.560982  0.560982  0.937383  1
  Y  Y15  1  0.936989  0.936989  0.561415  1
  Cd  Cd16  1  0.581585  0.581585  0.257808  1
  Cd  Cd17  1  0.581585  0.257808  0.581585  1
  Cd  Cd18  1  0.257808  0.581585  0.581585  1
  Ag  Ag19  1  0.582862  0.582862  0.582862  1
  Ir  Ir20  1  0.141720  0.141720  0.141720  1
  Ir  Ir21  1  0.142792  0.142792  0.576590  1
  Ir  Ir22  1  0.142792  0.576590  0.142792  1
  Ir  Ir23  1  0.576590  0.142792  0.142792  1
