# generated using pymatgen
data_RbNdP2S7
_symmetry_space_group_name_H-M   'P 1'
_cell_length_a   9.08592500
_cell_length_b   9.84675689
_cell_length_c   12.53161500
_cell_angle_alpha   90.00000000
_cell_angle_beta   90.00000000
_cell_angle_gamma   90.28509065
_symmetry_Int_Tables_number   1
_chemical_formula_structural   RbNdP2S7
_chemical_formula_sum   'Rb4 Nd4 P8 S28'
_cell_volume   1121.15079976
_cell_formula_units_Z   4
loop_
 _symmetry_equiv_pos_site_id
 _symmetry_equiv_pos_as_xyz
  1  'x, y, z'
loop_
 _atom_site_type_symbol
 _atom_site_label
 _atom_site_symmetry_multiplicity
 _atom_site_fract_x
 _atom_site_fract_y
 _atom_site_fract_z
 _atom_site_occupancy
  Rb  Rb0  1  0.867820  0.392928  0.194301  1
  Rb  Rb1  1  0.367820  0.392928  0.305699  1
  Rb  Rb2  1  0.632180  0.607072  0.694301  1
  Rb  Rb3  1  0.132180  0.607072  0.805699  1
  Nd  Nd4  1  0.392985  0.141452  0.642406  1
  Nd  Nd5  1  0.107015  0.858548  0.142406  1
  Nd  Nd6  1  0.607015  0.858548  0.357594  1
  Nd  Nd7  1  0.892985  0.141452  0.857594  1
  P  P8  1  0.022340  0.272609  0.603950  1
  P  P9  1  0.802036  0.816908  0.965495  1
  P  P10  1  0.977660  0.727391  0.396050  1
  P  P11  1  0.697964  0.183092  0.465495  1
  P  P12  1  0.522340  0.272609  0.896050  1
  P  P13  1  0.302036  0.816908  0.534505  1
  P  P14  1  0.477660  0.727391  0.103950  1
  P  P15  1  0.197964  0.183092  0.034505  1
  S  S16  1  0.790742  0.633090  0.442141  1
  S  S17  1  0.321199  0.985515  0.441352  1
  S  S18  1  0.429445  0.667743  0.474288  1
  S  S19  1  0.426581  0.911032  0.169386  1
  S  S20  1  0.648507  0.147374  0.309410  1
  S  S21  1  0.577991  0.753718  0.950345  1
  S  S22  1  0.573419  0.088968  0.830614  1
  S  S23  1  0.073419  0.088968  0.669386  1
  S  S24  1  0.611525  0.632356  0.208470  1
  S  S25  1  0.209258  0.366910  0.557859  1
  S  S26  1  0.888475  0.367644  0.708470  1
  S  S27  1  0.388475  0.367644  0.791530  1
  S  S28  1  0.709258  0.366910  0.942141  1
  S  S29  1  0.570555  0.332257  0.525712  1
  S  S30  1  0.290742  0.633090  0.057859  1
  S  S31  1  0.922009  0.246282  0.450345  1
  S  S32  1  0.678801  0.014485  0.558648  1
  S  S33  1  0.111525  0.632356  0.291530  1
  S  S34  1  0.070555  0.332257  0.974288  1
  S  S35  1  0.077991  0.753718  0.549655  1
  S  S36  1  0.851493  0.852626  0.809410  1
  S  S37  1  0.821199  0.985515  0.058648  1
  S  S38  1  0.148507  0.147374  0.190590  1
  S  S39  1  0.178801  0.014485  0.941352  1
  S  S40  1  0.422009  0.246282  0.049655  1
  S  S41  1  0.926581  0.911032  0.330614  1
  S  S42  1  0.351493  0.852626  0.690590  1
  S  S43  1  0.929445  0.667743  0.025712  1
