# generated using pymatgen
data_Ba(TiS2)4
_symmetry_space_group_name_H-M   'P 1'
_cell_length_a   8.63801124
_cell_length_b   8.63801044
_cell_length_c   8.63801089
_cell_angle_alpha   46.83444577
_cell_angle_beta   46.83445029
_cell_angle_gamma   46.83444065
_symmetry_Int_Tables_number   1
_chemical_formula_structural   Ba(TiS2)4
_chemical_formula_sum   'Ba1 Ti4 S8'
_cell_volume   313.32110153
_cell_formula_units_Z   1
loop_
 _symmetry_equiv_pos_site_id
 _symmetry_equiv_pos_as_xyz
  1  'x, y, z'
loop_
 _atom_site_type_symbol
 _atom_site_label
 _atom_site_symmetry_multiplicity
 _atom_site_fract_x
 _atom_site_fract_y
 _atom_site_fract_z
 _atom_site_occupancy
  Ba  Ba0  1  0.500000  0.500000  0.500000  1
  Ti  Ti1  1  0.000000  0.500000  0.500000  1
  Ti  Ti2  1  0.500000  0.000000  0.500000  1
  Ti  Ti3  1  0.500000  0.500000  0.000000  1
  Ti  Ti4  1  0.000000  0.000000  0.000000  1
  S  S5  1  0.266502  0.772736  0.772736  1
  S  S6  1  0.227264  0.227264  0.733498  1
  S  S7  1  0.733498  0.227264  0.227264  1
  S  S8  1  0.227264  0.733498  0.227264  1
  S  S9  1  0.271301  0.271301  0.271301  1
  S  S10  1  0.728699  0.728699  0.728699  1
  S  S11  1  0.772736  0.266502  0.772736  1
  S  S12  1  0.772736  0.772736  0.266502  1
