# generated using pymatgen
data_Tb3MgZn2Si2Ag
_symmetry_space_group_name_H-M   'P 1'
_cell_length_a   6.99691679
_cell_length_b   6.99691598
_cell_length_c   4.34667800
_cell_angle_alpha   90.00000000
_cell_angle_beta   90.00000000
_cell_angle_gamma   119.69623377
_symmetry_Int_Tables_number   1
_chemical_formula_structural   Tb3MgZn2Si2Ag
_chemical_formula_sum   'Tb3 Mg1 Zn2 Si2 Ag1'
_cell_volume   184.85138160
_cell_formula_units_Z   1
loop_
 _symmetry_equiv_pos_site_id
 _symmetry_equiv_pos_as_xyz
  1  'x, y, z'
loop_
 _atom_site_type_symbol
 _atom_site_label
 _atom_site_symmetry_multiplicity
 _atom_site_fract_x
 _atom_site_fract_y
 _atom_site_fract_z
 _atom_site_occupancy
  Tb  Tb0  1  0.569246  0.998260  0.000000  1
  Tb  Tb1  1  0.998260  0.569246  0.000000  1
  Tb  Tb2  1  0.420168  0.420168  0.000000  1
  Mg  Mg3  1  0.764403  0.764403  0.500000  1
  Zn  Zn4  1  0.253162  0.001273  0.500000  1
  Zn  Zn5  1  0.001273  0.253162  0.500000  1
  Si  Si6  1  0.325224  0.663186  0.500000  1
  Si  Si7  1  0.663186  0.325224  0.500000  1
  Ag  Ag8  1  0.005079  0.005079  0.000000  1
