# generated using pymatgen
data_Sr2Cd3InPd2
_symmetry_space_group_name_H-M   'P 1'
_cell_length_a   5.87344651
_cell_length_b   5.87344684
_cell_length_c   8.22076996
_cell_angle_alpha   89.86468040
_cell_angle_beta   90.13531844
_cell_angle_gamma   135.05686857
_symmetry_Int_Tables_number   1
_chemical_formula_structural   Sr2Cd3InPd2
_chemical_formula_sum   'Sr2 Cd3 In1 Pd2'
_cell_volume   200.33215126
_cell_formula_units_Z   1
loop_
 _symmetry_equiv_pos_site_id
 _symmetry_equiv_pos_as_xyz
  1  'x, y, z'
loop_
 _atom_site_type_symbol
 _atom_site_label
 _atom_site_symmetry_multiplicity
 _atom_site_fract_x
 _atom_site_fract_y
 _atom_site_fract_z
 _atom_site_occupancy
  Sr  Sr0  1  0.937627  0.062373  0.247799  1
  Sr  Sr1  1  0.062262  0.937738  0.750848  1
  Cd  Cd2  1  0.352752  0.647248  0.557648  1
  Cd  Cd3  1  0.650323  0.349677  0.053565  1
  Cd  Cd4  1  0.349874  0.650126  0.944293  1
  In  In5  1  0.651131  0.348869  0.444108  1
  Pd  Pd6  1  0.219465  0.780535  0.254635  1
  Pd  Pd7  1  0.776565  0.223435  0.747102  1
