# generated using pymatgen
data_Er4Sb6Ru4Rh3
_symmetry_space_group_name_H-M   'P 1'
_cell_length_a   7.55032120
_cell_length_b   7.54688591
_cell_length_c   7.54688610
_cell_angle_alpha   109.46199604
_cell_angle_beta   109.48044703
_cell_angle_gamma   109.48043893
_symmetry_Int_Tables_number   1
_chemical_formula_structural   Er4Sb6Ru4Rh3
_chemical_formula_sum   'Er4 Sb6 Ru4 Rh3'
_cell_volume   331.00128361
_cell_formula_units_Z   1
loop_
 _symmetry_equiv_pos_site_id
 _symmetry_equiv_pos_as_xyz
  1  'x, y, z'
loop_
 _atom_site_type_symbol
 _atom_site_label
 _atom_site_symmetry_multiplicity
 _atom_site_fract_x
 _atom_site_fract_y
 _atom_site_fract_z
 _atom_site_occupancy
  Er  Er0  1  0.500000  0.000000  0.000000  1
  Er  Er1  1  0.997882  0.497882  0.995765  1
  Er  Er2  1  0.002118  0.004235  0.502118  1
  Er  Er3  1  0.500000  0.497882  0.502118  1
  Sb  Sb4  1  0.316031  0.001975  0.316232  1
  Sb  Sb5  1  0.999800  0.683768  0.685743  1
  Sb  Sb6  1  0.683969  0.683768  0.998025  1
  Sb  Sb7  1  0.685944  0.001975  0.685743  1
  Sb  Sb8  1  0.000200  0.314257  0.316232  1
  Sb  Sb9  1  0.314056  0.314257  0.998025  1
  Ru  Ru10  1  0.249554  0.499108  0.749554  1
  Ru  Ru11  1  0.500000  0.250446  0.749554  1
  Ru  Ru12  1  0.750446  0.250446  0.500892  1
  Ru  Ru13  1  0.000000  0.000000  0.000000  1
  Rh  Rh14  1  0.500000  0.750554  0.249446  1
  Rh  Rh15  1  0.250554  0.750554  0.501107  1
  Rh  Rh16  1  0.749446  0.498893  0.249446  1
