# generated using pymatgen
data_Nd5Ho11(InIr)4
_symmetry_space_group_name_H-M   'P 1'
_cell_length_a   9.70872596
_cell_length_b   9.73008881
_cell_length_c   9.73008700
_cell_angle_alpha   60.25020777
_cell_angle_beta   60.07259494
_cell_angle_gamma   60.07259747
_symmetry_Int_Tables_number   1
_chemical_formula_structural   Nd5Ho11(InIr)4
_chemical_formula_sum   'Nd5 Ho11 In4 Ir4'
_cell_volume   651.88765761
_cell_formula_units_Z   1
loop_
 _symmetry_equiv_pos_site_id
 _symmetry_equiv_pos_as_xyz
  1  'x, y, z'
loop_
 _atom_site_type_symbol
 _atom_site_label
 _atom_site_symmetry_multiplicity
 _atom_site_fract_x
 _atom_site_fract_y
 _atom_site_fract_z
 _atom_site_occupancy
  Nd  Nd0  1  0.555996  0.944004  0.944004  1
  Nd  Nd1  1  0.561874  0.938091  0.559306  1
  Nd  Nd2  1  0.940728  0.559306  0.938091  1
  Nd  Nd3  1  0.561874  0.559306  0.938091  1
  Nd  Nd4  1  0.940728  0.938091  0.559306  1
  Ho  Ho5  1  0.348850  0.347107  0.347107  1
  Ho  Ho6  1  0.345611  0.350362  0.958417  1
  Ho  Ho7  1  0.345611  0.958417  0.350362  1
  Ho  Ho8  1  0.956937  0.347107  0.347107  1
  Ho  Ho9  1  0.811903  0.188097  0.188097  1
  Ho  Ho10  1  0.187908  0.812092  0.812092  1
  Ho  Ho11  1  0.189459  0.810049  0.189255  1
  Ho  Ho12  1  0.811237  0.189255  0.810049  1
  Ho  Ho13  1  0.189459  0.189255  0.810049  1
  Ho  Ho14  1  0.811237  0.810049  0.189255  1
  Ho  Ho15  1  0.946770  0.553230  0.553230  1
  In  In16  1  0.583241  0.580076  0.580076  1
  In  In17  1  0.580297  0.580340  0.259064  1
  In  In18  1  0.580297  0.259064  0.580340  1
  In  In19  1  0.256607  0.580076  0.580076  1
  Ir  Ir20  1  0.140666  0.141220  0.141220  1
  Ir  Ir21  1  0.137907  0.146731  0.577453  1
  Ir  Ir22  1  0.137907  0.577453  0.146731  1
  Ir  Ir23  1  0.576892  0.141220  0.141220  1
