# generated using pymatgen
data_Ti9V3ZnSn9
_symmetry_space_group_name_H-M   'P 1'
_cell_length_a   9.18044200
_cell_length_b   9.18044251
_cell_length_c   5.57712200
_cell_angle_alpha   90.00000000
_cell_angle_beta   90.00000000
_cell_angle_gamma   120.00000537
_symmetry_Int_Tables_number   1
_chemical_formula_structural   Ti9V3ZnSn9
_chemical_formula_sum   'Ti9 V3 Zn1 Sn9'
_cell_volume   407.06893355
_cell_formula_units_Z   1
loop_
 _symmetry_equiv_pos_site_id
 _symmetry_equiv_pos_as_xyz
  1  'x, y, z'
loop_
 _atom_site_type_symbol
 _atom_site_label
 _atom_site_symmetry_multiplicity
 _atom_site_fract_x
 _atom_site_fract_y
 _atom_site_fract_z
 _atom_site_occupancy
  Ti  Ti0  1  0.844766  0.689531  0.745909  1
  Ti  Ti1  1  0.155234  0.844766  0.254091  1
  Ti  Ti2  1  0.689531  0.844766  0.254091  1
  Ti  Ti3  1  0.310469  0.155234  0.745909  1
  Ti  Ti4  1  0.844766  0.155234  0.745909  1
  Ti  Ti5  1  0.155234  0.310469  0.254091  1
  Ti  Ti6  1  0.500000  0.500000  0.000000  1
  Ti  Ti7  1  0.000000  0.500000  0.000000  1
  Ti  Ti8  1  0.500000  0.000000  0.000000  1
  V  V9  1  0.500000  0.000000  0.500000  1
  V  V10  1  0.000000  0.500000  0.500000  1
  V  V11  1  0.500000  0.500000  0.500000  1
  Zn  Zn12  1  0.000000  0.000000  0.500000  1
  Sn  Sn13  1  0.202818  0.405635  0.745860  1
  Sn  Sn14  1  0.797182  0.202818  0.254140  1
  Sn  Sn15  1  0.405635  0.202818  0.254140  1
  Sn  Sn16  1  0.594365  0.797182  0.745860  1
  Sn  Sn17  1  0.202818  0.797182  0.745860  1
  Sn  Sn18  1  0.797182  0.594365  0.254140  1
  Sn  Sn19  1  0.666667  0.333333  0.742611  1
  Sn  Sn20  1  0.333333  0.666667  0.257389  1
  Sn  Sn21  1  0.000000  0.000000  0.000000  1
