# generated using pymatgen
data_Yb4Os(RhO4)3
_symmetry_space_group_name_H-M   'P 1'
_cell_length_a   5.25782396
_cell_length_b   5.67732813
_cell_length_c   7.62360607
_cell_angle_alpha   89.27227510
_cell_angle_beta   89.72234458
_cell_angle_gamma   90.04374151
_symmetry_Int_Tables_number   1
_chemical_formula_structural   Yb4Os(RhO4)3
_chemical_formula_sum   'Yb4 Os1 Rh3 O12'
_cell_volume   227.54652412
_cell_formula_units_Z   1
loop_
 _symmetry_equiv_pos_site_id
 _symmetry_equiv_pos_as_xyz
  1  'x, y, z'
loop_
 _atom_site_type_symbol
 _atom_site_label
 _atom_site_symmetry_multiplicity
 _atom_site_fract_x
 _atom_site_fract_y
 _atom_site_fract_z
 _atom_site_occupancy
  Yb  Yb0  1  0.027083  0.427975  0.259875  1
  Yb  Yb1  1  0.972917  0.572025  0.740125  1
  Yb  Yb2  1  0.523472  0.079203  0.740326  1
  Yb  Yb3  1  0.476528  0.920797  0.259674  1
  Os  Os4  1  0.000000  0.000000  0.000000  1
  Rh  Rh5  1  0.500000  0.500000  0.000000  1
  Rh  Rh6  1  0.000000  0.000000  0.500000  1
  Rh  Rh7  1  0.500000  0.500000  0.500000  1
  O  O8  1  0.303410  0.186852  0.053178  1
  O  O9  1  0.696590  0.813148  0.946822  1
  O  O10  1  0.819605  0.295828  0.944164  1
  O  O11  1  0.682327  0.805042  0.557297  1
  O  O12  1  0.180395  0.704172  0.055836  1
  O  O13  1  0.317673  0.194958  0.442703  1
  O  O14  1  0.185576  0.695057  0.443411  1
  O  O15  1  0.814424  0.304943  0.556589  1
  O  O16  1  0.619883  0.542140  0.250085  1
  O  O17  1  0.380117  0.457860  0.749915  1
  O  O18  1  0.108703  0.962608  0.757172  1
  O  O19  1  0.891297  0.037392  0.242828  1
