# generated using pymatgen
data_Rb3SrIr2O9
_symmetry_space_group_name_H-M   'P 1'
_cell_length_a   6.28768566
_cell_length_b   6.28768525
_cell_length_c   15.17134418
_cell_angle_alpha   89.89248514
_cell_angle_beta   89.89249466
_cell_angle_gamma   120.02689502
_symmetry_Int_Tables_number   1
_chemical_formula_structural   Rb3SrIr2O9
_chemical_formula_sum   'Rb6 Sr2 Ir4 O18'
_cell_volume   519.29660686
_cell_formula_units_Z   2
loop_
 _symmetry_equiv_pos_site_id
 _symmetry_equiv_pos_as_xyz
  1  'x, y, z'
loop_
 _atom_site_type_symbol
 _atom_site_label
 _atom_site_symmetry_multiplicity
 _atom_site_fract_x
 _atom_site_fract_y
 _atom_site_fract_z
 _atom_site_occupancy
  Rb  Rb0  1  0.338394  0.671640  0.898755  1
  Rb  Rb1  1  0.328360  0.661606  0.601245  1
  Rb  Rb2  1  0.661606  0.328360  0.101245  1
  Rb  Rb3  1  0.671640  0.338394  0.398755  1
  Rb  Rb4  1  0.998201  0.001799  0.750000  1
  Rb  Rb5  1  0.001799  0.998201  0.250000  1
  Sr  Sr6  1  0.000000  0.000000  0.500000  1
  Sr  Sr7  1  0.000000  0.000000  0.000000  1
  Ir  Ir8  1  0.669963  0.337734  0.844550  1
  Ir  Ir9  1  0.662266  0.330037  0.655450  1
  Ir  Ir10  1  0.337734  0.669963  0.344550  1
  Ir  Ir11  1  0.330037  0.662266  0.155450  1
  O  O12  1  0.820666  0.636158  0.905792  1
  O  O13  1  0.363842  0.179334  0.594208  1
  O  O14  1  0.179334  0.363842  0.094208  1
  O  O15  1  0.636158  0.820666  0.405792  1
  O  O16  1  0.820380  0.193218  0.908033  1
  O  O17  1  0.806782  0.179620  0.591967  1
  O  O18  1  0.179620  0.806782  0.091967  1
  O  O19  1  0.193218  0.820380  0.408033  1
  O  O20  1  0.377384  0.193020  0.909965  1
  O  O21  1  0.806980  0.622616  0.590035  1
  O  O22  1  0.622616  0.806980  0.090035  1
  O  O23  1  0.193020  0.377384  0.409965  1
  O  O24  1  0.463351  0.536649  0.250000  1
  O  O25  1  0.536649  0.463351  0.750000  1
  O  O26  1  0.464034  0.925731  0.248154  1
  O  O27  1  0.074269  0.535966  0.251846  1
  O  O28  1  0.535966  0.074269  0.751846  1
  O  O29  1  0.925731  0.464034  0.748154  1
