# generated using pymatgen
data_Tl(PAu)2
_symmetry_space_group_name_H-M   'P 1'
_cell_length_a   5.99324349
_cell_length_b   5.99324354
_cell_length_c   11.35627200
_cell_angle_alpha   90.00000000
_cell_angle_beta   90.00000000
_cell_angle_gamma   147.62407386
_symmetry_Int_Tables_number   1
_chemical_formula_structural   Tl(PAu)2
_chemical_formula_sum   'Tl2 P4 Au4'
_cell_volume   218.42200580
_cell_formula_units_Z   2
loop_
 _symmetry_equiv_pos_site_id
 _symmetry_equiv_pos_as_xyz
  1  'x, y, z'
loop_
 _atom_site_type_symbol
 _atom_site_label
 _atom_site_symmetry_multiplicity
 _atom_site_fract_x
 _atom_site_fract_y
 _atom_site_fract_z
 _atom_site_occupancy
  Tl  Tl0  1  0.521178  0.478822  0.750000  1
  Tl  Tl1  1  0.478822  0.521178  0.250000  1
  P  P2  1  0.798455  0.201545  0.543328  1
  P  P3  1  0.201545  0.798455  0.043328  1
  P  P4  1  0.201545  0.798455  0.456672  1
  P  P5  1  0.798455  0.201545  0.956672  1
  Au  Au6  1  0.000000  0.000000  0.000000  1
  Au  Au7  1  0.778520  0.221480  0.750000  1
  Au  Au8  1  0.000000  0.000000  0.500000  1
  Au  Au9  1  0.221480  0.778520  0.250000  1
