# generated using pymatgen
data_MoPbCl6
_symmetry_space_group_name_H-M   'P 1'
_cell_length_a   7.30699142
_cell_length_b   7.30699121
_cell_length_c   7.30699307
_cell_angle_alpha   57.07049199
_cell_angle_beta   57.07048035
_cell_angle_gamma   57.07048216
_symmetry_Int_Tables_number   1
_chemical_formula_structural   MoPbCl6
_chemical_formula_sum   'Mo1 Pb1 Cl6'
_cell_volume   257.23995122
_cell_formula_units_Z   1
loop_
 _symmetry_equiv_pos_site_id
 _symmetry_equiv_pos_as_xyz
  1  'x, y, z'
loop_
 _atom_site_type_symbol
 _atom_site_label
 _atom_site_symmetry_multiplicity
 _atom_site_fract_x
 _atom_site_fract_y
 _atom_site_fract_z
 _atom_site_occupancy
  Mo  Mo0  1  0.666793  0.666793  0.666793  1
  Pb  Pb1  1  0.333920  0.333920  0.333920  1
  Cl  Cl2  1  0.023792  0.461235  0.742217  1
  Cl  Cl3  1  0.311723  0.874214  0.586106  1
  Cl  Cl4  1  0.461235  0.742217  0.023792  1
  Cl  Cl5  1  0.586106  0.311723  0.874214  1
  Cl  Cl6  1  0.742217  0.023792  0.461235  1
  Cl  Cl7  1  0.874214  0.586106  0.311723  1
