# generated using pymatgen
data_Er2Lu8IrRu3
_symmetry_space_group_name_H-M   'P 1'
_cell_length_a   6.22096869
_cell_length_b   7.24123741
_cell_length_c   8.27741255
_cell_angle_alpha   96.98928482
_cell_angle_beta   112.13468665
_cell_angle_gamma   89.94482943
_symmetry_Int_Tables_number   1
_chemical_formula_structural   Er2Lu8IrRu3
_chemical_formula_sum   'Er2 Lu8 Ir1 Ru3'
_cell_volume   342.42061967
_cell_formula_units_Z   1
loop_
 _symmetry_equiv_pos_site_id
 _symmetry_equiv_pos_as_xyz
  1  'x, y, z'
loop_
 _atom_site_type_symbol
 _atom_site_label
 _atom_site_symmetry_multiplicity
 _atom_site_fract_x
 _atom_site_fract_y
 _atom_site_fract_z
 _atom_site_occupancy
  Er  Er0  1  0.524430  0.083983  0.813836  1
  Er  Er1  1  0.475921  0.918484  0.185037  1
  Lu  Lu2  1  0.710351  0.415716  0.183691  1
  Lu  Lu3  1  0.289962  0.583819  0.813350  1
  Lu  Lu4  1  0.293160  0.315620  0.436810  1
  Lu  Lu5  1  0.706330  0.682500  0.565016  1
  Lu  Lu6  1  0.857926  0.183560  0.564310  1
  Lu  Lu7  1  0.140593  0.817810  0.436557  1
  Lu  Lu8  1  0.080161  0.249440  0.998860  1
  Lu  Lu9  1  0.919458  0.749557  0.000022  1
  Ir  Ir10  1  0.322240  0.575653  0.221642  1
  Ru  Ru11  1  0.676624  0.424755  0.780461  1
  Ru  Ru12  1  0.103878  0.921254  0.780248  1
  Ru  Ru13  1  0.898966  0.077847  0.220159  1
