# generated using pymatgen
data_Nd3Si2IrRh2
_symmetry_space_group_name_H-M   'P 1'
_cell_length_a   5.72609400
_cell_length_b   7.78964900
_cell_length_c   15.01452600
_cell_angle_alpha   90.00000000
_cell_angle_beta   90.00000000
_cell_angle_gamma   90.00000000
_symmetry_Int_Tables_number   1
_chemical_formula_structural   Nd3Si2IrRh2
_chemical_formula_sum   'Nd12 Si8 Ir4 Rh8'
_cell_volume   669.71185753
_cell_formula_units_Z   4
loop_
 _symmetry_equiv_pos_site_id
 _symmetry_equiv_pos_as_xyz
  1  'x, y, z'
loop_
 _atom_site_type_symbol
 _atom_site_label
 _atom_site_symmetry_multiplicity
 _atom_site_fract_x
 _atom_site_fract_y
 _atom_site_fract_z
 _atom_site_occupancy
  Nd  Nd0  1  0.138066  0.472880  0.890478  1
  Nd  Nd1  1  0.361934  0.972880  0.890478  1
  Nd  Nd2  1  0.606071  0.331714  0.750000  1
  Nd  Nd3  1  0.393929  0.668286  0.250000  1
  Nd  Nd4  1  0.638066  0.027120  0.390478  1
  Nd  Nd5  1  0.861934  0.527120  0.109522  1
  Nd  Nd6  1  0.861934  0.527120  0.390478  1
  Nd  Nd7  1  0.361934  0.972880  0.609522  1
  Nd  Nd8  1  0.893929  0.831714  0.750000  1
  Nd  Nd9  1  0.138066  0.472880  0.609522  1
  Nd  Nd10  1  0.638066  0.027120  0.109522  1
  Nd  Nd11  1  0.106071  0.168286  0.250000  1
  Si  Si12  1  0.370053  0.373047  0.099062  1
  Si  Si13  1  0.629947  0.626953  0.900938  1
  Si  Si14  1  0.870053  0.126953  0.900938  1
  Si  Si15  1  0.370053  0.373047  0.400938  1
  Si  Si16  1  0.870053  0.126953  0.599062  1
  Si  Si17  1  0.629947  0.626953  0.599062  1
  Si  Si18  1  0.129947  0.873047  0.400938  1
  Si  Si19  1  0.129947  0.873047  0.099062  1
  Ir  Ir20  1  0.576654  0.321085  0.250000  1
  Ir  Ir21  1  0.076654  0.178915  0.750000  1
  Ir  Ir22  1  0.423346  0.678915  0.750000  1
  Ir  Ir23  1  0.923346  0.821085  0.250000  1
  Rh  Rh24  1  0.604653  0.338279  0.962108  1
  Rh  Rh25  1  0.395347  0.661721  0.037892  1
  Rh  Rh26  1  0.395347  0.661721  0.462108  1
  Rh  Rh27  1  0.104653  0.161721  0.462108  1
  Rh  Rh28  1  0.104653  0.161721  0.037892  1
  Rh  Rh29  1  0.604653  0.338279  0.537892  1
  Rh  Rh30  1  0.895347  0.838279  0.537892  1
  Rh  Rh31  1  0.895347  0.838279  0.962108  1
