# generated using pymatgen
data_LaCe2HfBi5
_symmetry_space_group_name_H-M   'P 1'
_cell_length_a   9.84574600
_cell_length_b   9.77955676
_cell_length_c   6.56012200
_cell_angle_alpha   90.00000000
_cell_angle_beta   90.00000000
_cell_angle_gamma   120.22414138
_symmetry_Int_Tables_number   1
_chemical_formula_structural   LaCe2HfBi5
_chemical_formula_sum   'La2 Ce4 Hf2 Bi10'
_cell_volume   545.78929524
_cell_formula_units_Z   2
loop_
 _symmetry_equiv_pos_site_id
 _symmetry_equiv_pos_as_xyz
  1  'x, y, z'
loop_
 _atom_site_type_symbol
 _atom_site_label
 _atom_site_symmetry_multiplicity
 _atom_site_fract_x
 _atom_site_fract_y
 _atom_site_fract_z
 _atom_site_occupancy
  La  La0  1  0.618332  0.000000  0.250000  1
  La  La1  1  0.381668  0.000000  0.750000  1
  Ce  Ce2  1  0.001072  0.616541  0.250000  1
  Ce  Ce3  1  0.998928  0.383459  0.750000  1
  Ce  Ce4  1  0.384530  0.383459  0.250000  1
  Ce  Ce5  1  0.615470  0.616541  0.750000  1
  Hf  Hf6  1  0.000000  0.000000  0.000000  1
  Hf  Hf7  1  0.000000  0.000000  0.500000  1
  Bi  Bi8  1  0.260913  0.000000  0.250000  1
  Bi  Bi9  1  0.739087  0.000000  0.750000  1
  Bi  Bi10  1  0.003944  0.265723  0.250000  1
  Bi  Bi11  1  0.996056  0.734277  0.750000  1
  Bi  Bi12  1  0.738221  0.734277  0.250000  1
  Bi  Bi13  1  0.261779  0.265723  0.750000  1
  Bi  Bi14  1  0.331360  0.662722  0.000000  1
  Bi  Bi15  1  0.668640  0.337278  0.000000  1
  Bi  Bi16  1  0.668640  0.337278  0.500000  1
  Bi  Bi17  1  0.331360  0.662722  0.500000  1
