# generated using pymatgen
data_Er2GaSi5AsRh12
_symmetry_space_group_name_H-M   'P 1'
_cell_length_a   9.80179732
_cell_length_b   9.85112154
_cell_length_c   3.86886569
_cell_angle_alpha   90.04698371
_cell_angle_beta   89.93331131
_cell_angle_gamma   120.21311414
_symmetry_Int_Tables_number   1
_chemical_formula_structural   Er2GaSi5AsRh12
_chemical_formula_sum   'Er2 Ga1 Si5 As1 Rh12'
_cell_volume   322.82615973
_cell_formula_units_Z   1
loop_
 _symmetry_equiv_pos_site_id
 _symmetry_equiv_pos_as_xyz
  1  'x, y, z'
loop_
 _atom_site_type_symbol
 _atom_site_label
 _atom_site_symmetry_multiplicity
 _atom_site_fract_x
 _atom_site_fract_y
 _atom_site_fract_z
 _atom_site_occupancy
  Er  Er0  1  0.673963  0.334367  0.750568  1
  Er  Er1  1  0.331053  0.666641  0.249830  1
  Ga  Ga2  1  0.999484  0.000929  0.600751  1
  Si  Si3  1  0.288082  0.886437  0.749615  1
  Si  Si4  1  0.108049  0.400242  0.749427  1
  Si  Si5  1  0.601445  0.713358  0.749579  1
  Si  Si6  1  0.708738  0.107757  0.250907  1
  Si  Si7  1  0.890290  0.599851  0.249351  1
  As  As8  1  0.405419  0.289993  0.250595  1
  Rh  Rh9  1  0.066550  0.619845  0.751416  1
  Rh  Rh10  1  0.377480  0.452847  0.750552  1
  Rh  Rh11  1  0.552368  0.930471  0.750513  1
  Rh  Rh12  1  0.935393  0.383064  0.249679  1
  Rh  Rh13  1  0.617085  0.558667  0.248993  1
  Rh  Rh14  1  0.445409  0.056450  0.249816  1
  Rh  Rh15  1  0.278227  0.122970  0.750729  1
  Rh  Rh16  1  0.870744  0.151210  0.750466  1
  Rh  Rh17  1  0.849065  0.720875  0.748225  1
  Rh  Rh18  1  0.739010  0.880720  0.250687  1
  Rh  Rh19  1  0.119883  0.857604  0.251339  1
  Rh  Rh20  1  0.142260  0.265705  0.250592  1
