# generated using pymatgen
data_Lu2Be2GaIr5
_symmetry_space_group_name_H-M   'P 1'
_cell_length_a   9.60480500
_cell_length_b   9.60480500
_cell_length_c   3.17865600
_cell_angle_alpha   90.00000000
_cell_angle_beta   90.00000000
_cell_angle_gamma   90.00000000
_symmetry_Int_Tables_number   1
_chemical_formula_structural   Lu2Be2GaIr5
_chemical_formula_sum   'Lu4 Be4 Ga2 Ir10'
_cell_volume   293.23826044
_cell_formula_units_Z   2
loop_
 _symmetry_equiv_pos_site_id
 _symmetry_equiv_pos_as_xyz
  1  'x, y, z'
loop_
 _atom_site_type_symbol
 _atom_site_label
 _atom_site_symmetry_multiplicity
 _atom_site_fract_x
 _atom_site_fract_y
 _atom_site_fract_z
 _atom_site_occupancy
  Lu  Lu0  1  0.675611  0.175611  0.000000  1
  Lu  Lu1  1  0.324389  0.824389  0.000000  1
  Lu  Lu2  1  0.175611  0.324389  0.000000  1
  Lu  Lu3  1  0.824389  0.675611  0.000000  1
  Be  Be4  1  0.123026  0.623026  0.000000  1
  Be  Be5  1  0.876974  0.376974  0.000000  1
  Be  Be6  1  0.623026  0.876974  0.000000  1
  Be  Be7  1  0.376974  0.123026  0.000000  1
  Ga  Ga8  1  0.000000  0.000000  0.000000  1
  Ga  Ga9  1  0.500000  0.500000  0.000000  1
  Ir  Ir10  1  0.211031  0.067016  0.500000  1
  Ir  Ir11  1  0.788969  0.932984  0.500000  1
  Ir  Ir12  1  0.067016  0.788969  0.500000  1
  Ir  Ir13  1  0.711031  0.432984  0.500000  1
  Ir  Ir14  1  0.932984  0.211031  0.500000  1
  Ir  Ir15  1  0.288969  0.567016  0.500000  1
  Ir  Ir16  1  0.567016  0.711031  0.500000  1
  Ir  Ir17  1  0.432984  0.288969  0.500000  1
  Ir  Ir18  1  0.500000  0.000000  0.500000  1
  Ir  Ir19  1  0.000000  0.500000  0.500000  1
