# generated using pymatgen
data_Y3Er7Cd3Ru
_symmetry_space_group_name_H-M   'P 1'
_cell_length_a   9.54874800
_cell_length_b   9.54874770
_cell_length_c   9.78494900
_cell_angle_alpha   90.00000000
_cell_angle_beta   90.00000000
_cell_angle_gamma   120.00000103
_symmetry_Int_Tables_number   1
_chemical_formula_structural   Y3Er7Cd3Ru
_chemical_formula_sum   'Y6 Er14 Cd6 Ru2'
_cell_volume   772.64863961
_cell_formula_units_Z   2
loop_
 _symmetry_equiv_pos_site_id
 _symmetry_equiv_pos_as_xyz
  1  'x, y, z'
loop_
 _atom_site_type_symbol
 _atom_site_label
 _atom_site_symmetry_multiplicity
 _atom_site_fract_x
 _atom_site_fract_y
 _atom_site_fract_z
 _atom_site_occupancy
  Y  Y0  1  0.541236  0.458764  0.250000  1
  Y  Y1  1  0.541236  0.082473  0.250000  1
  Y  Y2  1  0.917527  0.458764  0.250000  1
  Y  Y3  1  0.458764  0.541236  0.750000  1
  Y  Y4  1  0.458764  0.917527  0.750000  1
  Y  Y5  1  0.082473  0.541236  0.750000  1
  Er  Er6  1  0.000000  0.000000  0.500000  1
  Er  Er7  1  0.000000  0.000000  0.000000  1
  Er  Er8  1  0.209637  0.790363  0.440223  1
  Er  Er9  1  0.209637  0.419276  0.440223  1
  Er  Er10  1  0.580724  0.790363  0.440223  1
  Er  Er11  1  0.790363  0.209637  0.559777  1
  Er  Er12  1  0.790363  0.580724  0.559777  1
  Er  Er13  1  0.419276  0.209637  0.559777  1
  Er  Er14  1  0.790363  0.209637  0.940223  1
  Er  Er15  1  0.790363  0.580724  0.940223  1
  Er  Er16  1  0.419276  0.209637  0.940223  1
  Er  Er17  1  0.209637  0.790363  0.059777  1
  Er  Er18  1  0.209637  0.419276  0.059777  1
  Er  Er19  1  0.580724  0.790363  0.059777  1
  Cd  Cd20  1  0.885527  0.114473  0.250000  1
  Cd  Cd21  1  0.885527  0.771055  0.250000  1
  Cd  Cd22  1  0.228945  0.114473  0.250000  1
  Cd  Cd23  1  0.114473  0.885527  0.750000  1
  Cd  Cd24  1  0.114473  0.228945  0.750000  1
  Cd  Cd25  1  0.771055  0.885527  0.750000  1
  Ru  Ru26  1  0.333333  0.666667  0.250000  1
  Ru  Ru27  1  0.666667  0.333333  0.750000  1
