# generated using pymatgen
data_LiMgIn(Ni10P3)2
_symmetry_space_group_name_H-M   'P 1'
_cell_length_a   7.83298972
_cell_length_b   7.83298971
_cell_length_c   7.83298900
_cell_angle_alpha   59.99999877
_cell_angle_beta   59.99999880
_cell_angle_gamma   59.99999429
_symmetry_Int_Tables_number   1
_chemical_formula_structural   LiMgIn(Ni10P3)2
_chemical_formula_sum   'Li1 Mg1 In1 Ni20 P6'
_cell_volume   339.83460808
_cell_formula_units_Z   1
loop_
 _symmetry_equiv_pos_site_id
 _symmetry_equiv_pos_as_xyz
  1  'x, y, z'
loop_
 _atom_site_type_symbol
 _atom_site_label
 _atom_site_symmetry_multiplicity
 _atom_site_fract_x
 _atom_site_fract_y
 _atom_site_fract_z
 _atom_site_occupancy
  Li  Li0  1  0.000000  0.000000  0.000000  1
  Mg  Mg1  1  0.750000  0.750000  0.750000  1
  In  In2  1  0.250000  0.250000  0.250000  1
  Ni  Ni3  1  0.384563  0.384563  0.846311  1
  Ni  Ni4  1  0.615553  0.615553  0.615552  1
  Ni  Ni5  1  0.999087  0.349508  0.999087  1
  Ni  Ni6  1  0.349508  0.999087  0.999087  1
  Ni  Ni7  1  0.999087  0.349508  0.652319  1
  Ni  Ni8  1  0.846311  0.384563  0.384562  1
  Ni  Ni9  1  0.349508  0.999087  0.652319  1
  Ni  Ni10  1  0.999087  0.999087  0.349508  1
  Ni  Ni11  1  0.652319  0.349508  0.999087  1
  Ni  Ni12  1  0.999087  0.652319  0.349508  1
  Ni  Ni13  1  0.999087  0.999087  0.652319  1
  Ni  Ni14  1  0.349508  0.652319  0.999087  1
  Ni  Ni15  1  0.652319  0.999087  0.999087  1
  Ni  Ni16  1  0.999087  0.652319  0.999087  1
  Ni  Ni17  1  0.384563  0.846312  0.384563  1
  Ni  Ni18  1  0.615552  0.615553  0.153342  1
  Ni  Ni19  1  0.615552  0.153343  0.615552  1
  Ni  Ni20  1  0.153343  0.615553  0.615553  1
  Ni  Ni21  1  0.384562  0.384563  0.384562  1
  Ni  Ni22  1  0.652319  0.999087  0.349508  1
  P  P23  1  0.262948  0.262948  0.737052  1
  P  P24  1  0.737052  0.737052  0.262948  1
  P  P25  1  0.737052  0.262948  0.262948  1
  P  P26  1  0.262948  0.737052  0.737052  1
  P  P27  1  0.262948  0.737052  0.262948  1
  P  P28  1  0.737052  0.262948  0.737052  1
