# generated using pymatgen
data_Ho3Ga3Pd2Au
_symmetry_space_group_name_H-M   'P 1'
_cell_length_a   7.51339800
_cell_length_b   7.51339840
_cell_length_c   3.70309400
_cell_angle_alpha   90.00000000
_cell_angle_beta   90.00000000
_cell_angle_gamma   119.99999823
_symmetry_Int_Tables_number   1
_chemical_formula_structural   Ho3Ga3Pd2Au
_chemical_formula_sum   'Ho3 Ga3 Pd2 Au1'
_cell_volume   181.03735208
_cell_formula_units_Z   1
loop_
 _symmetry_equiv_pos_site_id
 _symmetry_equiv_pos_as_xyz
  1  'x, y, z'
loop_
 _atom_site_type_symbol
 _atom_site_label
 _atom_site_symmetry_multiplicity
 _atom_site_fract_x
 _atom_site_fract_y
 _atom_site_fract_z
 _atom_site_occupancy
  Ho  Ho0  1  0.992599  0.591694  0.000000  1
  Ho  Ho1  1  0.408306  0.400905  0.000000  1
  Ho  Ho2  1  0.599095  0.007401  0.000000  1
  Ga  Ga3  1  0.742723  0.738665  0.500000  1
  Ga  Ga4  1  0.995943  0.257277  0.500000  1
  Ga  Ga5  1  0.261335  0.004057  0.500000  1
  Pd  Pd6  1  0.000000  0.000000  0.000000  1
  Pd  Pd7  1  0.666667  0.333333  0.500000  1
  Au  Au8  1  0.333333  0.666667  0.500000  1
