# generated using pymatgen
data_Cs16TiSnSb8
_symmetry_space_group_name_H-M   'P 1'
_cell_length_a   12.54607057
_cell_length_b   12.54607076
_cell_length_c   12.54607000
_cell_angle_alpha   60.00000202
_cell_angle_beta   60.00000151
_cell_angle_gamma   59.99999999
_symmetry_Int_Tables_number   1
_chemical_formula_structural   Cs16TiSnSb8
_chemical_formula_sum   'Cs16 Ti1 Sn1 Sb8'
_cell_volume   1396.39465900
_cell_formula_units_Z   1
loop_
 _symmetry_equiv_pos_site_id
 _symmetry_equiv_pos_as_xyz
  1  'x, y, z'
loop_
 _atom_site_type_symbol
 _atom_site_label
 _atom_site_symmetry_multiplicity
 _atom_site_fract_x
 _atom_site_fract_y
 _atom_site_fract_z
 _atom_site_occupancy
  Cs  Cs0  1  0.624549  0.126353  0.624549  1
  Cs  Cs1  1  0.624549  0.624549  0.126353  1
  Cs  Cs2  1  0.126353  0.624549  0.624549  1
  Cs  Cs3  1  0.624549  0.624549  0.624549  1
  Cs  Cs4  1  0.023367  0.023367  0.476633  1
  Cs  Cs5  1  0.774372  0.225628  0.225628  1
  Cs  Cs6  1  0.225628  0.774372  0.774372  1
  Cs  Cs7  1  0.774372  0.774372  0.225628  1
  Cs  Cs8  1  0.774372  0.225628  0.774372  1
  Cs  Cs9  1  0.225628  0.774372  0.225628  1
  Cs  Cs10  1  0.476633  0.023367  0.476633  1
  Cs  Cs11  1  0.476633  0.023367  0.023367  1
  Cs  Cs12  1  0.023367  0.476633  0.476633  1
  Cs  Cs13  1  0.023367  0.476633  0.023367  1
  Cs  Cs14  1  0.225628  0.225628  0.774372  1
  Cs  Cs15  1  0.476633  0.476633  0.023367  1
  Ti  Ti16  1  0.750000  0.750000  0.750000  1
  Sn  Sn17  1  0.500000  0.500000  0.500000  1
  Sb  Sb18  1  0.402008  0.793977  0.402008  1
  Sb  Sb19  1  0.841390  0.841390  0.475831  1
  Sb  Sb20  1  0.475831  0.841390  0.841390  1
  Sb  Sb21  1  0.841390  0.841390  0.841390  1
  Sb  Sb22  1  0.793977  0.402008  0.402008  1
  Sb  Sb23  1  0.402008  0.402008  0.402008  1
  Sb  Sb24  1  0.402008  0.402008  0.793977  1
  Sb  Sb25  1  0.841390  0.475831  0.841390  1
