# generated using pymatgen
data_Tb12Co2PdRh
_symmetry_space_group_name_H-M   'P 1'
_cell_length_a   6.33416449
_cell_length_b   7.08095450
_cell_length_c   9.53559700
_cell_angle_alpha   90.00000000
_cell_angle_beta   90.00000000
_cell_angle_gamma   90.55914964
_symmetry_Int_Tables_number   1
_chemical_formula_structural   Tb12Co2PdRh
_chemical_formula_sum   'Tb12 Co2 Pd1 Rh1'
_cell_volume   427.66956814
_cell_formula_units_Z   1
loop_
 _symmetry_equiv_pos_site_id
 _symmetry_equiv_pos_as_xyz
  1  'x, y, z'
loop_
 _atom_site_type_symbol
 _atom_site_label
 _atom_site_symmetry_multiplicity
 _atom_site_fract_x
 _atom_site_fract_y
 _atom_site_fract_z
 _atom_site_occupancy
  Tb  Tb0  1  0.331813  0.668627  0.065180  1
  Tb  Tb1  1  0.175711  0.187693  0.438284  1
  Tb  Tb2  1  0.675188  0.327836  0.566665  1
  Tb  Tb3  1  0.824226  0.818879  0.933951  1
  Tb  Tb4  1  0.675188  0.327836  0.933335  1
  Tb  Tb5  1  0.824226  0.818879  0.566049  1
  Tb  Tb6  1  0.331813  0.668627  0.434820  1
  Tb  Tb7  1  0.175711  0.187693  0.061716  1
  Tb  Tb8  1  0.852743  0.520260  0.250000  1
  Tb  Tb9  1  0.618945  0.045480  0.250000  1
  Tb  Tb10  1  0.144254  0.469314  0.750000  1
  Tb  Tb11  1  0.372801  0.955403  0.750000  1
  Co  Co12  1  0.438604  0.385197  0.250000  1
  Co  Co13  1  0.556058  0.614767  0.750000  1
  Pd  Pd14  1  0.053539  0.889572  0.250000  1
  Rh  Rh15  1  0.949178  0.113938  0.750000  1
