# generated using pymatgen
data_Nd3Al12Os2PtRh
_symmetry_space_group_name_H-M   'P 1'
_cell_length_a   8.96687908
_cell_length_b   8.90667574
_cell_length_c   9.66027030
_cell_angle_alpha   90.00000098
_cell_angle_beta   89.94838063
_cell_angle_gamma   119.77816391
_symmetry_Int_Tables_number   1
_chemical_formula_structural   Nd3Al12Os2PtRh
_chemical_formula_sum   'Nd6 Al24 Os4 Pt2 Rh2'
_cell_volume   669.64264785
_cell_formula_units_Z   2
loop_
 _symmetry_equiv_pos_site_id
 _symmetry_equiv_pos_as_xyz
  1  'x, y, z'
loop_
 _atom_site_type_symbol
 _atom_site_label
 _atom_site_symmetry_multiplicity
 _atom_site_fract_x
 _atom_site_fract_y
 _atom_site_fract_z
 _atom_site_occupancy
  Nd  Nd0  1  0.187453  0.382659  0.250600  1
  Nd  Nd1  1  0.812547  0.617341  0.749400  1
  Nd  Nd2  1  0.620506  0.810253  0.249121  1
  Nd  Nd3  1  0.379494  0.189747  0.750879  1
  Nd  Nd4  1  0.187453  0.804794  0.250600  1
  Nd  Nd5  1  0.812547  0.195206  0.749400  1
  Al  Al6  1  0.328926  0.664463  0.022649  1
  Al  Al7  1  0.671074  0.335537  0.977351  1
  Al  Al8  1  0.667620  0.333810  0.522569  1
  Al  Al9  1  0.332380  0.666190  0.477431  1
  Al  Al10  1  0.162976  0.328365  0.574174  1
  Al  Al11  1  0.837024  0.671635  0.425826  1
  Al  Al12  1  0.673821  0.836910  0.573404  1
  Al  Al13  1  0.841261  0.673299  0.076206  1
  Al  Al14  1  0.326179  0.163090  0.426596  1
  Al  Al15  1  0.158739  0.326701  0.923794  1
  Al  Al16  1  0.162976  0.834611  0.574174  1
  Al  Al17  1  0.324546  0.162273  0.076151  1
  Al  Al18  1  0.837024  0.165389  0.425826  1
  Al  Al19  1  0.675454  0.837727  0.923849  1
  Al  Al20  1  0.841261  0.167962  0.076206  1
  Al  Al21  1  0.158739  0.832038  0.923794  1
  Al  Al22  1  0.562894  0.125956  0.252942  1
  Al  Al23  1  0.437106  0.874044  0.747058  1
  Al  Al24  1  0.872703  0.436352  0.249982  1
  Al  Al25  1  0.127297  0.563648  0.750018  1
  Al  Al26  1  0.562894  0.436939  0.252942  1
  Al  Al27  1  0.437106  0.563061  0.747058  1
  Al  Al28  1  0.997136  0.998568  0.250168  1
  Al  Al29  1  0.002864  0.001432  0.749832  1
  Os  Os30  1  0.000000  0.500000  0.000000  1
  Os  Os31  1  0.000000  0.500000  0.500000  1
  Os  Os32  1  0.000000  0.000000  0.000000  1
  Os  Os33  1  0.000000  0.000000  0.500000  1
  Pt  Pt34  1  0.500000  0.000000  0.000000  1
  Pt  Pt35  1  0.500000  0.500000  0.000000  1
  Rh  Rh36  1  0.500000  0.000000  0.500000  1
  Rh  Rh37  1  0.500000  0.500000  0.500000  1
