# generated using pymatgen
data_Lu5C2O3
_symmetry_space_group_name_H-M   'P 1'
_cell_length_a   5.82319432
_cell_length_b   5.81831510
_cell_length_c   7.46361700
_cell_angle_alpha   129.46338881
_cell_angle_beta   129.50530374
_cell_angle_gamma   48.56534721
_symmetry_Int_Tables_number   1
_chemical_formula_structural   Lu5C2O3
_chemical_formula_sum   'Lu5 C2 O3'
_cell_volume   135.83741558
_cell_formula_units_Z   1
loop_
 _symmetry_equiv_pos_site_id
 _symmetry_equiv_pos_as_xyz
  1  'x, y, z'
loop_
 _atom_site_type_symbol
 _atom_site_label
 _atom_site_symmetry_multiplicity
 _atom_site_fract_x
 _atom_site_fract_y
 _atom_site_fract_z
 _atom_site_occupancy
  Lu  Lu0  1  0.332441  0.978508  0.149161  1
  Lu  Lu1  1  0.716806  0.363175  0.336837  1
  Lu  Lu2  1  0.919271  0.565862  0.934856  1
  Lu  Lu3  1  0.129875  0.775952  0.551213  1
  Lu  Lu4  1  0.524616  0.170806  0.742972  1
  C  C5  1  0.427886  0.074227  0.946541  1
  C  C6  1  0.621251  0.267721  0.539613  1
  O  O7  1  0.024612  0.670825  0.742973  1
  O  O8  1  0.229228  0.875979  0.345715  1
  O  O9  1  0.819371  0.466076  0.140001  1
