# generated using pymatgen
data_Hf16AlCo4Re3
_symmetry_space_group_name_H-M   'P 1'
_cell_length_a   8.65204045
_cell_length_b   8.67139281
_cell_length_c   8.67139400
_cell_angle_alpha   60.00000309
_cell_angle_beta   59.92598472
_cell_angle_gamma   59.92598736
_symmetry_Int_Tables_number   1
_chemical_formula_structural   Hf16AlCo4Re3
_chemical_formula_sum   'Hf16 Al1 Co4 Re3'
_cell_volume   459.50958162
_cell_formula_units_Z   1
loop_
 _symmetry_equiv_pos_site_id
 _symmetry_equiv_pos_as_xyz
  1  'x, y, z'
loop_
 _atom_site_type_symbol
 _atom_site_label
 _atom_site_symmetry_multiplicity
 _atom_site_fract_x
 _atom_site_fract_y
 _atom_site_fract_z
 _atom_site_occupancy
  Hf  Hf0  1  0.694948  0.101684  0.101684  1
  Hf  Hf1  1  0.103708  0.697724  0.099284  1
  Hf  Hf2  1  0.103708  0.099284  0.697724  1
  Hf  Hf3  1  0.103708  0.099284  0.099284  1
  Hf  Hf4  1  0.312071  0.314735  0.686597  1
  Hf  Hf5  1  0.674815  0.696718  0.314234  1
  Hf  Hf6  1  0.312071  0.686597  0.314735  1
  Hf  Hf7  1  0.674815  0.314234  0.696718  1
  Hf  Hf8  1  0.674815  0.314234  0.314234  1
  Hf  Hf9  1  0.312071  0.686597  0.686597  1
  Hf  Hf10  1  0.952416  0.941677  0.552953  1
  Hf  Hf11  1  0.547685  0.545672  0.953321  1
  Hf  Hf12  1  0.952416  0.552953  0.941677  1
  Hf  Hf13  1  0.547685  0.953321  0.545672  1
  Hf  Hf14  1  0.547685  0.953321  0.953321  1
  Hf  Hf15  1  0.952416  0.552953  0.552953  1
  Al  Al16  1  0.022764  0.325745  0.325745  1
  Co  Co17  1  0.328454  0.890515  0.890515  1
  Co  Co18  1  0.892871  0.327223  0.889953  1
  Co  Co19  1  0.892871  0.889953  0.327223  1
  Co  Co20  1  0.892871  0.889953  0.889953  1
  Re  Re21  1  0.334379  0.999964  0.332829  1
  Re  Re22  1  0.334379  0.332829  0.999964  1
  Re  Re23  1  0.334379  0.332829  0.332829  1
