# generated using pymatgen
data_TbCdRh2O7
_symmetry_space_group_name_H-M   'P 1'
_cell_length_a   7.24199639
_cell_length_b   7.24199711
_cell_length_c   7.37566300
_cell_angle_alpha   59.38754882
_cell_angle_beta   59.38754543
_cell_angle_gamma   59.19171106
_symmetry_Int_Tables_number   1
_chemical_formula_structural   TbCdRh2O7
_chemical_formula_sum   'Tb2 Cd2 Rh4 O14'
_cell_volume   269.30591374
_cell_formula_units_Z   2
loop_
 _symmetry_equiv_pos_site_id
 _symmetry_equiv_pos_as_xyz
  1  'x, y, z'
loop_
 _atom_site_type_symbol
 _atom_site_label
 _atom_site_symmetry_multiplicity
 _atom_site_fract_x
 _atom_site_fract_y
 _atom_site_fract_z
 _atom_site_occupancy
  Tb  Tb0  1  0.125000  0.125000  0.125000  1
  Tb  Tb1  1  0.125000  0.125000  0.625000  1
  Cd  Cd2  1  0.125000  0.625000  0.125000  1
  Cd  Cd3  1  0.625000  0.125000  0.125000  1
  Rh  Rh4  1  0.625000  0.625000  0.625000  1
  Rh  Rh5  1  0.625000  0.625000  0.125000  1
  Rh  Rh6  1  0.125000  0.625000  0.625000  1
  Rh  Rh7  1  0.625000  0.125000  0.625000  1
  O  O8  1  0.252045  0.252045  0.247955  1
  O  O9  1  0.294286  0.710578  0.297135  1
  O  O10  1  0.961350  0.961350  0.538650  1
  O  O11  1  0.539422  0.955714  0.551999  1
  O  O12  1  0.699910  0.699910  0.300090  1
  O  O13  1  0.955714  0.539422  0.551999  1
  O  O14  1  0.710578  0.294286  0.698001  1
  O  O15  1  0.288650  0.288650  0.711350  1
  O  O16  1  0.710578  0.294286  0.297135  1
  O  O17  1  0.294286  0.710578  0.698001  1
  O  O18  1  0.955714  0.539422  0.952865  1
  O  O19  1  0.550090  0.550090  0.949910  1
  O  O20  1  0.997955  0.997955  0.002045  1
  O  O21  1  0.539422  0.955714  0.952865  1
