# generated using pymatgen
data_Y3Ho2(CoB3)2
_symmetry_space_group_name_H-M   'P 1'
_cell_length_a   5.42343957
_cell_length_b   5.42343930
_cell_length_c   8.35907877
_cell_angle_alpha   71.07051700
_cell_angle_beta   71.07051983
_cell_angle_gamma   59.99998723
_symmetry_Int_Tables_number   1
_chemical_formula_structural   Y3Ho2(CoB3)2
_chemical_formula_sum   'Y3 Ho2 Co2 B6'
_cell_volume   197.42750047
_cell_formula_units_Z   1
loop_
 _symmetry_equiv_pos_site_id
 _symmetry_equiv_pos_as_xyz
  1  'x, y, z'
loop_
 _atom_site_type_symbol
 _atom_site_label
 _atom_site_symmetry_multiplicity
 _atom_site_fract_x
 _atom_site_fract_y
 _atom_site_fract_z
 _atom_site_occupancy
  Y  Y0  1  0.000000  0.000000  0.000000  1
  Y  Y1  1  0.251988  0.251988  0.244037  1
  Y  Y2  1  0.748012  0.748012  0.755963  1
  Ho  Ho3  1  0.416772  0.416772  0.749681  1
  Ho  Ho4  1  0.583228  0.583228  0.250319  1
  Co  Co5  1  0.120446  0.120446  0.638662  1
  Co  Co6  1  0.879554  0.879554  0.361338  1
  B  B7  1  0.168793  0.831207  0.500000  1
  B  B8  1  0.831207  0.500000  0.500000  1
  B  B9  1  0.500000  0.168793  0.500000  1
  B  B10  1  0.168793  0.500000  0.500000  1
  B  B11  1  0.500000  0.831207  0.500000  1
  B  B12  1  0.831207  0.168793  0.500000  1
