# generated using pymatgen
data_Yb(AuBr4)2
_symmetry_space_group_name_H-M   'P 1'
_cell_length_a   8.82034600
_cell_length_b   7.84916353
_cell_length_c   15.10849394
_cell_angle_alpha   96.27129285
_cell_angle_beta   90.00000000
_cell_angle_gamma   90.00000000
_symmetry_Int_Tables_number   1
_chemical_formula_structural   Yb(AuBr4)2
_chemical_formula_sum   'Yb2 Au4 Br16'
_cell_volume   1039.73692113
_cell_formula_units_Z   2
loop_
 _symmetry_equiv_pos_site_id
 _symmetry_equiv_pos_as_xyz
  1  'x, y, z'
loop_
 _atom_site_type_symbol
 _atom_site_label
 _atom_site_symmetry_multiplicity
 _atom_site_fract_x
 _atom_site_fract_y
 _atom_site_fract_z
 _atom_site_occupancy
  Yb  Yb0  1  0.822750  0.109928  0.809197  1
  Yb  Yb1  1  0.177250  0.109928  0.309197  1
  Au  Au2  1  0.032481  0.174773  0.568838  1
  Au  Au3  1  0.967519  0.174773  0.068838  1
  Au  Au4  1  0.570361  0.674570  0.797894  1
  Au  Au5  1  0.429639  0.674570  0.297894  1
  Br  Br6  1  0.298331  0.613576  0.778641  1
  Br  Br7  1  0.701669  0.613576  0.278641  1
  Br  Br8  1  0.848865  0.734701  0.806148  1
  Br  Br9  1  0.151135  0.734701  0.306148  1
  Br  Br10  1  0.944496  0.280114  0.428967  1
  Br  Br11  1  0.055504  0.280114  0.928967  1
  Br  Br12  1  0.724237  0.081419  0.996627  1
  Br  Br13  1  0.275763  0.081419  0.496627  1
  Br  Br14  1  0.793831  0.274603  0.642983  1
  Br  Br15  1  0.206169  0.274603  0.142983  1
  Br  Br16  1  0.601479  0.398922  0.861796  1
  Br  Br17  1  0.398521  0.398922  0.361796  1
  Br  Br18  1  0.527593  0.965025  0.753416  1
  Br  Br19  1  0.472407  0.965025  0.253416  1
  Br  Br20  1  0.887529  0.059769  0.207695  1
  Br  Br21  1  0.112471  0.059769  0.707695  1
