# generated using pymatgen
data_SrFeB2O5
_symmetry_space_group_name_H-M   'P 1'
_cell_length_a   5.51093600
_cell_length_b   6.61143468
_cell_length_c   12.06068786
_cell_angle_alpha   78.10385550
_cell_angle_beta   90.00000000
_cell_angle_gamma   90.00000000
_symmetry_Int_Tables_number   1
_chemical_formula_structural   SrFeB2O5
_chemical_formula_sum   'Sr4 Fe4 B8 O20'
_cell_volume   429.99571916
_cell_formula_units_Z   4
loop_
 _symmetry_equiv_pos_site_id
 _symmetry_equiv_pos_as_xyz
  1  'x, y, z'
loop_
 _atom_site_type_symbol
 _atom_site_label
 _atom_site_symmetry_multiplicity
 _atom_site_fract_x
 _atom_site_fract_y
 _atom_site_fract_z
 _atom_site_occupancy
  Sr  Sr0  1  0.610984  0.823253  0.685907  1
  Sr  Sr1  1  0.110984  0.176747  0.814093  1
  Sr  Sr2  1  0.389016  0.176747  0.314093  1
  Sr  Sr3  1  0.889016  0.823253  0.185907  1
  Fe  Fe4  1  0.590636  0.346943  0.608669  1
  Fe  Fe5  1  0.090636  0.653057  0.891331  1
  Fe  Fe6  1  0.409364  0.653057  0.391331  1
  Fe  Fe7  1  0.909364  0.346943  0.108669  1
  B  B8  1  0.629024  0.353541  0.884885  1
  B  B9  1  0.129024  0.646459  0.615115  1
  B  B10  1  0.370976  0.646459  0.115115  1
  B  B11  1  0.870976  0.353541  0.384885  1
  B  B12  1  0.090064  0.177868  0.569362  1
  B  B13  1  0.590064  0.822132  0.930638  1
  B  B14  1  0.909936  0.822132  0.430638  1
  B  B15  1  0.409936  0.177868  0.069362  1
  O  O16  1  0.345510  0.613319  0.564883  1
  O  O17  1  0.845510  0.386681  0.935117  1
  O  O18  1  0.654490  0.386681  0.435117  1
  O  O19  1  0.154490  0.613319  0.064883  1
  O  O20  1  0.592787  0.390226  0.771114  1
  O  O21  1  0.092787  0.609774  0.728886  1
  O  O22  1  0.407213  0.609774  0.228886  1
  O  O23  1  0.907213  0.390226  0.271114  1
  O  O24  1  0.884971  0.143438  0.634357  1
  O  O25  1  0.384971  0.856562  0.865643  1
  O  O26  1  0.115029  0.856562  0.365643  1
  O  O27  1  0.615029  0.143438  0.134357  1
  O  O28  1  0.922693  0.723517  0.547293  1
  O  O29  1  0.422693  0.276483  0.952707  1
  O  O30  1  0.077307  0.276483  0.452707  1
  O  O31  1  0.577307  0.723517  0.047293  1
  O  O32  1  0.314544  0.124502  0.615069  1
  O  O33  1  0.814544  0.875498  0.884931  1
  O  O34  1  0.685456  0.875498  0.384931  1
  O  O35  1  0.185456  0.124502  0.115069  1
