# generated using pymatgen
data_La8Dy9Si16Ag3
_symmetry_space_group_name_H-M   'P 1'
_cell_length_a   7.29411000
_cell_length_b   7.81210693
_cell_length_c   14.85609200
_cell_angle_alpha   90.00000000
_cell_angle_beta   90.00000000
_cell_angle_gamma   89.83618244
_symmetry_Int_Tables_number   1
_chemical_formula_structural   La8Dy9Si16Ag3
_chemical_formula_sum   'La8 Dy9 Si16 Ag3'
_cell_volume   846.53183068
_cell_formula_units_Z   1
loop_
 _symmetry_equiv_pos_site_id
 _symmetry_equiv_pos_as_xyz
  1  'x, y, z'
loop_
 _atom_site_type_symbol
 _atom_site_label
 _atom_site_symmetry_multiplicity
 _atom_site_fract_x
 _atom_site_fract_y
 _atom_site_fract_z
 _atom_site_occupancy
  La  La0  1  0.975173  0.816165  0.105007  1
  La  La1  1  0.475912  0.686497  0.396881  1
  La  La2  1  0.528298  0.325918  0.899336  1
  La  La3  1  0.016335  0.187402  0.599478  1
  La  La4  1  0.016335  0.187402  0.900522  1
  La  La5  1  0.528298  0.325918  0.600664  1
  La  La6  1  0.475912  0.686497  0.103119  1
  La  La7  1  0.975173  0.816165  0.394993  1
  Dy  Dy8  1  0.351476  0.005772  0.750000  1
  Dy  Dy9  1  0.684751  0.809959  0.874699  1
  Dy  Dy10  1  0.168323  0.674628  0.625463  1
  Dy  Dy11  1  0.822637  0.316054  0.128554  1
  Dy  Dy12  1  0.326125  0.179411  0.373250  1
  Dy  Dy13  1  0.326125  0.179411  0.126750  1
  Dy  Dy14  1  0.822637  0.316054  0.371446  1
  Dy  Dy15  1  0.168323  0.674628  0.874537  1
  Dy  Dy16  1  0.684751  0.809959  0.625301  1
  Si  Si17  1  0.767562  0.610206  0.250000  1
  Si  Si18  1  0.270397  0.889506  0.250000  1
  Si  Si19  1  0.726569  0.110231  0.750000  1
  Si  Si20  1  0.231707  0.381679  0.750000  1
  Si  Si21  1  0.024198  0.094133  0.250000  1
  Si  Si22  1  0.520096  0.406569  0.250000  1
  Si  Si23  1  0.468387  0.609639  0.750000  1
  Si  Si24  1  0.977359  0.905968  0.750000  1
  Si  Si25  1  0.852484  0.536307  0.972250  1
  Si  Si26  1  0.354695  0.971568  0.540033  1
  Si  Si27  1  0.650786  0.035126  0.031266  1
  Si  Si28  1  0.150318  0.464785  0.463714  1
  Si  Si29  1  0.150318  0.464785  0.036286  1
  Si  Si30  1  0.650786  0.035126  0.468734  1
  Si  Si31  1  0.354695  0.971568  0.959967  1
  Si  Si32  1  0.852484  0.536307  0.527750  1
  Ag  Ag33  1  0.649819  0.983792  0.250000  1
  Ag  Ag34  1  0.149851  0.512907  0.250000  1
  Ag  Ag35  1  0.850910  0.481957  0.750000  1
