# generated using pymatgen
data_YHf(InPt)2
_symmetry_space_group_name_H-M   'P 1'
_cell_length_a   7.66061400
_cell_length_b   7.66061198
_cell_length_c   7.37652600
_cell_angle_alpha   90.00000000
_cell_angle_beta   90.00000000
_cell_angle_gamma   120.00000872
_symmetry_Int_Tables_number   1
_chemical_formula_structural   YHf(InPt)2
_chemical_formula_sum   'Y3 Hf3 In6 Pt6'
_cell_volume   374.89488599
_cell_formula_units_Z   3
loop_
 _symmetry_equiv_pos_site_id
 _symmetry_equiv_pos_as_xyz
  1  'x, y, z'
loop_
 _atom_site_type_symbol
 _atom_site_label
 _atom_site_symmetry_multiplicity
 _atom_site_fract_x
 _atom_site_fract_y
 _atom_site_fract_z
 _atom_site_occupancy
  Y  Y0  1  0.595585  0.999792  0.750000  1
  Y  Y1  1  0.404207  0.404415  0.750000  1
  Y  Y2  1  0.000208  0.595793  0.750000  1
  Hf  Hf3  1  0.394741  0.394418  0.250000  1
  Hf  Hf4  1  0.999677  0.605259  0.250000  1
  Hf  Hf5  1  0.605582  0.000323  0.250000  1
  In  In6  1  0.268069  0.999770  0.007012  1
  In  In7  1  0.268069  0.999770  0.492988  1
  In  In8  1  0.000230  0.268299  0.492988  1
  In  In9  1  0.000230  0.268299  0.007012  1
  In  In10  1  0.731701  0.731931  0.007012  1
  In  In11  1  0.731701  0.731931  0.492988  1
  Pt  Pt12  1  0.666667  0.333333  0.463400  1
  Pt  Pt13  1  0.000000  0.000000  0.750000  1
  Pt  Pt14  1  0.666667  0.333333  0.036600  1
  Pt  Pt15  1  0.333333  0.666667  0.037411  1
  Pt  Pt16  1  0.333333  0.666667  0.462589  1
  Pt  Pt17  1  0.000000  0.000000  0.250000  1
