# generated using pymatgen
data_Zr12Al9Pt3N4
_symmetry_space_group_name_H-M   'P 1'
_cell_length_a   8.64998108
_cell_length_b   8.64998297
_cell_length_c   8.64998235
_cell_angle_alpha   60.07684067
_cell_angle_beta   60.07683663
_cell_angle_gamma   60.07683391
_symmetry_Int_Tables_number   1
_chemical_formula_structural   Zr12Al9Pt3N4
_chemical_formula_sum   'Zr12 Al9 Pt3 N4'
_cell_volume   458.44388901
_cell_formula_units_Z   1
loop_
 _symmetry_equiv_pos_site_id
 _symmetry_equiv_pos_as_xyz
  1  'x, y, z'
loop_
 _atom_site_type_symbol
 _atom_site_label
 _atom_site_symmetry_multiplicity
 _atom_site_fract_x
 _atom_site_fract_y
 _atom_site_fract_z
 _atom_site_occupancy
  Zr  Zr0  1  0.814752  0.185577  0.185577  1
  Zr  Zr1  1  0.185577  0.814752  0.185577  1
  Zr  Zr2  1  0.813706  0.813706  0.185104  1
  Zr  Zr3  1  0.185104  0.813706  0.813706  1
  Zr  Zr4  1  0.813706  0.185104  0.813706  1
  Zr  Zr5  1  0.185577  0.185577  0.814752  1
  Zr  Zr6  1  0.435248  0.064423  0.064423  1
  Zr  Zr7  1  0.064423  0.435248  0.064423  1
  Zr  Zr8  1  0.436294  0.436294  0.064896  1
  Zr  Zr9  1  0.064896  0.436294  0.436294  1
  Zr  Zr10  1  0.436294  0.064896  0.436294  1
  Zr  Zr11  1  0.064423  0.064423  0.435248  1
  Al  Al12  1  0.413176  0.413176  0.745770  1
  Al  Al13  1  0.418257  0.418257  0.418257  1
  Al  Al14  1  0.745770  0.413176  0.413176  1
  Al  Al15  1  0.413176  0.745770  0.413176  1
  Al  Al16  1  0.836824  0.836824  0.504230  1
  Al  Al17  1  0.831743  0.831743  0.831743  1
  Al  Al18  1  0.504230  0.836824  0.836824  1
  Al  Al19  1  0.836824  0.504230  0.836824  1
  Al  Al20  1  0.625000  0.625000  0.625000  1
  Pt  Pt21  1  0.625000  0.625000  0.125000  1
  Pt  Pt22  1  0.125000  0.625000  0.625000  1
  Pt  Pt23  1  0.625000  0.125000  0.625000  1
  N  N24  1  0.125000  0.125000  0.625000  1
  N  N25  1  0.125000  0.125000  0.125000  1
  N  N26  1  0.625000  0.125000  0.125000  1
  N  N27  1  0.125000  0.625000  0.125000  1
