# generated using pymatgen
data_Pr(TcO4)3
_symmetry_space_group_name_H-M   'P 1'
_cell_length_a   10.31888200
_cell_length_b   10.31888068
_cell_length_c   6.39672300
_cell_angle_alpha   90.00000000
_cell_angle_beta   90.00000000
_cell_angle_gamma   119.99999783
_symmetry_Int_Tables_number   1
_chemical_formula_structural   Pr(TcO4)3
_chemical_formula_sum   'Pr2 Tc6 O24'
_cell_volume   589.86607941
_cell_formula_units_Z   2
loop_
 _symmetry_equiv_pos_site_id
 _symmetry_equiv_pos_as_xyz
  1  'x, y, z'
loop_
 _atom_site_type_symbol
 _atom_site_label
 _atom_site_symmetry_multiplicity
 _atom_site_fract_x
 _atom_site_fract_y
 _atom_site_fract_z
 _atom_site_occupancy
  Pr  Pr0  1  0.666667  0.333333  0.750000  1
  Pr  Pr1  1  0.333333  0.666667  0.250000  1
  Tc  Tc2  1  0.089864  0.393128  0.750000  1
  Tc  Tc3  1  0.393128  0.303265  0.250000  1
  Tc  Tc4  1  0.606872  0.696735  0.750000  1
  Tc  Tc5  1  0.910136  0.606872  0.250000  1
  Tc  Tc6  1  0.303265  0.910136  0.750000  1
  Tc  Tc7  1  0.696735  0.089864  0.250000  1
  O  O8  1  0.492523  0.647757  0.527910  1
  O  O9  1  0.352243  0.844766  0.527910  1
  O  O10  1  0.844929  0.730189  0.250000  1
  O  O11  1  0.114739  0.844929  0.750000  1
  O  O12  1  0.269811  0.114739  0.250000  1
  O  O13  1  0.155071  0.269811  0.750000  1
  O  O14  1  0.507477  0.352243  0.027910  1
  O  O15  1  0.885261  0.155071  0.250000  1
  O  O16  1  0.105485  0.703008  0.250000  1
  O  O17  1  0.155234  0.507477  0.972090  1
  O  O18  1  0.155234  0.507477  0.527910  1
  O  O19  1  0.894515  0.296992  0.750000  1
  O  O20  1  0.296992  0.402476  0.250000  1
  O  O21  1  0.703008  0.597524  0.750000  1
  O  O22  1  0.844766  0.492523  0.472090  1
  O  O23  1  0.402476  0.105485  0.750000  1
  O  O24  1  0.647757  0.155234  0.027910  1
  O  O25  1  0.492523  0.647757  0.972090  1
  O  O26  1  0.352243  0.844766  0.972090  1
  O  O27  1  0.647757  0.155234  0.472090  1
  O  O28  1  0.507477  0.352243  0.472090  1
  O  O29  1  0.844766  0.492523  0.027910  1
  O  O30  1  0.730189  0.885261  0.750000  1
  O  O31  1  0.597524  0.894515  0.250000  1
