# generated using pymatgen
data_Er5HfAl18
_symmetry_space_group_name_H-M   'P 1'
_cell_length_a   14.47995910
_cell_length_b   14.47995915
_cell_length_c   14.47996060
_cell_angle_alpha   24.19887941
_cell_angle_beta   24.19887753
_cell_angle_gamma   24.19888125
_symmetry_Int_Tables_number   1
_chemical_formula_structural   Er5HfAl18
_chemical_formula_sum   'Er5 Hf1 Al18'
_cell_volume   448.33635296
_cell_formula_units_Z   1
loop_
 _symmetry_equiv_pos_site_id
 _symmetry_equiv_pos_as_xyz
  1  'x, y, z'
loop_
 _atom_site_type_symbol
 _atom_site_label
 _atom_site_symmetry_multiplicity
 _atom_site_fract_x
 _atom_site_fract_y
 _atom_site_fract_z
 _atom_site_occupancy
  Er  Er0  1  0.889593  0.889593  0.889593  1
  Er  Er1  1  0.390608  0.390608  0.390608  1
  Er  Er2  1  0.999696  0.999696  0.999696  1
  Er  Er3  1  0.500122  0.500122  0.500122  1
  Er  Er4  1  0.609609  0.609609  0.609609  1
  Hf  Hf5  1  0.110166  0.110166  0.110166  1
  Al  Al6  1  0.919781  0.372738  0.372738  1
  Al  Al7  1  0.414562  0.876881  0.876881  1
  Al  Al8  1  0.372738  0.372738  0.919781  1
  Al  Al9  1  0.876881  0.876881  0.414562  1
  Al  Al10  1  0.372738  0.919781  0.372738  1
  Al  Al11  1  0.876881  0.414562  0.876881  1
  Al  Al12  1  0.580179  0.126743  0.126743  1
  Al  Al13  1  0.084159  0.625247  0.625247  1
  Al  Al14  1  0.126743  0.126743  0.580179  1
  Al  Al15  1  0.625247  0.625247  0.084159  1
  Al  Al16  1  0.126743  0.580179  0.126743  1
  Al  Al17  1  0.625247  0.084159  0.625247  1
  Al  Al18  1  0.499659  0.499659  0.001420  1
  Al  Al19  1  0.001854  0.001854  0.493859  1
  Al  Al20  1  0.499659  0.001420  0.499659  1
  Al  Al21  1  0.001854  0.493859  0.001854  1
  Al  Al22  1  0.001420  0.499659  0.499659  1
  Al  Al23  1  0.493859  0.001854  0.001854  1
