# generated using pymatgen
data_Zr6Be(Ga3Cu8)2
_symmetry_space_group_name_H-M   'P 1'
_cell_length_a   8.38248115
_cell_length_b   8.38243676
_cell_length_c   8.38243500
_cell_angle_alpha   59.99983007
_cell_angle_beta   59.99993677
_cell_angle_gamma   59.99999504
_symmetry_Int_Tables_number   1
_chemical_formula_structural   Zr6Be(Ga3Cu8)2
_chemical_formula_sum   'Zr6 Be1 Ga6 Cu16'
_cell_volume   416.48300709
_cell_formula_units_Z   1
loop_
 _symmetry_equiv_pos_site_id
 _symmetry_equiv_pos_as_xyz
  1  'x, y, z'
loop_
 _atom_site_type_symbol
 _atom_site_label
 _atom_site_symmetry_multiplicity
 _atom_site_fract_x
 _atom_site_fract_y
 _atom_site_fract_z
 _atom_site_occupancy
  Zr  Zr0  1  0.704993  0.705000  0.295003  1
  Zr  Zr1  1  0.295007  0.704997  0.295000  1
  Zr  Zr2  1  0.704993  0.295003  0.295004  1
  Zr  Zr3  1  0.295007  0.295000  0.704997  1
  Zr  Zr4  1  0.704993  0.295003  0.705000  1
  Zr  Zr5  1  0.295007  0.704997  0.704996  1
  Be  Be6  1  0.000000  0.000000  0.000000  1
  Ga  Ga7  1  0.000000  0.000000  0.500000  1
  Ga  Ga8  1  0.500000  0.000000  0.500000  1
  Ga  Ga9  1  0.000000  0.500000  0.500000  1
  Ga  Ga10  1  0.500000  0.500000  0.000000  1
  Ga  Ga11  1  0.000000  0.500000  0.000000  1
  Ga  Ga12  1  0.500000  0.000000  0.000000  1
  Cu  Cu13  1  0.886071  0.886073  0.341783  1
  Cu  Cu14  1  0.886071  0.341784  0.886072  1
  Cu  Cu15  1  0.341784  0.886072  0.886072  1
  Cu  Cu16  1  0.886070  0.886073  0.886073  1
  Cu  Cu17  1  0.113929  0.113927  0.658217  1
  Cu  Cu18  1  0.113929  0.658216  0.113928  1
  Cu  Cu19  1  0.658216  0.113928  0.113928  1
  Cu  Cu20  1  0.113930  0.113927  0.113927  1
  Cu  Cu21  1  0.670722  0.670724  0.987833  1
  Cu  Cu22  1  0.670721  0.987834  0.670724  1
  Cu  Cu23  1  0.987832  0.670723  0.670724  1
  Cu  Cu24  1  0.670719  0.670721  0.670722  1
  Cu  Cu25  1  0.329278  0.329276  0.012167  1
  Cu  Cu26  1  0.329279  0.012166  0.329276  1
  Cu  Cu27  1  0.012168  0.329277  0.329276  1
  Cu  Cu28  1  0.329281  0.329279  0.329278  1
