# generated using pymatgen
data_BOF6
_symmetry_space_group_name_H-M   'P 1'
_cell_length_a   5.12001285
_cell_length_b   5.12001219
_cell_length_c   9.70704741
_cell_angle_alpha   84.32856212
_cell_angle_beta   84.32855793
_cell_angle_gamma   113.72065034
_symmetry_Int_Tables_number   1
_chemical_formula_structural   BOF6
_chemical_formula_sum   'B2 O2 F12'
_cell_volume   229.12975863
_cell_formula_units_Z   2
loop_
 _symmetry_equiv_pos_site_id
 _symmetry_equiv_pos_as_xyz
  1  'x, y, z'
loop_
 _atom_site_type_symbol
 _atom_site_label
 _atom_site_symmetry_multiplicity
 _atom_site_fract_x
 _atom_site_fract_y
 _atom_site_fract_z
 _atom_site_occupancy
  B  B0  1  0.579053  0.443149  0.516426  1
  B  B1  1  0.443149  0.579053  0.016426  1
  O  O2  1  0.924669  0.063246  0.744463  1
  O  O3  1  0.063246  0.924669  0.244463  1
  F  F4  1  0.265765  0.895765  0.322722  1
  F  F5  1  0.114539  0.971905  0.805088  1
  F  F6  1  0.971905  0.114539  0.305088  1
  F  F7  1  0.895765  0.265765  0.822722  1
  F  F8  1  0.633183  0.479016  0.366872  1
  F  F9  1  0.479016  0.633183  0.866872  1
  F  F10  1  0.300426  0.435144  0.556106  1
  F  F11  1  0.582702  0.181414  0.572448  1
  F  F12  1  0.679259  0.790768  0.061177  1
  F  F13  1  0.790768  0.679259  0.561177  1
  F  F14  1  0.435144  0.300426  0.056106  1
  F  F15  1  0.181414  0.582702  0.072448  1
