# generated using pymatgen
data_Li2HoScB28
_symmetry_space_group_name_H-M   'P 1'
_cell_length_a   7.21200589
_cell_length_b   7.21200409
_cell_length_c   7.21200487
_cell_angle_alpha   132.00683021
_cell_angle_beta   110.97265503
_cell_angle_gamma   88.44471340
_symmetry_Int_Tables_number   1
_chemical_formula_structural   Li2HoScB28
_chemical_formula_sum   'Li2 Ho1 Sc1 B28'
_cell_volume   247.77764520
_cell_formula_units_Z   1
loop_
 _symmetry_equiv_pos_site_id
 _symmetry_equiv_pos_as_xyz
  1  'x, y, z'
loop_
 _atom_site_type_symbol
 _atom_site_label
 _atom_site_symmetry_multiplicity
 _atom_site_fract_x
 _atom_site_fract_y
 _atom_site_fract_z
 _atom_site_occupancy
  Li  Li0  1  0.999851  0.499327  0.999178  1
  Li  Li1  1  0.999851  0.000673  0.500524  1
  Ho  Ho2  1  0.617568  0.250000  0.367568  1
  Sc  Sc3  1  0.367787  0.750000  0.617787  1
  B  B4  1  0.977234  0.349781  0.627453  1
  B  B5  1  0.627242  0.330633  0.796916  1
  B  B6  1  0.806537  0.833733  0.972803  1
  B  B7  1  0.639069  0.666267  0.972803  1
  B  B8  1  0.193297  0.166052  0.027246  1
  B  B9  1  0.778464  0.782587  0.681589  1
  B  B10  1  0.966283  0.669673  0.796916  1
  B  B11  1  0.026996  0.651207  0.375788  1
  B  B12  1  0.966283  0.169367  0.296610  1
  B  B13  1  0.035786  0.831228  0.705559  1
  B  B14  1  0.361195  0.333948  0.027246  1
  B  B15  1  0.085704  0.910813  0.174891  1
  B  B16  1  0.627242  0.830327  0.296610  1
  B  B17  1  0.399002  0.717413  0.995877  1
  B  B18  1  0.237145  0.410857  0.826289  1
  B  B19  1  0.220775  0.218852  0.319968  1
  B  B20  1  0.224580  0.848793  0.375788  1
  B  B21  1  0.915432  0.089143  0.826289  1
  B  B22  1  0.399002  0.403125  0.681589  1
  B  B23  1  0.220775  0.900807  0.001923  1
  B  B24  1  0.778464  0.096875  0.995877  1
  B  B25  1  0.601116  0.281148  0.001923  1
  B  B26  1  0.601116  0.599193  0.319968  1
  B  B27  1  0.035786  0.330227  0.204558  1
  B  B28  1  0.764079  0.589187  0.174891  1
  B  B29  1  0.777673  0.150219  0.627453  1
  B  B30  1  0.374332  0.169773  0.705559  1
  B  B31  1  0.374332  0.668772  0.204558  1
