# generated using pymatgen
data_Ta4Al6CoRh
_symmetry_space_group_name_H-M   'P 1'
_cell_length_a   5.15353900
_cell_length_b   5.15353952
_cell_length_c   7.93844600
_cell_angle_alpha   90.00000000
_cell_angle_beta   90.00000000
_cell_angle_gamma   120.00000311
_symmetry_Int_Tables_number   1
_chemical_formula_structural   Ta4Al6CoRh
_chemical_formula_sum   'Ta4 Al6 Co1 Rh1'
_cell_volume   182.59012687
_cell_formula_units_Z   1
loop_
 _symmetry_equiv_pos_site_id
 _symmetry_equiv_pos_as_xyz
  1  'x, y, z'
loop_
 _atom_site_type_symbol
 _atom_site_label
 _atom_site_symmetry_multiplicity
 _atom_site_fract_x
 _atom_site_fract_y
 _atom_site_fract_z
 _atom_site_occupancy
  Ta  Ta0  1  0.666666  0.333333  0.069843  1
  Ta  Ta1  1  0.666666  0.333333  0.429877  1
  Ta  Ta2  1  0.333334  0.666667  0.570121  1
  Ta  Ta3  1  0.333334  0.666667  0.930157  1
  Al  Al4  1  0.168401  0.336802  0.256020  1
  Al  Al5  1  0.168401  0.831598  0.256020  1
  Al  Al6  1  0.663197  0.831598  0.256020  1
  Al  Al7  1  0.336802  0.168400  0.743980  1
  Al  Al8  1  0.831597  0.168400  0.743980  1
  Al  Al9  1  0.831598  0.663198  0.743980  1
  Co  Co10  1  0.000000  0.000000  0.499999  1
  Rh  Rh11  1  0.000000  0.000000  0.000000  1
