# generated using pymatgen
data_Dy3Tl2
_symmetry_space_group_name_H-M   'P 1'
_cell_length_a   11.67220031
_cell_length_b   11.67220027
_cell_length_c   11.67220100
_cell_angle_alpha   116.86612304
_cell_angle_beta   116.86612295
_cell_angle_gamma   95.51954619
_symmetry_Int_Tables_number   1
_chemical_formula_structural   Dy3Tl2
_chemical_formula_sum   'Dy24 Tl16'
_cell_volume   1171.83616750
_cell_formula_units_Z   8
loop_
 _symmetry_equiv_pos_site_id
 _symmetry_equiv_pos_as_xyz
  1  'x, y, z'
loop_
 _atom_site_type_symbol
 _atom_site_label
 _atom_site_symmetry_multiplicity
 _atom_site_fract_x
 _atom_site_fract_y
 _atom_site_fract_z
 _atom_site_occupancy
  Dy  Dy0  1  0.146899  0.646899  0.500000  1
  Dy  Dy1  1  0.646899  0.146899  0.500000  1
  Dy  Dy2  1  0.853101  0.353101  0.500000  1
  Dy  Dy3  1  0.353101  0.853101  0.500000  1
  Dy  Dy4  1  0.668704  0.168704  0.837407  1
  Dy  Dy5  1  0.331296  0.831296  0.162593  1
  Dy  Dy6  1  0.168704  0.331296  0.500000  1
  Dy  Dy7  1  0.831296  0.668704  0.500000  1
  Dy  Dy8  1  0.068241  0.931492  0.271661  1
  Dy  Dy9  1  0.659831  0.796580  0.728339  1
  Dy  Dy10  1  0.568241  0.296580  0.136749  1
  Dy  Dy11  1  0.159831  0.431492  0.863251  1
  Dy  Dy12  1  0.796580  0.068241  0.136749  1
  Dy  Dy13  1  0.931492  0.659831  0.863251  1
  Dy  Dy14  1  0.431492  0.568241  0.271661  1
  Dy  Dy15  1  0.296580  0.159831  0.728339  1
  Dy  Dy16  1  0.931759  0.068508  0.728339  1
  Dy  Dy17  1  0.340169  0.203420  0.271661  1
  Dy  Dy18  1  0.431759  0.703420  0.863251  1
  Dy  Dy19  1  0.840169  0.568508  0.136749  1
  Dy  Dy20  1  0.203420  0.931759  0.863251  1
  Dy  Dy21  1  0.068508  0.340169  0.136749  1
  Dy  Dy22  1  0.568508  0.431759  0.728339  1
  Dy  Dy23  1  0.703420  0.840169  0.271661  1
  Tl  Tl24  1  0.750000  0.750000  0.000000  1
  Tl  Tl25  1  0.250000  0.250000  0.000000  1
  Tl  Tl26  1  0.000000  0.000000  0.000000  1
  Tl  Tl27  1  0.500000  0.500000  0.000000  1
  Tl  Tl28  1  0.118315  0.618315  0.736631  1
  Tl  Tl29  1  0.881685  0.381685  0.263369  1
  Tl  Tl30  1  0.618315  0.881685  0.500000  1
  Tl  Tl31  1  0.381685  0.118315  0.500000  1
  Tl  Tl32  1  0.871381  0.371381  0.845525  1
  Tl  Tl33  1  0.525855  0.025855  0.154475  1
  Tl  Tl34  1  0.371381  0.525855  0.500000  1
  Tl  Tl35  1  0.025855  0.871381  0.500000  1
  Tl  Tl36  1  0.128619  0.628619  0.154475  1
  Tl  Tl37  1  0.474145  0.974145  0.845525  1
  Tl  Tl38  1  0.628619  0.474145  0.500000  1
  Tl  Tl39  1  0.974145  0.128619  0.500000  1
