# generated using pymatgen
data_TcP4Ru3
_symmetry_space_group_name_H-M   'P 1'
_cell_length_a   6.27416698
_cell_length_b   5.64384815
_cell_length_c   3.07734900
_cell_angle_alpha   90.00000000
_cell_angle_beta   90.00000000
_cell_angle_gamma   89.44625332
_symmetry_Int_Tables_number   1
_chemical_formula_structural   TcP4Ru3
_chemical_formula_sum   'Tc1 P4 Ru3'
_cell_volume   108.96521035
_cell_formula_units_Z   1
loop_
 _symmetry_equiv_pos_site_id
 _symmetry_equiv_pos_as_xyz
  1  'x, y, z'
loop_
 _atom_site_type_symbol
 _atom_site_label
 _atom_site_symmetry_multiplicity
 _atom_site_fract_x
 _atom_site_fract_y
 _atom_site_fract_z
 _atom_site_occupancy
  Tc  Tc0  1  0.196772  0.995835  0.250001  1
  P  P1  1  0.556099  0.187996  0.250001  1
  P  P2  1  0.941117  0.691725  0.250001  1
  P  P3  1  0.063154  0.305019  0.750001  1
  P  P4  1  0.439257  0.809101  0.750001  1
  Ru  Ru5  1  0.300855  0.494259  0.250001  1
  Ru  Ru6  1  0.785798  0.008109  0.750001  1
  Ru  Ru7  1  0.716948  0.507958  0.750001  1
