# generated using pymatgen
data_TaTi3O8
_symmetry_space_group_name_H-M   'P 1'
_cell_length_a   3.88390700
_cell_length_b   3.88390700
_cell_length_c   9.69117300
_cell_angle_alpha   90.00000000
_cell_angle_beta   90.00000000
_cell_angle_gamma   90.00000000
_symmetry_Int_Tables_number   1
_chemical_formula_structural   TaTi3O8
_chemical_formula_sum   'Ta1 Ti3 O8'
_cell_volume   146.18876283
_cell_formula_units_Z   1
loop_
 _symmetry_equiv_pos_site_id
 _symmetry_equiv_pos_as_xyz
  1  'x, y, z'
loop_
 _atom_site_type_symbol
 _atom_site_label
 _atom_site_symmetry_multiplicity
 _atom_site_fract_x
 _atom_site_fract_y
 _atom_site_fract_z
 _atom_site_occupancy
  Ta  Ta0  1  0.000000  0.000000  0.500000  1
  Ti  Ti1  1  0.500000  0.500000  0.000000  1
  Ti  Ti2  1  0.500000  0.000000  0.235289  1
  Ti  Ti3  1  0.000000  0.500000  0.764711  1
  O  O4  1  0.500000  0.500000  0.206606  1
  O  O5  1  0.000000  0.000000  0.708499  1
  O  O6  1  0.500000  0.000000  0.458908  1
  O  O7  1  0.000000  0.500000  0.961539  1
  O  O8  1  0.000000  0.500000  0.541092  1
  O  O9  1  0.500000  0.000000  0.038461  1
  O  O10  1  0.000000  0.000000  0.291501  1
  O  O11  1  0.500000  0.500000  0.793394  1
