# generated using pymatgen
data_PmTh(GaSi)2
_symmetry_space_group_name_H-M   'P 1'
_cell_length_a   4.21777400
_cell_length_b   4.21777499
_cell_length_c   8.24770700
_cell_angle_alpha   90.00000000
_cell_angle_beta   90.00000000
_cell_angle_gamma   120.00000790
_symmetry_Int_Tables_number   1
_chemical_formula_structural   PmTh(GaSi)2
_chemical_formula_sum   'Pm1 Th1 Ga2 Si2'
_cell_volume   127.06634393
_cell_formula_units_Z   1
loop_
 _symmetry_equiv_pos_site_id
 _symmetry_equiv_pos_as_xyz
  1  'x, y, z'
loop_
 _atom_site_type_symbol
 _atom_site_label
 _atom_site_symmetry_multiplicity
 _atom_site_fract_x
 _atom_site_fract_y
 _atom_site_fract_z
 _atom_site_occupancy
  Pm  Pm0  1  0.000000  0.000000  0.016031  1
  Th  Th1  1  0.000000  0.000000  0.485655  1
  Ga  Ga2  1  0.666667  0.333334  0.751532  1
  Ga  Ga3  1  0.333334  0.666667  0.751532  1
  Si  Si4  1  0.666667  0.333334  0.247624  1
  Si  Si5  1  0.333334  0.666667  0.247624  1
