# generated using pymatgen
data_Er2Co8CuTcP6
_symmetry_space_group_name_H-M   'P 1'
_cell_length_a   3.69320000
_cell_length_b   10.31975500
_cell_length_c   11.78570100
_cell_angle_alpha   90.00000000
_cell_angle_beta   90.00000000
_cell_angle_gamma   90.00000000
_symmetry_Int_Tables_number   1
_chemical_formula_structural   Er2Co8CuTcP6
_chemical_formula_sum   'Er4 Co16 Cu2 Tc2 P12'
_cell_volume   449.18746953
_cell_formula_units_Z   2
loop_
 _symmetry_equiv_pos_site_id
 _symmetry_equiv_pos_as_xyz
  1  'x, y, z'
loop_
 _atom_site_type_symbol
 _atom_site_label
 _atom_site_symmetry_multiplicity
 _atom_site_fract_x
 _atom_site_fract_y
 _atom_site_fract_z
 _atom_site_occupancy
  Er  Er0  1  0.250000  0.583209  0.703043  1
  Er  Er1  1  0.250000  0.916791  0.203043  1
  Er  Er2  1  0.750000  0.416922  0.295496  1
  Er  Er3  1  0.750000  0.083078  0.795496  1
  Co  Co4  1  0.250000  0.407450  0.486590  1
  Co  Co5  1  0.250000  0.092550  0.986590  1
  Co  Co6  1  0.750000  0.592507  0.511619  1
  Co  Co7  1  0.750000  0.907493  0.011619  1
  Co  Co8  1  0.250000  0.220408  0.176687  1
  Co  Co9  1  0.250000  0.279592  0.676687  1
  Co  Co10  1  0.750000  0.778555  0.822727  1
  Co  Co11  1  0.750000  0.721445  0.322727  1
  Co  Co12  1  0.250000  0.885248  0.702025  1
  Co  Co13  1  0.250000  0.614752  0.202025  1
  Co  Co14  1  0.750000  0.116454  0.301202  1
  Co  Co15  1  0.750000  0.383546  0.801202  1
  Co  Co16  1  0.250000  0.463988  0.931963  1
  Co  Co17  1  0.250000  0.036012  0.431963  1
  Co  Co18  1  0.750000  0.532792  0.069402  1
  Co  Co19  1  0.750000  0.967208  0.569402  1
  Cu  Cu20  1  0.750000  0.286007  0.009207  1
  Cu  Cu21  1  0.750000  0.213993  0.509207  1
  Tc  Tc22  1  0.250000  0.710745  0.990354  1
  Tc  Tc23  1  0.250000  0.789255  0.490354  1
  P  P24  1  0.250000  0.419815  0.114635  1
  P  P25  1  0.250000  0.080185  0.614635  1
  P  P26  1  0.750000  0.578971  0.886976  1
  P  P27  1  0.750000  0.921029  0.386976  1
  P  P28  1  0.250000  0.269323  0.863921  1
  P  P29  1  0.250000  0.230677  0.363921  1
  P  P30  1  0.750000  0.730119  0.132797  1
  P  P31  1  0.750000  0.769881  0.632797  1
  P  P32  1  0.250000  0.595775  0.391192  1
  P  P33  1  0.250000  0.904225  0.891192  1
  P  P34  1  0.750000  0.400816  0.610165  1
  P  P35  1  0.750000  0.099184  0.110165  1
