# generated using pymatgen
data_TbYHo2(Al3Rh)6
_symmetry_space_group_name_H-M   'P 1'
_cell_length_a   7.54934824
_cell_length_b   7.54819431
_cell_length_c   9.46400000
_cell_angle_alpha   90.00000000
_cell_angle_beta   90.00000000
_cell_angle_gamma   119.30334811
_symmetry_Int_Tables_number   1
_chemical_formula_structural   TbYHo2(Al3Rh)6
_chemical_formula_sum   'Tb1 Y1 Ho2 Al18 Rh6'
_cell_volume   470.28811539
_cell_formula_units_Z   1
loop_
 _symmetry_equiv_pos_site_id
 _symmetry_equiv_pos_as_xyz
  1  'x, y, z'
loop_
 _atom_site_type_symbol
 _atom_site_label
 _atom_site_symmetry_multiplicity
 _atom_site_fract_x
 _atom_site_fract_y
 _atom_site_fract_z
 _atom_site_occupancy
  Tb  Tb0  1  0.005689  0.328315  0.750000  1
  Y  Y1  1  0.328355  0.005736  0.750000  1
  Ho  Ho2  1  0.994381  0.671752  0.250000  1
  Ho  Ho3  1  0.671876  0.994509  0.250000  1
  Al  Al4  1  0.127909  0.128036  0.250000  1
  Al  Al5  1  0.871391  0.871640  0.750000  1
  Al  Al6  1  0.000638  0.335719  0.075552  1
  Al  Al7  1  0.998901  0.664343  0.925551  1
  Al  Al8  1  0.998901  0.664343  0.574449  1
  Al  Al9  1  0.335719  0.000643  0.424240  1
  Al  Al10  1  0.000638  0.335719  0.424448  1
  Al  Al11  1  0.664451  0.998942  0.574439  1
  Al  Al12  1  0.664451  0.998942  0.925561  1
  Al  Al13  1  0.335719  0.000643  0.075760  1
  Al  Al14  1  0.332970  0.333005  0.548940  1
  Al  Al15  1  0.667258  0.667271  0.449671  1
  Al  Al16  1  0.667258  0.667271  0.050329  1
  Al  Al17  1  0.332970  0.333005  0.951060  1
  Al  Al18  1  0.339683  0.550497  0.250000  1
  Al  Al19  1  0.660843  0.450096  0.750000  1
  Al  Al20  1  0.550474  0.339838  0.250000  1
  Al  Al21  1  0.449873  0.660147  0.750000  1
  Rh  Rh22  1  0.672016  0.328001  0.000357  1
  Rh  Rh23  1  0.328073  0.672164  0.000346  1
  Rh  Rh24  1  0.328073  0.672164  0.499654  1
  Rh  Rh25  1  0.672016  0.328001  0.499643  1
  Rh  Rh26  1  0.999737  0.999630  0.000512  1
  Rh  Rh27  1  0.999737  0.999630  0.499488  1
