# generated using pymatgen
data_Dy2ErAl12Ir3Ru
_symmetry_space_group_name_H-M   'P 1'
_cell_length_a   8.82451938
_cell_length_b   8.82901141
_cell_length_c   9.49189400
_cell_angle_alpha   90.00000000
_cell_angle_beta   90.00000000
_cell_angle_gamma   120.01684452
_symmetry_Int_Tables_number   1
_chemical_formula_structural   Dy2ErAl12Ir3Ru
_chemical_formula_sum   'Dy4 Er2 Al24 Ir6 Ru2'
_cell_volume   640.34335920
_cell_formula_units_Z   2
loop_
 _symmetry_equiv_pos_site_id
 _symmetry_equiv_pos_as_xyz
  1  'x, y, z'
loop_
 _atom_site_type_symbol
 _atom_site_label
 _atom_site_symmetry_multiplicity
 _atom_site_fract_x
 _atom_site_fract_y
 _atom_site_fract_z
 _atom_site_occupancy
  Dy  Dy0  1  0.614474  0.807236  0.250000  1
  Dy  Dy1  1  0.807570  0.192305  0.750000  1
  Dy  Dy2  1  0.807570  0.615266  0.750000  1
  Dy  Dy3  1  0.384677  0.192339  0.750000  1
  Er  Er4  1  0.193066  0.806772  0.250000  1
  Er  Er5  1  0.193066  0.386292  0.250000  1
  Al  Al6  1  0.561874  0.437469  0.250000  1
  Al  Al7  1  0.561874  0.124405  0.250000  1
  Al  Al8  1  0.876037  0.438019  0.250000  1
  Al  Al9  1  0.437797  0.562369  0.750000  1
  Al  Al10  1  0.437797  0.875428  0.750000  1
  Al  Al11  1  0.124488  0.562244  0.750000  1
  Al  Al12  1  0.325898  0.162949  0.423586  1
  Al  Al13  1  0.837169  0.163125  0.423713  1
  Al  Al14  1  0.837169  0.674046  0.423713  1
  Al  Al15  1  0.673895  0.836947  0.576167  1
  Al  Al16  1  0.163066  0.837021  0.575879  1
  Al  Al17  1  0.163066  0.326044  0.575879  1
  Al  Al18  1  0.673895  0.836947  0.923833  1
  Al  Al19  1  0.163066  0.837021  0.924121  1
  Al  Al20  1  0.163066  0.326044  0.924121  1
  Al  Al21  1  0.325898  0.162949  0.076414  1
  Al  Al22  1  0.837169  0.163125  0.076287  1
  Al  Al23  1  0.837169  0.674046  0.076287  1
  Al  Al24  1  0.666541  0.333270  0.529127  1
  Al  Al25  1  0.333115  0.666558  0.470626  1
  Al  Al26  1  0.333115  0.666558  0.029374  1
  Al  Al27  1  0.666541  0.333270  0.970873  1
  Al  Al28  1  0.000599  0.000299  0.250000  1
  Al  Al29  1  0.999988  0.999994  0.750000  1
  Ir  Ir30  1  0.499501  0.499981  0.499481  1
  Ir  Ir31  1  0.499501  0.999520  0.499481  1
  Ir  Ir32  1  0.000545  0.500272  0.499319  1
  Ir  Ir33  1  0.499501  0.499981  0.000519  1
  Ir  Ir34  1  0.499501  0.999520  0.000519  1
  Ir  Ir35  1  0.000545  0.500272  0.000681  1
  Ru  Ru36  1  0.000096  0.000048  0.499254  1
  Ru  Ru37  1  0.000096  0.000048  0.000746  1
