# generated using pymatgen
data_Nd8Sc12Si9Ge7
_symmetry_space_group_name_H-M   'P 1'
_cell_length_a   7.28149469
_cell_length_b   7.53485944
_cell_length_c   14.28687886
_cell_angle_alpha   90.01886579
_cell_angle_beta   89.92993677
_cell_angle_gamma   89.96576750
_symmetry_Int_Tables_number   1
_chemical_formula_structural   Nd8Sc12Si9Ge7
_chemical_formula_sum   'Nd8 Sc12 Si9 Ge7'
_cell_volume   783.84939692
_cell_formula_units_Z   1
loop_
 _symmetry_equiv_pos_site_id
 _symmetry_equiv_pos_as_xyz
  1  'x, y, z'
loop_
 _atom_site_type_symbol
 _atom_site_label
 _atom_site_symmetry_multiplicity
 _atom_site_fract_x
 _atom_site_fract_y
 _atom_site_fract_z
 _atom_site_occupancy
  Nd  Nd0  1  0.990796  0.673655  0.599538  1
  Nd  Nd1  1  0.009440  0.326496  0.400425  1
  Nd  Nd2  1  0.509158  0.173640  0.400382  1
  Nd  Nd3  1  0.011473  0.327771  0.099127  1
  Nd  Nd4  1  0.491039  0.826614  0.599561  1
  Nd  Nd5  1  0.990928  0.672671  0.901230  1
  Nd  Nd6  1  0.489920  0.825888  0.901024  1
  Nd  Nd7  1  0.508889  0.174464  0.099408  1
  Sc  Sc8  1  0.161434  0.001106  0.750030  1
  Sc  Sc9  1  0.838802  0.998751  0.249908  1
  Sc  Sc10  1  0.338708  0.501348  0.248597  1
  Sc  Sc11  1  0.661358  0.498776  0.750046  1
  Sc  Sc12  1  0.333034  0.326158  0.626697  1
  Sc  Sc13  1  0.666776  0.673873  0.373293  1
  Sc  Sc14  1  0.166697  0.825873  0.373343  1
  Sc  Sc15  1  0.665527  0.674002  0.126558  1
  Sc  Sc16  1  0.833170  0.173788  0.626705  1
  Sc  Sc17  1  0.332253  0.326763  0.873936  1
  Sc  Sc18  1  0.832151  0.174375  0.873764  1
  Sc  Sc19  1  0.168794  0.823821  0.125849  1
  Si  Si20  1  0.035707  0.375226  0.750155  1
  Si  Si21  1  0.963623  0.624800  0.249901  1
  Si  Si22  1  0.463791  0.875704  0.249950  1
  Si  Si23  1  0.535885  0.124935  0.750348  1
  Si  Si24  1  0.290018  0.619226  0.750061  1
  Si  Si25  1  0.710451  0.380956  0.249925  1
  Si  Si26  1  0.209836  0.118609  0.249791  1
  Si  Si27  1  0.790166  0.880739  0.750275  1
  Si  Si28  1  0.341872  0.538684  0.040608  1
  Ge  Ge29  1  0.162866  0.040161  0.540983  1
  Ge  Ge30  1  0.837073  0.959877  0.458752  1
  Ge  Ge31  1  0.337392  0.540279  0.458742  1
  Ge  Ge32  1  0.837973  0.960367  0.041163  1
  Ge  Ge33  1  0.662700  0.459778  0.540919  1
  Ge  Ge34  1  0.161896  0.039827  0.959132  1
  Ge  Ge35  1  0.658404  0.461000  0.959873  1
