# generated using pymatgen
data_Ho4ScPa2Co17P12
_symmetry_space_group_name_H-M   'P 1'
_cell_length_a   3.70988600
_cell_length_b   10.55919000
_cell_length_c   12.16403000
_cell_angle_alpha   90.00000000
_cell_angle_beta   90.00000000
_cell_angle_gamma   90.00000000
_symmetry_Int_Tables_number   1
_chemical_formula_structural   Ho4ScPa2Co17P12
_chemical_formula_sum   'Ho4 Sc1 Pa2 Co17 P12'
_cell_volume   476.50630518
_cell_formula_units_Z   1
loop_
 _symmetry_equiv_pos_site_id
 _symmetry_equiv_pos_as_xyz
  1  'x, y, z'
loop_
 _atom_site_type_symbol
 _atom_site_label
 _atom_site_symmetry_multiplicity
 _atom_site_fract_x
 _atom_site_fract_y
 _atom_site_fract_z
 _atom_site_occupancy
  Ho  Ho0  1  0.500000  0.819395  0.206196  1
  Ho  Ho1  1  0.500000  0.180605  0.206196  1
  Ho  Ho2  1  0.000000  0.684776  0.796692  1
  Ho  Ho3  1  0.000000  0.315224  0.796692  1
  Sc  Sc4  1  0.500000  0.500000  0.151464  1
  Pa  Pa5  1  0.000000  0.500000  0.534139  1
  Pa  Pa6  1  0.500000  0.000000  0.470921  1
  Co  Co7  1  0.000000  0.500000  0.983925  1
  Co  Co8  1  0.500000  0.000000  0.014629  1
  Co  Co9  1  0.500000  0.297590  0.434860  1
  Co  Co10  1  0.500000  0.702410  0.434860  1
  Co  Co11  1  0.000000  0.197723  0.568606  1
  Co  Co12  1  0.000000  0.802277  0.568606  1
  Co  Co13  1  0.500000  0.880879  0.708759  1
  Co  Co14  1  0.500000  0.119121  0.708759  1
  Co  Co15  1  0.000000  0.621800  0.294966  1
  Co  Co16  1  0.000000  0.378200  0.294966  1
  Co  Co17  1  0.500000  0.328036  0.989126  1
  Co  Co18  1  0.500000  0.671964  0.989126  1
  Co  Co19  1  0.000000  0.161618  0.003031  1
  Co  Co20  1  0.000000  0.838382  0.003031  1
  Co  Co21  1  0.000000  0.000000  0.839301  1
  Co  Co22  1  0.500000  0.500000  0.696186  1
  Co  Co23  1  0.000000  0.000000  0.303189  1
  P  P24  1  0.500000  0.306070  0.618784  1
  P  P25  1  0.500000  0.693930  0.618784  1
  P  P26  1  0.000000  0.192022  0.383734  1
  P  P27  1  0.000000  0.807978  0.383734  1
  P  P28  1  0.500000  0.500000  0.878701  1
  P  P29  1  0.000000  0.000000  0.120163  1
  P  P30  1  0.500000  0.850991  0.890581  1
  P  P31  1  0.500000  0.149009  0.890581  1
  P  P32  1  0.000000  0.663343  0.101383  1
  P  P33  1  0.000000  0.336657  0.101383  1
  P  P34  1  0.500000  0.500000  0.357947  1
  P  P35  1  0.000000  0.000000  0.655999  1
