# generated using pymatgen
data_YbPr7(Er3Sn4)4
_symmetry_space_group_name_H-M   'P 1'
_cell_length_a   8.07341079
_cell_length_b   8.28522190
_cell_length_c   15.61289675
_cell_angle_alpha   90.02734534
_cell_angle_beta   89.74327539
_cell_angle_gamma   90.12196646
_symmetry_Int_Tables_number   1
_chemical_formula_structural   YbPr7(Er3Sn4)4
_chemical_formula_sum   'Yb1 Pr7 Er12 Sn16'
_cell_volume   1044.33369731
_cell_formula_units_Z   1
loop_
 _symmetry_equiv_pos_site_id
 _symmetry_equiv_pos_as_xyz
  1  'x, y, z'
loop_
 _atom_site_type_symbol
 _atom_site_label
 _atom_site_symmetry_multiplicity
 _atom_site_fract_x
 _atom_site_fract_y
 _atom_site_fract_z
 _atom_site_occupancy
  Yb  Yb0  1  0.515950  0.321424  0.905195  1
  Pr  Pr1  1  0.012652  0.178673  0.596960  1
  Pr  Pr2  1  0.487083  0.678175  0.403001  1
  Pr  Pr3  1  0.987442  0.822073  0.096725  1
  Pr  Pr4  1  0.486483  0.677110  0.095646  1
  Pr  Pr5  1  0.986534  0.823254  0.403058  1
  Pr  Pr6  1  0.510373  0.321546  0.594613  1
  Pr  Pr7  1  0.011638  0.178903  0.903736  1
  Er  Er8  1  0.356866  0.836243  0.875909  1
  Er  Er9  1  0.856757  0.664112  0.623573  1
  Er  Er10  1  0.642872  0.164651  0.376233  1
  Er  Er11  1  0.144937  0.334966  0.124205  1
  Er  Er12  1  0.644185  0.165419  0.123436  1
  Er  Er13  1  0.143010  0.336381  0.376220  1
  Er  Er14  1  0.356942  0.837403  0.623191  1
  Er  Er15  1  0.853239  0.661604  0.876067  1
  Er  Er16  1  0.192197  0.501270  0.750758  1
  Er  Er17  1  0.690514  0.997578  0.749951  1
  Er  Er18  1  0.810052  0.497189  0.250548  1
  Er  Er19  1  0.309313  0.001995  0.250245  1
  Sn  Sn20  1  0.310031  0.039202  0.043352  1
  Sn  Sn21  1  0.807082  0.459604  0.457644  1
  Sn  Sn22  1  0.693454  0.959061  0.541444  1
  Sn  Sn23  1  0.191420  0.539773  0.958267  1
  Sn  Sn24  1  0.690287  0.957262  0.958664  1
  Sn  Sn25  1  0.191567  0.542026  0.542026  1
  Sn  Sn26  1  0.306327  0.041432  0.457550  1
  Sn  Sn27  1  0.811501  0.460006  0.042954  1
  Sn  Sn28  1  0.555137  0.625216  0.748295  1
  Sn  Sn29  1  0.055686  0.875032  0.750123  1
  Sn  Sn30  1  0.444935  0.374226  0.249402  1
  Sn  Sn31  1  0.943944  0.125449  0.250100  1
  Sn  Sn32  1  0.322271  0.143404  0.751673  1
  Sn  Sn33  1  0.819860  0.358671  0.750133  1
  Sn  Sn34  1  0.678660  0.857520  0.249301  1
  Sn  Sn35  1  0.178797  0.642147  0.249804  1
