# generated using pymatgen
data_Sm2U(InPt)3
_symmetry_space_group_name_H-M   'P 1'
_cell_length_a   7.67617321
_cell_length_b   7.65118704
_cell_length_c   4.01025900
_cell_angle_alpha   90.00000000
_cell_angle_beta   90.00000000
_cell_angle_gamma   120.17321245
_symmetry_Int_Tables_number   1
_chemical_formula_structural   Sm2U(InPt)3
_chemical_formula_sum   'Sm2 U1 In3 Pt3'
_cell_volume   203.61790735
_cell_formula_units_Z   1
loop_
 _symmetry_equiv_pos_site_id
 _symmetry_equiv_pos_as_xyz
  1  'x, y, z'
loop_
 _atom_site_type_symbol
 _atom_site_label
 _atom_site_symmetry_multiplicity
 _atom_site_fract_x
 _atom_site_fract_y
 _atom_site_fract_z
 _atom_site_occupancy
  Sm  Sm0  1  0.996403  0.405890  0.500000  1
  Sm  Sm1  1  0.590704  0.594031  0.500000  1
  U  U2  1  0.412340  0.999891  0.500000  1
  In  In3  1  0.989810  0.734827  0.000000  1
  In  In4  1  0.255115  0.265356  0.000000  1
  In  In5  1  0.754910  0.999937  0.000000  1
  Pt  Pt6  1  0.337270  0.691797  0.000000  1
  Pt  Pt7  1  0.645456  0.308144  0.000000  1
  Pt  Pt8  1  0.017993  0.000127  0.500000  1
