# generated using pymatgen
data_Pr8Nd2OsRu3
_symmetry_space_group_name_H-M   'P 1'
_cell_length_a   8.99492887
_cell_length_b   9.01888909
_cell_length_c   7.43749500
_cell_angle_alpha   83.59934754
_cell_angle_beta   83.64652688
_cell_angle_gamma   43.36393935
_symmetry_Int_Tables_number   1
_chemical_formula_structural   Pr8Nd2OsRu3
_chemical_formula_sum   'Pr8 Nd2 Os1 Ru3'
_cell_volume   411.31570271
_cell_formula_units_Z   1
loop_
 _symmetry_equiv_pos_site_id
 _symmetry_equiv_pos_as_xyz
  1  'x, y, z'
loop_
 _atom_site_type_symbol
 _atom_site_label
 _atom_site_symmetry_multiplicity
 _atom_site_fract_x
 _atom_site_fract_y
 _atom_site_fract_z
 _atom_site_occupancy
  Pr  Pr0  1  0.017037  0.798641  0.914655  1
  Pr  Pr1  1  0.201457  0.982015  0.586609  1
  Pr  Pr2  1  0.983057  0.201057  0.086084  1
  Pr  Pr3  1  0.797635  0.017913  0.414374  1
  Pr  Pr4  1  0.359278  0.209882  0.814103  1
  Pr  Pr5  1  0.792180  0.640281  0.685386  1
  Pr  Pr6  1  0.640173  0.790827  0.185830  1
  Pr  Pr7  1  0.209839  0.357810  0.314155  1
  Nd  Nd8  1  0.571726  0.427615  0.749082  1
  Nd  Nd9  1  0.426222  0.573497  0.250731  1
  Os  Os10  1  0.178601  0.600368  0.574770  1
  Ru  Ru11  1  0.398442  0.823192  0.925285  1
  Ru  Ru12  1  0.824143  0.398152  0.424319  1
  Ru  Ru13  1  0.600209  0.178750  0.074618  1
