# generated using pymatgen
data_Sc4Si4TcPt3
_symmetry_space_group_name_H-M   'P 1'
_cell_length_a   4.06764900
_cell_length_b   6.55939598
_cell_length_c   7.47165622
_cell_angle_alpha   90.73346653
_cell_angle_beta   90.00000000
_cell_angle_gamma   90.00000000
_symmetry_Int_Tables_number   1
_chemical_formula_structural   Sc4Si4TcPt3
_chemical_formula_sum   'Sc4 Si4 Tc1 Pt3'
_cell_volume   199.33731997
_cell_formula_units_Z   1
loop_
 _symmetry_equiv_pos_site_id
 _symmetry_equiv_pos_as_xyz
  1  'x, y, z'
loop_
 _atom_site_type_symbol
 _atom_site_label
 _atom_site_symmetry_multiplicity
 _atom_site_fract_x
 _atom_site_fract_y
 _atom_site_fract_z
 _atom_site_occupancy
  Sc  Sc0  1  0.750000  0.489947  0.813626  1
  Sc  Sc1  1  0.250000  0.005774  0.310154  1
  Sc  Sc2  1  0.750000  0.987325  0.692569  1
  Sc  Sc3  1  0.250000  0.517697  0.183811  1
  Si  Si4  1  0.250000  0.786479  0.872562  1
  Si  Si5  1  0.250000  0.284928  0.612937  1
  Si  Si6  1  0.750000  0.215717  0.116875  1
  Si  Si7  1  0.750000  0.716874  0.395141  1
  Tc  Tc8  1  0.250000  0.656004  0.562468  1
  Pt  Pt9  1  0.250000  0.172323  0.930522  1
  Pt  Pt10  1  0.750000  0.828264  0.074985  1
  Pt  Pt11  1  0.750000  0.338669  0.434350  1
