# generated using pymatgen
data_Ho4SiNiPt11
_symmetry_space_group_name_H-M   'P 1'
_cell_length_a   7.24301346
_cell_length_b   7.24301274
_cell_length_c   7.24301395
_cell_angle_alpha   108.75872441
_cell_angle_beta   109.82863495
_cell_angle_gamma   109.82863993
_symmetry_Int_Tables_number   1
_chemical_formula_structural   Ho4SiNiPt11
_chemical_formula_sum   'Ho4 Si1 Ni1 Pt11'
_cell_volume   292.47294197
_cell_formula_units_Z   1
loop_
 _symmetry_equiv_pos_site_id
 _symmetry_equiv_pos_as_xyz
  1  'x, y, z'
loop_
 _atom_site_type_symbol
 _atom_site_label
 _atom_site_symmetry_multiplicity
 _atom_site_fract_x
 _atom_site_fract_y
 _atom_site_fract_z
 _atom_site_occupancy
  Ho  Ho0  1  0.000000  0.012093  0.525395  1
  Ho  Ho1  1  0.000000  0.525395  0.012093  1
  Ho  Ho2  1  0.486699  0.012093  0.012093  1
  Ho  Ho3  1  0.513301  0.525395  0.525395  1
  Si  Si4  1  0.000000  0.619959  0.619959  1
  Ni  Ni5  1  0.000000  0.876889  0.876889  1
  Pt  Pt6  1  0.739219  0.247521  0.508302  1
  Pt  Pt7  1  0.739219  0.508302  0.247521  1
  Pt  Pt8  1  0.500000  0.267827  0.767827  1
  Pt  Pt9  1  0.260781  0.508302  0.769083  1
  Pt  Pt10  1  0.260781  0.769083  0.508302  1
  Pt  Pt11  1  0.500000  0.767827  0.267827  1
  Pt  Pt12  1  0.739353  0.765264  0.025911  1
  Pt  Pt13  1  0.260647  0.025911  0.286558  1
  Pt  Pt14  1  0.000000  0.255673  0.255673  1
  Pt  Pt15  1  0.260647  0.286558  0.025911  1
  Pt  Pt16  1  0.739353  0.025911  0.765264  1
