# generated using pymatgen
data_LuTh(ZnGa)2
_symmetry_space_group_name_H-M   'P 1'
_cell_length_a   4.40009700
_cell_length_b   4.40009657
_cell_length_c   7.38071700
_cell_angle_alpha   90.00000000
_cell_angle_beta   90.00000000
_cell_angle_gamma   120.00001072
_symmetry_Int_Tables_number   1
_chemical_formula_structural   LuTh(ZnGa)2
_chemical_formula_sum   'Lu1 Th1 Zn2 Ga2'
_cell_volume   123.75239062
_cell_formula_units_Z   1
loop_
 _symmetry_equiv_pos_site_id
 _symmetry_equiv_pos_as_xyz
  1  'x, y, z'
loop_
 _atom_site_type_symbol
 _atom_site_label
 _atom_site_symmetry_multiplicity
 _atom_site_fract_x
 _atom_site_fract_y
 _atom_site_fract_z
 _atom_site_occupancy
  Lu  Lu0  1  0.000000  0.000000  0.500000  1
  Th  Th1  1  0.000000  0.000000  0.000000  1
  Zn  Zn2  1  0.333333  0.666667  0.723465  1
  Zn  Zn3  1  0.666667  0.333333  0.276535  1
  Ga  Ga4  1  0.333333  0.666667  0.266189  1
  Ga  Ga5  1  0.666667  0.333333  0.733811  1
