# generated using pymatgen
data_HoMnCo4P3
_symmetry_space_group_name_H-M   'P 1'
_cell_length_a   3.64690300
_cell_length_b   10.30821700
_cell_length_c   11.80511200
_cell_angle_alpha   90.00000000
_cell_angle_beta   90.00000000
_cell_angle_gamma   90.00000000
_symmetry_Int_Tables_number   1
_chemical_formula_structural   HoMnCo4P3
_chemical_formula_sum   'Ho4 Mn4 Co16 P12'
_cell_volume   443.79037228
_cell_formula_units_Z   4
loop_
 _symmetry_equiv_pos_site_id
 _symmetry_equiv_pos_as_xyz
  1  'x, y, z'
loop_
 _atom_site_type_symbol
 _atom_site_label
 _atom_site_symmetry_multiplicity
 _atom_site_fract_x
 _atom_site_fract_y
 _atom_site_fract_z
 _atom_site_occupancy
  Ho  Ho0  1  0.250000  0.582163  0.704338  1
  Ho  Ho1  1  0.250000  0.917837  0.204338  1
  Ho  Ho2  1  0.750000  0.417837  0.295662  1
  Ho  Ho3  1  0.750000  0.082163  0.795662  1
  Mn  Mn4  1  0.250000  0.710411  0.989030  1
  Mn  Mn5  1  0.250000  0.789589  0.489030  1
  Mn  Mn6  1  0.750000  0.289589  0.010970  1
  Mn  Mn7  1  0.750000  0.210411  0.510970  1
  Co  Co8  1  0.250000  0.406673  0.487721  1
  Co  Co9  1  0.250000  0.093327  0.987721  1
  Co  Co10  1  0.750000  0.593327  0.512279  1
  Co  Co11  1  0.750000  0.906673  0.012279  1
  Co  Co12  1  0.250000  0.220864  0.176789  1
  Co  Co13  1  0.250000  0.279136  0.676789  1
  Co  Co14  1  0.750000  0.779136  0.823211  1
  Co  Co15  1  0.750000  0.720864  0.323211  1
  Co  Co16  1  0.250000  0.883722  0.698977  1
  Co  Co17  1  0.250000  0.616278  0.198977  1
  Co  Co18  1  0.750000  0.116278  0.301023  1
  Co  Co19  1  0.750000  0.383722  0.801023  1
  Co  Co20  1  0.250000  0.466022  0.932283  1
  Co  Co21  1  0.250000  0.033978  0.432283  1
  Co  Co22  1  0.750000  0.533978  0.067717  1
  Co  Co23  1  0.750000  0.966022  0.567717  1
  P  P24  1  0.250000  0.418665  0.112604  1
  P  P25  1  0.250000  0.081335  0.612604  1
  P  P26  1  0.750000  0.581335  0.887396  1
  P  P27  1  0.750000  0.918665  0.387396  1
  P  P28  1  0.250000  0.269562  0.867991  1
  P  P29  1  0.250000  0.230438  0.367991  1
  P  P30  1  0.750000  0.730438  0.132009  1
  P  P31  1  0.750000  0.769562  0.632009  1
  P  P32  1  0.250000  0.600173  0.391148  1
  P  P33  1  0.250000  0.899827  0.891148  1
  P  P34  1  0.750000  0.399827  0.608852  1
  P  P35  1  0.750000  0.100173  0.108852  1
