# generated using pymatgen
data_Nd3Er2Mn2P12Ru17
_symmetry_space_group_name_H-M   'P 1'
_cell_length_a   12.69472000
_cell_length_b   12.58198821
_cell_length_c   4.00700000
_cell_angle_alpha   90.00000000
_cell_angle_beta   90.00000000
_cell_angle_gamma   120.29683752
_symmetry_Int_Tables_number   1
_chemical_formula_structural   Nd3Er2Mn2P12Ru17
_chemical_formula_sum   'Nd3 Er2 Mn2 P12 Ru17'
_cell_volume   552.60594854
_cell_formula_units_Z   1
loop_
 _symmetry_equiv_pos_site_id
 _symmetry_equiv_pos_as_xyz
  1  'x, y, z'
loop_
 _atom_site_type_symbol
 _atom_site_label
 _atom_site_symmetry_multiplicity
 _atom_site_fract_x
 _atom_site_fract_y
 _atom_site_fract_z
 _atom_site_occupancy
  Nd  Nd0  1  0.000958  0.184464  0.500000  1
  Nd  Nd1  1  0.816494  0.815536  0.500000  1
  Nd  Nd2  1  0.184226  0.000000  0.500000  1
  Er  Er3  1  0.663595  0.326703  0.000000  1
  Er  Er4  1  0.336891  0.673297  0.000000  1
  Mn  Mn5  1  0.002300  0.559611  0.000000  1
  Mn  Mn6  1  0.442689  0.440389  0.000000  1
  P  P7  1  0.998730  0.807842  0.000000  1
  P  P8  1  0.190888  0.192158  0.000000  1
  P  P9  1  0.814562  0.000000  0.000000  1
  P  P10  1  0.692615  0.171115  0.500000  1
  P  P11  1  0.817683  0.514948  0.500000  1
  P  P12  1  0.479633  0.302736  0.500000  1
  P  P13  1  0.176898  0.697264  0.500000  1
  P  P14  1  0.521499  0.828885  0.500000  1
  P  P15  1  0.302735  0.485052  0.500000  1
  P  P16  1  0.999982  0.370943  0.000000  1
  P  P17  1  0.629038  0.629057  0.000000  1
  P  P18  1  0.376024  0.000000  0.000000  1
  Ru  Ru19  1  0.555335  0.000000  0.000000  1
  Ru  Ru20  1  0.997692  0.708330  0.500000  1
  Ru  Ru21  1  0.289362  0.291670  0.500000  1
  Ru  Ru22  1  0.715090  0.000000  0.500000  1
  Ru  Ru23  1  0.804899  0.184846  0.000000  1
  Ru  Ru24  1  0.813258  0.613407  0.000000  1
  Ru  Ru25  1  0.381479  0.197330  0.000000  1
  Ru  Ru26  1  0.184150  0.802670  0.000000  1
  Ru  Ru27  1  0.620053  0.815154  0.000000  1
  Ru  Ru28  1  0.199851  0.386593  0.000000  1
  Ru  Ru29  1  0.871515  0.365969  0.500000  1
  Ru  Ru30  1  0.629053  0.507732  0.500000  1
  Ru  Ru31  1  0.492563  0.124824  0.500000  1
  Ru  Ru32  1  0.367740  0.875176  0.500000  1
  Ru  Ru33  1  0.505546  0.634031  0.500000  1
  Ru  Ru34  1  0.121321  0.492268  0.500000  1
  Ru  Ru35  1  0.003656  0.000000  0.000000  1
