# generated using pymatgen
data_Cs3Rb5Mn3CoBr16
_symmetry_space_group_name_H-M   'P 1'
_cell_length_a   7.88497000
_cell_length_b   10.18631104
_cell_length_c   13.85804354
_cell_angle_alpha   90.05998626
_cell_angle_beta   90.00000000
_cell_angle_gamma   90.00000000
_symmetry_Int_Tables_number   1
_chemical_formula_structural   Cs3Rb5Mn3CoBr16
_chemical_formula_sum   'Cs3 Rb5 Mn3 Co1 Br16'
_cell_volume   1113.06022078
_cell_formula_units_Z   1
loop_
 _symmetry_equiv_pos_site_id
 _symmetry_equiv_pos_as_xyz
  1  'x, y, z'
loop_
 _atom_site_type_symbol
 _atom_site_label
 _atom_site_symmetry_multiplicity
 _atom_site_fract_x
 _atom_site_fract_y
 _atom_site_fract_z
 _atom_site_occupancy
  Cs  Cs0  1  0.250000  0.622642  0.581692  1
  Cs  Cs1  1  0.750000  0.376801  0.415024  1
  Cs  Cs2  1  0.750000  0.873931  0.081905  1
  Rb  Rb3  1  0.250000  0.124434  0.923835  1
  Rb  Rb4  1  0.250000  0.983870  0.325454  1
  Rb  Rb5  1  0.750000  0.017302  0.673944  1
  Rb  Rb6  1  0.250000  0.482328  0.172538  1
  Rb  Rb7  1  0.750000  0.515075  0.828564  1
  Mn  Mn8  1  0.250000  0.723621  0.922869  1
  Mn  Mn9  1  0.250000  0.223845  0.576997  1
  Mn  Mn10  1  0.750000  0.775920  0.423451  1
  Co  Co11  1  0.750000  0.272744  0.076501  1
  Br  Br12  1  0.993677  0.317624  0.656889  1
  Br  Br13  1  0.493928  0.682623  0.342765  1
  Br  Br14  1  0.504519  0.822439  0.844422  1
  Br  Br15  1  0.000774  0.185207  0.152154  1
  Br  Br16  1  0.995481  0.822439  0.844422  1
  Br  Br17  1  0.006072  0.682623  0.342765  1
  Br  Br18  1  0.499226  0.185207  0.152154  1
  Br  Br19  1  0.506323  0.317624  0.656889  1
  Br  Br20  1  0.750000  0.508110  0.085084  1
  Br  Br21  1  0.250000  0.479855  0.915871  1
  Br  Br22  1  0.750000  0.019039  0.416888  1
  Br  Br23  1  0.250000  0.980768  0.582483  1
  Br  Br24  1  0.750000  0.187115  0.913846  1
  Br  Br25  1  0.250000  0.817741  0.090933  1
  Br  Br26  1  0.750000  0.684460  0.591594  1
  Br  Br27  1  0.250000  0.314616  0.408068  1
