# generated using pymatgen
data_Dy3Sc2(Hg2Pt)2
_symmetry_space_group_name_H-M   'P 1'
_cell_length_a   3.57352600
_cell_length_b   7.89223100
_cell_length_c   17.73261000
_cell_angle_alpha   90.00000000
_cell_angle_beta   90.00000000
_cell_angle_gamma   90.00000000
_symmetry_Int_Tables_number   1
_chemical_formula_structural   Dy3Sc2(Hg2Pt)2
_chemical_formula_sum   'Dy6 Sc4 Hg8 Pt4'
_cell_volume   500.11444323
_cell_formula_units_Z   2
loop_
 _symmetry_equiv_pos_site_id
 _symmetry_equiv_pos_as_xyz
  1  'x, y, z'
loop_
 _atom_site_type_symbol
 _atom_site_label
 _atom_site_symmetry_multiplicity
 _atom_site_fract_x
 _atom_site_fract_y
 _atom_site_fract_z
 _atom_site_occupancy
  Dy  Dy0  1  0.000000  0.237554  0.214596  1
  Dy  Dy1  1  0.000000  0.762446  0.785404  1
  Dy  Dy2  1  0.000000  0.262446  0.714596  1
  Dy  Dy3  1  0.000000  0.737554  0.285404  1
  Dy  Dy4  1  0.000000  0.000000  0.000000  1
  Dy  Dy5  1  0.000000  0.500000  0.500000  1
  Sc  Sc6  1  0.000000  0.111783  0.415365  1
  Sc  Sc7  1  0.000000  0.888217  0.584635  1
  Sc  Sc8  1  0.000000  0.388217  0.915365  1
  Sc  Sc9  1  0.000000  0.611783  0.084635  1
  Hg  Hg10  1  0.500000  0.416226  0.354302  1
  Hg  Hg11  1  0.500000  0.583774  0.645698  1
  Hg  Hg12  1  0.500000  0.083774  0.854302  1
  Hg  Hg13  1  0.500000  0.916226  0.145698  1
  Hg  Hg14  1  0.500000  0.298315  0.057329  1
  Hg  Hg15  1  0.500000  0.701685  0.942671  1
  Hg  Hg16  1  0.500000  0.201685  0.557329  1
  Hg  Hg17  1  0.500000  0.798315  0.442671  1
  Pt  Pt18  1  0.500000  0.031065  0.307839  1
  Pt  Pt19  1  0.500000  0.968935  0.692161  1
  Pt  Pt20  1  0.500000  0.468935  0.807839  1
  Pt  Pt21  1  0.500000  0.531065  0.192161  1
