# generated using pymatgen
data_Sc4Co3Ru5
_symmetry_space_group_name_H-M   'P 1'
_cell_length_a   4.99999623
_cell_length_b   5.00262136
_cell_length_c   8.50746400
_cell_angle_alpha   90.00000000
_cell_angle_beta   90.00000000
_cell_angle_gamma   120.01737632
_symmetry_Int_Tables_number   1
_chemical_formula_structural   Sc4Co3Ru5
_chemical_formula_sum   'Sc4 Co3 Ru5'
_cell_volume   184.25614993
_cell_formula_units_Z   1
loop_
 _symmetry_equiv_pos_site_id
 _symmetry_equiv_pos_as_xyz
  1  'x, y, z'
loop_
 _atom_site_type_symbol
 _atom_site_label
 _atom_site_symmetry_multiplicity
 _atom_site_fract_x
 _atom_site_fract_y
 _atom_site_fract_z
 _atom_site_occupancy
  Sc  Sc0  1  0.330973  0.665487  0.434894  1
  Sc  Sc1  1  0.664574  0.332286  0.569492  1
  Sc  Sc2  1  0.664574  0.332286  0.930508  1
  Sc  Sc3  1  0.330973  0.665487  0.065106  1
  Co  Co4  1  0.173348  0.344152  0.750000  1
  Co  Co5  1  0.173348  0.829197  0.750000  1
  Co  Co6  1  0.340661  0.170330  0.250000  1
  Ru  Ru7  1  0.828887  0.657783  0.250000  1
  Ru  Ru8  1  0.654185  0.827092  0.750000  1
  Ru  Ru9  1  0.004794  0.002397  0.995645  1
  Ru  Ru10  1  0.828887  0.171104  0.250000  1
  Ru  Ru11  1  0.004794  0.002397  0.504355  1
