# generated using pymatgen
data_Tb5TmRu2
_symmetry_space_group_name_H-M   'P 1'
_cell_length_a   6.31297804
_cell_length_b   7.31461447
_cell_length_c   9.23012618
_cell_angle_alpha   89.97725771
_cell_angle_beta   90.39502052
_cell_angle_gamma   89.90936574
_symmetry_Int_Tables_number   1
_chemical_formula_structural   Tb5TmRu2
_chemical_formula_sum   'Tb10 Tm2 Ru4'
_cell_volume   426.20884324
_cell_formula_units_Z   2
loop_
 _symmetry_equiv_pos_site_id
 _symmetry_equiv_pos_as_xyz
  1  'x, y, z'
loop_
 _atom_site_type_symbol
 _atom_site_label
 _atom_site_symmetry_multiplicity
 _atom_site_fract_x
 _atom_site_fract_y
 _atom_site_fract_z
 _atom_site_occupancy
  Tb  Tb0  1  0.634254  0.040167  0.251337  1
  Tb  Tb1  1  0.365746  0.959833  0.748663  1
  Tb  Tb2  1  0.134001  0.459652  0.748149  1
  Tb  Tb3  1  0.865999  0.540348  0.251851  1
  Tb  Tb4  1  0.170288  0.177042  0.064933  1
  Tb  Tb5  1  0.829712  0.822958  0.935067  1
  Tb  Tb6  1  0.669444  0.322635  0.934005  1
  Tb  Tb7  1  0.829455  0.822528  0.564064  1
  Tb  Tb8  1  0.330556  0.677365  0.065995  1
  Tb  Tb9  1  0.170545  0.177472  0.435936  1
  Tm  Tm10  1  0.331633  0.675252  0.435468  1
  Tm  Tm11  1  0.668367  0.324748  0.564532  1
  Ru  Ru12  1  0.461351  0.386613  0.253055  1
  Ru  Ru13  1  0.538649  0.613387  0.746945  1
  Ru  Ru14  1  0.958987  0.114509  0.749284  1
  Ru  Ru15  1  0.041013  0.885491  0.250716  1
