# generated using pymatgen
data_Dy7Lu3(InSb2)2
_symmetry_space_group_name_H-M   'P 1'
_cell_length_a   6.42502973
_cell_length_b   8.90634381
_cell_length_c   8.92219241
_cell_angle_alpha   119.93214733
_cell_angle_beta   90.00585882
_cell_angle_gamma   90.04401891
_symmetry_Int_Tables_number   1
_chemical_formula_structural   Dy7Lu3(InSb2)2
_chemical_formula_sum   'Dy7 Lu3 In2 Sb4'
_cell_volume   442.45911987
_cell_formula_units_Z   1
loop_
 _symmetry_equiv_pos_site_id
 _symmetry_equiv_pos_as_xyz
  1  'x, y, z'
loop_
 _atom_site_type_symbol
 _atom_site_label
 _atom_site_symmetry_multiplicity
 _atom_site_fract_x
 _atom_site_fract_y
 _atom_site_fract_z
 _atom_site_occupancy
  Dy  Dy0  1  0.002100  0.335066  0.667198  1
  Dy  Dy1  1  0.750004  0.241680  0.005595  1
  Dy  Dy2  1  0.750011  0.757829  0.763324  1
  Dy  Dy3  1  0.749782  0.000741  0.240222  1
  Dy  Dy4  1  0.250702  0.759312  0.997334  1
  Dy  Dy5  1  0.250586  0.241190  0.239258  1
  Dy  Dy6  1  0.250024  0.000014  0.757186  1
  Lu  Lu7  1  0.499025  0.335829  0.667510  1
  Lu  Lu8  1  0.499124  0.663909  0.330719  1
  Lu  Lu9  1  0.000222  0.663151  0.330191  1
  In  In10  1  0.748041  0.605158  0.002766  1
  In  In11  1  0.747709  0.396037  0.395572  1
  Sb  Sb12  1  0.748603  0.998870  0.607339  1
  Sb  Sb13  1  0.251643  0.394924  0.999375  1
  Sb  Sb14  1  0.251414  0.608139  0.604947  1
  Sb  Sb15  1  0.251016  0.998152  0.391466  1
