# generated using pymatgen
data_Tb8HgAsI12
_symmetry_space_group_name_H-M   'P 1'
_cell_length_a   4.26541100
_cell_length_b   14.14689460
_cell_length_c   14.91003060
_cell_angle_alpha   89.82943432
_cell_angle_beta   90.00000000
_cell_angle_gamma   90.00000000
_symmetry_Int_Tables_number   1
_chemical_formula_structural   Tb8HgAsI12
_chemical_formula_sum   'Tb8 Hg1 As1 I12'
_cell_volume   899.70184821
_cell_formula_units_Z   1
loop_
 _symmetry_equiv_pos_site_id
 _symmetry_equiv_pos_as_xyz
  1  'x, y, z'
loop_
 _atom_site_type_symbol
 _atom_site_label
 _atom_site_symmetry_multiplicity
 _atom_site_fract_x
 _atom_site_fract_y
 _atom_site_fract_z
 _atom_site_occupancy
  Tb  Tb0  1  0.500000  0.119247  0.341030  1
  Tb  Tb1  1  0.500000  0.880753  0.658970  1
  Tb  Tb2  1  0.500000  0.612988  0.151038  1
  Tb  Tb3  1  0.500000  0.387012  0.848962  1
  Tb  Tb4  1  0.000000  0.118603  0.579490  1
  Tb  Tb5  1  0.000000  0.881397  0.420510  1
  Tb  Tb6  1  0.000000  0.607898  0.927904  1
  Tb  Tb7  1  0.000000  0.392102  0.072096  1
  Hg  Hg8  1  0.500000  0.000000  0.500000  1
  As  As9  1  0.500000  0.500000  0.000000  1
  I  I10  1  0.500000  0.249251  0.159897  1
  I  I11  1  0.500000  0.750749  0.840103  1
  I  I12  1  0.500000  0.742611  0.333995  1
  I  I13  1  0.500000  0.257389  0.666005  1
  I  I14  1  0.000000  0.261462  0.413357  1
  I  I15  1  0.000000  0.738538  0.586643  1
  I  I16  1  0.000000  0.755489  0.085026  1
  I  I17  1  0.000000  0.244511  0.914974  1
  I  I18  1  0.000000  0.999974  0.237609  1
  I  I19  1  0.000000  0.000026  0.762391  1
  I  I20  1  0.000000  0.499469  0.256315  1
  I  I21  1  0.000000  0.500531  0.743685  1
