# generated using pymatgen
data_Mg2Fe4Co8P7
_symmetry_space_group_name_H-M   'P 1'
_cell_length_a   8.93231845
_cell_length_b   8.90017368
_cell_length_c   3.54062400
_cell_angle_alpha   90.00000000
_cell_angle_beta   90.00000000
_cell_angle_gamma   120.15626503
_symmetry_Int_Tables_number   1
_chemical_formula_structural   Mg2Fe4Co8P7
_chemical_formula_sum   'Mg2 Fe4 Co8 P7'
_cell_volume   243.38124671
_cell_formula_units_Z   1
loop_
 _symmetry_equiv_pos_site_id
 _symmetry_equiv_pos_as_xyz
  1  'x, y, z'
loop_
 _atom_site_type_symbol
 _atom_site_label
 _atom_site_symmetry_multiplicity
 _atom_site_fract_x
 _atom_site_fract_y
 _atom_site_fract_z
 _atom_site_occupancy
  Mg  Mg0  1  0.000545  0.001278  0.000000  1
  Mg  Mg1  1  0.332611  0.665613  0.500000  1
  Fe  Fe2  1  0.228245  0.282236  0.500000  1
  Fe  Fe3  1  0.886411  0.427199  0.500000  1
  Fe  Fe4  1  0.540755  0.113397  0.500000  1
  Fe  Fe5  1  0.574282  0.457931  0.500000  1
  Co  Co6  1  0.101467  0.397490  0.000000  1
  Co  Co7  1  0.294083  0.895881  0.000000  1
  Co  Co8  1  0.602117  0.705273  0.000000  1
  Co  Co9  1  0.826080  0.612356  0.000000  1
  Co  Co10  1  0.785148  0.173937  0.000000  1
  Co  Co11  1  0.391245  0.214297  0.000000  1
  Co  Co12  1  0.053908  0.774007  0.500000  1
  Co  Co13  1  0.718144  0.945819  0.500000  1
  P  P14  1  0.076776  0.627178  0.000000  1
  P  P15  1  0.548610  0.921373  0.000000  1
  P  P16  1  0.370933  0.448762  0.000000  1
  P  P17  1  0.783569  0.739499  0.500000  1
  P  P18  1  0.956467  0.216209  0.500000  1
  P  P19  1  0.260764  0.046659  0.500000  1
  P  P20  1  0.667841  0.333608  0.000000  1
