# generated using pymatgen
data_Ca2ZnGa2Ag
_symmetry_space_group_name_H-M   'P 1'
_cell_length_a   5.79299573
_cell_length_b   5.79299634
_cell_length_c   7.30379758
_cell_angle_alpha   51.92989074
_cell_angle_beta   51.92988684
_cell_angle_gamma   46.39304263
_symmetry_Int_Tables_number   1
_chemical_formula_structural   Ca2ZnGa2Ag
_chemical_formula_sum   'Ca2 Zn1 Ga2 Ag1'
_cell_volume   131.61581235
_cell_formula_units_Z   1
loop_
 _symmetry_equiv_pos_site_id
 _symmetry_equiv_pos_as_xyz
  1  'x, y, z'
loop_
 _atom_site_type_symbol
 _atom_site_label
 _atom_site_symmetry_multiplicity
 _atom_site_fract_x
 _atom_site_fract_y
 _atom_site_fract_z
 _atom_site_occupancy
  Ca  Ca0  1  0.544104  0.544104  0.704336  1
  Ca  Ca1  1  0.456659  0.456659  0.293275  1
  Zn  Zn2  1  0.165478  0.165478  0.881287  1
  Ga  Ga3  1  0.832485  0.832485  0.728486  1
  Ga  Ga4  1  0.839147  0.839147  0.100090  1
  Ag  Ag5  1  0.162129  0.162129  0.292529  1
