# generated using pymatgen
data_Ta4CuNiN
_symmetry_space_group_name_H-M   'P 1'
_cell_length_a   8.24300908
_cell_length_b   8.24300931
_cell_length_c   8.24301000
_cell_angle_alpha   59.99999724
_cell_angle_beta   59.99999630
_cell_angle_gamma   60.00000311
_symmetry_Int_Tables_number   1
_chemical_formula_structural   Ta4CuNiN
_chemical_formula_sum   'Ta16 Cu4 Ni4 N4'
_cell_volume   396.04304095
_cell_formula_units_Z   4
loop_
 _symmetry_equiv_pos_site_id
 _symmetry_equiv_pos_as_xyz
  1  'x, y, z'
loop_
 _atom_site_type_symbol
 _atom_site_label
 _atom_site_symmetry_multiplicity
 _atom_site_fract_x
 _atom_site_fract_y
 _atom_site_fract_z
 _atom_site_occupancy
  Ta  Ta0  1  0.118447  0.627184  0.627184  1
  Ta  Ta1  1  0.627184  0.118447  0.627184  1
  Ta  Ta2  1  0.627184  0.627184  0.118447  1
  Ta  Ta3  1  0.627184  0.627184  0.627184  1
  Ta  Ta4  1  0.815963  0.815963  0.184037  1
  Ta  Ta5  1  0.184037  0.184037  0.815963  1
  Ta  Ta6  1  0.815963  0.184037  0.815963  1
  Ta  Ta7  1  0.184037  0.815963  0.184037  1
  Ta  Ta8  1  0.184037  0.815963  0.815963  1
  Ta  Ta9  1  0.815963  0.184037  0.184037  1
  Ta  Ta10  1  0.435304  0.435304  0.064696  1
  Ta  Ta11  1  0.064696  0.064696  0.435304  1
  Ta  Ta12  1  0.435304  0.064696  0.435304  1
  Ta  Ta13  1  0.064696  0.435304  0.064696  1
  Ta  Ta14  1  0.064696  0.435304  0.435304  1
  Ta  Ta15  1  0.435304  0.064696  0.064696  1
  Cu  Cu16  1  0.749402  0.416866  0.416866  1
  Cu  Cu17  1  0.416866  0.749402  0.416866  1
  Cu  Cu18  1  0.416866  0.416866  0.749402  1
  Cu  Cu19  1  0.416866  0.416866  0.416866  1
  Ni  Ni20  1  0.509274  0.830242  0.830242  1
  Ni  Ni21  1  0.830242  0.509274  0.830242  1
  Ni  Ni22  1  0.830242  0.830242  0.509274  1
  Ni  Ni23  1  0.830242  0.830242  0.830242  1
  N  N24  1  0.623056  0.125648  0.125648  1
  N  N25  1  0.125648  0.623056  0.125648  1
  N  N26  1  0.125648  0.125648  0.623056  1
  N  N27  1  0.125648  0.125648  0.125648  1
