# generated using pymatgen
data_Dy3Ho(Rh2O7)2
_symmetry_space_group_name_H-M   'P 1'
_cell_length_a   7.22880783
_cell_length_b   7.22880853
_cell_length_c   7.22880789
_cell_angle_alpha   60.00701211
_cell_angle_beta   60.00700978
_cell_angle_gamma   60.00700837
_symmetry_Int_Tables_number   1
_chemical_formula_structural   Dy3Ho(Rh2O7)2
_chemical_formula_sum   'Dy3 Ho1 Rh4 O14'
_cell_volume   267.14933866
_cell_formula_units_Z   1
loop_
 _symmetry_equiv_pos_site_id
 _symmetry_equiv_pos_as_xyz
  1  'x, y, z'
loop_
 _atom_site_type_symbol
 _atom_site_label
 _atom_site_symmetry_multiplicity
 _atom_site_fract_x
 _atom_site_fract_y
 _atom_site_fract_z
 _atom_site_occupancy
  Dy  Dy0  1  0.125000  0.625000  0.125000  1
  Dy  Dy1  1  0.625000  0.125000  0.125000  1
  Dy  Dy2  1  0.125000  0.125000  0.625000  1
  Ho  Ho3  1  0.125000  0.125000  0.125000  1
  Rh  Rh4  1  0.625000  0.625000  0.625000  1
  Rh  Rh5  1  0.625000  0.625000  0.125000  1
  Rh  Rh6  1  0.125000  0.625000  0.625000  1
  Rh  Rh7  1  0.625000  0.125000  0.625000  1
  O  O8  1  0.249526  0.249526  0.249526  1
  O  O9  1  0.287448  0.712546  0.287448  1
  O  O10  1  0.962552  0.962552  0.537454  1
  O  O11  1  0.537811  0.962061  0.537811  1
  O  O12  1  0.712189  0.712189  0.287939  1
  O  O13  1  0.962061  0.537811  0.537811  1
  O  O14  1  0.712189  0.287939  0.712189  1
  O  O15  1  0.287448  0.287448  0.712546  1
  O  O16  1  0.712546  0.287448  0.287448  1
  O  O17  1  0.287939  0.712189  0.712189  1
  O  O18  1  0.962552  0.537454  0.962552  1
  O  O19  1  0.537811  0.537811  0.962061  1
  O  O20  1  0.000474  0.000474  0.000474  1
  O  O21  1  0.537454  0.962552  0.962552  1
