# generated using pymatgen
data_Pr4CrClO8
_symmetry_space_group_name_H-M   'P 1'
_cell_length_a   8.35836800
_cell_length_b   8.35836800
_cell_length_c   13.27452300
_cell_angle_alpha   90.00000000
_cell_angle_beta   90.00000000
_cell_angle_gamma   90.00000000
_symmetry_Int_Tables_number   1
_chemical_formula_structural   Pr4CrClO8
_chemical_formula_sum   'Pr16 Cr4 Cl4 O32'
_cell_volume   927.38891558
_cell_formula_units_Z   4
loop_
 _symmetry_equiv_pos_site_id
 _symmetry_equiv_pos_as_xyz
  1  'x, y, z'
loop_
 _atom_site_type_symbol
 _atom_site_label
 _atom_site_symmetry_multiplicity
 _atom_site_fract_x
 _atom_site_fract_y
 _atom_site_fract_z
 _atom_site_occupancy
  Pr  Pr0  1  0.013948  0.245683  0.166295  1
  Pr  Pr1  1  0.986052  0.754317  0.166295  1
  Pr  Pr2  1  0.481986  0.246157  0.166915  1
  Pr  Pr3  1  0.518014  0.753842  0.166915  1
  Pr  Pr4  1  0.753842  0.481986  0.333085  1
  Pr  Pr5  1  0.246157  0.518014  0.333085  1
  Pr  Pr6  1  0.754317  0.013948  0.333705  1
  Pr  Pr7  1  0.245683  0.986052  0.333705  1
  Pr  Pr8  1  0.754317  0.013948  0.666295  1
  Pr  Pr9  1  0.245683  0.986052  0.666295  1
  Pr  Pr10  1  0.753842  0.481986  0.666914  1
  Pr  Pr11  1  0.246157  0.518014  0.666914  1
  Pr  Pr12  1  0.481986  0.246157  0.833085  1
  Pr  Pr13  1  0.518014  0.753842  0.833085  1
  Pr  Pr14  1  0.013948  0.245683  0.833705  1
  Pr  Pr15  1  0.986052  0.754317  0.833705  1
  Cr  Cr16  1  0.748282  0.049068  0.000000  1
  Cr  Cr17  1  0.251718  0.950932  0.000000  1
  Cr  Cr18  1  0.049068  0.251718  0.500000  1
  Cr  Cr19  1  0.950932  0.748282  0.500000  1
  Cl  Cl20  1  0.254133  0.430421  0.000000  1
  Cl  Cl21  1  0.745867  0.569579  0.000000  1
  Cl  Cl22  1  0.569579  0.254133  0.500000  1
  Cl  Cl23  1  0.430421  0.745867  0.500000  1
  O  O24  1  0.580705  0.172368  0.000000  1
  O  O25  1  0.915888  0.173052  0.000000  1
  O  O26  1  0.084111  0.826947  0.000000  1
  O  O27  1  0.419295  0.827632  0.000000  1
  O  O28  1  0.251198  0.074076  0.102250  1
  O  O29  1  0.748801  0.925924  0.102250  1
  O  O30  1  0.743862  0.249080  0.228880  1
  O  O31  1  0.256138  0.750920  0.228880  1
  O  O32  1  0.000000  0.500000  0.239730  1
  O  O33  1  0.000000  0.000000  0.250000  1
  O  O34  1  0.500000  0.500000  0.250000  1
  O  O35  1  0.500000  0.000000  0.260270  1
  O  O36  1  0.249080  0.256138  0.271121  1
  O  O37  1  0.750920  0.743862  0.271121  1
  O  O38  1  0.925924  0.251198  0.397750  1
  O  O39  1  0.074076  0.748801  0.397750  1
  O  O40  1  0.173052  0.084111  0.500000  1
  O  O41  1  0.172368  0.419295  0.500000  1
  O  O42  1  0.827632  0.580705  0.500000  1
  O  O43  1  0.826947  0.915888  0.500000  1
  O  O44  1  0.925924  0.251198  0.602250  1
  O  O45  1  0.074076  0.748801  0.602250  1
  O  O46  1  0.249080  0.256138  0.728880  1
  O  O47  1  0.750920  0.743862  0.728880  1
  O  O48  1  0.500000  0.000000  0.739730  1
  O  O49  1  0.000000  0.000000  0.750000  1
  O  O50  1  0.500000  0.500000  0.750000  1
  O  O51  1  0.000000  0.500000  0.760271  1
  O  O52  1  0.743862  0.249080  0.771121  1
  O  O53  1  0.256138  0.750920  0.771121  1
  O  O54  1  0.251198  0.074076  0.897750  1
  O  O55  1  0.748801  0.925924  0.897750  1
