# generated using pymatgen
data_LiCe2AgAs4
_symmetry_space_group_name_H-M   'P 1'
_cell_length_a   4.04894501
_cell_length_b   4.04894417
_cell_length_c   20.59579100
_cell_angle_alpha   90.00000000
_cell_angle_beta   90.00000000
_cell_angle_gamma   90.01215553
_symmetry_Int_Tables_number   1
_chemical_formula_structural   LiCe2AgAs4
_chemical_formula_sum   'Li2 Ce4 Ag2 As8'
_cell_volume   337.64640794
_cell_formula_units_Z   2
loop_
 _symmetry_equiv_pos_site_id
 _symmetry_equiv_pos_as_xyz
  1  'x, y, z'
loop_
 _atom_site_type_symbol
 _atom_site_label
 _atom_site_symmetry_multiplicity
 _atom_site_fract_x
 _atom_site_fract_y
 _atom_site_fract_z
 _atom_site_occupancy
  Li  Li0  1  0.240326  0.740326  0.750000  1
  Li  Li1  1  0.259674  0.759674  0.250000  1
  Ce  Ce2  1  0.255703  0.255823  0.388543  1
  Ce  Ce3  1  0.744177  0.744297  0.611457  1
  Ce  Ce4  1  0.755823  0.755703  0.111457  1
  Ce  Ce5  1  0.244297  0.244177  0.888543  1
  Ag  Ag6  1  0.759511  0.259511  0.250000  1
  Ag  Ag7  1  0.740489  0.240489  0.750000  1
  As  As8  1  0.743065  0.742664  0.838283  1
  As  As9  1  0.257336  0.256935  0.161717  1
  As  As10  1  0.242664  0.243065  0.661717  1
  As  As11  1  0.756935  0.757336  0.338283  1
  As  As12  1  0.252142  0.747858  0.000000  1
  As  As13  1  0.247858  0.752142  0.500000  1
  As  As14  1  0.747849  0.252151  0.000000  1
  As  As15  1  0.752151  0.247849  0.500000  1
