# generated using pymatgen
data_Ho2Mn3V(FeP)6
_symmetry_space_group_name_H-M   'P 1'
_cell_length_a   3.65061900
_cell_length_b   10.31412300
_cell_length_c   12.14578500
_cell_angle_alpha   90.00000000
_cell_angle_beta   90.00000000
_cell_angle_gamma   90.00000000
_symmetry_Int_Tables_number   1
_chemical_formula_structural   Ho2Mn3V(FeP)6
_chemical_formula_sum   'Ho4 Mn6 V2 Fe12 P12'
_cell_volume   457.32443360
_cell_formula_units_Z   2
loop_
 _symmetry_equiv_pos_site_id
 _symmetry_equiv_pos_as_xyz
  1  'x, y, z'
loop_
 _atom_site_type_symbol
 _atom_site_label
 _atom_site_symmetry_multiplicity
 _atom_site_fract_x
 _atom_site_fract_y
 _atom_site_fract_z
 _atom_site_occupancy
  Ho  Ho0  1  0.250000  0.579044  0.710343  1
  Ho  Ho1  1  0.250000  0.920956  0.210343  1
  Ho  Ho2  1  0.750000  0.417171  0.289117  1
  Ho  Ho3  1  0.750000  0.082829  0.789117  1
  Mn  Mn4  1  0.750000  0.295762  0.008064  1
  Mn  Mn5  1  0.750000  0.204238  0.508064  1
  Mn  Mn6  1  0.250000  0.403770  0.491545  1
  Mn  Mn7  1  0.250000  0.096230  0.991545  1
  Mn  Mn8  1  0.750000  0.587186  0.509093  1
  Mn  Mn9  1  0.750000  0.912814  0.009093  1
  V  V10  1  0.250000  0.703254  0.990697  1
  V  V11  1  0.250000  0.796746  0.490697  1
  Fe  Fe12  1  0.250000  0.221227  0.172623  1
  Fe  Fe13  1  0.250000  0.278773  0.672623  1
  Fe  Fe14  1  0.750000  0.784073  0.823628  1
  Fe  Fe15  1  0.750000  0.715927  0.323628  1
  Fe  Fe16  1  0.250000  0.874916  0.698128  1
  Fe  Fe17  1  0.250000  0.625084  0.198128  1
  Fe  Fe18  1  0.750000  0.120661  0.304932  1
  Fe  Fe19  1  0.750000  0.379339  0.804932  1
  Fe  Fe20  1  0.250000  0.462257  0.936106  1
  Fe  Fe21  1  0.250000  0.037743  0.436106  1
  Fe  Fe22  1  0.750000  0.535962  0.065319  1
  Fe  Fe23  1  0.750000  0.964038  0.565319  1
  P  P24  1  0.250000  0.423763  0.113855  1
  P  P25  1  0.250000  0.076237  0.613855  1
  P  P26  1  0.750000  0.577778  0.887554  1
  P  P27  1  0.750000  0.922222  0.387554  1
  P  P28  1  0.250000  0.269090  0.861136  1
  P  P29  1  0.250000  0.230910  0.361136  1
  P  P30  1  0.750000  0.733020  0.134232  1
  P  P31  1  0.750000  0.766980  0.634232  1
  P  P32  1  0.250000  0.596555  0.384188  1
  P  P33  1  0.250000  0.903445  0.884188  1
  P  P34  1  0.750000  0.395584  0.619441  1
  P  P35  1  0.750000  0.104416  0.119441  1
