# generated using pymatgen
data_Y3Lu2In2Sb
_symmetry_space_group_name_H-M   'P 1'
_cell_length_a   6.51204000
_cell_length_b   8.90607429
_cell_length_c   8.93499430
_cell_angle_alpha   119.89298872
_cell_angle_beta   89.99891564
_cell_angle_gamma   90.00218217
_symmetry_Int_Tables_number   1
_chemical_formula_structural   Y3Lu2In2Sb
_chemical_formula_sum   'Y6 Lu4 In4 Sb2'
_cell_volume   449.25775452
_cell_formula_units_Z   2
loop_
 _symmetry_equiv_pos_site_id
 _symmetry_equiv_pos_as_xyz
  1  'x, y, z'
loop_
 _atom_site_type_symbol
 _atom_site_label
 _atom_site_symmetry_multiplicity
 _atom_site_fract_x
 _atom_site_fract_y
 _atom_site_fract_z
 _atom_site_occupancy
  Y  Y0  1  0.749999  0.237503  0.000000  1
  Y  Y1  1  0.750002  0.761152  0.761705  1
  Y  Y2  1  0.750002  0.999448  0.238295  1
  Y  Y3  1  0.249999  0.761546  0.000000  1
  Y  Y4  1  0.250000  0.240929  0.236085  1
  Y  Y5  1  0.250000  0.004844  0.763915  1
  Lu  Lu6  1  0.504239  0.331486  0.665470  1
  Lu  Lu7  1  0.504239  0.666016  0.334530  1
  Lu  Lu8  1  0.995766  0.666018  0.334532  1
  Lu  Lu9  1  0.995766  0.331484  0.665468  1
  In  In10  1  0.750004  0.598269  0.000000  1
  In  In11  1  0.750015  0.395884  0.397697  1
  In  In12  1  0.750015  0.998187  0.602303  1
  In  In13  1  0.249949  0.404417  0.000000  1
  Sb  Sb14  1  0.250001  0.603797  0.604778  1
  Sb  Sb15  1  0.250001  0.999020  0.395222  1
