# generated using pymatgen
data_Yb8Si16(MoW3)3
_symmetry_space_group_name_H-M   'P 1'
_cell_length_a   6.72868712
_cell_length_b   6.90103947
_cell_length_c   13.05677971
_cell_angle_alpha   89.98916135
_cell_angle_beta   89.99179743
_cell_angle_gamma   90.05074584
_symmetry_Int_Tables_number   1
_chemical_formula_structural   Yb8Si16(MoW3)3
_chemical_formula_sum   'Yb8 Si16 Mo3 W9'
_cell_volume   606.29046738
_cell_formula_units_Z   1
loop_
 _symmetry_equiv_pos_site_id
 _symmetry_equiv_pos_as_xyz
  1  'x, y, z'
loop_
 _atom_site_type_symbol
 _atom_site_label
 _atom_site_symmetry_multiplicity
 _atom_site_fract_x
 _atom_site_fract_y
 _atom_site_fract_z
 _atom_site_occupancy
  Yb  Yb0  1  0.498776  0.332548  0.090536  1
  Yb  Yb1  1  0.998537  0.167065  0.409441  1
  Yb  Yb2  1  0.501125  0.667347  0.590459  1
  Yb  Yb3  1  0.001341  0.832713  0.909392  1
  Yb  Yb4  1  0.501336  0.666639  0.909426  1
  Yb  Yb5  1  0.001084  0.833522  0.590652  1
  Yb  Yb6  1  0.498845  0.332901  0.409550  1
  Yb  Yb7  1  0.998817  0.166866  0.090467  1
  Si  Si8  1  0.659856  0.042850  0.544840  1
  Si  Si9  1  0.159730  0.457139  0.955186  1
  Si  Si10  1  0.340384  0.957073  0.044815  1
  Si  Si11  1  0.839647  0.543019  0.455734  1
  Si  Si12  1  0.339439  0.957212  0.455199  1
  Si  Si13  1  0.840520  0.542833  0.045359  1
  Si  Si14  1  0.659624  0.042765  0.954742  1
  Si  Si15  1  0.159931  0.457613  0.544928  1
  Si  Si16  1  0.535326  0.378160  0.749366  1
  Si  Si17  1  0.035511  0.122038  0.750648  1
  Si  Si18  1  0.465296  0.621221  0.249247  1
  Si  Si19  1  0.963968  0.878924  0.249868  1
  Si  Si20  1  0.800062  0.635075  0.750066  1
  Si  Si21  1  0.300054  0.864985  0.749847  1
  Si  Si22  1  0.200773  0.364516  0.250125  1
  Si  Si23  1  0.699707  0.135113  0.249925  1
  Mo  Mo24  1  0.664513  0.832130  0.127508  1
  Mo  Mo25  1  0.835460  0.332102  0.872424  1
  Mo  Mo26  1  0.335615  0.167923  0.627527  1
  W  W27  1  0.836570  0.331543  0.628250  1
  W  W28  1  0.336371  0.168735  0.871696  1
  W  W29  1  0.164025  0.668141  0.127990  1
  W  W30  1  0.663555  0.831362  0.371877  1
  W  W31  1  0.163751  0.667992  0.372175  1
  W  W32  1  0.659955  0.011564  0.750028  1
  W  W33  1  0.160201  0.488781  0.749731  1
  W  W34  1  0.339351  0.987996  0.250443  1
  W  W35  1  0.840945  0.511593  0.250534  1
