# generated using pymatgen
data_Nd20IrPd6Ru5
_symmetry_space_group_name_H-M   'P 1'
_cell_length_a   11.34397336
_cell_length_b   11.34397319
_cell_length_c   6.63384915
_cell_angle_alpha   90.02820372
_cell_angle_beta   90.02820352
_cell_angle_gamma   90.35826845
_symmetry_Int_Tables_number   1
_chemical_formula_structural   Nd20IrPd6Ru5
_chemical_formula_sum   'Nd20 Ir1 Pd6 Ru5'
_cell_volume   853.66482006
_cell_formula_units_Z   1
loop_
 _symmetry_equiv_pos_site_id
 _symmetry_equiv_pos_as_xyz
  1  'x, y, z'
loop_
 _atom_site_type_symbol
 _atom_site_label
 _atom_site_symmetry_multiplicity
 _atom_site_fract_x
 _atom_site_fract_y
 _atom_site_fract_z
 _atom_site_occupancy
  Nd  Nd0  1  0.085810  0.300377  0.127615  1
  Nd  Nd1  1  0.794187  0.411262  0.118250  1
  Nd  Nd2  1  0.203683  0.594666  0.125027  1
  Nd  Nd3  1  0.918214  0.704343  0.129906  1
  Nd  Nd4  1  0.405334  0.796317  0.374973  1
  Nd  Nd5  1  0.588738  0.205813  0.381750  1
  Nd  Nd6  1  0.295657  0.081786  0.370094  1
  Nd  Nd7  1  0.699623  0.914190  0.372385  1
  Nd  Nd8  1  0.418588  0.203383  0.870448  1
  Nd  Nd9  1  0.704069  0.093024  0.875283  1
  Nd  Nd10  1  0.293192  0.910674  0.882367  1
  Nd  Nd11  1  0.585084  0.799584  0.872092  1
  Nd  Nd12  1  0.089326  0.706808  0.617633  1
  Nd  Nd13  1  0.906976  0.295931  0.624717  1
  Nd  Nd14  1  0.200416  0.414916  0.627908  1
  Nd  Nd15  1  0.796617  0.581412  0.629552  1
  Nd  Nd16  1  0.003829  0.997759  0.000119  1
  Nd  Nd17  1  0.501920  0.497723  0.000535  1
  Nd  Nd18  1  0.502277  0.498080  0.499465  1
  Nd  Nd19  1  0.002241  0.996171  0.499881  1
  Ir  Ir20  1  0.651405  0.348595  0.750000  1
  Pd  Pd21  1  0.345102  0.343862  0.251408  1
  Pd  Pd22  1  0.656138  0.654898  0.248592  1
  Pd  Pd23  1  0.848110  0.151890  0.250000  1
  Pd  Pd24  1  0.348256  0.651744  0.750000  1
  Pd  Pd25  1  0.156646  0.155709  0.750806  1
  Pd  Pd26  1  0.844291  0.843354  0.749194  1
  Ru  Ru27  1  0.149645  0.850355  0.250000  1
  Ru  Ru28  1  0.000926  0.498502  0.377284  1
  Ru  Ru29  1  0.501498  0.999074  0.122716  1
  Ru  Ru30  1  0.500946  0.998740  0.623635  1
  Ru  Ru31  1  0.001260  0.499054  0.876365  1
