# generated using pymatgen
data_Be8ReW3
_symmetry_space_group_name_H-M   'P 1'
_cell_length_a   4.43492600
_cell_length_b   4.43492686
_cell_length_c   7.27933400
_cell_angle_alpha   90.00000000
_cell_angle_beta   90.00000000
_cell_angle_gamma   120.00000847
_symmetry_Int_Tables_number   1
_chemical_formula_structural   Be8ReW3
_chemical_formula_sum   'Be8 Re1 W3'
_cell_volume   123.99240429
_cell_formula_units_Z   1
loop_
 _symmetry_equiv_pos_site_id
 _symmetry_equiv_pos_as_xyz
  1  'x, y, z'
loop_
 _atom_site_type_symbol
 _atom_site_label
 _atom_site_symmetry_multiplicity
 _atom_site_fract_x
 _atom_site_fract_y
 _atom_site_fract_z
 _atom_site_occupancy
  Be  Be0  1  0.000000  0.000000  0.001400  1
  Be  Be1  1  0.000000  0.000000  0.500004  1
  Be  Be2  1  0.830498  0.660996  0.250728  1
  Be  Be3  1  0.169559  0.830441  0.749315  1
  Be  Be4  1  0.660882  0.830441  0.749315  1
  Be  Be5  1  0.339004  0.169502  0.250728  1
  Be  Be6  1  0.830498  0.169502  0.250728  1
  Be  Be7  1  0.169559  0.339118  0.749315  1
  Re  Re8  1  0.333333  0.666667  0.436697  1
  W  W9  1  0.333333  0.666667  0.064757  1
  W  W10  1  0.666667  0.333333  0.560962  1
  W  W11  1  0.666667  0.333333  0.936050  1
