# generated using pymatgen
data_La3Sm3(GeBr3)2
_symmetry_space_group_name_H-M   'P 1'
_cell_length_a   10.52433191
_cell_length_b   10.50679106
_cell_length_c   10.50597691
_cell_angle_alpha   108.79068895
_cell_angle_beta   109.56016521
_cell_angle_gamma   109.98002343
_symmetry_Int_Tables_number   1
_chemical_formula_structural   La3Sm3(GeBr3)2
_chemical_formula_sum   'La6 Sm6 Ge4 Br12'
_cell_volume   895.12984048
_cell_formula_units_Z   2
loop_
 _symmetry_equiv_pos_site_id
 _symmetry_equiv_pos_as_xyz
  1  'x, y, z'
loop_
 _atom_site_type_symbol
 _atom_site_label
 _atom_site_symmetry_multiplicity
 _atom_site_fract_x
 _atom_site_fract_y
 _atom_site_fract_z
 _atom_site_occupancy
  La  La0  1  0.005673  0.015827  0.257962  1
  La  La1  1  0.494345  0.752305  0.010158  1
  La  La2  1  0.492488  0.241893  0.483411  1
  La  La3  1  0.007481  0.490888  0.749368  1
  La  La4  1  0.259330  0.010371  0.017532  1
  La  La5  1  0.240711  0.258155  0.750973  1
  Sm  Sm6  1  0.473798  0.489038  0.238848  1
  Sm  Sm7  1  0.750445  0.237942  0.263742  1
  Sm  Sm8  1  0.749594  0.013319  0.487509  1
  Sm  Sm9  1  0.234422  0.472716  0.484352  1
  Sm  Sm10  1  0.265561  0.749948  0.238285  1
  Sm  Sm11  1  0.026199  0.265004  0.015315  1
  Ge  Ge12  1  0.249762  0.251346  0.250442  1
  Ge  Ge13  1  0.500943  0.000524  0.251050  1
  Ge  Ge14  1  0.999003  0.250089  0.499567  1
  Ge  Ge15  1  0.250257  0.500664  0.001672  1
  Br  Br16  1  0.251711  0.752276  0.738267  1
  Br  Br17  1  0.507318  0.509523  0.748656  1
  Br  Br18  1  0.992671  0.741370  0.002163  1
  Br  Br19  1  0.747034  0.238709  0.753791  1
  Br  Br20  1  0.984823  0.994192  0.748264  1
  Br  Br21  1  0.248237  0.986552  0.500527  1
  Br  Br22  1  0.752966  0.506790  0.491705  1
  Br  Br23  1  0.515211  0.263452  0.009384  1
  Br  Br24  1  0.752313  0.747252  0.262496  1
  Br  Br25  1  0.747674  0.010203  0.994915  1
  Br  Br26  1  0.000483  0.500369  0.249775  1
  Br  Br27  1  0.499548  0.749285  0.499869  1
