# generated using pymatgen
data_ThCo2(PRh)3
_symmetry_space_group_name_H-M   'P 1'
_cell_length_a   3.87031100
_cell_length_b   10.77235100
_cell_length_c   12.31339500
_cell_angle_alpha   90.00000000
_cell_angle_beta   90.00000000
_cell_angle_gamma   90.00000000
_symmetry_Int_Tables_number   1
_chemical_formula_structural   ThCo2(PRh)3
_chemical_formula_sum   'Th4 Co8 P12 Rh12'
_cell_volume   513.37435643
_cell_formula_units_Z   4
loop_
 _symmetry_equiv_pos_site_id
 _symmetry_equiv_pos_as_xyz
  1  'x, y, z'
loop_
 _atom_site_type_symbol
 _atom_site_label
 _atom_site_symmetry_multiplicity
 _atom_site_fract_x
 _atom_site_fract_y
 _atom_site_fract_z
 _atom_site_occupancy
  Th  Th0  1  0.250000  0.583420  0.708472  1
  Th  Th1  1  0.250000  0.916580  0.208472  1
  Th  Th2  1  0.750000  0.416580  0.291528  1
  Th  Th3  1  0.750000  0.083420  0.791528  1
  Co  Co4  1  0.250000  0.883801  0.695593  1
  Co  Co5  1  0.250000  0.616199  0.195593  1
  Co  Co6  1  0.750000  0.116199  0.304407  1
  Co  Co7  1  0.750000  0.383801  0.804407  1
  Co  Co8  1  0.250000  0.465607  0.933505  1
  Co  Co9  1  0.250000  0.034393  0.433505  1
  Co  Co10  1  0.750000  0.534393  0.066495  1
  Co  Co11  1  0.750000  0.965607  0.566495  1
  P  P12  1  0.250000  0.430928  0.108059  1
  P  P13  1  0.250000  0.069072  0.608059  1
  P  P14  1  0.750000  0.569072  0.891941  1
  P  P15  1  0.750000  0.930928  0.391941  1
  P  P16  1  0.250000  0.279922  0.871712  1
  P  P17  1  0.250000  0.220078  0.371712  1
  P  P18  1  0.750000  0.720078  0.128288  1
  P  P19  1  0.750000  0.779922  0.628288  1
  P  P20  1  0.250000  0.604869  0.382423  1
  P  P21  1  0.250000  0.895131  0.882423  1
  P  P22  1  0.750000  0.395131  0.617577  1
  P  P23  1  0.750000  0.104869  0.117577  1
  Rh  Rh24  1  0.250000  0.715126  0.990368  1
  Rh  Rh25  1  0.250000  0.784874  0.490368  1
  Rh  Rh26  1  0.750000  0.284874  0.009632  1
  Rh  Rh27  1  0.750000  0.215126  0.509632  1
  Rh  Rh28  1  0.250000  0.409188  0.477530  1
  Rh  Rh29  1  0.250000  0.090812  0.977530  1
  Rh  Rh30  1  0.750000  0.590812  0.522470  1
  Rh  Rh31  1  0.750000  0.909188  0.022470  1
  Rh  Rh32  1  0.250000  0.225070  0.178884  1
  Rh  Rh33  1  0.250000  0.274930  0.678884  1
  Rh  Rh34  1  0.750000  0.774930  0.821116  1
  Rh  Rh35  1  0.750000  0.725070  0.321116  1
