# generated using pymatgen
data_ThSeS
_symmetry_space_group_name_H-M   'P 1'
_cell_length_a   4.34908200
_cell_length_b   7.53925600
_cell_length_c   8.75744500
_cell_angle_alpha   90.00000000
_cell_angle_beta   90.00000000
_cell_angle_gamma   90.00000000
_symmetry_Int_Tables_number   1
_chemical_formula_structural   ThSeS
_chemical_formula_sum   'Th4 Se4 S4'
_cell_volume   287.14648536
_cell_formula_units_Z   4
loop_
 _symmetry_equiv_pos_site_id
 _symmetry_equiv_pos_as_xyz
  1  'x, y, z'
loop_
 _atom_site_type_symbol
 _atom_site_label
 _atom_site_symmetry_multiplicity
 _atom_site_fract_x
 _atom_site_fract_y
 _atom_site_fract_z
 _atom_site_occupancy
  Th  Th0  1  0.250000  0.229322  0.875584  1
  Th  Th1  1  0.750000  0.770678  0.124416  1
  Th  Th2  1  0.250000  0.729322  0.624416  1
  Th  Th3  1  0.750000  0.270678  0.375584  1
  Se  Se4  1  0.750000  0.030833  0.664355  1
  Se  Se5  1  0.250000  0.969167  0.335645  1
  Se  Se6  1  0.750000  0.530833  0.835645  1
  Se  Se7  1  0.250000  0.469167  0.164355  1
  S  S8  1  0.250000  0.856204  0.932284  1
  S  S9  1  0.750000  0.143796  0.067716  1
  S  S10  1  0.250000  0.356204  0.567716  1
  S  S11  1  0.750000  0.643796  0.432284  1
