# generated using pymatgen
data_Ce3Er3Al24GaOs7
_symmetry_space_group_name_H-M   'P 1'
_cell_length_a   8.88649924
_cell_length_b   8.89100679
_cell_length_c   9.53585671
_cell_angle_alpha   90.19905031
_cell_angle_beta   89.76942014
_cell_angle_gamma   119.72627093
_symmetry_Int_Tables_number   1
_chemical_formula_structural   Ce3Er3Al24GaOs7
_chemical_formula_sum   'Ce3 Er3 Al24 Ga1 Os7'
_cell_volume   654.27324286
_cell_formula_units_Z   1
loop_
 _symmetry_equiv_pos_site_id
 _symmetry_equiv_pos_as_xyz
  1  'x, y, z'
loop_
 _atom_site_type_symbol
 _atom_site_label
 _atom_site_symmetry_multiplicity
 _atom_site_fract_x
 _atom_site_fract_y
 _atom_site_fract_z
 _atom_site_occupancy
  Ce  Ce0  1  0.193583  0.383527  0.247754  1
  Ce  Ce1  1  0.810152  0.617247  0.752567  1
  Ce  Ce2  1  0.614847  0.806791  0.247931  1
  Er  Er3  1  0.386127  0.193394  0.753474  1
  Er  Er4  1  0.195756  0.804420  0.258648  1
  Er  Er5  1  0.805583  0.197148  0.741627  1
  Al  Al6  1  0.324455  0.672974  0.023720  1
  Al  Al7  1  0.670890  0.324022  0.976281  1
  Al  Al8  1  0.663597  0.330738  0.519833  1
  Al  Al9  1  0.330826  0.666675  0.482196  1
  Al  Al10  1  0.161582  0.324536  0.573150  1
  Al  Al11  1  0.838800  0.674341  0.427218  1
  Al  Al12  1  0.674758  0.839065  0.573688  1
  Al  Al13  1  0.855516  0.680276  0.082481  1
  Al  Al14  1  0.325883  0.160868  0.429033  1
  Al  Al15  1  0.144679  0.319824  0.917851  1
  Al  Al16  1  0.164652  0.838823  0.578903  1
  Al  Al17  1  0.319898  0.143825  0.082460  1
  Al  Al18  1  0.837208  0.163192  0.421195  1
  Al  Al19  1  0.679972  0.855674  0.916251  1
  Al  Al20  1  0.836872  0.163217  0.078265  1
  Al  Al21  1  0.164587  0.838359  0.921468  1
  Al  Al22  1  0.561351  0.122091  0.249544  1
  Al  Al23  1  0.439080  0.881617  0.749474  1
  Al  Al24  1  0.878906  0.438815  0.249872  1
  Al  Al25  1  0.122489  0.561349  0.749840  1
  Al  Al26  1  0.566701  0.432588  0.257258  1
  Al  Al27  1  0.433693  0.564809  0.740846  1
  Al  Al28  1  0.000621  0.999846  0.250774  1
  Al  Al29  1  0.003352  0.003029  0.749282  1
  Ga  Ga30  1  0.499185  0.500874  0.001089  1
  Os  Os31  1  0.499616  0.998897  0.000213  1
  Os  Os32  1  0.997609  0.499072  0.998460  1
  Os  Os33  1  0.499777  0.998732  0.498574  1
  Os  Os34  1  0.997649  0.498941  0.501114  1
  Os  Os35  1  0.498930  0.500228  0.497597  1
  Os  Os36  1  0.000208  0.000211  0.999744  1
  Os  Os37  1  0.000607  0.999967  0.500321  1
