# generated using pymatgen
data_Hf9Tc(Sn3B)2
_symmetry_space_group_name_H-M   'P 1'
_cell_length_a   8.44908700
_cell_length_b   8.44908677
_cell_length_c   5.64771600
_cell_angle_alpha   90.00000000
_cell_angle_beta   90.00000000
_cell_angle_gamma   119.99999700
_symmetry_Int_Tables_number   1
_chemical_formula_structural   Hf9Tc(Sn3B)2
_chemical_formula_sum   'Hf9 Tc1 Sn6 B2'
_cell_volume   349.15884378
_cell_formula_units_Z   1
loop_
 _symmetry_equiv_pos_site_id
 _symmetry_equiv_pos_as_xyz
  1  'x, y, z'
loop_
 _atom_site_type_symbol
 _atom_site_label
 _atom_site_symmetry_multiplicity
 _atom_site_fract_x
 _atom_site_fract_y
 _atom_site_fract_z
 _atom_site_occupancy
  Hf  Hf0  1  0.666667  0.333333  0.000000  1
  Hf  Hf1  1  0.333333  0.666667  0.000000  1
  Hf  Hf2  1  0.333333  0.666667  0.500000  1
  Hf  Hf3  1  0.768887  0.770949  0.753304  1
  Hf  Hf4  1  0.229051  0.997938  0.753304  1
  Hf  Hf5  1  0.002062  0.231113  0.753304  1
  Hf  Hf6  1  0.229051  0.231113  0.246696  1
  Hf  Hf7  1  0.768887  0.997938  0.246696  1
  Hf  Hf8  1  0.002062  0.770949  0.246696  1
  Tc  Tc9  1  0.666667  0.333333  0.500000  1
  Sn  Sn10  1  0.404219  0.398219  0.742308  1
  Sn  Sn11  1  0.601781  0.006000  0.742308  1
  Sn  Sn12  1  0.994000  0.595781  0.742308  1
  Sn  Sn13  1  0.601781  0.595781  0.257692  1
  Sn  Sn14  1  0.404219  0.006000  0.257692  1
  Sn  Sn15  1  0.994000  0.398219  0.257692  1
  B  B16  1  0.000000  0.000000  0.000000  1
  B  B17  1  0.000000  0.000000  0.500000  1
