# generated using pymatgen
data_Yb(HfS2)4
_symmetry_space_group_name_H-M   'P 1'
_cell_length_a   7.94624292
_cell_length_b   7.94624052
_cell_length_c   7.94624185
_cell_angle_alpha   53.86418683
_cell_angle_beta   53.86419109
_cell_angle_gamma   53.86418974
_symmetry_Int_Tables_number   1
_chemical_formula_structural   Yb(HfS2)4
_chemical_formula_sum   'Yb1 Hf4 S8'
_cell_volume   303.91647265
_cell_formula_units_Z   1
loop_
 _symmetry_equiv_pos_site_id
 _symmetry_equiv_pos_as_xyz
  1  'x, y, z'
loop_
 _atom_site_type_symbol
 _atom_site_label
 _atom_site_symmetry_multiplicity
 _atom_site_fract_x
 _atom_site_fract_y
 _atom_site_fract_z
 _atom_site_occupancy
  Yb  Yb0  1  0.500000  0.500000  0.500000  1
  Hf  Hf1  1  0.000000  0.500000  0.500000  1
  Hf  Hf2  1  0.500000  0.000000  0.500000  1
  Hf  Hf3  1  0.500000  0.500000  0.000000  1
  Hf  Hf4  1  0.000000  0.000000  0.000000  1
  S  S5  1  0.256289  0.759849  0.759849  1
  S  S6  1  0.240151  0.240151  0.743711  1
  S  S7  1  0.743711  0.240151  0.240151  1
  S  S8  1  0.240151  0.743711  0.240151  1
  S  S9  1  0.260871  0.260871  0.260871  1
  S  S10  1  0.739129  0.739129  0.739129  1
  S  S11  1  0.759849  0.256289  0.759849  1
  S  S12  1  0.759849  0.759849  0.256289  1
