# generated using pymatgen
data_La6Sn6IrRh5
_symmetry_space_group_name_H-M   'P 1'
_cell_length_a   7.56737100
_cell_length_b   7.56737079
_cell_length_c   8.48025000
_cell_angle_alpha   90.00000000
_cell_angle_beta   90.00000000
_cell_angle_gamma   120.00000527
_symmetry_Int_Tables_number   1
_chemical_formula_structural   La6Sn6IrRh5
_chemical_formula_sum   'La6 Sn6 Ir1 Rh5'
_cell_volume   420.56129865
_cell_formula_units_Z   1
loop_
 _symmetry_equiv_pos_site_id
 _symmetry_equiv_pos_as_xyz
  1  'x, y, z'
loop_
 _atom_site_type_symbol
 _atom_site_label
 _atom_site_symmetry_multiplicity
 _atom_site_fract_x
 _atom_site_fract_y
 _atom_site_fract_z
 _atom_site_occupancy
  La  La0  1  0.585589  0.000873  0.750803  1
  La  La1  1  0.415285  0.414411  0.750803  1
  La  La2  1  0.999127  0.584715  0.750803  1
  La  La3  1  0.585808  0.001433  0.249131  1
  La  La4  1  0.415625  0.414192  0.249131  1
  La  La5  1  0.998567  0.584375  0.249131  1
  Sn  Sn6  1  0.246471  0.998404  0.000053  1
  Sn  Sn7  1  0.752876  0.753694  0.499791  1
  Sn  Sn8  1  0.000819  0.247124  0.499791  1
  Sn  Sn9  1  0.001596  0.248068  0.000053  1
  Sn  Sn10  1  0.751932  0.753529  0.000053  1
  Sn  Sn11  1  0.246306  0.999181  0.499791  1
  Ir  Ir12  1  0.666667  0.333333  0.999738  1
  Rh  Rh13  1  0.666667  0.333333  0.501351  1
  Rh  Rh14  1  0.333333  0.666667  0.000964  1
  Rh  Rh15  1  0.333333  0.666667  0.498795  1
  Rh  Rh16  1  0.000000  0.000000  0.750072  1
  Rh  Rh17  1  0.000000  0.000000  0.249746  1
