# generated using pymatgen
data_Lu12TlNi5
_symmetry_space_group_name_H-M   'P 1'
_cell_length_a   8.11333938
_cell_length_b   8.12126775
_cell_length_c   8.11334134
_cell_angle_alpha   111.42652144
_cell_angle_beta   110.26214625
_cell_angle_gamma   106.72258561
_symmetry_Int_Tables_number   1
_chemical_formula_structural   Lu12TlNi5
_chemical_formula_sum   'Lu12 Tl1 Ni5'
_cell_volume   410.98265339
_cell_formula_units_Z   1
loop_
 _symmetry_equiv_pos_site_id
 _symmetry_equiv_pos_as_xyz
  1  'x, y, z'
loop_
 _atom_site_type_symbol
 _atom_site_label
 _atom_site_symmetry_multiplicity
 _atom_site_fract_x
 _atom_site_fract_y
 _atom_site_fract_z
 _atom_site_occupancy
  Lu  Lu0  1  0.817419  0.711209  0.528814  1
  Lu  Lu1  1  0.182581  0.288791  0.471186  1
  Lu  Lu2  1  0.182397  0.711209  0.893791  1
  Lu  Lu3  1  0.817603  0.288791  0.106209  1
  Lu  Lu4  1  0.677630  0.371778  0.694150  1
  Lu  Lu5  1  0.322370  0.628222  0.305850  1
  Lu  Lu6  1  0.677117  0.982277  0.305160  1
  Lu  Lu7  1  0.322883  0.017723  0.694840  1
  Lu  Lu8  1  0.590141  0.781457  0.808869  1
  Lu  Lu9  1  0.409859  0.218543  0.191131  1
  Lu  Lu10  1  0.972589  0.781457  0.191316  1
  Lu  Lu11  1  0.027411  0.218543  0.808684  1
  Tl  Tl12  1  0.500000  0.500000  0.000000  1
  Ni  Ni13  1  0.641967  0.000000  0.641967  1
  Ni  Ni14  1  0.358033  0.000000  0.358033  1
  Ni  Ni15  1  0.123622  0.624844  0.501222  1
  Ni  Ni16  1  0.876378  0.375156  0.498778  1
  Ni  Ni17  1  0.000000  0.000000  0.000000  1
