# generated using pymatgen
data_CaNd3(InCu5)4
_symmetry_space_group_name_H-M   'P 1'
_cell_length_a   5.13871700
_cell_length_b   5.13871771
_cell_length_c   20.17939500
_cell_angle_alpha   90.00000000
_cell_angle_beta   90.00000000
_cell_angle_gamma   120.00000184
_symmetry_Int_Tables_number   1
_chemical_formula_structural   CaNd3(InCu5)4
_chemical_formula_sum   'Ca1 Nd3 In4 Cu20'
_cell_volume   461.47505162
_cell_formula_units_Z   1
loop_
 _symmetry_equiv_pos_site_id
 _symmetry_equiv_pos_as_xyz
  1  'x, y, z'
loop_
 _atom_site_type_symbol
 _atom_site_label
 _atom_site_symmetry_multiplicity
 _atom_site_fract_x
 _atom_site_fract_y
 _atom_site_fract_z
 _atom_site_occupancy
  Ca  Ca0  1  0.000000  0.000000  0.000000  1
  Nd  Nd1  1  0.333333  0.666667  0.749245  1
  Nd  Nd2  1  0.666667  0.333333  0.250755  1
  Nd  Nd3  1  0.000000  0.000000  0.500000  1
  In  In4  1  0.333333  0.666667  0.583814  1
  In  In5  1  0.666667  0.333333  0.416186  1
  In  In6  1  0.666667  0.333333  0.084092  1
  In  In7  1  0.333333  0.666667  0.915908  1
  Cu  Cu8  1  0.333333  0.666667  0.047968  1
  Cu  Cu9  1  0.666667  0.333333  0.952032  1
  Cu  Cu10  1  0.666667  0.333333  0.547659  1
  Cu  Cu11  1  0.333333  0.666667  0.452341  1
  Cu  Cu12  1  0.000000  0.000000  0.250377  1
  Cu  Cu13  1  0.000000  0.000000  0.749623  1
  Cu  Cu14  1  0.333333  0.666667  0.250377  1
  Cu  Cu15  1  0.666667  0.333333  0.749623  1
  Cu  Cu16  1  0.165826  0.331653  0.148816  1
  Cu  Cu17  1  0.834174  0.668347  0.851184  1
  Cu  Cu18  1  0.668347  0.834174  0.148816  1
  Cu  Cu19  1  0.834326  0.668651  0.647726  1
  Cu  Cu20  1  0.331653  0.165826  0.851184  1
  Cu  Cu21  1  0.165674  0.331349  0.352274  1
  Cu  Cu22  1  0.165826  0.834174  0.148816  1
  Cu  Cu23  1  0.331349  0.165674  0.647726  1
  Cu  Cu24  1  0.834174  0.165826  0.851184  1
  Cu  Cu25  1  0.668651  0.834326  0.352274  1
  Cu  Cu26  1  0.834326  0.165674  0.647726  1
  Cu  Cu27  1  0.165674  0.834326  0.352274  1
