# generated using pymatgen
data_ErTm3Ti3Nb3Si8
_symmetry_space_group_name_H-M   'P 1'
_cell_length_a   7.02176231
_cell_length_b   7.02244266
_cell_length_c   12.91552505
_cell_angle_alpha   90.07942490
_cell_angle_beta   89.98292737
_cell_angle_gamma   90.00229227
_symmetry_Int_Tables_number   1
_chemical_formula_structural   ErTm3Ti3Nb3Si8
_chemical_formula_sum   'Er2 Tm6 Ti6 Nb6 Si16'
_cell_volume   636.86290777
_cell_formula_units_Z   2
loop_
 _symmetry_equiv_pos_site_id
 _symmetry_equiv_pos_as_xyz
  1  'x, y, z'
loop_
 _atom_site_type_symbol
 _atom_site_label
 _atom_site_symmetry_multiplicity
 _atom_site_fract_x
 _atom_site_fract_y
 _atom_site_fract_z
 _atom_site_occupancy
  Er  Er0  1  0.000681  0.341321  0.532974  1
  Er  Er1  1  0.998829  0.660027  0.033313  1
  Tm  Tm2  1  0.341866  0.000580  0.466211  1
  Tm  Tm3  1  0.499058  0.841846  0.716187  1
  Tm  Tm4  1  0.501113  0.157323  0.216872  1
  Tm  Tm5  1  0.840350  0.499766  0.283638  1
  Tm  Tm6  1  0.158653  0.500684  0.782817  1
  Tm  Tm7  1  0.657624  0.998626  0.966689  1
  Ti  Ti8  1  0.507768  0.347756  0.624530  1
  Ti  Ti9  1  0.652628  0.491493  0.875692  1
  Ti  Ti10  1  0.348852  0.507826  0.375937  1
  Ti  Ti11  1  0.847568  0.991937  0.373832  1
  Ti  Ti12  1  0.007813  0.151662  0.125846  1
  Ti  Ti13  1  0.991882  0.847437  0.626104  1
  Nb  Nb14  1  0.328084  0.327826  0.000318  1
  Nb  Nb15  1  0.172133  0.828113  0.250584  1
  Nb  Nb16  1  0.828357  0.172150  0.749978  1
  Nb  Nb17  1  0.671793  0.671602  0.500061  1
  Nb  Nb18  1  0.151737  0.007402  0.874203  1
  Nb  Nb19  1  0.492526  0.651879  0.123607  1
  Si  Si20  1  0.205804  0.132305  0.681762  1
  Si  Si21  1  0.368790  0.704692  0.931334  1
  Si  Si22  1  0.631009  0.295810  0.433318  1
  Si  Si23  1  0.706179  0.364975  0.067674  1
  Si  Si24  1  0.295939  0.631489  0.566750  1
  Si  Si25  1  0.796394  0.869552  0.183492  1
  Si  Si26  1  0.131387  0.204277  0.317349  1
  Si  Si27  1  0.865272  0.794089  0.817000  1
  Si  Si28  1  0.293198  0.954499  0.064234  1
  Si  Si29  1  0.546862  0.793779  0.314507  1
  Si  Si30  1  0.454312  0.208848  0.812663  1
  Si  Si31  1  0.793001  0.546148  0.686310  1
  Si  Si32  1  0.205421  0.451844  0.187491  1
  Si  Si33  1  0.707874  0.046588  0.563251  1
  Si  Si34  1  0.952636  0.295800  0.936626  1
  Si  Si35  1  0.046609  0.708050  0.436849  1
