# generated using pymatgen
data_CaHo3Al18FePd5
_symmetry_space_group_name_H-M   'P 1'
_cell_length_a   7.58857110
_cell_length_b   7.58735831
_cell_length_c   9.43456125
_cell_angle_alpha   90.07020637
_cell_angle_beta   90.04943345
_cell_angle_gamma   119.71272932
_symmetry_Int_Tables_number   1
_chemical_formula_structural   CaHo3Al18FePd5
_chemical_formula_sum   'Ca1 Ho3 Al18 Fe1 Pd5'
_cell_volume   471.79343548
_cell_formula_units_Z   1
loop_
 _symmetry_equiv_pos_site_id
 _symmetry_equiv_pos_as_xyz
  1  'x, y, z'
loop_
 _atom_site_type_symbol
 _atom_site_label
 _atom_site_symmetry_multiplicity
 _atom_site_fract_x
 _atom_site_fract_y
 _atom_site_fract_z
 _atom_site_occupancy
  Ca  Ca0  1  0.994256  0.667117  0.249180  1
  Ho  Ho1  1  0.005180  0.333015  0.751255  1
  Ho  Ho2  1  0.668474  0.994880  0.248975  1
  Ho  Ho3  1  0.330994  0.004053  0.751110  1
  Al  Al4  1  0.121158  0.123070  0.241119  1
  Al  Al5  1  0.878660  0.878819  0.758343  1
  Al  Al6  1  0.998246  0.323807  0.072174  1
  Al  Al7  1  0.001420  0.676379  0.927725  1
  Al  Al8  1  0.998257  0.665891  0.578426  1
  Al  Al9  1  0.334325  0.001341  0.422507  1
  Al  Al10  1  0.001499  0.333736  0.421957  1
  Al  Al11  1  0.665982  0.998776  0.578961  1
  Al  Al12  1  0.676213  0.002053  0.926611  1
  Al  Al13  1  0.322643  0.997579  0.072519  1
  Al  Al14  1  0.333627  0.333563  0.558769  1
  Al  Al15  1  0.665565  0.666038  0.443086  1
  Al  Al16  1  0.678796  0.678890  0.050456  1
  Al  Al17  1  0.322335  0.322476  0.947935  1
  Al  Al18  1  0.343623  0.546444  0.247949  1
  Al  Al19  1  0.659915  0.454038  0.751907  1
  Al  Al20  1  0.543104  0.336752  0.248219  1
  Al  Al21  1  0.455961  0.659860  0.751733  1
  Fe  Fe22  1  0.000482  0.002607  0.998133  1
  Pd  Pd23  1  0.670758  0.326586  0.999110  1
  Pd  Pd24  1  0.328612  0.672329  0.998581  1
  Pd  Pd25  1  0.327654  0.672054  0.501199  1
  Pd  Pd26  1  0.671882  0.326865  0.500874  1
  Pd  Pd27  1  0.000378  0.000983  0.501188  1
