# generated using pymatgen
data_LaCe2TiSb5
_symmetry_space_group_name_H-M   'P 1'
_cell_length_a   9.46731207
_cell_length_b   9.43278272
_cell_length_c   6.34573800
_cell_angle_alpha   90.00000000
_cell_angle_beta   90.00000000
_cell_angle_gamma   119.87943153
_symmetry_Int_Tables_number   1
_chemical_formula_structural   LaCe2TiSb5
_chemical_formula_sum   'La2 Ce4 Ti2 Sb10'
_cell_volume   491.36661727
_cell_formula_units_Z   2
loop_
 _symmetry_equiv_pos_site_id
 _symmetry_equiv_pos_as_xyz
  1  'x, y, z'
loop_
 _atom_site_type_symbol
 _atom_site_label
 _atom_site_symmetry_multiplicity
 _atom_site_fract_x
 _atom_site_fract_y
 _atom_site_fract_z
 _atom_site_occupancy
  La  La0  1  0.615667  0.618448  0.750000  1
  La  La1  1  0.615667  0.997220  0.250000  1
  Ce  Ce2  1  0.384378  0.001891  0.750000  1
  Ce  Ce3  1  0.384378  0.382486  0.250000  1
  Ce  Ce4  1  0.999255  0.615958  0.250000  1
  Ce  Ce5  1  0.999255  0.383295  0.750000  1
  Ti  Ti6  1  0.999864  0.999931  0.000000  1
  Ti  Ti7  1  0.999864  0.999931  0.500000  1
  Sb  Sb8  1  0.668598  0.334299  0.500000  1
  Sb  Sb9  1  0.326241  0.663121  0.000000  1
  Sb  Sb10  1  0.749685  0.005551  0.750000  1
  Sb  Sb11  1  0.749685  0.744135  0.250000  1
  Sb  Sb12  1  0.326241  0.663121  0.500000  1
  Sb  Sb13  1  0.668598  0.334299  0.000000  1
  Sb  Sb14  1  0.252244  0.998664  0.250000  1
  Sb  Sb15  1  0.252244  0.253580  0.750000  1
  Sb  Sb16  1  0.004068  0.745835  0.750000  1
  Sb  Sb17  1  0.004068  0.258234  0.250000  1
