# generated using pymatgen
data_Lu4MoOs5Ru2
_symmetry_space_group_name_H-M   'P 1'
_cell_length_a   5.31587700
_cell_length_b   5.22031657
_cell_length_c   8.93923000
_cell_angle_alpha   90.00000000
_cell_angle_beta   90.00000000
_cell_angle_gamma   120.60739173
_symmetry_Int_Tables_number   1
_chemical_formula_structural   Lu4MoOs5Ru2
_chemical_formula_sum   'Lu4 Mo1 Os5 Ru2'
_cell_volume   213.50681583
_cell_formula_units_Z   1
loop_
 _symmetry_equiv_pos_site_id
 _symmetry_equiv_pos_as_xyz
  1  'x, y, z'
loop_
 _atom_site_type_symbol
 _atom_site_label
 _atom_site_symmetry_multiplicity
 _atom_site_fract_x
 _atom_site_fract_y
 _atom_site_fract_z
 _atom_site_occupancy
  Lu  Lu0  1  0.335512  0.671025  0.432484  1
  Lu  Lu1  1  0.670056  0.340112  0.563766  1
  Lu  Lu2  1  0.670056  0.340112  0.936234  1
  Lu  Lu3  1  0.335512  0.671025  0.067516  1
  Mo  Mo4  1  0.163033  0.326068  0.750000  1
  Os  Os5  1  0.171433  0.820713  0.750000  1
  Os  Os6  1  0.336460  0.166943  0.250000  1
  Os  Os7  1  0.824947  0.649893  0.250000  1
  Os  Os8  1  0.649279  0.820713  0.750000  1
  Os  Os9  1  0.830485  0.166943  0.250000  1
  Ru  Ru10  1  0.006614  0.013227  0.000003  1
  Ru  Ru11  1  0.006614  0.013227  0.499997  1
