# generated using pymatgen
data_K(V3S4)4
_symmetry_space_group_name_H-M   'P 1'
_cell_length_a   9.74739601
_cell_length_b   9.74739642
_cell_length_c   9.19595270
_cell_angle_alpha   61.72971403
_cell_angle_beta   61.72971184
_cell_angle_gamma   38.63912514
_symmetry_Int_Tables_number   1
_chemical_formula_structural   K(V3S4)4
_chemical_formula_sum   'K1 V12 S16'
_cell_volume   471.87445178
_cell_formula_units_Z   1
loop_
 _symmetry_equiv_pos_site_id
 _symmetry_equiv_pos_as_xyz
  1  'x, y, z'
loop_
 _atom_site_type_symbol
 _atom_site_label
 _atom_site_symmetry_multiplicity
 _atom_site_fract_x
 _atom_site_fract_y
 _atom_site_fract_z
 _atom_site_occupancy
  K  K0  1  0.374954  0.374954  0.999351  1
  V  V1  1  0.933081  0.933081  0.511268  1
  V  V2  1  0.432722  0.432722  0.514838  1
  V  V3  1  0.131203  0.131203  0.373588  1
  V  V4  1  0.632424  0.632424  0.368730  1
  V  V5  1  0.059386  0.059386  0.116039  1
  V  V6  1  0.561836  0.561836  0.114547  1
  V  V7  1  0.065163  0.569493  0.491721  1
  V  V8  1  0.569493  0.065163  0.491721  1
  V  V9  1  0.876626  0.364389  0.623679  1
  V  V10  1  0.364389  0.876626  0.623679  1
  V  V11  1  0.931581  0.442087  0.885196  1
  V  V12  1  0.442087  0.931581  0.885196  1
  S  S13  1  0.525767  0.525767  0.645332  1
  S  S14  1  0.021545  0.021545  0.652351  1
  S  S15  1  0.701272  0.701272  0.053983  1
  S  S16  1  0.197313  0.197313  0.054327  1
  S  S17  1  0.402243  0.402243  0.299888  1
  S  S18  1  0.901561  0.901561  0.295532  1
  S  S19  1  0.479428  0.979298  0.345284  1
  S  S20  1  0.979298  0.479428  0.345284  1
  S  S21  1  0.297347  0.798094  0.945902  1
  S  S22  1  0.798094  0.297347  0.945902  1
  S  S23  1  0.600195  0.096029  0.708409  1
  S  S24  1  0.096029  0.600195  0.708409  1
  S  S25  1  0.707664  0.707664  0.665814  1
  S  S26  1  0.208814  0.208814  0.667754  1
  S  S27  1  0.291371  0.792115  0.333138  1
  S  S28  1  0.792115  0.291371  0.333138  1
