# generated using pymatgen
data_Hf6Al5GaPd6
_symmetry_space_group_name_H-M   'P 1'
_cell_length_a   7.18782030
_cell_length_b   7.21473630
_cell_length_c   7.04279234
_cell_angle_alpha   89.99999726
_cell_angle_beta   89.86281435
_cell_angle_gamma   120.12395010
_symmetry_Int_Tables_number   1
_chemical_formula_structural   Hf6Al5GaPd6
_chemical_formula_sum   'Hf6 Al5 Ga1 Pd6'
_cell_volume   315.89862257
_cell_formula_units_Z   1
loop_
 _symmetry_equiv_pos_site_id
 _symmetry_equiv_pos_as_xyz
  1  'x, y, z'
loop_
 _atom_site_type_symbol
 _atom_site_label
 _atom_site_symmetry_multiplicity
 _atom_site_fract_x
 _atom_site_fract_y
 _atom_site_fract_z
 _atom_site_occupancy
  Hf  Hf0  1  0.608725  0.588765  0.249899  1
  Hf  Hf1  1  0.018647  0.412749  0.750188  1
  Hf  Hf2  1  0.411281  0.019122  0.250195  1
  Hf  Hf3  1  0.981353  0.394101  0.249812  1
  Hf  Hf4  1  0.391275  0.980039  0.750101  1
  Hf  Hf5  1  0.588719  0.607840  0.749805  1
  Al  Al6  1  0.256624  0.258046  0.500040  1
  Al  Al7  1  0.743376  0.001422  0.499960  1
  Al  Al8  1  0.000000  0.742978  0.500000  1
  Al  Al9  1  0.739812  0.003952  0.999883  1
  Al  Al10  1  0.260188  0.264141  0.000117  1
  Ga  Ga11  1  0.000000  0.730586  0.000000  1
  Pd  Pd12  1  0.333165  0.666594  0.471922  1
  Pd  Pd13  1  0.999861  0.000081  0.753962  1
  Pd  Pd14  1  0.000139  0.000220  0.246038  1
  Pd  Pd15  1  0.338980  0.667459  0.029170  1
  Pd  Pd16  1  0.666835  0.333428  0.528078  1
  Pd  Pd17  1  0.661020  0.328478  0.970830  1
