# generated using pymatgen
data_Tb3Ho3(ThSn2)4
_symmetry_space_group_name_H-M   'P 1'
_cell_length_a   8.12964700
_cell_length_b   8.23808407
_cell_length_c   15.57547700
_cell_angle_alpha   90.00724014
_cell_angle_beta   90.00000000
_cell_angle_gamma   90.00000000
_symmetry_Int_Tables_number   1
_chemical_formula_structural   Tb3Ho3(ThSn2)4
_chemical_formula_sum   'Tb6 Ho6 Th8 Sn16'
_cell_volume   1043.13198018
_cell_formula_units_Z   2
loop_
 _symmetry_equiv_pos_site_id
 _symmetry_equiv_pos_as_xyz
  1  'x, y, z'
loop_
 _atom_site_type_symbol
 _atom_site_label
 _atom_site_symmetry_multiplicity
 _atom_site_fract_x
 _atom_site_fract_y
 _atom_site_fract_z
 _atom_site_occupancy
  Tb  Tb0  1  0.637051  0.163699  0.377012  1
  Tb  Tb1  1  0.137051  0.336301  0.122988  1
  Tb  Tb2  1  0.636926  0.163722  0.123348  1
  Tb  Tb3  1  0.136926  0.336278  0.376652  1
  Tb  Tb4  1  0.363346  0.836404  0.623455  1
  Tb  Tb5  1  0.863346  0.663596  0.876545  1
  Ho  Ho6  1  0.362848  0.836546  0.876075  1
  Ho  Ho7  1  0.862848  0.663454  0.623925  1
  Ho  Ho8  1  0.191920  0.497726  0.750007  1
  Ho  Ho9  1  0.691920  0.002274  0.749993  1
  Ho  Ho10  1  0.808221  0.502493  0.250122  1
  Ho  Ho11  1  0.308221  0.997507  0.249878  1
  Th  Th12  1  0.519310  0.321094  0.903273  1
  Th  Th13  1  0.019310  0.178906  0.596727  1
  Th  Th14  1  0.480608  0.679179  0.403241  1
  Th  Th15  1  0.980608  0.820821  0.096759  1
  Th  Th16  1  0.480775  0.679228  0.096570  1
  Th  Th17  1  0.980775  0.820772  0.403430  1
  Th  Th18  1  0.519069  0.321108  0.596780  1
  Th  Th19  1  0.019069  0.178892  0.903220  1
  Sn  Sn20  1  0.296845  0.037371  0.041739  1
  Sn  Sn21  1  0.796845  0.462629  0.458261  1
  Sn  Sn22  1  0.704120  0.960921  0.542859  1
  Sn  Sn23  1  0.204120  0.539079  0.957141  1
  Sn  Sn24  1  0.702056  0.961605  0.957152  1
  Sn  Sn25  1  0.202056  0.538395  0.542848  1
  Sn  Sn26  1  0.296630  0.037939  0.457623  1
  Sn  Sn27  1  0.796630  0.462061  0.042377  1
  Sn  Sn28  1  0.558464  0.621444  0.750133  1
  Sn  Sn29  1  0.058464  0.878556  0.749867  1
  Sn  Sn30  1  0.441488  0.379425  0.250047  1
  Sn  Sn31  1  0.941488  0.120575  0.249953  1
  Sn  Sn32  1  0.325715  0.142442  0.750221  1
  Sn  Sn33  1  0.825715  0.357558  0.749779  1
  Sn  Sn34  1  0.674606  0.857292  0.250005  1
  Sn  Sn35  1  0.174606  0.642708  0.249995  1
