# generated using pymatgen
data_Tm5Pb3O
_symmetry_space_group_name_H-M   'P 1'
_cell_length_a   8.98188018
_cell_length_b   8.98188067
_cell_length_c   8.98187969
_cell_angle_alpha   125.64626670
_cell_angle_beta   125.64627081
_cell_angle_gamma   80.47030390
_symmetry_Int_Tables_number   1
_chemical_formula_structural   Tm5Pb3O
_chemical_formula_sum   'Tm10 Pb6 O2'
_cell_volume   461.58278966
_cell_formula_units_Z   2
loop_
 _symmetry_equiv_pos_site_id
 _symmetry_equiv_pos_as_xyz
  1  'x, y, z'
loop_
 _atom_site_type_symbol
 _atom_site_label
 _atom_site_symmetry_multiplicity
 _atom_site_fract_x
 _atom_site_fract_y
 _atom_site_fract_z
 _atom_site_occupancy
  Tm  Tm0  1  0.503126  0.301027  0.500000  1
  Tm  Tm1  1  0.801027  0.003126  0.500000  1
  Tm  Tm2  1  0.003126  0.503126  0.202100  1
  Tm  Tm3  1  0.301027  0.801027  0.797900  1
  Tm  Tm4  1  0.498298  0.700712  0.500000  1
  Tm  Tm5  1  0.200712  0.998298  0.500000  1
  Tm  Tm6  1  0.998298  0.498298  0.797586  1
  Tm  Tm7  1  0.700712  0.200712  0.202414  1
  Tm  Tm8  1  0.504218  0.504218  0.000000  1
  Tm  Tm9  1  0.004218  0.004218  0.000000  1
  Pb  Pb10  1  0.149953  0.350989  0.500000  1
  Pb  Pb11  1  0.850989  0.649953  0.500000  1
  Pb  Pb12  1  0.649953  0.149953  0.798963  1
  Pb  Pb13  1  0.350989  0.850989  0.201037  1
  Pb  Pb14  1  0.752437  0.752437  0.000000  1
  Pb  Pb15  1  0.252437  0.252437  0.000000  1
  O  O16  1  0.750662  0.250662  0.500000  1
  O  O17  1  0.250662  0.750662  0.500000  1
