# generated using pymatgen
data_Y2Co9TcAs6
_symmetry_space_group_name_H-M   'P 1'
_cell_length_a   3.83255000
_cell_length_b   10.74559600
_cell_length_c   12.25871000
_cell_angle_alpha   90.00000000
_cell_angle_beta   90.00000000
_cell_angle_gamma   90.00000000
_symmetry_Int_Tables_number   1
_chemical_formula_structural   Y2Co9TcAs6
_chemical_formula_sum   'Y4 Co18 Tc2 As12'
_cell_volume   504.85087011
_cell_formula_units_Z   2
loop_
 _symmetry_equiv_pos_site_id
 _symmetry_equiv_pos_as_xyz
  1  'x, y, z'
loop_
 _atom_site_type_symbol
 _atom_site_label
 _atom_site_symmetry_multiplicity
 _atom_site_fract_x
 _atom_site_fract_y
 _atom_site_fract_z
 _atom_site_occupancy
  Y  Y0  1  0.250000  0.581196  0.701653  1
  Y  Y1  1  0.250000  0.918804  0.201653  1
  Y  Y2  1  0.750000  0.416763  0.295882  1
  Y  Y3  1  0.750000  0.083237  0.795882  1
  Co  Co4  1  0.750000  0.289091  0.009433  1
  Co  Co5  1  0.750000  0.210909  0.509433  1
  Co  Co6  1  0.250000  0.406362  0.488782  1
  Co  Co7  1  0.250000  0.093638  0.988782  1
  Co  Co8  1  0.750000  0.593902  0.511141  1
  Co  Co9  1  0.750000  0.906098  0.011141  1
  Co  Co10  1  0.250000  0.215886  0.176980  1
  Co  Co11  1  0.250000  0.284114  0.676980  1
  Co  Co12  1  0.750000  0.782917  0.824087  1
  Co  Co13  1  0.750000  0.717083  0.324087  1
  Co  Co14  1  0.250000  0.886229  0.699242  1
  Co  Co15  1  0.250000  0.613771  0.199242  1
  Co  Co16  1  0.750000  0.116556  0.302562  1
  Co  Co17  1  0.750000  0.383444  0.802562  1
  Co  Co18  1  0.250000  0.466936  0.932538  1
  Co  Co19  1  0.250000  0.033064  0.432538  1
  Co  Co20  1  0.750000  0.532277  0.068032  1
  Co  Co21  1  0.750000  0.967723  0.568032  1
  Tc  Tc22  1  0.250000  0.707511  0.989800  1
  Tc  Tc23  1  0.250000  0.792489  0.489800  1
  As  As24  1  0.250000  0.414862  0.113473  1
  As  As25  1  0.250000  0.085138  0.613473  1
  As  As26  1  0.750000  0.581461  0.884814  1
  As  As27  1  0.750000  0.918539  0.384814  1
  As  As28  1  0.250000  0.268517  0.868991  1
  As  As29  1  0.250000  0.231483  0.368991  1
  As  As30  1  0.750000  0.731054  0.133313  1
  As  As31  1  0.750000  0.768946  0.633313  1
  As  As32  1  0.250000  0.595811  0.390609  1
  As  As33  1  0.250000  0.904189  0.890609  1
  As  As34  1  0.750000  0.398528  0.608671  1
  As  As35  1  0.750000  0.101472  0.108671  1
