# generated using pymatgen
data_Tb2CoSi14Ir5
_symmetry_space_group_name_H-M   'P 1'
_cell_length_a   7.99154017
_cell_length_b   8.00537596
_cell_length_c   8.00537547
_cell_angle_alpha   56.61423691
_cell_angle_beta   56.69951813
_cell_angle_gamma   56.69951742
_symmetry_Int_Tables_number   1
_chemical_formula_structural   Tb2CoSi14Ir5
_chemical_formula_sum   'Tb2 Co1 Si14 Ir5'
_cell_volume   334.29992064
_cell_formula_units_Z   1
loop_
 _symmetry_equiv_pos_site_id
 _symmetry_equiv_pos_as_xyz
  1  'x, y, z'
loop_
 _atom_site_type_symbol
 _atom_site_label
 _atom_site_symmetry_multiplicity
 _atom_site_fract_x
 _atom_site_fract_y
 _atom_site_fract_z
 _atom_site_occupancy
  Tb  Tb0  1  0.500875  0.500810  0.498987  1
  Tb  Tb1  1  0.999125  0.001013  0.999190  1
  Co  Co2  1  0.750000  0.068998  0.431002  1
  Si  Si3  1  0.846838  0.062653  0.666628  1
  Si  Si4  1  0.671050  0.850980  0.065781  1
  Si  Si5  1  0.064175  0.671368  0.850838  1
  Si  Si6  1  0.653162  0.833372  0.437347  1
  Si  Si7  1  0.250000  0.249652  0.250348  1
  Si  Si8  1  0.750000  0.759630  0.740370  1
  Si  Si9  1  0.172252  0.565671  0.350587  1
  Si  Si10  1  0.571897  0.343258  0.178632  1
  Si  Si11  1  0.359198  0.170339  0.561799  1
  Si  Si12  1  0.928103  0.321368  0.156742  1
  Si  Si13  1  0.327748  0.149413  0.934329  1
  Si  Si14  1  0.140802  0.938201  0.329661  1
  Si  Si15  1  0.828950  0.434219  0.649020  1
  Si  Si16  1  0.435825  0.649162  0.828632  1
  Ir  Ir17  1  0.429716  0.750960  0.069491  1
  Ir  Ir18  1  0.070284  0.430509  0.749040  1
  Ir  Ir19  1  0.250000  0.930009  0.569991  1
  Ir  Ir20  1  0.571250  0.248776  0.930362  1
  Ir  Ir21  1  0.928750  0.569638  0.251224  1
