# generated using pymatgen
data_Nd10Sn6PBr
_symmetry_space_group_name_H-M   'P 1'
_cell_length_a   9.43476300
_cell_length_b   9.43476287
_cell_length_c   6.96662400
_cell_angle_alpha   90.00000000
_cell_angle_beta   90.00000000
_cell_angle_gamma   120.00000396
_symmetry_Int_Tables_number   1
_chemical_formula_structural   Nd10Sn6PBr
_chemical_formula_sum   'Nd10 Sn6 P1 Br1'
_cell_volume   537.05030864
_cell_formula_units_Z   1
loop_
 _symmetry_equiv_pos_site_id
 _symmetry_equiv_pos_as_xyz
  1  'x, y, z'
loop_
 _atom_site_type_symbol
 _atom_site_label
 _atom_site_symmetry_multiplicity
 _atom_site_fract_x
 _atom_site_fract_y
 _atom_site_fract_z
 _atom_site_occupancy
  Nd  Nd0  1  0.251274  0.251274  0.766134  1
  Nd  Nd1  1  0.000000  0.748726  0.766134  1
  Nd  Nd2  1  0.748726  0.000000  0.766134  1
  Nd  Nd3  1  0.000000  0.251274  0.233866  1
  Nd  Nd4  1  0.333333  0.666667  0.500000  1
  Nd  Nd5  1  0.748726  0.748726  0.233866  1
  Nd  Nd6  1  0.666667  0.333333  0.500000  1
  Nd  Nd7  1  0.251274  0.000000  0.233866  1
  Nd  Nd8  1  0.333333  0.666667  0.000000  1
  Nd  Nd9  1  0.666667  0.333333  0.000000  1
  Sn  Sn10  1  0.605829  0.000000  0.249627  1
  Sn  Sn11  1  0.000000  0.394171  0.750373  1
  Sn  Sn12  1  0.394171  0.000000  0.750373  1
  Sn  Sn13  1  0.605829  0.605829  0.750373  1
  Sn  Sn14  1  0.000000  0.605829  0.249627  1
  Sn  Sn15  1  0.394171  0.394171  0.249627  1
  P  P16  1  0.000000  0.000000  0.000000  1
  Br  Br17  1  0.000000  0.000000  0.500000  1
