# generated using pymatgen
data_Li4Pr4TlSi4Pb
_symmetry_space_group_name_H-M   'P 1'
_cell_length_a   9.91023353
_cell_length_b   9.91023339
_cell_length_c   6.94294800
_cell_angle_alpha   90.00000000
_cell_angle_beta   90.00000000
_cell_angle_gamma   153.32418498
_symmetry_Int_Tables_number   1
_chemical_formula_structural   Li4Pr4TlSi4Pb
_chemical_formula_sum   'Li4 Pr4 Tl1 Si4 Pb1'
_cell_volume   306.12710508
_cell_formula_units_Z   1
loop_
 _symmetry_equiv_pos_site_id
 _symmetry_equiv_pos_as_xyz
  1  'x, y, z'
loop_
 _atom_site_type_symbol
 _atom_site_label
 _atom_site_symmetry_multiplicity
 _atom_site_fract_x
 _atom_site_fract_y
 _atom_site_fract_z
 _atom_site_occupancy
  Li  Li0  1  0.818270  0.181730  0.555324  1
  Li  Li1  1  0.181853  0.818147  0.443200  1
  Li  Li2  1  0.181853  0.818147  0.056800  1
  Li  Li3  1  0.818270  0.181730  0.944676  1
  Pr  Pr4  1  0.546923  0.453077  0.250000  1
  Pr  Pr5  1  0.452990  0.547010  0.750000  1
  Pr  Pr6  1  0.351044  0.648956  0.250000  1
  Pr  Pr7  1  0.648865  0.351135  0.750000  1
  Tl  Tl8  1  0.719755  0.280245  0.250000  1
  Si  Si9  1  0.943678  0.056322  0.075600  1
  Si  Si10  1  0.056331  0.943669  0.924818  1
  Si  Si11  1  0.056331  0.943669  0.575182  1
  Si  Si12  1  0.943678  0.056322  0.424400  1
  Pb  Pb13  1  0.280160  0.719840  0.750000  1
