# generated using pymatgen
data_Yb4Er(AlSb3)2
_symmetry_space_group_name_H-M   'P 1'
_cell_length_a   4.39619100
_cell_length_b   7.52270300
_cell_length_c   22.78314400
_cell_angle_alpha   90.00000000
_cell_angle_beta   90.00000000
_cell_angle_gamma   90.00000000
_symmetry_Int_Tables_number   1
_chemical_formula_structural   Yb4Er(AlSb3)2
_chemical_formula_sum   'Yb8 Er2 Al4 Sb12'
_cell_volume   753.46680551
_cell_formula_units_Z   2
loop_
 _symmetry_equiv_pos_site_id
 _symmetry_equiv_pos_as_xyz
  1  'x, y, z'
loop_
 _atom_site_type_symbol
 _atom_site_label
 _atom_site_symmetry_multiplicity
 _atom_site_fract_x
 _atom_site_fract_y
 _atom_site_fract_z
 _atom_site_occupancy
  Yb  Yb0  1  0.000000  0.459743  0.914712  1
  Yb  Yb1  1  0.000000  0.276840  0.746997  1
  Yb  Yb2  1  0.000000  0.776840  0.753003  1
  Yb  Yb3  1  0.000000  0.540257  0.085288  1
  Yb  Yb4  1  0.000000  0.959743  0.585288  1
  Yb  Yb5  1  0.000000  0.723160  0.253003  1
  Yb  Yb6  1  0.000000  0.040257  0.414712  1
  Yb  Yb7  1  0.000000  0.223160  0.246997  1
  Er  Er8  1  0.000000  0.000000  0.000000  1
  Er  Er9  1  0.000000  0.500000  0.500000  1
  Al  Al10  1  0.500000  0.826157  0.880784  1
  Al  Al11  1  0.500000  0.173843  0.119216  1
  Al  Al12  1  0.500000  0.673843  0.380784  1
  Al  Al13  1  0.500000  0.326157  0.619216  1
  Sb  Sb14  1  0.500000  0.780896  0.496349  1
  Sb  Sb15  1  0.000000  0.462072  0.364396  1
  Sb  Sb16  1  0.000000  0.962072  0.135604  1
  Sb  Sb17  1  0.500000  0.524751  0.813819  1
  Sb  Sb18  1  0.500000  0.475249  0.186181  1
  Sb  Sb19  1  0.000000  0.037928  0.864396  1
  Sb  Sb20  1  0.000000  0.537928  0.635604  1
  Sb  Sb21  1  0.500000  0.975249  0.313819  1
  Sb  Sb22  1  0.500000  0.219104  0.503651  1
  Sb  Sb23  1  0.500000  0.024751  0.686181  1
  Sb  Sb24  1  0.500000  0.280896  0.003651  1
  Sb  Sb25  1  0.500000  0.719104  0.996349  1
