# generated using pymatgen
data_Mn26V2Os
_symmetry_space_group_name_H-M   'P 1'
_cell_length_a   7.49929661
_cell_length_b   7.49904199
_cell_length_c   7.49867190
_cell_angle_alpha   109.50467750
_cell_angle_beta   109.48878638
_cell_angle_gamma   109.42395096
_symmetry_Int_Tables_number   1
_chemical_formula_structural   Mn26V2Os
_chemical_formula_sum   'Mn26 V2 Os1'
_cell_volume   324.61492190
_cell_formula_units_Z   1
loop_
 _symmetry_equiv_pos_site_id
 _symmetry_equiv_pos_as_xyz
  1  'x, y, z'
loop_
 _atom_site_type_symbol
 _atom_site_label
 _atom_site_symmetry_multiplicity
 _atom_site_fract_x
 _atom_site_fract_y
 _atom_site_fract_z
 _atom_site_occupancy
  Mn  Mn0  1  0.000790  0.000784  0.639645  1
  Mn  Mn1  1  0.361034  0.361075  0.360359  1
  Mn  Mn2  1  0.393737  0.679725  0.000083  1
  Mn  Mn3  1  0.712353  0.320473  0.320906  1
  Mn  Mn4  1  0.391172  0.999269  0.678934  1
  Mn  Mn5  1  0.679680  0.393784  0.000061  1
  Mn  Mn6  1  0.999485  0.391324  0.678996  1
  Mn  Mn7  1  0.320442  0.712253  0.321118  1
  Mn  Mn8  1  0.320622  0.320677  0.712943  1
  Mn  Mn9  1  0.999654  0.679634  0.393382  1
  Mn  Mn10  1  0.679595  0.999494  0.393120  1
  Mn  Mn11  1  0.607786  0.607614  0.287047  1
  Mn  Mn12  1  0.286321  0.606424  0.606657  1
  Mn  Mn13  1  0.606416  0.286494  0.606823  1
  Mn  Mn14  1  0.374624  0.193196  0.000038  1
  Mn  Mn15  1  0.180955  0.806105  0.804240  1
  Mn  Mn16  1  0.376602  0.001788  0.195653  1
  Mn  Mn17  1  0.193234  0.374723  0.000073  1
  Mn  Mn18  1  0.001894  0.376761  0.195762  1
  Mn  Mn19  1  0.806152  0.180865  0.804329  1
  Mn  Mn20  1  0.806486  0.806360  0.183420  1
  Mn  Mn21  1  0.001716  0.195064  0.375762  1
  Mn  Mn22  1  0.194940  0.001554  0.375828  1
  Mn  Mn23  1  0.623008  0.623229  0.816624  1
  Mn  Mn24  1  0.819296  0.626010  0.624097  1
  Mn  Mn25  1  0.625754  0.819079  0.624059  1
  V  V26  1  0.634766  0.000324  0.999913  1
  V  V27  1  0.000419  0.634875  0.000097  1
  Os  Os28  1  0.001067  0.001045  0.000032  1
