# generated using pymatgen
data_Li4Dy4Co7(P4Ir3)3
_symmetry_space_group_name_H-M   'P 1'
_cell_length_a   3.81980700
_cell_length_b   10.60175950
_cell_length_c   12.50409552
_cell_angle_alpha   90.03756913
_cell_angle_beta   90.00000000
_cell_angle_gamma   90.00000000
_symmetry_Int_Tables_number   1
_chemical_formula_structural   Li4Dy4Co7(P4Ir3)3
_chemical_formula_sum   'Li4 Dy4 Co7 P12 Ir9'
_cell_volume   506.37418521
_cell_formula_units_Z   1
loop_
 _symmetry_equiv_pos_site_id
 _symmetry_equiv_pos_as_xyz
  1  'x, y, z'
loop_
 _atom_site_type_symbol
 _atom_site_label
 _atom_site_symmetry_multiplicity
 _atom_site_fract_x
 _atom_site_fract_y
 _atom_site_fract_z
 _atom_site_occupancy
  Li  Li0  1  0.250000  0.703895  0.991071  1
  Li  Li1  1  0.250000  0.793319  0.484429  1
  Li  Li2  1  0.750000  0.293319  0.011099  1
  Li  Li3  1  0.750000  0.209363  0.508169  1
  Dy  Dy4  1  0.250000  0.578937  0.712903  1
  Dy  Dy5  1  0.250000  0.918624  0.211251  1
  Dy  Dy6  1  0.750000  0.418761  0.289059  1
  Dy  Dy7  1  0.750000  0.083696  0.790985  1
  Co  Co8  1  0.250000  0.617324  0.191486  1
  Co  Co9  1  0.750000  0.117745  0.306791  1
  Co  Co10  1  0.750000  0.381834  0.809329  1
  Co  Co11  1  0.250000  0.464523  0.936837  1
  Co  Co12  1  0.250000  0.035068  0.432877  1
  Co  Co13  1  0.750000  0.533620  0.065608  1
  Co  Co14  1  0.750000  0.968857  0.561611  1
  P  P15  1  0.250000  0.428833  0.111724  1
  P  P16  1  0.250000  0.079138  0.605378  1
  P  P17  1  0.750000  0.568810  0.890285  1
  P  P18  1  0.750000  0.929610  0.387191  1
  P  P19  1  0.250000  0.275351  0.864244  1
  P  P20  1  0.250000  0.225055  0.363269  1
  P  P21  1  0.750000  0.724408  0.136844  1
  P  P22  1  0.750000  0.770603  0.634134  1
  P  P23  1  0.250000  0.599034  0.379479  1
  P  P24  1  0.250000  0.898744  0.887702  1
  P  P25  1  0.750000  0.400760  0.620462  1
  P  P26  1  0.750000  0.099960  0.120156  1
  Ir  Ir27  1  0.250000  0.404549  0.471457  1
  Ir  Ir28  1  0.250000  0.096494  0.973344  1
  Ir  Ir29  1  0.750000  0.594322  0.527224  1
  Ir  Ir30  1  0.750000  0.904350  0.028236  1
  Ir  Ir31  1  0.250000  0.220210  0.175826  1
  Ir  Ir32  1  0.250000  0.282764  0.675520  1
  Ir  Ir33  1  0.750000  0.776077  0.827798  1
  Ir  Ir34  1  0.750000  0.718661  0.324448  1
  Ir  Ir35  1  0.250000  0.883380  0.691773  1
