# generated using pymatgen
data_Dy5Tm11Cd4TcNi3
_symmetry_space_group_name_H-M   'P 1'
_cell_length_a   9.51906942
_cell_length_b   9.51135811
_cell_length_c   9.51135820
_cell_angle_alpha   59.38000318
_cell_angle_beta   59.39625361
_cell_angle_gamma   59.39624910
_symmetry_Int_Tables_number   1
_chemical_formula_structural   Dy5Tm11Cd4TcNi3
_chemical_formula_sum   'Dy5 Tm11 Cd4 Tc1 Ni3'
_cell_volume   600.48438505
_cell_formula_units_Z   1
loop_
 _symmetry_equiv_pos_site_id
 _symmetry_equiv_pos_as_xyz
  1  'x, y, z'
loop_
 _atom_site_type_symbol
 _atom_site_label
 _atom_site_symmetry_multiplicity
 _atom_site_fract_x
 _atom_site_fract_y
 _atom_site_fract_z
 _atom_site_occupancy
  Dy  Dy0  1  0.804137  0.190509  0.190509  1
  Dy  Dy1  1  0.815384  0.185712  0.814417  1
  Dy  Dy2  1  0.190409  0.804529  0.189566  1
  Dy  Dy3  1  0.815384  0.814417  0.185712  1
  Dy  Dy4  1  0.190409  0.189566  0.804529  1
  Tm  Tm5  1  0.596355  0.597101  0.597101  1
  Tm  Tm6  1  0.601615  0.602218  0.205515  1
  Tm  Tm7  1  0.601615  0.205515  0.602218  1
  Tm  Tm8  1  0.204479  0.602309  0.602309  1
  Tm  Tm9  1  0.061531  0.436527  0.436527  1
  Tm  Tm10  1  0.435777  0.061762  0.061762  1
  Tm  Tm11  1  0.436249  0.061142  0.437218  1
  Tm  Tm12  1  0.062263  0.435729  0.061462  1
  Tm  Tm13  1  0.436249  0.437218  0.061142  1
  Tm  Tm14  1  0.062263  0.061462  0.435729  1
  Tm  Tm15  1  0.187113  0.813812  0.813812  1
  Cd  Cd16  1  0.830284  0.829379  0.829379  1
  Cd  Cd17  1  0.829127  0.829463  0.506888  1
  Cd  Cd18  1  0.829127  0.506888  0.829463  1
  Cd  Cd19  1  0.505839  0.829486  0.829486  1
  Tc  Tc20  1  0.394073  0.394104  0.394104  1
  Ni  Ni21  1  0.392194  0.392856  0.825826  1
  Ni  Ni22  1  0.392194  0.825826  0.392856  1
  Ni  Ni23  1  0.825929  0.392470  0.392470  1
