# generated using pymatgen
data_Tb2Nd2Dy2CoBr10
_symmetry_space_group_name_H-M   'P 1'
_cell_length_a   7.42142949
_cell_length_b   9.31769488
_cell_length_c   9.29818527
_cell_angle_alpha   107.57123594
_cell_angle_beta   95.75813631
_cell_angle_gamma   106.15702264
_symmetry_Int_Tables_number   1
_chemical_formula_structural   Tb2Nd2Dy2CoBr10
_chemical_formula_sum   'Tb2 Nd2 Dy2 Co1 Br10'
_cell_volume   576.71123036
_cell_formula_units_Z   1
loop_
 _symmetry_equiv_pos_site_id
 _symmetry_equiv_pos_as_xyz
  1  'x, y, z'
loop_
 _atom_site_type_symbol
 _atom_site_label
 _atom_site_symmetry_multiplicity
 _atom_site_fract_x
 _atom_site_fract_y
 _atom_site_fract_z
 _atom_site_occupancy
  Tb  Tb0  1  0.354746  0.131401  0.673587  1
  Tb  Tb1  1  0.645254  0.868599  0.326413  1
  Nd  Nd2  1  0.875389  0.952484  0.737616  1
  Nd  Nd3  1  0.124611  0.047516  0.262384  1
  Dy  Dy4  1  0.027323  0.705981  0.406523  1
  Dy  Dy5  1  0.972677  0.294019  0.593477  1
  Co  Co6  1  0.000000  0.000000  0.500000  1
  Br  Br7  1  0.445168  0.822041  0.581648  1
  Br  Br8  1  0.554832  0.177959  0.418352  1
  Br  Br9  1  0.916617  0.624862  0.667730  1
  Br  Br10  1  0.083383  0.375138  0.332270  1
  Br  Br11  1  0.257150  0.085347  0.952092  1
  Br  Br12  1  0.742850  0.914653  0.047908  1
  Br  Br13  1  0.348900  0.447738  0.768111  1
  Br  Br14  1  0.651100  0.552262  0.231889  1
  Br  Br15  1  0.778775  0.257580  0.841447  1
  Br  Br16  1  0.221225  0.742420  0.158553  1
