# generated using pymatgen
data_Dy5Ho(B7W)2
_symmetry_space_group_name_H-M   'P 1'
_cell_length_a   8.17583514
_cell_length_b   8.17583504
_cell_length_c   9.49873562
_cell_angle_alpha   89.95943513
_cell_angle_beta   90.04056509
_cell_angle_gamma   155.58679561
_symmetry_Int_Tables_number   1
_chemical_formula_structural   Dy5Ho(B7W)2
_chemical_formula_sum   'Dy5 Ho1 B14 W2'
_cell_volume   262.42811352
_cell_formula_units_Z   1
loop_
 _symmetry_equiv_pos_site_id
 _symmetry_equiv_pos_as_xyz
  1  'x, y, z'
loop_
 _atom_site_type_symbol
 _atom_site_label
 _atom_site_symmetry_multiplicity
 _atom_site_fract_x
 _atom_site_fract_y
 _atom_site_fract_z
 _atom_site_occupancy
  Dy  Dy0  1  0.892704  0.107296  0.439547  1
  Dy  Dy1  1  0.107368  0.892632  0.560512  1
  Dy  Dy2  1  0.892599  0.107401  0.060396  1
  Dy  Dy3  1  0.244855  0.755145  0.249928  1
  Dy  Dy4  1  0.754946  0.245054  0.750030  1
  Ho  Ho5  1  0.107113  0.892887  0.940009  1
  B  B6  1  0.727545  0.272455  0.467253  1
  B  B7  1  0.272478  0.727522  0.532743  1
  B  B8  1  0.727262  0.272738  0.032430  1
  B  B9  1  0.272166  0.727834  0.967091  1
  B  B10  1  0.634937  0.365063  0.146770  1
  B  B11  1  0.364929  0.635071  0.852623  1
  B  B12  1  0.635047  0.364953  0.352748  1
  B  B13  1  0.364986  0.635014  0.647394  1
  B  B14  1  0.519853  0.480147  0.091441  1
  B  B15  1  0.480531  0.519469  0.908520  1
  B  B16  1  0.519761  0.480239  0.408310  1
  B  B17  1  0.480409  0.519591  0.591851  1
  B  B18  1  0.455527  0.544473  0.249890  1
  B  B19  1  0.544847  0.455153  0.750496  1
  W  W20  1  0.053136  0.946864  0.249878  1
  W  W21  1  0.947003  0.052997  0.750140  1
