# generated using pymatgen
data_La2Er18Si15Au
_symmetry_space_group_name_H-M   'P 1'
_cell_length_a   7.37621108
_cell_length_b   7.69951319
_cell_length_c   14.62911464
_cell_angle_alpha   89.98857597
_cell_angle_beta   90.25318703
_cell_angle_gamma   90.57748509
_symmetry_Int_Tables_number   1
_chemical_formula_structural   La2Er18Si15Au
_chemical_formula_sum   'La2 Er18 Si15 Au1'
_cell_volume   830.78441695
_cell_formula_units_Z   1
loop_
 _symmetry_equiv_pos_site_id
 _symmetry_equiv_pos_as_xyz
  1  'x, y, z'
loop_
 _atom_site_type_symbol
 _atom_site_label
 _atom_site_symmetry_multiplicity
 _atom_site_fract_x
 _atom_site_fract_y
 _atom_site_fract_z
 _atom_site_occupancy
  La  La0  1  0.017413  0.832389  0.587863  1
  La  La1  1  0.523384  0.674069  0.590149  1
  Er  Er2  1  0.316845  0.821876  0.124062  1
  Er  Er3  1  0.816802  0.676249  0.124885  1
  Er  Er4  1  0.855792  0.520537  0.752368  1
  Er  Er5  1  0.470749  0.314849  0.099691  1
  Er  Er6  1  0.025474  0.824818  0.909012  1
  Er  Er7  1  0.473586  0.313735  0.397546  1
  Er  Er8  1  0.646870  0.009601  0.249508  1
  Er  Er9  1  0.530158  0.683471  0.908173  1
  Er  Er10  1  0.683055  0.180002  0.882112  1
  Er  Er11  1  0.182948  0.316718  0.621092  1
  Er  Er12  1  0.183841  0.317358  0.883313  1
  Er  Er13  1  0.817020  0.675844  0.372747  1
  Er  Er14  1  0.315833  0.825357  0.373757  1
  Er  Er15  1  0.346939  0.987134  0.752435  1
  Er  Er16  1  0.682753  0.179438  0.622478  1
  Er  Er17  1  0.147767  0.487197  0.249338  1
  Er  Er18  1  0.970314  0.182555  0.099833  1
  Er  Er19  1  0.972894  0.182271  0.395929  1
  Si  Si20  1  0.652560  0.976719  0.455005  1
  Si  Si21  1  0.358543  0.035556  0.535882  1
  Si  Si22  1  0.018734  0.895308  0.247832  1
  Si  Si23  1  0.734482  0.880769  0.755917  1
  Si  Si24  1  0.265683  0.128238  0.248648  1
  Si  Si25  1  0.858599  0.460740  0.534059  1
  Si  Si26  1  0.482056  0.382852  0.753032  1
  Si  Si27  1  0.150145  0.522649  0.455726  1
  Si  Si28  1  0.145162  0.527580  0.043369  1
  Si  Si29  1  0.974517  0.113293  0.753704  1
  Si  Si30  1  0.766189  0.369310  0.248059  1
  Si  Si31  1  0.354873  0.026480  0.961388  1
  Si  Si32  1  0.854353  0.472439  0.961838  1
  Si  Si33  1  0.648571  0.970720  0.043196  1
  Si  Si34  1  0.517252  0.606207  0.248940  1
  Au  Au35  1  0.237842  0.625671  0.757116  1
