# generated using pymatgen
data_La8Sm2(GaSn)3
_symmetry_space_group_name_H-M   'P 1'
_cell_length_a   9.40435240
_cell_length_b   9.40435310
_cell_length_c   9.46961800
_cell_angle_alpha   96.11565607
_cell_angle_beta   96.11565653
_cell_angle_gamma   141.76229467
_symmetry_Int_Tables_number   1
_chemical_formula_structural   La8Sm2(GaSn)3
_chemical_formula_sum   'La8 Sm2 Ga3 Sn3'
_cell_volume   490.16868711
_cell_formula_units_Z   1
loop_
 _symmetry_equiv_pos_site_id
 _symmetry_equiv_pos_as_xyz
  1  'x, y, z'
loop_
 _atom_site_type_symbol
 _atom_site_label
 _atom_site_symmetry_multiplicity
 _atom_site_fract_x
 _atom_site_fract_y
 _atom_site_fract_z
 _atom_site_occupancy
  La  La0  1  0.914672  0.217984  0.132656  1
  La  La1  1  0.219196  0.087034  0.306230  1
  La  La2  1  0.784750  0.909696  0.694444  1
  La  La3  1  0.083245  0.781649  0.864894  1
  La  La4  1  0.718351  0.416755  0.135106  1
  La  La5  1  0.282016  0.585328  0.867344  1
  La  La6  1  0.590304  0.715250  0.305556  1
  La  La7  1  0.412966  0.280804  0.693770  1
  Sm  Sm8  1  0.747080  0.253839  0.500000  1
  Sm  Sm9  1  0.246161  0.752920  0.500000  1
  Ga  Ga10  1  0.750066  0.749934  0.000000  1
  Ga  Ga11  1  0.250066  0.249934  0.000000  1
  Ga  Ga12  1  0.843942  0.656058  0.500000  1
  Sn  Sn13  1  0.658324  0.156926  0.815250  1
  Sn  Sn14  1  0.343074  0.841676  0.184750  1
  Sn  Sn15  1  0.155787  0.344213  0.500000  1
