# generated using pymatgen
data_Lu4As6Ru4Rh3
_symmetry_space_group_name_H-M   'P 1'
_cell_length_a   7.17801536
_cell_length_b   7.17801385
_cell_length_c   7.18502700
_cell_angle_alpha   109.49101370
_cell_angle_beta   109.49100943
_cell_angle_gamma   109.45141689
_symmetry_Int_Tables_number   1
_chemical_formula_structural   Lu4As6Ru4Rh3
_chemical_formula_sum   'Lu4 As6 Ru4 Rh3'
_cell_volume   284.91091389
_cell_formula_units_Z   1
loop_
 _symmetry_equiv_pos_site_id
 _symmetry_equiv_pos_as_xyz
  1  'x, y, z'
loop_
 _atom_site_type_symbol
 _atom_site_label
 _atom_site_symmetry_multiplicity
 _atom_site_fract_x
 _atom_site_fract_y
 _atom_site_fract_z
 _atom_site_occupancy
  Lu  Lu0  1  0.000000  0.000000  0.500000  1
  Lu  Lu1  1  0.002360  0.501180  0.001180  1
  Lu  Lu2  1  0.498820  0.997640  0.998820  1
  Lu  Lu3  1  0.498820  0.501180  0.500000  1
  As  As4  1  0.682211  0.686284  0.999771  1
  As  As5  1  0.313716  0.995926  0.313487  1
  As  As6  1  0.004074  0.317789  0.317561  1
  As  As7  1  0.313716  0.317789  0.000229  1
  As  As8  1  0.682211  0.995926  0.682439  1
  As  As9  1  0.004074  0.686284  0.686513  1
  Ru  Ru10  1  0.250593  0.501185  0.750593  1
  Ru  Ru11  1  0.250593  0.749407  0.500000  1
  Ru  Ru12  1  0.498815  0.749407  0.249407  1
  Ru  Ru13  1  0.000000  0.000000  0.000000  1
  Rh  Rh14  1  0.750845  0.249155  0.500000  1
  Rh  Rh15  1  0.750845  0.501691  0.250845  1
  Rh  Rh16  1  0.498309  0.249155  0.749155  1
