# generated using pymatgen
data_CsRbSe2
_symmetry_space_group_name_H-M   'P 1'
_cell_length_a   9.60142600
_cell_length_b   9.60142615
_cell_length_c   6.57958300
_cell_angle_alpha   90.00000000
_cell_angle_beta   90.00000000
_cell_angle_gamma   119.99999949
_symmetry_Int_Tables_number   1
_chemical_formula_structural   CsRbSe2
_chemical_formula_sum   'Cs3 Rb3 Se6'
_cell_volume   525.29163945
_cell_formula_units_Z   3
loop_
 _symmetry_equiv_pos_site_id
 _symmetry_equiv_pos_as_xyz
  1  'x, y, z'
loop_
 _atom_site_type_symbol
 _atom_site_label
 _atom_site_symmetry_multiplicity
 _atom_site_fract_x
 _atom_site_fract_y
 _atom_site_fract_z
 _atom_site_occupancy
  Cs  Cs0  1  0.000000  0.645522  0.000000  1
  Cs  Cs1  1  0.354478  0.354478  0.000000  1
  Cs  Cs2  1  0.645522  0.000000  0.000000  1
  Rb  Rb3  1  0.000000  0.314356  0.500000  1
  Rb  Rb4  1  0.685644  0.685644  0.500000  1
  Rb  Rb5  1  0.314356  0.000000  0.500000  1
  Se  Se6  1  0.666667  0.333333  0.314765  1
  Se  Se7  1  0.666667  0.333333  0.685235  1
  Se  Se8  1  0.333333  0.666667  0.685235  1
  Se  Se9  1  0.333333  0.666667  0.314765  1
  Se  Se10  1  0.000000  0.000000  0.814538  1
  Se  Se11  1  0.000000  0.000000  0.185462  1
