# generated using pymatgen
data_TbErInNiAg
_symmetry_space_group_name_H-M   'P 1'
_cell_length_a   7.73755139
_cell_length_b   7.73755145
_cell_length_c   3.67520400
_cell_angle_alpha   90.00000000
_cell_angle_beta   90.00000000
_cell_angle_gamma   88.48152324
_symmetry_Int_Tables_number   1
_chemical_formula_structural   TbErInNiAg
_chemical_formula_sum   'Tb2 Er2 In2 Ni2 Ag2'
_cell_volume   219.95609921
_cell_formula_units_Z   2
loop_
 _symmetry_equiv_pos_site_id
 _symmetry_equiv_pos_as_xyz
  1  'x, y, z'
loop_
 _atom_site_type_symbol
 _atom_site_label
 _atom_site_symmetry_multiplicity
 _atom_site_fract_x
 _atom_site_fract_y
 _atom_site_fract_z
 _atom_site_occupancy
  Tb  Tb0  1  0.197688  0.302312  0.500000  1
  Tb  Tb1  1  0.802312  0.697688  0.500000  1
  Er  Er2  1  0.657321  0.157321  0.500000  1
  Er  Er3  1  0.342679  0.842679  0.500000  1
  In  In4  1  0.500000  0.500000  0.000000  1
  In  In5  1  0.000000  0.000000  0.000000  1
  Ni  Ni6  1  0.615842  0.884158  0.000000  1
  Ni  Ni7  1  0.384158  0.115842  0.000000  1
  Ag  Ag8  1  0.126289  0.626289  0.000000  1
  Ag  Ag9  1  0.873711  0.373711  0.000000  1
