# generated using pymatgen
data_Tm4ZnSi6Rh
_symmetry_space_group_name_H-M   'P 1'
_cell_length_a   8.08179500
_cell_length_b   8.08179494
_cell_length_c   7.90780900
_cell_angle_alpha   90.00000000
_cell_angle_beta   90.00000000
_cell_angle_gamma   119.99999614
_symmetry_Int_Tables_number   1
_chemical_formula_structural   Tm4ZnSi6Rh
_chemical_formula_sum   'Tm8 Zn2 Si12 Rh2'
_cell_volume   447.30368574
_cell_formula_units_Z   2
loop_
 _symmetry_equiv_pos_site_id
 _symmetry_equiv_pos_as_xyz
  1  'x, y, z'
loop_
 _atom_site_type_symbol
 _atom_site_label
 _atom_site_symmetry_multiplicity
 _atom_site_fract_x
 _atom_site_fract_y
 _atom_site_fract_z
 _atom_site_occupancy
  Tm  Tm0  1  0.000000  0.000000  0.250000  1
  Tm  Tm1  1  0.000000  0.000000  0.750000  1
  Tm  Tm2  1  0.492994  0.507006  0.250000  1
  Tm  Tm3  1  0.492994  0.985988  0.250000  1
  Tm  Tm4  1  0.014012  0.507006  0.250000  1
  Tm  Tm5  1  0.498384  0.501616  0.750000  1
  Tm  Tm6  1  0.003232  0.501616  0.750000  1
  Tm  Tm7  1  0.498384  0.996768  0.750000  1
  Zn  Zn8  1  0.666667  0.333333  0.489256  1
  Zn  Zn9  1  0.666667  0.333333  0.010744  1
  Si  Si10  1  0.835814  0.164186  0.500045  1
  Si  Si11  1  0.835814  0.671631  0.500045  1
  Si  Si12  1  0.328369  0.164186  0.500045  1
  Si  Si13  1  0.835814  0.164186  0.999955  1
  Si  Si14  1  0.835814  0.671631  0.999955  1
  Si  Si15  1  0.328369  0.164186  0.999955  1
  Si  Si16  1  0.168318  0.831682  0.999173  1
  Si  Si17  1  0.663365  0.831682  0.999173  1
  Si  Si18  1  0.168318  0.336635  0.999173  1
  Si  Si19  1  0.168318  0.831682  0.500827  1
  Si  Si20  1  0.663365  0.831682  0.500827  1
  Si  Si21  1  0.168318  0.336635  0.500827  1
  Rh  Rh22  1  0.333333  0.666667  0.993723  1
  Rh  Rh23  1  0.333333  0.666667  0.506277  1
