# generated using pymatgen
data_Tb3NdDy(MnB3)2
_symmetry_space_group_name_H-M   'P 1'
_cell_length_a   5.44118029
_cell_length_b   5.44118001
_cell_length_c   8.36507611
_cell_angle_alpha   71.02036666
_cell_angle_beta   71.02036577
_cell_angle_gamma   60.00001468
_symmetry_Int_Tables_number   1
_chemical_formula_structural   Tb3NdDy(MnB3)2
_chemical_formula_sum   'Tb3 Nd1 Dy1 Mn2 B6'
_cell_volume   198.78090172
_cell_formula_units_Z   1
loop_
 _symmetry_equiv_pos_site_id
 _symmetry_equiv_pos_as_xyz
  1  'x, y, z'
loop_
 _atom_site_type_symbol
 _atom_site_label
 _atom_site_symmetry_multiplicity
 _atom_site_fract_x
 _atom_site_fract_y
 _atom_site_fract_z
 _atom_site_occupancy
  Tb  Tb0  1  0.250312  0.250312  0.249062  1
  Tb  Tb1  1  0.749723  0.749723  0.750831  1
  Tb  Tb2  1  0.417280  0.417280  0.748161  1
  Nd  Nd3  1  0.999870  0.999870  0.000390  1
  Dy  Dy4  1  0.582222  0.582222  0.253334  1
  Mn  Mn5  1  0.115557  0.115557  0.653329  1
  Mn  Mn6  1  0.884581  0.884581  0.346256  1
  B  B7  1  0.166015  0.834228  0.499773  1
  B  B8  1  0.834228  0.499984  0.499773  1
  B  B9  1  0.499984  0.166015  0.499773  1
  B  B10  1  0.166015  0.499984  0.499773  1
  B  B11  1  0.499984  0.834228  0.499773  1
  B  B12  1  0.834228  0.166015  0.499773  1
