# generated using pymatgen
data_Th2Mn2Fe9CoP7
_symmetry_space_group_name_H-M   'P 1'
_cell_length_a   9.11282089
_cell_length_b   9.09855481
_cell_length_c   3.69317500
_cell_angle_alpha   90.00000000
_cell_angle_beta   90.00000000
_cell_angle_gamma   119.96094742
_symmetry_Int_Tables_number   1
_chemical_formula_structural   Th2Mn2Fe9CoP7
_chemical_formula_sum   'Th2 Mn2 Fe9 Co1 P7'
_cell_volume   265.29345619
_cell_formula_units_Z   1
loop_
 _symmetry_equiv_pos_site_id
 _symmetry_equiv_pos_as_xyz
  1  'x, y, z'
loop_
 _atom_site_type_symbol
 _atom_site_label
 _atom_site_symmetry_multiplicity
 _atom_site_fract_x
 _atom_site_fract_y
 _atom_site_fract_z
 _atom_site_occupancy
  Th  Th0  1  0.330793  0.663813  0.000000  1
  Th  Th1  1  0.999528  0.000639  0.500000  1
  Mn  Mn2  1  0.772857  0.549668  0.500000  1
  Mn  Mn3  1  0.452419  0.222052  0.500000  1
  Fe  Fe4  1  0.727619  0.761500  0.000000  1
  Fe  Fe5  1  0.239531  0.968441  0.000000  1
  Fe  Fe6  1  0.543832  0.060715  0.000000  1
  Fe  Fe7  1  0.938704  0.484331  0.000000  1
  Fe  Fe8  1  0.516770  0.454412  0.000000  1
  Fe  Fe9  1  0.613884  0.899251  0.500000  1
  Fe  Fe10  1  0.101432  0.716579  0.500000  1
  Fe  Fe11  1  0.281836  0.384359  0.500000  1
  Fe  Fe12  1  0.786543  0.231635  0.500000  1
  Co  Co13  1  0.031127  0.270666  0.000000  1
  P  P14  1  0.765667  0.030196  0.000000  1
  P  P15  1  0.971987  0.740085  0.000000  1
  P  P16  1  0.261780  0.231865  0.000000  1
  P  P17  1  0.375055  0.933518  0.500000  1
  P  P18  1  0.058556  0.438792  0.500000  1
  P  P19  1  0.560375  0.625519  0.500000  1
  P  P20  1  0.669707  0.331959  0.000000  1
