# generated using pymatgen
data_BeNb4Co4P3
_symmetry_space_group_name_H-M   'P 1'
_cell_length_a   3.56560200
_cell_length_b   6.11219190
_cell_length_c   6.98192349
_cell_angle_alpha   89.85563406
_cell_angle_beta   90.00000000
_cell_angle_gamma   90.00000000
_symmetry_Int_Tables_number   1
_chemical_formula_structural   BeNb4Co4P3
_chemical_formula_sum   'Be1 Nb4 Co4 P3'
_cell_volume   152.16106949
_cell_formula_units_Z   1
loop_
 _symmetry_equiv_pos_site_id
 _symmetry_equiv_pos_as_xyz
  1  'x, y, z'
loop_
 _atom_site_type_symbol
 _atom_site_label
 _atom_site_symmetry_multiplicity
 _atom_site_fract_x
 _atom_site_fract_y
 _atom_site_fract_z
 _atom_site_occupancy
  Be  Be0  1  0.250000  0.775345  0.380462  1
  Nb  Nb1  1  0.250000  0.023288  0.823252  1
  Nb  Nb2  1  0.250000  0.529185  0.671305  1
  Nb  Nb3  1  0.750000  0.970497  0.183033  1
  Nb  Nb4  1  0.750000  0.484305  0.325251  1
  Co  Co5  1  0.250000  0.142404  0.438661  1
  Co  Co6  1  0.250000  0.640013  0.057961  1
  Co  Co7  1  0.750000  0.859542  0.561381  1
  Co  Co8  1  0.750000  0.355180  0.937858  1
  P  P9  1  0.250000  0.273325  0.124371  1
  P  P10  1  0.750000  0.222877  0.616599  1
  P  P11  1  0.750000  0.724039  0.879866  1
