# generated using pymatgen
data_Cs6PbSe4
_symmetry_space_group_name_H-M   'P 1'
_cell_length_a   11.61914000
_cell_length_b   11.61913964
_cell_length_c   8.78573500
_cell_angle_alpha   90.00000000
_cell_angle_beta   90.00000000
_cell_angle_gamma   120.00000101
_symmetry_Int_Tables_number   1
_chemical_formula_structural   Cs6PbSe4
_chemical_formula_sum   'Cs12 Pb2 Se8'
_cell_volume   1027.20395501
_cell_formula_units_Z   2
loop_
 _symmetry_equiv_pos_site_id
 _symmetry_equiv_pos_as_xyz
  1  'x, y, z'
loop_
 _atom_site_type_symbol
 _atom_site_label
 _atom_site_symmetry_multiplicity
 _atom_site_fract_x
 _atom_site_fract_y
 _atom_site_fract_z
 _atom_site_occupancy
  Cs  Cs0  1  0.148635  0.297270  0.205763  1
  Cs  Cs1  1  0.148635  0.851365  0.205763  1
  Cs  Cs2  1  0.702730  0.851365  0.205763  1
  Cs  Cs3  1  0.851365  0.702730  0.705763  1
  Cs  Cs4  1  0.851365  0.148635  0.705763  1
  Cs  Cs5  1  0.297270  0.148635  0.705763  1
  Cs  Cs6  1  0.528939  0.057878  0.378669  1
  Cs  Cs7  1  0.528939  0.471061  0.378669  1
  Cs  Cs8  1  0.942122  0.471061  0.378669  1
  Cs  Cs9  1  0.471061  0.942122  0.878669  1
  Cs  Cs10  1  0.471061  0.528939  0.878669  1
  Cs  Cs11  1  0.057878  0.528939  0.878669  1
  Pb  Pb12  1  0.333333  0.666667  0.498628  1
  Pb  Pb13  1  0.666667  0.333333  0.998628  1
  Se  Se14  1  0.333333  0.666667  0.159842  1
  Se  Se15  1  0.666667  0.333333  0.659842  1
  Se  Se16  1  0.809488  0.618977  0.102717  1
  Se  Se17  1  0.809488  0.190512  0.102717  1
  Se  Se18  1  0.381023  0.190512  0.102717  1
  Se  Se19  1  0.190512  0.381023  0.602717  1
  Se  Se20  1  0.190512  0.809488  0.602717  1
  Se  Se21  1  0.618977  0.809488  0.602717  1
