# generated using pymatgen
data_Ho20AlBi11
_symmetry_space_group_name_H-M   'P 1'
_cell_length_a   8.19582586
_cell_length_b   9.46471100
_cell_length_c   11.98789900
_cell_angle_alpha   90.00000000
_cell_angle_beta   90.27994090
_cell_angle_gamma   90.00000000
_symmetry_Int_Tables_number   1
_chemical_formula_structural   Ho20AlBi11
_chemical_formula_sum   'Ho20 Al1 Bi11'
_cell_volume   929.90369077
_cell_formula_units_Z   1
loop_
 _symmetry_equiv_pos_site_id
 _symmetry_equiv_pos_as_xyz
  1  'x, y, z'
loop_
 _atom_site_type_symbol
 _atom_site_label
 _atom_site_symmetry_multiplicity
 _atom_site_fract_x
 _atom_site_fract_y
 _atom_site_fract_z
 _atom_site_occupancy
  Ho  Ho0  1  0.355094  0.750000  0.206961  1
  Ho  Ho1  1  0.852741  0.750000  0.284566  1
  Ho  Ho2  1  0.648549  0.250000  0.784247  1
  Ho  Ho3  1  0.148948  0.250000  0.716506  1
  Ho  Ho4  1  0.685038  0.569958  0.055091  1
  Ho  Ho5  1  0.193298  0.935660  0.439943  1
  Ho  Ho6  1  0.308646  0.051109  0.940947  1
  Ho  Ho7  1  0.806904  0.436093  0.559049  1
  Ho  Ho8  1  0.308646  0.448891  0.940947  1
  Ho  Ho9  1  0.806904  0.063907  0.559049  1
  Ho  Ho10  1  0.685038  0.930042  0.055091  1
  Ho  Ho11  1  0.193298  0.564340  0.439943  1
  Ho  Ho12  1  0.475397  0.250000  0.488653  1
  Ho  Ho13  1  0.978990  0.250000  0.010530  1
  Ho  Ho14  1  0.525740  0.750000  0.511680  1
  Ho  Ho15  1  0.034704  0.750000  0.989644  1
  Ho  Ho16  1  0.314048  0.250000  0.219383  1
  Ho  Ho17  1  0.811691  0.250000  0.281429  1
  Ho  Ho18  1  0.674688  0.750000  0.787738  1
  Ho  Ho19  1  0.190407  0.750000  0.722294  1
  Al  Al20  1  0.407821  0.750000  0.959859  1
  Bi  Bi21  1  0.908405  0.750000  0.544544  1
  Bi  Bi22  1  0.593353  0.250000  0.042453  1
  Bi  Bi23  1  0.093124  0.250000  0.457515  1
  Bi  Bi24  1  0.564866  0.995616  0.325722  1
  Bi  Bi25  1  0.064074  0.503185  0.175218  1
  Bi  Bi26  1  0.435354  0.496045  0.674962  1
  Bi  Bi27  1  0.934971  0.002829  0.825066  1
  Bi  Bi28  1  0.435354  0.003955  0.674962  1
  Bi  Bi29  1  0.934971  0.497171  0.825066  1
  Bi  Bi30  1  0.564866  0.504384  0.325722  1
  Bi  Bi31  1  0.064074  0.996815  0.175218  1
