# generated using pymatgen
data_Er5Tm3Re2(B12Ir)2
_symmetry_space_group_name_H-M   'P 1'
_cell_length_a   3.63949800
_cell_length_b   9.09780687
_cell_length_c   11.48274102
_cell_angle_alpha   90.30446683
_cell_angle_beta   90.00000000
_cell_angle_gamma   90.00000000
_symmetry_Int_Tables_number   1
_chemical_formula_structural   Er5Tm3Re2(B12Ir)2
_chemical_formula_sum   'Er5 Tm3 Re2 B24 Ir2'
_cell_volume   380.20483585
_cell_formula_units_Z   1
loop_
 _symmetry_equiv_pos_site_id
 _symmetry_equiv_pos_as_xyz
  1  'x, y, z'
loop_
 _atom_site_type_symbol
 _atom_site_label
 _atom_site_symmetry_multiplicity
 _atom_site_fract_x
 _atom_site_fract_y
 _atom_site_fract_z
 _atom_site_occupancy
  Er  Er0  1  0.000000  0.316509  0.409803  1
  Er  Er1  1  0.000000  0.683555  0.590277  1
  Er  Er2  1  0.000000  0.826191  0.082095  1
  Er  Er3  1  0.000000  0.173820  0.917830  1
  Er  Er4  1  0.000000  0.946081  0.372453  1
  Tm  Tm5  1  0.000000  0.053854  0.627742  1
  Tm  Tm6  1  0.000000  0.441784  0.125706  1
  Tm  Tm7  1  0.000000  0.558228  0.874262  1
  Re  Re8  1  0.000000  0.138639  0.179818  1
  Re  Re9  1  0.000000  0.861605  0.820033  1
  B  B10  1  0.500000  0.553997  0.434271  1
  B  B11  1  0.500000  0.445945  0.565752  1
  B  B12  1  0.500000  0.053197  0.066939  1
  B  B13  1  0.500000  0.946821  0.933003  1
  B  B14  1  0.500000  0.749654  0.421429  1
  B  B15  1  0.500000  0.250119  0.578641  1
  B  B16  1  0.500000  0.248492  0.080369  1
  B  B17  1  0.500000  0.751521  0.919619  1
  B  B18  1  0.500000  0.791155  0.265698  1
  B  B19  1  0.500000  0.208628  0.734212  1
  B  B20  1  0.500000  0.292878  0.234441  1
  B  B21  1  0.500000  0.707202  0.765531  1
  B  B22  1  0.500000  0.631442  0.183610  1
  B  B23  1  0.500000  0.368530  0.816361  1
  B  B24  1  0.500000  0.131495  0.315019  1
  B  B25  1  0.500000  0.868715  0.684899  1
  B  B26  1  0.500000  0.982204  0.212997  1
  B  B27  1  0.500000  0.017932  0.786793  1
  B  B28  1  0.500000  0.481920  0.287151  1
  B  B29  1  0.500000  0.518049  0.712839  1
  B  B30  1  0.500000  0.605932  0.029671  1
  B  B31  1  0.500000  0.394063  0.970313  1
  B  B32  1  0.500000  0.106759  0.471279  1
  B  B33  1  0.500000  0.893411  0.529144  1
  Ir  Ir34  1  0.000000  0.636444  0.322038  1
  Ir  Ir35  1  0.000000  0.363231  0.677962  1
