# generated using pymatgen
data_CaLu7(B6Os)4
_symmetry_space_group_name_H-M   'P 1'
_cell_length_a   3.59964000
_cell_length_b   9.05157066
_cell_length_c   11.43142231
_cell_angle_alpha   89.91717013
_cell_angle_beta   90.00000000
_cell_angle_gamma   90.00000000
_symmetry_Int_Tables_number   1
_chemical_formula_structural   CaLu7(B6Os)4
_chemical_formula_sum   'Ca1 Lu7 B24 Os4'
_cell_volume   372.46273713
_cell_formula_units_Z   1
loop_
 _symmetry_equiv_pos_site_id
 _symmetry_equiv_pos_as_xyz
  1  'x, y, z'
loop_
 _atom_site_type_symbol
 _atom_site_label
 _atom_site_symmetry_multiplicity
 _atom_site_fract_x
 _atom_site_fract_y
 _atom_site_fract_z
 _atom_site_occupancy
  Ca  Ca0  1  0.000000  0.321287  0.413770  1
  Lu  Lu1  1  0.000000  0.677356  0.585161  1
  Lu  Lu2  1  0.000000  0.821219  0.086382  1
  Lu  Lu3  1  0.000000  0.179465  0.914554  1
  Lu  Lu4  1  0.000000  0.944037  0.372183  1
  Lu  Lu5  1  0.000000  0.057154  0.627355  1
  Lu  Lu6  1  0.000000  0.443401  0.128090  1
  Lu  Lu7  1  0.000000  0.556160  0.873303  1
  B  B8  1  0.500000  0.554778  0.433353  1
  B  B9  1  0.500000  0.447013  0.567653  1
  B  B10  1  0.500000  0.052652  0.065385  1
  B  B11  1  0.500000  0.946237  0.933364  1
  B  B12  1  0.500000  0.749784  0.419921  1
  B  B13  1  0.500000  0.250743  0.581644  1
  B  B14  1  0.500000  0.248688  0.079457  1
  B  B15  1  0.500000  0.750696  0.920255  1
  B  B16  1  0.500000  0.792804  0.265382  1
  B  B17  1  0.500000  0.208289  0.735276  1
  B  B18  1  0.500000  0.290748  0.232972  1
  B  B19  1  0.500000  0.708159  0.765938  1
  B  B20  1  0.500000  0.631749  0.184680  1
  B  B21  1  0.500000  0.369174  0.816304  1
  B  B22  1  0.500000  0.129777  0.313992  1
  B  B23  1  0.500000  0.868842  0.684480  1
  B  B24  1  0.500000  0.981282  0.211795  1
  B  B25  1  0.500000  0.018185  0.787141  1
  B  B26  1  0.500000  0.483070  0.286647  1
  B  B27  1  0.500000  0.518460  0.713501  1
  B  B28  1  0.500000  0.606004  0.029384  1
  B  B29  1  0.500000  0.394486  0.971141  1
  B  B30  1  0.500000  0.101253  0.471933  1
  B  B31  1  0.500000  0.896045  0.528767  1
  Os  Os32  1  0.000000  0.640521  0.319752  1
  Os  Os33  1  0.000000  0.362265  0.681287  1
  Os  Os34  1  0.000000  0.135741  0.176445  1
  Os  Os35  1  0.000000  0.862475  0.821357  1
