# generated using pymatgen
data_Sc12Co4GeIr
_symmetry_space_group_name_H-M   'P 1'
_cell_length_a   7.65242785
_cell_length_b   7.65242740
_cell_length_c   7.65242667
_cell_angle_alpha   110.91122996
_cell_angle_beta   110.75085537
_cell_angle_gamma   106.78456989
_symmetry_Int_Tables_number   1
_chemical_formula_structural   Sc12Co4GeIr
_chemical_formula_sum   'Sc12 Co4 Ge1 Ir1'
_cell_volume   344.39933129
_cell_formula_units_Z   1
loop_
 _symmetry_equiv_pos_site_id
 _symmetry_equiv_pos_as_xyz
  1  'x, y, z'
loop_
 _atom_site_type_symbol
 _atom_site_label
 _atom_site_symmetry_multiplicity
 _atom_site_fract_x
 _atom_site_fract_y
 _atom_site_fract_z
 _atom_site_occupancy
  Sc  Sc0  1  0.427184  0.228980  0.198204  1
  Sc  Sc1  1  0.572816  0.771020  0.801796  1
  Sc  Sc2  1  0.030777  0.228980  0.801796  1
  Sc  Sc3  1  0.969223  0.771020  0.198204  1
  Sc  Sc4  1  0.315794  0.615034  0.299238  1
  Sc  Sc5  1  0.684206  0.384966  0.700762  1
  Sc  Sc6  1  0.315794  0.016555  0.700762  1
  Sc  Sc7  1  0.684206  0.983445  0.299238  1
  Sc  Sc8  1  0.185162  0.277594  0.462757  1
  Sc  Sc9  1  0.814838  0.722405  0.537243  1
  Sc  Sc10  1  0.185162  0.722405  0.907568  1
  Sc  Sc11  1  0.814838  0.277594  0.092432  1
  Co  Co12  1  0.362979  0.000000  0.362979  1
  Co  Co13  1  0.637021  0.000000  0.637021  1
  Co  Co14  1  0.119552  0.619552  0.500000  1
  Co  Co15  1  0.880448  0.380448  0.500000  1
  Ge  Ge16  1  0.500000  0.500000  0.000000  1
  Ir  Ir17  1  0.000000  0.000000  0.000000  1
