# generated using pymatgen
data_Li4TbUS6
_symmetry_space_group_name_H-M   'P 1'
_cell_length_a   6.67502082
_cell_length_b   6.67502044
_cell_length_c   6.48800897
_cell_angle_alpha   100.18369086
_cell_angle_beta   100.18369123
_cell_angle_gamma   119.80931063
_symmetry_Int_Tables_number   1
_chemical_formula_structural   Li4TbUS6
_chemical_formula_sum   'Li4 Tb1 U1 S6'
_cell_volume   234.72037588
_cell_formula_units_Z   1
loop_
 _symmetry_equiv_pos_site_id
 _symmetry_equiv_pos_as_xyz
  1  'x, y, z'
loop_
 _atom_site_type_symbol
 _atom_site_label
 _atom_site_symmetry_multiplicity
 _atom_site_fract_x
 _atom_site_fract_y
 _atom_site_fract_z
 _atom_site_occupancy
  Li  Li0  1  0.499742  0.500259  0.000000  1
  Li  Li1  1  0.007551  0.992449  0.499998  1
  Li  Li2  1  0.666798  0.333202  0.500000  1
  Li  Li3  1  0.328938  0.671062  0.500000  1
  Tb  Tb4  1  0.833565  0.166436  0.000000  1
  U  U5  1  0.166365  0.833636  0.000000  1
  S  S6  1  0.926727  0.595481  0.244342  1
  S  S7  1  0.571485  0.917509  0.249850  1
  S  S8  1  0.249375  0.237555  0.251763  1
  S  S9  1  0.762445  0.750625  0.748237  1
  S  S10  1  0.082491  0.428516  0.750150  1
  S  S11  1  0.404519  0.073274  0.755658  1
