# generated using pymatgen
data_Yb10Cd2CuNi3
_symmetry_space_group_name_H-M   'P 1'
_cell_length_a   8.97963586
_cell_length_b   8.97963586
_cell_length_c   8.92983309
_cell_angle_alpha   129.66664697
_cell_angle_beta   129.66664921
_cell_angle_gamma   74.36196041
_symmetry_Int_Tables_number   1
_chemical_formula_structural   Yb10Cd2CuNi3
_chemical_formula_sum   'Yb10 Cd2 Cu1 Ni3'
_cell_volume   414.94848092
_cell_formula_units_Z   1
loop_
 _symmetry_equiv_pos_site_id
 _symmetry_equiv_pos_as_xyz
  1  'x, y, z'
loop_
 _atom_site_type_symbol
 _atom_site_label
 _atom_site_symmetry_multiplicity
 _atom_site_fract_x
 _atom_site_fract_y
 _atom_site_fract_z
 _atom_site_occupancy
  Yb  Yb0  1  0.501051  0.502289  0.003340  1
  Yb  Yb1  1  0.997711  0.998949  0.996660  1
  Yb  Yb2  1  0.543685  0.038674  0.844377  1
  Yb  Yb3  1  0.199309  0.694297  0.155623  1
  Yb  Yb4  1  0.029721  0.206638  0.500000  1
  Yb  Yb5  1  0.700976  0.537576  0.500000  1
  Yb  Yb6  1  0.461326  0.956315  0.155623  1
  Yb  Yb7  1  0.805703  0.300691  0.844377  1
  Yb  Yb8  1  0.962424  0.799024  0.500000  1
  Yb  Yb9  1  0.293362  0.470279  0.500000  1
  Cd  Cd10  1  0.251251  0.248749  0.000000  1
  Cd  Cd11  1  0.751251  0.748749  0.000000  1
  Cu  Cu12  1  0.385476  0.114524  0.500000  1
  Ni  Ni13  1  0.116205  0.617553  0.733759  1
  Ni  Ni14  1  0.882447  0.383795  0.266241  1
  Ni  Ni15  1  0.618101  0.881899  0.500000  1
