# generated using pymatgen
data_CaHo3(TiIr3)2
_symmetry_space_group_name_H-M   'P 1'
_cell_length_a   5.59199112
_cell_length_b   5.59196640
_cell_length_c   8.10128800
_cell_angle_alpha   90.00000000
_cell_angle_beta   90.01189566
_cell_angle_gamma   60.00014504
_symmetry_Int_Tables_number   1
_chemical_formula_structural   CaHo3(TiIr3)2
_chemical_formula_sum   'Ca1 Ho3 Ti2 Ir6'
_cell_volume   219.38975929
_cell_formula_units_Z   1
loop_
 _symmetry_equiv_pos_site_id
 _symmetry_equiv_pos_as_xyz
  1  'x, y, z'
loop_
 _atom_site_type_symbol
 _atom_site_label
 _atom_site_symmetry_multiplicity
 _atom_site_fract_x
 _atom_site_fract_y
 _atom_site_fract_z
 _atom_site_occupancy
  Ca  Ca0  1  0.333373  0.333314  0.563448  1
  Ho  Ho1  1  0.666652  0.666675  0.439599  1
  Ho  Ho2  1  0.666638  0.666681  0.063234  1
  Ho  Ho3  1  0.333294  0.333352  0.932398  1
  Ti  Ti4  1  0.000037  0.999981  0.499921  1
  Ti  Ti5  1  0.999980  0.000011  0.001605  1
  Ir  Ir6  1  0.829782  0.340501  0.752471  1
  Ir  Ir7  1  0.340506  0.829747  0.752504  1
  Ir  Ir8  1  0.829782  0.829717  0.752471  1
  Ir  Ir9  1  0.170546  0.658869  0.247453  1
  Ir  Ir10  1  0.658862  0.170569  0.247441  1
  Ir  Ir11  1  0.170546  0.170582  0.247453  1
