# generated using pymatgen
data_Er8Ti9Ge16Mo3
_symmetry_space_group_name_H-M   'P 1'
_cell_length_a   7.10317711
_cell_length_b   7.10317701
_cell_length_c   13.03250628
_cell_angle_alpha   90.00449129
_cell_angle_beta   89.99550979
_cell_angle_gamma   89.84021649
_symmetry_Int_Tables_number   1
_chemical_formula_structural   Er8Ti9Ge16Mo3
_chemical_formula_sum   'Er8 Ti9 Ge16 Mo3'
_cell_volume   657.55416395
_cell_formula_units_Z   1
loop_
 _symmetry_equiv_pos_site_id
 _symmetry_equiv_pos_as_xyz
  1  'x, y, z'
loop_
 _atom_site_type_symbol
 _atom_site_label
 _atom_site_symmetry_multiplicity
 _atom_site_fract_x
 _atom_site_fract_y
 _atom_site_fract_z
 _atom_site_occupancy
  Er  Er0  1  0.001943  0.661933  0.031824  1
  Er  Er1  1  0.996084  0.339115  0.530742  1
  Er  Er2  1  0.661933  0.001943  0.968176  1
  Er  Er3  1  0.158902  0.496994  0.779098  1
  Er  Er4  1  0.840403  0.503981  0.281092  1
  Er  Er5  1  0.496994  0.158902  0.220902  1
  Er  Er6  1  0.503981  0.840403  0.718908  1
  Er  Er7  1  0.339115  0.996084  0.469258  1
  Ti  Ti8  1  0.341739  0.508705  0.376567  1
  Ti  Ti9  1  0.842493  0.991282  0.374672  1
  Ti  Ti10  1  0.007552  0.157445  0.127264  1
  Ti  Ti11  1  0.991282  0.842493  0.625328  1
  Ti  Ti12  1  0.508705  0.341739  0.623433  1
  Ti  Ti13  1  0.157445  0.007552  0.872736  1
  Ti  Ti14  1  0.330156  0.330156  0.000000  1
  Ti  Ti15  1  0.491526  0.659779  0.125571  1
  Ti  Ti16  1  0.659779  0.491526  0.874429  1
  Ge  Ge17  1  0.038394  0.707909  0.433206  1
  Ge  Ge18  1  0.962959  0.293212  0.932243  1
  Ge  Ge19  1  0.707909  0.038394  0.566794  1
  Ge  Ge20  1  0.208704  0.461916  0.182213  1
  Ge  Ge21  1  0.790841  0.538717  0.682424  1
  Ge  Ge22  1  0.461916  0.208704  0.817787  1
  Ge  Ge23  1  0.538717  0.790841  0.317576  1
  Ge  Ge24  1  0.293212  0.962959  0.067757  1
  Ge  Ge25  1  0.799721  0.874590  0.178463  1
  Ge  Ge26  1  0.301002  0.625638  0.572313  1
  Ge  Ge27  1  0.698292  0.373501  0.072151  1
  Ge  Ge28  1  0.625638  0.301002  0.427687  1
  Ge  Ge29  1  0.373501  0.698292  0.927849  1
  Ge  Ge30  1  0.126348  0.199657  0.322189  1
  Ge  Ge31  1  0.199657  0.126348  0.677811  1
  Ge  Ge32  1  0.874590  0.799721  0.821537  1
  Mo  Mo33  1  0.669053  0.669053  0.500000  1
  Mo  Mo34  1  0.829029  0.170485  0.749565  1
  Mo  Mo35  1  0.170485  0.829029  0.250435  1
