# generated using pymatgen
data_LiCa2(SnAs)6
_symmetry_space_group_name_H-M   'P 1'
_cell_length_a   7.14580024
_cell_length_b   7.14580137
_cell_length_c   9.22044890
_cell_angle_alpha   82.50894594
_cell_angle_beta   82.50894980
_cell_angle_gamma   120.00683560
_symmetry_Int_Tables_number   1
_chemical_formula_structural   LiCa2(SnAs)6
_chemical_formula_sum   'Li1 Ca2 Sn6 As6'
_cell_volume   393.60658582
_cell_formula_units_Z   1
loop_
 _symmetry_equiv_pos_site_id
 _symmetry_equiv_pos_as_xyz
  1  'x, y, z'
loop_
 _atom_site_type_symbol
 _atom_site_label
 _atom_site_symmetry_multiplicity
 _atom_site_fract_x
 _atom_site_fract_y
 _atom_site_fract_z
 _atom_site_occupancy
  Li  Li0  1  0.000000  0.000000  0.000000  1
  Ca  Ca1  1  0.666416  0.333584  0.000000  1
  Ca  Ca2  1  0.333584  0.666416  0.000000  1
  Sn  Sn3  1  0.540994  0.877148  0.365479  1
  Sn  Sn4  1  0.214206  0.214206  0.366109  1
  Sn  Sn5  1  0.877148  0.540994  0.365479  1
  Sn  Sn6  1  0.459006  0.122852  0.634521  1
  Sn  Sn7  1  0.122852  0.459006  0.634521  1
  Sn  Sn8  1  0.785794  0.785794  0.633891  1
  As  As9  1  0.397434  0.397434  0.793816  1
  As  As10  1  0.068719  0.739911  0.793441  1
  As  As11  1  0.739911  0.068719  0.793441  1
  As  As12  1  0.602566  0.602566  0.206184  1
  As  As13  1  0.260089  0.931281  0.206559  1
  As  As14  1  0.931281  0.260089  0.206559  1
