# generated using pymatgen
data_NaNd2PuB24
_symmetry_space_group_name_H-M   'P 1'
_cell_length_a   7.17283300
_cell_length_b   7.17283254
_cell_length_c   5.87236000
_cell_angle_alpha   90.00000000
_cell_angle_beta   90.00000000
_cell_angle_gamma   109.39091184
_symmetry_Int_Tables_number   1
_chemical_formula_structural   NaNd2PuB24
_chemical_formula_sum   'Na1 Nd2 Pu1 B24'
_cell_volume   284.99192875
_cell_formula_units_Z   1
loop_
 _symmetry_equiv_pos_site_id
 _symmetry_equiv_pos_as_xyz
  1  'x, y, z'
loop_
 _atom_site_type_symbol
 _atom_site_label
 _atom_site_symmetry_multiplicity
 _atom_site_fract_x
 _atom_site_fract_y
 _atom_site_fract_z
 _atom_site_occupancy
  Na  Na0  1  0.749078  0.250922  0.500000  1
  Nd  Nd1  1  0.501513  0.498487  0.000000  1
  Nd  Nd2  1  0.250326  0.749674  0.500000  1
  Pu  Pu3  1  0.998470  0.001530  0.000000  1
  B  B4  1  0.174599  0.325075  0.649018  1
  B  B5  1  0.925352  0.574790  0.150099  1
  B  B6  1  0.674925  0.825401  0.649018  1
  B  B7  1  0.425210  0.074648  0.150099  1
  B  B8  1  0.174599  0.325075  0.350982  1
  B  B9  1  0.925352  0.574790  0.849901  1
  B  B10  1  0.674925  0.825401  0.350982  1
  B  B11  1  0.425210  0.074648  0.849901  1
  B  B12  1  0.400636  0.398440  0.500000  1
  B  B13  1  0.149576  0.650390  0.000000  1
  B  B14  1  0.899248  0.901111  0.500000  1
  B  B15  1  0.650076  0.149297  0.000000  1
  B  B16  1  0.324804  0.174360  0.649195  1
  B  B17  1  0.074914  0.425286  0.150055  1
  B  B18  1  0.825640  0.675196  0.649195  1
  B  B19  1  0.574714  0.925086  0.150055  1
  B  B20  1  0.098889  0.100752  0.500000  1
  B  B21  1  0.850703  0.349924  0.000000  1
  B  B22  1  0.601560  0.599364  0.500000  1
  B  B23  1  0.349610  0.850424  0.000000  1
  B  B24  1  0.324804  0.174360  0.350805  1
  B  B25  1  0.074914  0.425286  0.849945  1
  B  B26  1  0.825640  0.675196  0.350805  1
  B  B27  1  0.574714  0.925086  0.849945  1
