# generated using pymatgen
data_P2PdRu3
_symmetry_space_group_name_H-M   'P 1'
_cell_length_a   3.88075400
_cell_length_b   6.19946181
_cell_length_c   6.84296486
_cell_angle_alpha   88.49724137
_cell_angle_beta   90.00000000
_cell_angle_gamma   90.00000000
_symmetry_Int_Tables_number   1
_chemical_formula_structural   P2PdRu3
_chemical_formula_sum   'P4 Pd2 Ru6'
_cell_volume   164.57543712
_cell_formula_units_Z   2
loop_
 _symmetry_equiv_pos_site_id
 _symmetry_equiv_pos_as_xyz
  1  'x, y, z'
loop_
 _atom_site_type_symbol
 _atom_site_label
 _atom_site_symmetry_multiplicity
 _atom_site_fract_x
 _atom_site_fract_y
 _atom_site_fract_z
 _atom_site_occupancy
  P  P0  1  0.250000  0.721849  0.620122  1
  P  P1  1  0.750000  0.278151  0.379878  1
  P  P2  1  0.250000  0.238971  0.892265  1
  P  P3  1  0.750000  0.761029  0.107735  1
  Pd  Pd4  1  0.750000  0.045803  0.661167  1
  Pd  Pd5  1  0.250000  0.954197  0.338833  1
  Ru  Ru6  1  0.750000  0.528450  0.842997  1
  Ru  Ru7  1  0.250000  0.471550  0.157003  1
  Ru  Ru8  1  0.250000  0.359336  0.567493  1
  Ru  Ru9  1  0.750000  0.640664  0.432507  1
  Ru  Ru10  1  0.250000  0.853000  0.922893  1
  Ru  Ru11  1  0.750000  0.147000  0.077107  1
