# generated using pymatgen
data_Na(MnSe2)4
_symmetry_space_group_name_H-M   'P 1'
_cell_length_a   8.34406205
_cell_length_b   8.34406130
_cell_length_c   8.34406156
_cell_angle_alpha   49.89002312
_cell_angle_beta   49.89003138
_cell_angle_gamma   49.89002865
_symmetry_Int_Tables_number   1
_chemical_formula_structural   Na(MnSe2)4
_chemical_formula_sum   'Na1 Mn4 Se8'
_cell_volume   312.64098753
_cell_formula_units_Z   1
loop_
 _symmetry_equiv_pos_site_id
 _symmetry_equiv_pos_as_xyz
  1  'x, y, z'
loop_
 _atom_site_type_symbol
 _atom_site_label
 _atom_site_symmetry_multiplicity
 _atom_site_fract_x
 _atom_site_fract_y
 _atom_site_fract_z
 _atom_site_occupancy
  Na  Na0  1  0.500000  0.500000  0.500000  1
  Mn  Mn1  1  0.000000  0.500000  0.500000  1
  Mn  Mn2  1  0.500000  0.000000  0.500000  1
  Mn  Mn3  1  0.500000  0.500000  0.000000  1
  Mn  Mn4  1  0.000000  0.000000  0.000000  1
  Se  Se5  1  0.267675  0.769528  0.769528  1
  Se  Se6  1  0.230472  0.230472  0.732325  1
  Se  Se7  1  0.732325  0.230472  0.230472  1
  Se  Se8  1  0.230472  0.732325  0.230472  1
  Se  Se9  1  0.268420  0.268420  0.268420  1
  Se  Se10  1  0.731580  0.731580  0.731580  1
  Se  Se11  1  0.769528  0.267675  0.769528  1
  Se  Se12  1  0.769528  0.769528  0.267675  1
