# generated using pymatgen
data_PrPu2Cu9
_symmetry_space_group_name_H-M   'P 1'
_cell_length_a   5.19045400
_cell_length_b   5.19045398
_cell_length_c   16.60076000
_cell_angle_alpha   90.00000000
_cell_angle_beta   90.00000000
_cell_angle_gamma   120.00000012
_symmetry_Int_Tables_number   1
_chemical_formula_structural   PrPu2Cu9
_chemical_formula_sum   'Pr2 Pu4 Cu18'
_cell_volume   387.31943850
_cell_formula_units_Z   2
loop_
 _symmetry_equiv_pos_site_id
 _symmetry_equiv_pos_as_xyz
  1  'x, y, z'
loop_
 _atom_site_type_symbol
 _atom_site_label
 _atom_site_symmetry_multiplicity
 _atom_site_fract_x
 _atom_site_fract_y
 _atom_site_fract_z
 _atom_site_occupancy
  Pr  Pr0  1  0.666667  0.333333  0.250000  1
  Pr  Pr1  1  0.333333  0.666667  0.750000  1
  Pu  Pu2  1  0.666667  0.333333  0.472086  1
  Pu  Pu3  1  0.333333  0.666667  0.972086  1
  Pu  Pu4  1  0.666667  0.333333  0.027914  1
  Pu  Pu5  1  0.333333  0.666667  0.527914  1
  Cu  Cu6  1  0.333333  0.666667  0.250000  1
  Cu  Cu7  1  0.666667  0.333333  0.750000  1
  Cu  Cu8  1  0.166061  0.833939  0.371583  1
  Cu  Cu9  1  0.166061  0.332123  0.371583  1
  Cu  Cu10  1  0.000000  0.000000  0.750000  1
  Cu  Cu11  1  0.000000  0.000000  0.250000  1
  Cu  Cu12  1  0.000000  0.000000  0.000000  1
  Cu  Cu13  1  0.000000  0.000000  0.500000  1
  Cu  Cu14  1  0.166061  0.332123  0.128417  1
  Cu  Cu15  1  0.833939  0.166061  0.628417  1
  Cu  Cu16  1  0.332123  0.166061  0.628417  1
  Cu  Cu17  1  0.667877  0.833939  0.128417  1
  Cu  Cu18  1  0.166061  0.833939  0.128417  1
  Cu  Cu19  1  0.833939  0.667877  0.871583  1
  Cu  Cu20  1  0.833939  0.166061  0.871583  1
  Cu  Cu21  1  0.833939  0.667877  0.628417  1
  Cu  Cu22  1  0.332123  0.166061  0.871583  1
  Cu  Cu23  1  0.667877  0.833939  0.371583  1
