# generated using pymatgen
data_Mn26TcRu2
_symmetry_space_group_name_H-M   'P 1'
_cell_length_a   7.50430595
_cell_length_b   7.50430627
_cell_length_c   7.52396170
_cell_angle_alpha   109.46733266
_cell_angle_beta   109.46733167
_cell_angle_gamma   109.37293440
_symmetry_Int_Tables_number   1
_chemical_formula_structural   Mn26TcRu2
_chemical_formula_sum   'Mn26 Tc1 Ru2'
_cell_volume   326.59734347
_cell_formula_units_Z   1
loop_
 _symmetry_equiv_pos_site_id
 _symmetry_equiv_pos_as_xyz
  1  'x, y, z'
loop_
 _atom_site_type_symbol
 _atom_site_label
 _atom_site_symmetry_multiplicity
 _atom_site_fract_x
 _atom_site_fract_y
 _atom_site_fract_z
 _atom_site_occupancy
  Mn  Mn0  1  0.001225  0.001225  0.635972  1
  Mn  Mn1  1  0.365252  0.365252  0.364028  1
  Mn  Mn2  1  0.389000  0.676930  0.000000  1
  Mn  Mn3  1  0.712023  0.324411  0.322803  1
  Mn  Mn4  1  0.389221  0.001608  0.677197  1
  Mn  Mn5  1  0.676930  0.389000  0.000000  1
  Mn  Mn6  1  0.001608  0.389221  0.677197  1
  Mn  Mn7  1  0.324411  0.712023  0.322803  1
  Mn  Mn8  1  0.322128  0.322128  0.713904  1
  Mn  Mn9  1  0.001520  0.679090  0.392900  1
  Mn  Mn10  1  0.679090  0.001520  0.392900  1
  Mn  Mn11  1  0.608224  0.608224  0.286096  1
  Mn  Mn12  1  0.286191  0.608620  0.607100  1
  Mn  Mn13  1  0.608620  0.286191  0.607100  1
  Mn  Mn14  1  0.371752  0.192165  0.000000  1
  Mn  Mn15  1  0.178419  0.806115  0.803367  1
  Mn  Mn16  1  0.375051  0.002748  0.196633  1
  Mn  Mn17  1  0.192165  0.371752  0.000000  1
  Mn  Mn18  1  0.002748  0.375051  0.196633  1
  Mn  Mn19  1  0.806115  0.178419  0.803367  1
  Mn  Mn20  1  0.804818  0.804818  0.180725  1
  Mn  Mn21  1  0.002143  0.194316  0.375396  1
  Mn  Mn22  1  0.194316  0.002143  0.375396  1
  Mn  Mn23  1  0.624094  0.624094  0.819275  1
  Mn  Mn24  1  0.818919  0.626747  0.624604  1
  Mn  Mn25  1  0.626747  0.818919  0.624604  1
  Tc  Tc26  1  0.998113  0.998113  0.000000  1
  Ru  Ru27  1  0.637502  0.001654  0.000000  1
  Ru  Ru28  1  0.001654  0.637502  0.000000  1
