# generated using pymatgen
data_TmScSe3
_symmetry_space_group_name_H-M   'P 1'
_cell_length_a   12.99205935
_cell_length_b   12.39240631
_cell_length_c   6.91306787
_cell_angle_alpha   79.04236805
_cell_angle_beta   69.46436616
_cell_angle_gamma   31.49325673
_symmetry_Int_Tables_number   1
_chemical_formula_structural   TmScSe3
_chemical_formula_sum   'Tm4 Sc4 Se12'
_cell_volume   530.79655122
_cell_formula_units_Z   4
loop_
 _symmetry_equiv_pos_site_id
 _symmetry_equiv_pos_as_xyz
  1  'x, y, z'
loop_
 _atom_site_type_symbol
 _atom_site_label
 _atom_site_symmetry_multiplicity
 _atom_site_fract_x
 _atom_site_fract_y
 _atom_site_fract_z
 _atom_site_occupancy
  Tm  Tm0  1  0.996909  0.996909  0.503091  1
  Tm  Tm1  1  0.503091  0.503091  0.996909  1
  Tm  Tm2  1  0.253091  0.253091  0.746909  1
  Tm  Tm3  1  0.746909  0.746909  0.253091  1
  Sc  Sc4  1  0.333311  0.333311  0.166689  1
  Sc  Sc5  1  0.166689  0.166689  0.333311  1
  Sc  Sc6  1  0.916689  0.916689  0.083311  1
  Sc  Sc7  1  0.083311  0.083311  0.916689  1
  Se  Se8  1  0.013278  0.486722  0.486722  1
  Se  Se9  1  0.486722  0.013278  0.013278  1
  Se  Se10  1  0.236722  0.763278  0.763278  1
  Se  Se11  1  0.763278  0.236722  0.236722  1
  Se  Se12  1  0.664566  0.167201  0.849231  1
  Se  Se13  1  0.849231  0.319002  0.664566  1
  Se  Se14  1  0.319002  0.849231  0.167201  1
  Se  Se15  1  0.167201  0.664566  0.319002  1
  Se  Se16  1  0.585434  0.082799  0.400769  1
  Se  Se17  1  0.400769  0.930998  0.585434  1
  Se  Se18  1  0.930998  0.400769  0.082799  1
  Se  Se19  1  0.082799  0.585434  0.930998  1
