# generated using pymatgen
data_Cs6TmLuBi4
_symmetry_space_group_name_H-M   'P 1'
_cell_length_a   10.67215300
_cell_length_b   10.67215313
_cell_length_c   10.67215300
_cell_angle_alpha   127.14503173
_cell_angle_beta   70.74388677
_cell_angle_gamma   136.54849737
_symmetry_Int_Tables_number   1
_chemical_formula_structural   Cs6TmLuBi4
_chemical_formula_sum   'Cs6 Tm1 Lu1 Bi4'
_cell_volume   653.14659830
_cell_formula_units_Z   1
loop_
 _symmetry_equiv_pos_site_id
 _symmetry_equiv_pos_as_xyz
  1  'x, y, z'
loop_
 _atom_site_type_symbol
 _atom_site_label
 _atom_site_symmetry_multiplicity
 _atom_site_fract_x
 _atom_site_fract_y
 _atom_site_fract_z
 _atom_site_occupancy
  Cs  Cs0  1  0.250000  0.250000  0.000000  1
  Cs  Cs1  1  0.750000  0.750000  0.000000  1
  Cs  Cs2  1  0.315581  0.803359  0.118300  1
  Cs  Cs3  1  0.184419  0.302720  0.487778  1
  Cs  Cs4  1  0.814942  0.696642  0.512223  1
  Cs  Cs5  1  0.685058  0.197279  0.881699  1
  Tm  Tm6  1  0.250000  0.749999  0.499999  1
  Lu  Lu7  1  0.750000  0.250000  0.500000  1
  Bi  Bi8  1  0.904518  0.312366  0.220244  1
  Bi  Bi9  1  0.595482  0.815727  0.407848  1
  Bi  Bi10  1  0.407880  0.187634  0.592152  1
  Bi  Bi11  1  0.092120  0.684273  0.779755  1
