# generated using pymatgen
data_Cs4Na2DyInSb4
_symmetry_space_group_name_H-M   'P 1'
_cell_length_a   10.38406643
_cell_length_b   10.38406553
_cell_length_c   10.38406544
_cell_angle_alpha   137.25072679
_cell_angle_beta   61.21108840
_cell_angle_gamma   138.35297955
_symmetry_Int_Tables_number   1
_chemical_formula_structural   Cs4Na2DyInSb4
_chemical_formula_sum   'Cs4 Na2 Dy1 In1 Sb4'
_cell_volume   499.45205758
_cell_formula_units_Z   1
loop_
 _symmetry_equiv_pos_site_id
 _symmetry_equiv_pos_as_xyz
  1  'x, y, z'
loop_
 _atom_site_type_symbol
 _atom_site_label
 _atom_site_symmetry_multiplicity
 _atom_site_fract_x
 _atom_site_fract_y
 _atom_site_fract_z
 _atom_site_occupancy
  Cs  Cs0  1  0.330887  0.771797  0.094358  1
  Cs  Cs1  1  0.169113  0.263473  0.440911  1
  Cs  Cs2  1  0.822562  0.728203  0.559090  1
  Cs  Cs3  1  0.677439  0.236527  0.905642  1
  Na  Na4  1  0.750000  0.250000  0.500000  1
  Na  Na5  1  0.250000  0.750000  0.500000  1
  Dy  Dy6  1  0.250000  0.250000  0.000000  1
  In  In7  1  0.750000  0.750000  0.000000  1
  Sb  Sb8  1  0.900574  0.217060  0.128021  1
  Sb  Sb9  1  0.599426  0.727447  0.316487  1
  Sb  Sb10  1  0.410961  0.282940  0.683514  1
  Sb  Sb11  1  0.089039  0.772553  0.871979  1
