# generated using pymatgen
data_K2ZnB2Pt7
_symmetry_space_group_name_H-M   'P 1'
_cell_length_a   5.66909600
_cell_length_b   5.66909537
_cell_length_c   7.33220500
_cell_angle_alpha   90.00000000
_cell_angle_beta   90.00000000
_cell_angle_gamma   119.99999202
_symmetry_Int_Tables_number   1
_chemical_formula_structural   K2ZnB2Pt7
_chemical_formula_sum   'K2 Zn1 B2 Pt7'
_cell_volume   204.07642596
_cell_formula_units_Z   1
loop_
 _symmetry_equiv_pos_site_id
 _symmetry_equiv_pos_as_xyz
  1  'x, y, z'
loop_
 _atom_site_type_symbol
 _atom_site_label
 _atom_site_symmetry_multiplicity
 _atom_site_fract_x
 _atom_site_fract_y
 _atom_site_fract_z
 _atom_site_occupancy
  K  K0  1  0.000000  0.000000  0.500000  1
  K  K1  1  0.000000  0.000000  0.000000  1
  Zn  Zn2  1  0.666667  0.333333  0.000000  1
  B  B3  1  0.666667  0.333333  0.500000  1
  B  B4  1  0.333333  0.666667  0.500000  1
  Pt  Pt5  1  0.500401  0.499599  0.699016  1
  Pt  Pt6  1  0.500401  0.000802  0.699016  1
  Pt  Pt7  1  0.999198  0.499599  0.699016  1
  Pt  Pt8  1  0.500401  0.499599  0.300984  1
  Pt  Pt9  1  0.500401  0.000802  0.300984  1
  Pt  Pt10  1  0.999198  0.499599  0.300984  1
  Pt  Pt11  1  0.333333  0.666667  0.000000  1
