# generated using pymatgen
data_Er8GaPd24
_symmetry_space_group_name_H-M   'P 1'
_cell_length_a   8.33168100
_cell_length_b   8.33168100
_cell_length_c   8.33168100
_cell_angle_alpha   90.00000000
_cell_angle_beta   90.00000000
_cell_angle_gamma   90.00000000
_symmetry_Int_Tables_number   1
_chemical_formula_structural   Er8GaPd24
_chemical_formula_sum   'Er8 Ga1 Pd24'
_cell_volume   578.35953584
_cell_formula_units_Z   1
loop_
 _symmetry_equiv_pos_site_id
 _symmetry_equiv_pos_as_xyz
  1  'x, y, z'
loop_
 _atom_site_type_symbol
 _atom_site_label
 _atom_site_symmetry_multiplicity
 _atom_site_fract_x
 _atom_site_fract_y
 _atom_site_fract_z
 _atom_site_occupancy
  Er  Er0  1  0.251265  0.251265  0.748735  1
  Er  Er1  1  0.251265  0.748735  0.251265  1
  Er  Er2  1  0.748735  0.251265  0.251265  1
  Er  Er3  1  0.748735  0.748735  0.748735  1
  Er  Er4  1  0.748735  0.748735  0.251265  1
  Er  Er5  1  0.748735  0.251265  0.748735  1
  Er  Er6  1  0.251265  0.748735  0.748735  1
  Er  Er7  1  0.251265  0.251265  0.251265  1
  Ga  Ga8  1  0.000000  0.000000  0.000000  1
  Pd  Pd9  1  0.500000  0.500000  0.746739  1
  Pd  Pd10  1  0.500000  0.253261  0.500000  1
  Pd  Pd11  1  0.253261  0.500000  0.500000  1
  Pd  Pd12  1  0.500000  0.500000  0.253261  1
  Pd  Pd13  1  0.500000  0.746739  0.500000  1
  Pd  Pd14  1  0.746739  0.500000  0.500000  1
  Pd  Pd15  1  0.000000  0.000000  0.708085  1
  Pd  Pd16  1  0.000000  0.291915  0.000000  1
  Pd  Pd17  1  0.291915  0.000000  0.000000  1
  Pd  Pd18  1  0.000000  0.000000  0.291915  1
  Pd  Pd19  1  0.000000  0.708085  0.000000  1
  Pd  Pd20  1  0.708085  0.000000  0.000000  1
  Pd  Pd21  1  0.000000  0.500000  0.739750  1
  Pd  Pd22  1  0.500000  0.260250  0.000000  1
  Pd  Pd23  1  0.260250  0.000000  0.500000  1
  Pd  Pd24  1  0.000000  0.260250  0.500000  1
  Pd  Pd25  1  0.500000  0.000000  0.739750  1
  Pd  Pd26  1  0.260250  0.500000  0.000000  1
  Pd  Pd27  1  0.000000  0.500000  0.260250  1
  Pd  Pd28  1  0.500000  0.739750  0.000000  1
  Pd  Pd29  1  0.000000  0.739750  0.500000  1
  Pd  Pd30  1  0.500000  0.000000  0.260250  1
  Pd  Pd31  1  0.739750  0.000000  0.500000  1
  Pd  Pd32  1  0.739750  0.500000  0.000000  1
