# generated using pymatgen
data_Lu24FeTc7
_symmetry_space_group_name_H-M   'P 1'
_cell_length_a   6.05978109
_cell_length_b   8.98197200
_cell_length_c   14.55549700
_cell_angle_alpha   90.00000000
_cell_angle_beta   90.13998276
_cell_angle_gamma   90.00000000
_symmetry_Int_Tables_number   1
_chemical_formula_structural   Lu24FeTc7
_chemical_formula_sum   'Lu24 Fe1 Tc7'
_cell_volume   792.23563831
_cell_formula_units_Z   1
loop_
 _symmetry_equiv_pos_site_id
 _symmetry_equiv_pos_as_xyz
  1  'x, y, z'
loop_
 _atom_site_type_symbol
 _atom_site_label
 _atom_site_symmetry_multiplicity
 _atom_site_fract_x
 _atom_site_fract_y
 _atom_site_fract_z
 _atom_site_occupancy
  Lu  Lu0  1  0.525264  0.750000  0.354435  1
  Lu  Lu1  1  0.026479  0.250000  0.145469  1
  Lu  Lu2  1  0.473437  0.250000  0.646594  1
  Lu  Lu3  1  0.976164  0.750000  0.848895  1
  Lu  Lu4  1  0.783483  0.750000  0.110548  1
  Lu  Lu5  1  0.283598  0.250000  0.390435  1
  Lu  Lu6  1  0.216074  0.250000  0.887809  1
  Lu  Lu7  1  0.725450  0.750000  0.612919  1
  Lu  Lu8  1  0.439258  0.934652  0.787615  1
  Lu  Lu9  1  0.941039  0.063472  0.710574  1
  Lu  Lu10  1  0.555179  0.436142  0.208979  1
  Lu  Lu11  1  0.054958  0.563546  0.290795  1
  Lu  Lu12  1  0.555179  0.063858  0.208979  1
  Lu  Lu13  1  0.054958  0.936454  0.290795  1
  Lu  Lu14  1  0.439258  0.565348  0.787615  1
  Lu  Lu15  1  0.941039  0.436528  0.710574  1
  Lu  Lu16  1  0.245433  0.936550  0.539279  1
  Lu  Lu17  1  0.744349  0.059875  0.963521  1
  Lu  Lu18  1  0.757322  0.440386  0.466723  1
  Lu  Lu19  1  0.256568  0.561503  0.032884  1
  Lu  Lu20  1  0.757322  0.059614  0.466723  1
  Lu  Lu21  1  0.256568  0.938497  0.032884  1
  Lu  Lu22  1  0.245433  0.563450  0.539279  1
  Lu  Lu23  1  0.744349  0.440125  0.963521  1
  Fe  Fe24  1  0.154241  0.750000  0.682418  1
  Tc  Tc25  1  0.928238  0.750000  0.444554  1
  Tc  Tc26  1  0.427794  0.250000  0.056881  1
  Tc  Tc27  1  0.073453  0.250000  0.559813  1
  Tc  Tc28  1  0.576625  0.750000  0.939499  1
  Tc  Tc29  1  0.341469  0.750000  0.181628  1
  Tc  Tc30  1  0.844296  0.250000  0.319531  1
  Tc  Tc31  1  0.655721  0.250000  0.817829  1
