# generated using pymatgen
data_ZrCuIrS4
_symmetry_space_group_name_H-M   'P 1'
_cell_length_a   7.14047037
_cell_length_b   7.14046979
_cell_length_c   7.14047059
_cell_angle_alpha   119.83197064
_cell_angle_beta   118.23411243
_cell_angle_gamma   91.68854858
_symmetry_Int_Tables_number   1
_chemical_formula_structural   ZrCuIrS4
_chemical_formula_sum   'Zr2 Cu2 Ir2 S8'
_cell_volume   261.01237498
_cell_formula_units_Z   2
loop_
 _symmetry_equiv_pos_site_id
 _symmetry_equiv_pos_as_xyz
  1  'x, y, z'
loop_
 _atom_site_type_symbol
 _atom_site_label
 _atom_site_symmetry_multiplicity
 _atom_site_fract_x
 _atom_site_fract_y
 _atom_site_fract_z
 _atom_site_occupancy
  Zr  Zr0  1  0.966892  0.179597  0.712705  1
  Zr  Zr1  1  0.033108  0.745811  0.212705  1
  Cu  Cu2  1  0.379142  0.413740  0.534598  1
  Cu  Cu3  1  0.620858  0.155456  0.034598  1
  Ir  Ir4  1  0.500000  0.761947  0.261947  1
  Ir  Ir5  1  0.000000  0.761947  0.761947  1
  S  S6  1  0.240087  0.971220  0.727310  1
  S  S7  1  0.743912  0.971220  0.231133  1
  S  S8  1  0.758253  0.546974  0.288721  1
  S  S9  1  0.722150  0.957485  0.735335  1
  S  S10  1  0.759913  0.487222  0.731133  1
  S  S11  1  0.241747  0.530467  0.788721  1
  S  S12  1  0.277850  0.013184  0.235335  1
  S  S13  1  0.256088  0.487222  0.227310  1
