# generated using pymatgen
data_Na2YAs2(PPd5)4
_symmetry_space_group_name_H-M   'P 1'
_cell_length_a   8.69597139
_cell_length_b   8.68017704
_cell_length_c   8.68017600
_cell_angle_alpha   60.12041802
_cell_angle_beta   59.93979206
_cell_angle_gamma   59.93978606
_symmetry_Int_Tables_number   1
_chemical_formula_structural   Na2YAs2(PPd5)4
_chemical_formula_sum   'Na2 Y1 As2 P4 Pd20'
_cell_volume   463.29469240
_cell_formula_units_Z   1
loop_
 _symmetry_equiv_pos_site_id
 _symmetry_equiv_pos_as_xyz
  1  'x, y, z'
loop_
 _atom_site_type_symbol
 _atom_site_label
 _atom_site_symmetry_multiplicity
 _atom_site_fract_x
 _atom_site_fract_y
 _atom_site_fract_z
 _atom_site_occupancy
  Na  Na0  1  0.750000  0.750006  0.750006  1
  Na  Na1  1  0.000014  0.999997  0.999997  1
  Y  Y2  1  0.250000  0.250000  0.250000  1
  As  As3  1  0.739362  0.260637  0.260637  1
  As  As4  1  0.260637  0.739362  0.739362  1
  P  P5  1  0.263146  0.736853  0.263147  1
  P  P6  1  0.736852  0.263147  0.736853  1
  P  P7  1  0.263146  0.263147  0.736853  1
  P  P8  1  0.736852  0.736853  0.263147  1
  Pd  Pd9  1  0.380264  0.386936  0.386936  1
  Pd  Pd10  1  0.619997  0.612832  0.612832  1
  Pd  Pd11  1  0.386936  0.380264  0.845863  1
  Pd  Pd12  1  0.386936  0.845863  0.380264  1
  Pd  Pd13  1  0.612829  0.619999  0.154340  1
  Pd  Pd14  1  0.612829  0.154340  0.619999  1
  Pd  Pd15  1  0.845862  0.386936  0.386936  1
  Pd  Pd16  1  0.154337  0.612831  0.612831  1
  Pd  Pd17  1  0.343412  0.002401  0.002401  1
  Pd  Pd18  1  0.651788  0.002400  0.002400  1
  Pd  Pd19  1  0.002401  0.343411  0.651786  1
  Pd  Pd20  1  0.002401  0.651786  0.343411  1
  Pd  Pd21  1  0.011678  0.344138  0.994669  1
  Pd  Pd22  1  0.649512  0.994669  0.344141  1
  Pd  Pd23  1  0.994669  0.649513  0.011678  1
  Pd  Pd24  1  0.344138  0.011676  0.649515  1
  Pd  Pd25  1  0.011678  0.994669  0.344138  1
  Pd  Pd26  1  0.994669  0.011678  0.649513  1
  Pd  Pd27  1  0.649512  0.344141  0.994669  1
  Pd  Pd28  1  0.344138  0.649515  0.011676  1
