# generated using pymatgen
data_Zr3BeIr2N
_symmetry_space_group_name_H-M   'P 1'
_cell_length_a   8.44073171
_cell_length_b   8.44073231
_cell_length_c   8.44073100
_cell_angle_alpha   60.00000121
_cell_angle_beta   59.99999885
_cell_angle_gamma   59.99999706
_symmetry_Int_Tables_number   1
_chemical_formula_structural   Zr3BeIr2N
_chemical_formula_sum   'Zr12 Be4 Ir8 N4'
_cell_volume   425.23135069
_cell_formula_units_Z   4
loop_
 _symmetry_equiv_pos_site_id
 _symmetry_equiv_pos_as_xyz
  1  'x, y, z'
loop_
 _atom_site_type_symbol
 _atom_site_label
 _atom_site_symmetry_multiplicity
 _atom_site_fract_x
 _atom_site_fract_y
 _atom_site_fract_z
 _atom_site_occupancy
  Zr  Zr0  1  0.804757  0.804757  0.195243  1
  Zr  Zr1  1  0.195243  0.195243  0.804757  1
  Zr  Zr2  1  0.804757  0.195243  0.804757  1
  Zr  Zr3  1  0.195243  0.804757  0.195243  1
  Zr  Zr4  1  0.195243  0.804757  0.804757  1
  Zr  Zr5  1  0.804757  0.195243  0.195243  1
  Zr  Zr6  1  0.445243  0.445243  0.054757  1
  Zr  Zr7  1  0.054757  0.054757  0.445243  1
  Zr  Zr8  1  0.445243  0.054757  0.445243  1
  Zr  Zr9  1  0.054757  0.445243  0.054757  1
  Zr  Zr10  1  0.054757  0.445243  0.445243  1
  Zr  Zr11  1  0.445243  0.054757  0.054757  1
  Be  Be12  1  0.125000  0.625000  0.625000  1
  Be  Be13  1  0.625000  0.125000  0.625000  1
  Be  Be14  1  0.625000  0.625000  0.125000  1
  Be  Be15  1  0.625000  0.625000  0.625000  1
  Ir  Ir16  1  0.747084  0.417639  0.417639  1
  Ir  Ir17  1  0.417639  0.747084  0.417639  1
  Ir  Ir18  1  0.417639  0.417639  0.747084  1
  Ir  Ir19  1  0.417639  0.417639  0.417639  1
  Ir  Ir20  1  0.502916  0.832361  0.832361  1
  Ir  Ir21  1  0.832361  0.502916  0.832361  1
  Ir  Ir22  1  0.832361  0.832361  0.502916  1
  Ir  Ir23  1  0.832361  0.832361  0.832361  1
  N  N24  1  0.625000  0.125000  0.125000  1
  N  N25  1  0.125000  0.625000  0.125000  1
  N  N26  1  0.125000  0.125000  0.625000  1
  N  N27  1  0.125000  0.125000  0.125000  1
