# generated using pymatgen
data_Ca6Sn(As3Rh5)4
_symmetry_space_group_name_H-M   'P 1'
_cell_length_a   13.92272300
_cell_length_b   13.92272155
_cell_length_c   4.03167200
_cell_angle_alpha   90.00000000
_cell_angle_beta   90.00000000
_cell_angle_gamma   119.99999632
_symmetry_Int_Tables_number   1
_chemical_formula_structural   Ca6Sn(As3Rh5)4
_chemical_formula_sum   'Ca6 Sn1 As12 Rh20'
_cell_volume   676.80593821
_cell_formula_units_Z   1
loop_
 _symmetry_equiv_pos_site_id
 _symmetry_equiv_pos_as_xyz
  1  'x, y, z'
loop_
 _atom_site_type_symbol
 _atom_site_label
 _atom_site_symmetry_multiplicity
 _atom_site_fract_x
 _atom_site_fract_y
 _atom_site_fract_z
 _atom_site_occupancy
  Ca  Ca0  1  0.527338  0.718457  0.251597  1
  Ca  Ca1  1  0.281543  0.808881  0.251597  1
  Ca  Ca2  1  0.191119  0.472662  0.251597  1
  Ca  Ca3  1  0.472662  0.281543  0.748403  1
  Ca  Ca4  1  0.718457  0.191119  0.748403  1
  Ca  Ca5  1  0.808881  0.527338  0.748403  1
  Sn  Sn6  1  0.000000  0.000000  0.000000  1
  As  As7  1  0.527082  0.138634  0.249830  1
  As  As8  1  0.861366  0.388447  0.249830  1
  As  As9  1  0.611553  0.472918  0.249830  1
  As  As10  1  0.948550  0.716372  0.247620  1
  As  As11  1  0.283628  0.232177  0.247620  1
  As  As12  1  0.767823  0.051450  0.247620  1
  As  As13  1  0.388447  0.527082  0.750170  1
  As  As14  1  0.472918  0.861366  0.750170  1
  As  As15  1  0.138634  0.611553  0.750170  1
  As  As16  1  0.716372  0.767823  0.752380  1
  As  As17  1  0.232177  0.948550  0.752380  1
  As  As18  1  0.051450  0.283628  0.752380  1
  Rh  Rh19  1  0.333333  0.666667  0.752072  1
  Rh  Rh20  1  0.921835  0.251779  0.247928  1
  Rh  Rh21  1  0.748221  0.670056  0.247928  1
  Rh  Rh22  1  0.329944  0.078165  0.247928  1
  Rh  Rh23  1  0.441284  0.024618  0.750814  1
  Rh  Rh24  1  0.975382  0.416665  0.750814  1
  Rh  Rh25  1  0.583335  0.558716  0.750814  1
  Rh  Rh26  1  0.666667  0.333333  0.247928  1
  Rh  Rh27  1  0.095264  0.200295  0.258590  1
  Rh  Rh28  1  0.799705  0.894969  0.258590  1
  Rh  Rh29  1  0.105031  0.904736  0.258590  1
  Rh  Rh30  1  0.024618  0.583335  0.249186  1
  Rh  Rh31  1  0.416665  0.441284  0.249186  1
  Rh  Rh32  1  0.558716  0.975382  0.249186  1
  Rh  Rh33  1  0.670056  0.921835  0.752072  1
  Rh  Rh34  1  0.078165  0.748221  0.752072  1
  Rh  Rh35  1  0.251779  0.329944  0.752072  1
  Rh  Rh36  1  0.904736  0.799705  0.741410  1
  Rh  Rh37  1  0.200295  0.105031  0.741410  1
  Rh  Rh38  1  0.894969  0.095264  0.741410  1
