# generated using pymatgen
data_AgP4(IrO7)2
_symmetry_space_group_name_H-M   'P 1'
_cell_length_a   4.85352112
_cell_length_b   6.98229480
_cell_length_c   8.15332427
_cell_angle_alpha   90.84981226
_cell_angle_beta   92.36154570
_cell_angle_gamma   104.80988720
_symmetry_Int_Tables_number   1
_chemical_formula_structural   AgP4(IrO7)2
_chemical_formula_sum   'Ag1 P4 Ir2 O14'
_cell_volume   266.80772030
_cell_formula_units_Z   1
loop_
 _symmetry_equiv_pos_site_id
 _symmetry_equiv_pos_as_xyz
  1  'x, y, z'
loop_
 _atom_site_type_symbol
 _atom_site_label
 _atom_site_symmetry_multiplicity
 _atom_site_fract_x
 _atom_site_fract_y
 _atom_site_fract_z
 _atom_site_occupancy
  Ag  Ag0  1  0.500000  0.000000  0.000000  1
  P  P1  1  0.487037  0.374148  0.246672  1
  P  P2  1  0.889141  0.761108  0.304761  1
  P  P3  1  0.110859  0.238892  0.695240  1
  P  P4  1  0.512963  0.625851  0.753328  1
  Ir  Ir5  1  0.000000  0.500001  0.000000  1
  Ir  Ir6  1  0.500000  0.000000  0.500000  1
  O  O7  1  0.652604  0.317942  0.100497  1
  O  O8  1  0.965359  0.751501  0.122374  1
  O  O9  1  0.244949  0.465805  0.195837  1
  O  O10  1  0.696056  0.906137  0.310085  1
  O  O11  1  0.371894  0.195781  0.350823  1
  O  O12  1  0.711732  0.541812  0.355185  1
  O  O13  1  0.136632  0.798665  0.432564  1
  O  O14  1  0.863368  0.201335  0.567435  1
  O  O15  1  0.288268  0.458187  0.644815  1
  O  O16  1  0.628105  0.804218  0.649177  1
  O  O17  1  0.303944  0.093863  0.689914  1
  O  O18  1  0.755053  0.534196  0.804164  1
  O  O19  1  0.034641  0.248498  0.877625  1
  O  O20  1  0.347396  0.682058  0.899503  1
