# generated using pymatgen
data_K4Ba(GeSe3)2
_symmetry_space_group_name_H-M   'P 1'
_cell_length_a   7.70777495
_cell_length_b   7.70777468
_cell_length_c   8.80571241
_cell_angle_alpha   81.47489905
_cell_angle_beta   81.47490400
_cell_angle_gamma   119.64394176
_symmetry_Int_Tables_number   1
_chemical_formula_structural   K4Ba(GeSe3)2
_chemical_formula_sum   'K4 Ba1 Ge2 Se6'
_cell_volume   434.45393568
_cell_formula_units_Z   1
loop_
 _symmetry_equiv_pos_site_id
 _symmetry_equiv_pos_as_xyz
  1  'x, y, z'
loop_
 _atom_site_type_symbol
 _atom_site_label
 _atom_site_symmetry_multiplicity
 _atom_site_fract_x
 _atom_site_fract_y
 _atom_site_fract_z
 _atom_site_occupancy
  K  K0  1  0.822331  0.177669  0.000000  1
  K  K1  1  0.175197  0.824803  0.000000  1
  K  K2  1  0.502701  0.497299  0.000000  1
  K  K3  1  0.665687  0.334313  0.500000  1
  Ba  Ba4  1  0.334887  0.665113  0.500000  1
  Ge  Ge5  1  0.047536  0.047809  0.351699  1
  Ge  Ge6  1  0.952191  0.952464  0.648301  1
  Se  Se7  1  0.085183  0.378559  0.264505  1
  Se  Se8  1  0.370917  0.069795  0.264801  1
  Se  Se9  1  0.930205  0.629083  0.735199  1
  Se  Se10  1  0.621441  0.914817  0.735495  1
  Se  Se11  1  0.781016  0.789293  0.261129  1
  Se  Se12  1  0.210707  0.218984  0.738871  1
