# generated using pymatgen
data_Ho3Lu7(InBi2)2
_symmetry_space_group_name_H-M   'P 1'
_cell_length_a   6.43381804
_cell_length_b   8.97778382
_cell_length_c   8.94571809
_cell_angle_alpha   120.11865988
_cell_angle_beta   90.00350053
_cell_angle_gamma   89.99303478
_symmetry_Int_Tables_number   1
_chemical_formula_structural   Ho3Lu7(InBi2)2
_chemical_formula_sum   'Ho3 Lu7 In2 Bi4'
_cell_volume   446.95441125
_cell_formula_units_Z   1
loop_
 _symmetry_equiv_pos_site_id
 _symmetry_equiv_pos_as_xyz
  1  'x, y, z'
loop_
 _atom_site_type_symbol
 _atom_site_label
 _atom_site_symmetry_multiplicity
 _atom_site_fract_x
 _atom_site_fract_y
 _atom_site_fract_z
 _atom_site_occupancy
  Ho  Ho0  1  0.750154  0.236248  0.000000  1
  Ho  Ho1  1  0.750092  0.764949  0.762687  1
  Ho  Ho2  1  0.750092  0.002262  0.237313  1
  Lu  Lu3  1  0.496370  0.332319  0.659705  1
  Lu  Lu4  1  0.496370  0.672614  0.340295  1
  Lu  Lu5  1  0.003467  0.672414  0.340083  1
  Lu  Lu6  1  0.003467  0.332332  0.659917  1
  Lu  Lu7  1  0.250324  0.767575  0.000000  1
  Lu  Lu8  1  0.250124  0.231481  0.242268  1
  Lu  Lu9  1  0.250124  0.989213  0.757732  1
  In  In10  1  0.249704  0.603620  0.605238  1
  In  In11  1  0.249704  0.998383  0.394762  1
  Bi  Bi12  1  0.750027  0.605049  0.000000  1
  Bi  Bi13  1  0.749910  0.398337  0.394069  1
  Bi  Bi14  1  0.749910  0.004268  0.605931  1
  Bi  Bi15  1  0.250165  0.388940  0.000000  1
