# generated using pymatgen
data_ErTm2(FeCo3)2
_symmetry_space_group_name_H-M   'P 1'
_cell_length_a   7.55726001
_cell_length_b   7.55726038
_cell_length_c   7.55942001
_cell_angle_alpha   109.47952856
_cell_angle_beta   109.47952640
_cell_angle_gamma   109.44302863
_symmetry_Int_Tables_number   1
_chemical_formula_structural   ErTm2(FeCo3)2
_chemical_formula_sum   'Er2 Tm4 Fe4 Co12'
_cell_volume   332.39718209
_cell_formula_units_Z   2
loop_
 _symmetry_equiv_pos_site_id
 _symmetry_equiv_pos_as_xyz
  1  'x, y, z'
loop_
 _atom_site_type_symbol
 _atom_site_label
 _atom_site_symmetry_multiplicity
 _atom_site_fract_x
 _atom_site_fract_y
 _atom_site_fract_z
 _atom_site_occupancy
  Er  Er0  1  0.716975  0.999983  0.716957  1
  Er  Er1  1  0.999983  0.716975  0.716957  1
  Tm  Tm2  1  0.716700  0.716700  0.000366  1
  Tm  Tm3  1  0.283361  0.000044  0.283405  1
  Tm  Tm4  1  0.000044  0.283361  0.283405  1
  Tm  Tm5  1  0.283666  0.283666  0.000366  1
  Fe  Fe6  1  0.999946  0.999946  0.499674  1
  Fe  Fe7  1  0.000106  0.500106  0.000212  1
  Fe  Fe8  1  0.500106  0.000106  0.000212  1
  Fe  Fe9  1  0.499728  0.499728  0.499674  1
  Co  Co10  1  0.335693  0.335693  0.671384  1
  Co  Co11  1  0.664269  0.999993  0.335548  1
  Co  Co12  1  0.999993  0.664269  0.335548  1
  Co  Co13  1  0.664276  0.335958  0.000234  1
  Co  Co14  1  0.335555  0.671277  0.335548  1
  Co  Co15  1  0.000039  0.335625  0.664149  1
  Co  Co16  1  0.335958  0.664276  0.000234  1
  Co  Co17  1  0.335625  0.000039  0.664149  1
  Co  Co18  1  0.671277  0.335555  0.335548  1
  Co  Co19  1  0.664063  0.664063  0.328129  1
  Co  Co20  1  0.664110  0.328526  0.664149  1
  Co  Co21  1  0.328526  0.664110  0.664149  1
