# generated using pymatgen
data_LiSc5Al14(Fe3Si5)2
_symmetry_space_group_name_H-M   'P 1'
_cell_length_a   8.25197963
_cell_length_b   8.25197942
_cell_length_c   8.85300000
_cell_angle_alpha   90.00000000
_cell_angle_beta   90.00000000
_cell_angle_gamma   119.59859393
_symmetry_Int_Tables_number   1
_chemical_formula_structural   LiSc5Al14(Fe3Si5)2
_chemical_formula_sum   'Li1 Sc5 Al14 Fe6 Si10'
_cell_volume   524.17928670
_cell_formula_units_Z   1
loop_
 _symmetry_equiv_pos_site_id
 _symmetry_equiv_pos_as_xyz
  1  'x, y, z'
loop_
 _atom_site_type_symbol
 _atom_site_label
 _atom_site_symmetry_multiplicity
 _atom_site_fract_x
 _atom_site_fract_y
 _atom_site_fract_z
 _atom_site_occupancy
  Li  Li0  1  0.205491  0.794509  0.250000  1
  Sc  Sc1  1  0.197578  0.395218  0.250000  1
  Sc  Sc2  1  0.604782  0.802422  0.250000  1
  Sc  Sc3  1  0.801490  0.198510  0.750000  1
  Sc  Sc4  1  0.801983  0.603828  0.750000  1
  Sc  Sc5  1  0.396172  0.198017  0.750000  1
  Al  Al6  1  0.161743  0.838257  0.927915  1
  Al  Al7  1  0.162662  0.324404  0.922685  1
  Al  Al8  1  0.675596  0.837338  0.922685  1
  Al  Al9  1  0.838695  0.161305  0.078282  1
  Al  Al10  1  0.837746  0.677047  0.079995  1
  Al  Al11  1  0.322953  0.162254  0.079995  1
  Al  Al12  1  0.838695  0.161305  0.421718  1
  Al  Al13  1  0.837746  0.677047  0.420005  1
  Al  Al14  1  0.322953  0.162254  0.420005  1
  Al  Al15  1  0.161743  0.838257  0.572085  1
  Al  Al16  1  0.162662  0.324404  0.577315  1
  Al  Al17  1  0.675596  0.837338  0.577315  1
  Al  Al18  1  0.003668  0.996332  0.250000  1
  Al  Al19  1  0.999733  0.000267  0.750000  1
  Fe  Fe20  1  0.499984  0.500016  0.501207  1
  Fe  Fe21  1  0.501787  0.002240  0.501200  1
  Fe  Fe22  1  0.997760  0.498213  0.501200  1
  Fe  Fe23  1  0.499984  0.500016  0.998793  1
  Fe  Fe24  1  0.501787  0.002240  0.998800  1
  Fe  Fe25  1  0.997760  0.498213  0.998800  1
  Si  Si26  1  0.561091  0.438909  0.250000  1
  Si  Si27  1  0.558042  0.118978  0.250000  1
  Si  Si28  1  0.881022  0.441958  0.250000  1
  Si  Si29  1  0.438030  0.561970  0.750000  1
  Si  Si30  1  0.438224  0.878183  0.750000  1
  Si  Si31  1  0.121817  0.561776  0.750000  1
  Si  Si32  1  0.330613  0.669387  0.454043  1
  Si  Si33  1  0.665900  0.334100  0.539547  1
  Si  Si34  1  0.665900  0.334100  0.960453  1
  Si  Si35  1  0.330613  0.669387  0.045957  1
