# generated using pymatgen
data_Tb2YbY4RuI12
_symmetry_space_group_name_H-M   'P 1'
_cell_length_a   9.79716482
_cell_length_b   9.86835104
_cell_length_c   9.81628045
_cell_angle_alpha   107.20770571
_cell_angle_beta   106.84348874
_cell_angle_gamma   106.95307380
_symmetry_Int_Tables_number   1
_chemical_formula_structural   Tb2YbY4RuI12
_chemical_formula_sum   'Tb2 Yb1 Y4 Ru1 I12'
_cell_volume   790.34595916
_cell_formula_units_Z   1
loop_
 _symmetry_equiv_pos_site_id
 _symmetry_equiv_pos_as_xyz
  1  'x, y, z'
loop_
 _atom_site_type_symbol
 _atom_site_label
 _atom_site_symmetry_multiplicity
 _atom_site_fract_x
 _atom_site_fract_y
 _atom_site_fract_z
 _atom_site_occupancy
  Tb  Tb0  1  0.024842  0.094694  0.293997  1
  Tb  Tb1  1  0.293493  0.024727  0.095109  1
  Yb  Yb2  1  0.500045  0.500124  0.500004  1
  Y  Y3  1  0.899957  0.692849  0.974755  1
  Y  Y4  1  0.975135  0.905468  0.705820  1
  Y  Y5  1  0.706307  0.974795  0.904622  1
  Y  Y6  1  0.099710  0.306652  0.025137  1
  Ru  Ru7  1  0.000551  0.999931  0.000657  1
  I  I8  1  0.619590  0.846668  0.543377  1
  I  I9  1  0.541785  0.621835  0.847699  1
  I  I10  1  0.849344  0.544849  0.620929  1
  I  I11  1  0.380836  0.153919  0.457323  1
  I  I12  1  0.458012  0.378474  0.152231  1
  I  I13  1  0.151037  0.456065  0.378963  1
  I  I14  1  0.681940  0.073774  0.223192  1
  I  I15  1  0.225445  0.680669  0.074062  1
  I  I16  1  0.073112  0.223445  0.680192  1
  I  I17  1  0.318041  0.926016  0.775697  1
  I  I18  1  0.774026  0.318761  0.925680  1
  I  I19  1  0.926793  0.776284  0.320557  1
