# generated using pymatgen
data_La13Yb7(CoSb2)4
_symmetry_space_group_name_H-M   'P 1'
_cell_length_a   8.26484537
_cell_length_b   9.03430900
_cell_length_c   12.78364148
_cell_angle_alpha   90.00000000
_cell_angle_beta   89.96725024
_cell_angle_gamma   90.00000000
_symmetry_Int_Tables_number   1
_chemical_formula_structural   La13Yb7(CoSb2)4
_chemical_formula_sum   'La13 Yb7 Co4 Sb8'
_cell_volume   954.51813573
_cell_formula_units_Z   1
loop_
 _symmetry_equiv_pos_site_id
 _symmetry_equiv_pos_as_xyz
  1  'x, y, z'
loop_
 _atom_site_type_symbol
 _atom_site_label
 _atom_site_symmetry_multiplicity
 _atom_site_fract_x
 _atom_site_fract_y
 _atom_site_fract_z
 _atom_site_occupancy
  La  La0  1  0.057029  0.750000  0.497987  1
  La  La1  1  0.633741  0.750000  0.295710  1
  La  La2  1  0.134440  0.250000  0.202143  1
  La  La3  1  0.367623  0.250000  0.704562  1
  La  La4  1  0.866329  0.750000  0.796838  1
  La  La5  1  0.823028  0.977406  0.063308  1
  La  La6  1  0.323976  0.029096  0.434053  1
  La  La7  1  0.177694  0.475787  0.937022  1
  La  La8  1  0.674459  0.524434  0.564947  1
  La  La9  1  0.177694  0.024213  0.937022  1
  La  La10  1  0.674459  0.975566  0.564947  1
  La  La11  1  0.823028  0.522594  0.063308  1
  La  La12  1  0.323976  0.470904  0.434053  1
  Yb  Yb13  1  0.163413  0.750000  0.206058  1
  Yb  Yb14  1  0.662463  0.250000  0.289859  1
  Yb  Yb15  1  0.836201  0.250000  0.792927  1
  Yb  Yb16  1  0.337918  0.750000  0.714050  1
  Yb  Yb17  1  0.457119  0.750000  0.999127  1
  Yb  Yb18  1  0.954845  0.250000  0.501443  1
  Yb  Yb19  1  0.545072  0.250000  0.001118  1
  Co  Co20  1  0.417333  0.750000  0.473988  1
  Co  Co21  1  0.927590  0.250000  0.026329  1
  Co  Co22  1  0.570034  0.250000  0.525050  1
  Co  Co23  1  0.073219  0.750000  0.972839  1
  Sb  Sb24  1  0.932103  0.994357  0.329909  1
  Sb  Sb25  1  0.435209  0.007645  0.167247  1
  Sb  Sb26  1  0.065823  0.489475  0.671420  1
  Sb  Sb27  1  0.565524  0.507939  0.832080  1
  Sb  Sb28  1  0.065823  0.010525  0.671420  1
  Sb  Sb29  1  0.565524  0.992061  0.832080  1
  Sb  Sb30  1  0.932103  0.505643  0.329909  1
  Sb  Sb31  1  0.435209  0.492355  0.167247  1
