# generated using pymatgen
data_CaBi6(AsO5)4
_symmetry_space_group_name_H-M   'P 1'
_cell_length_a   7.15025054
_cell_length_b   7.94613388
_cell_length_c   9.45960952
_cell_angle_alpha   106.17230104
_cell_angle_beta   94.72708165
_cell_angle_gamma   112.19812689
_symmetry_Int_Tables_number   1
_chemical_formula_structural   CaBi6(AsO5)4
_chemical_formula_sum   'Ca1 Bi6 As4 O20'
_cell_volume   467.17651585
_cell_formula_units_Z   1
loop_
 _symmetry_equiv_pos_site_id
 _symmetry_equiv_pos_as_xyz
  1  'x, y, z'
loop_
 _atom_site_type_symbol
 _atom_site_label
 _atom_site_symmetry_multiplicity
 _atom_site_fract_x
 _atom_site_fract_y
 _atom_site_fract_z
 _atom_site_occupancy
  Ca  Ca0  1  0.000000  0.000000  0.000000  1
  Bi  Bi1  1  0.342013  0.129619  0.515192  1
  Bi  Bi2  1  0.657987  0.870381  0.484808  1
  Bi  Bi3  1  0.435919  0.799190  0.084489  1
  Bi  Bi4  1  0.564081  0.200810  0.915511  1
  Bi  Bi5  1  0.806376  0.289165  0.324882  1
  Bi  Bi6  1  0.193624  0.710835  0.675118  1
  As  As7  1  0.050440  0.269548  0.760362  1
  As  As8  1  0.949560  0.730452  0.239638  1
  As  As9  1  0.342159  0.389220  0.251627  1
  As  As10  1  0.657841  0.610780  0.748373  1
  O  O11  1  0.106355  0.231801  0.268402  1
  O  O12  1  0.893645  0.768199  0.731598  1
  O  O13  1  0.155310  0.517908  0.832940  1
  O  O14  1  0.844690  0.482092  0.167060  1
  O  O15  1  0.674535  0.090299  0.100274  1
  O  O16  1  0.325465  0.909701  0.899726  1
  O  O17  1  0.546577  0.024594  0.361799  1
  O  O18  1  0.453423  0.975406  0.638201  1
  O  O19  1  0.360037  0.621420  0.302128  1
  O  O20  1  0.639963  0.378580  0.697872  1
  O  O21  1  0.237393  0.179572  0.753093  1
  O  O22  1  0.762607  0.820428  0.246907  1
  O  O23  1  0.538424  0.383510  0.366607  1
  O  O24  1  0.461576  0.616490  0.633393  1
  O  O25  1  0.069296  0.808742  0.427498  1
  O  O26  1  0.930704  0.191258  0.572502  1
  O  O27  1  0.115918  0.833312  0.135536  1
  O  O28  1  0.884082  0.166688  0.864464  1
  O  O29  1  0.337134  0.293332  0.063374  1
  O  O30  1  0.662866  0.706668  0.936626  1
