# generated using pymatgen
data_TbLuNb3P7Ru2Rh7
_symmetry_space_group_name_H-M   'P 1'
_cell_length_a   3.91638401
_cell_length_b   9.64466518
_cell_length_c   9.64096900
_cell_angle_alpha   120.04592539
_cell_angle_beta   90.00395004
_cell_angle_gamma   90.00264408
_symmetry_Int_Tables_number   1
_chemical_formula_structural   TbLuNb3P7Ru2Rh7
_chemical_formula_sum   'Tb1 Lu1 Nb3 P7 Ru2 Rh7'
_cell_volume   315.22639311
_cell_formula_units_Z   1
loop_
 _symmetry_equiv_pos_site_id
 _symmetry_equiv_pos_as_xyz
  1  'x, y, z'
loop_
 _atom_site_type_symbol
 _atom_site_label
 _atom_site_symmetry_multiplicity
 _atom_site_fract_x
 _atom_site_fract_y
 _atom_site_fract_z
 _atom_site_occupancy
  Tb  Tb0  1  0.261841  0.667481  0.333187  1
  Lu  Lu1  1  0.762001  0.333219  0.666507  1
  Nb  Nb2  1  0.761930  0.097695  0.875984  1
  Nb  Nb3  1  0.761928  0.124485  0.222413  1
  Nb  Nb4  1  0.761916  0.778069  0.901338  1
  P  P5  1  0.261980  0.997390  0.998767  1
  P  P6  1  0.761856  0.874010  0.591711  1
  P  P7  1  0.761855  0.410203  0.285323  1
  P  P8  1  0.761808  0.718330  0.128010  1
  P  P9  1  0.261940  0.115885  0.415551  1
  P  P10  1  0.261926  0.583760  0.699074  1
  P  P11  1  0.261949  0.300927  0.882389  1
  Ru  Ru12  1  0.261772  0.883256  0.161132  1
  Ru  Ru13  1  0.261877  0.838220  0.722033  1
  Rh  Rh14  1  0.261915  0.277928  0.116447  1
  Rh  Rh15  1  0.761907  0.606834  0.555743  1
  Rh  Rh16  1  0.761932  0.444204  0.052214  1
  Rh  Rh17  1  0.761897  0.947556  0.393020  1
  Rh  Rh18  1  0.261905  0.366281  0.439930  1
  Rh  Rh19  1  0.261947  0.559688  0.925553  1
  Rh  Rh20  1  0.261920  0.074581  0.633671  1
