# generated using pymatgen
data_Tm10Pb6C
_symmetry_space_group_name_H-M   'P 1'
_cell_length_a   8.93687000
_cell_length_b   8.93686911
_cell_length_c   6.55050000
_cell_angle_alpha   90.00000000
_cell_angle_beta   90.00000000
_cell_angle_gamma   119.99999589
_symmetry_Int_Tables_number   1
_chemical_formula_structural   Tm10Pb6C
_chemical_formula_sum   'Tm10 Pb6 C1'
_cell_volume   453.08109189
_cell_formula_units_Z   1
loop_
 _symmetry_equiv_pos_site_id
 _symmetry_equiv_pos_as_xyz
  1  'x, y, z'
loop_
 _atom_site_type_symbol
 _atom_site_label
 _atom_site_symmetry_multiplicity
 _atom_site_fract_x
 _atom_site_fract_y
 _atom_site_fract_z
 _atom_site_occupancy
  Tm  Tm0  1  0.000000  0.776804  0.276206  1
  Tm  Tm1  1  0.223196  0.223196  0.276206  1
  Tm  Tm2  1  0.776804  0.000000  0.276206  1
  Tm  Tm3  1  0.000000  0.223196  0.723794  1
  Tm  Tm4  1  0.776804  0.776804  0.723794  1
  Tm  Tm5  1  0.223196  0.000000  0.723794  1
  Tm  Tm6  1  0.333333  0.666667  0.000000  1
  Tm  Tm7  1  0.666667  0.333333  0.000000  1
  Tm  Tm8  1  0.666667  0.333333  0.500000  1
  Tm  Tm9  1  0.333333  0.666667  0.500000  1
  Pb  Pb10  1  0.000000  0.399169  0.249051  1
  Pb  Pb11  1  0.600831  0.600831  0.249051  1
  Pb  Pb12  1  0.399169  0.000000  0.249051  1
  Pb  Pb13  1  0.000000  0.600831  0.750949  1
  Pb  Pb14  1  0.399169  0.399169  0.750949  1
  Pb  Pb15  1  0.600831  0.000000  0.750949  1
  C  C16  1  0.000000  0.000000  0.500000  1
