# generated using pymatgen
data_Nd8Gd11Si16Hg
_symmetry_space_group_name_H-M   'P 1'
_cell_length_a   7.79526565
_cell_length_b   7.79526599
_cell_length_c   14.33688400
_cell_angle_alpha   90.18273784
_cell_angle_beta   89.81726215
_cell_angle_gamma   90.10252788
_symmetry_Int_Tables_number   1
_chemical_formula_structural   Nd8Gd11Si16Hg
_chemical_formula_sum   'Nd8 Gd11 Si16 Hg1'
_cell_volume   871.18727737
_cell_formula_units_Z   1
loop_
 _symmetry_equiv_pos_site_id
 _symmetry_equiv_pos_as_xyz
  1  'x, y, z'
loop_
 _atom_site_type_symbol
 _atom_site_label
 _atom_site_symmetry_multiplicity
 _atom_site_fract_x
 _atom_site_fract_y
 _atom_site_fract_z
 _atom_site_occupancy
  Nd  Nd0  1  0.630311  0.999144  0.459491  1
  Nd  Nd1  1  0.363704  0.009674  0.957080  1
  Nd  Nd2  1  0.999144  0.630311  0.540509  1
  Nd  Nd3  1  0.489398  0.859857  0.211920  1
  Nd  Nd4  1  0.502346  0.135942  0.700111  1
  Nd  Nd5  1  0.859857  0.489398  0.788080  1
  Nd  Nd6  1  0.135942  0.502346  0.299889  1
  Nd  Nd7  1  0.009674  0.363704  0.042920  1
  Gd  Gd8  1  0.488275  0.368381  0.124925  1
  Gd  Gd9  1  0.001624  0.135330  0.621645  1
  Gd  Gd10  1  0.863439  0.009916  0.872251  1
  Gd  Gd11  1  0.135330  0.001624  0.378355  1
  Gd  Gd12  1  0.503516  0.627911  0.620422  1
  Gd  Gd13  1  0.368381  0.488275  0.875075  1
  Gd  Gd14  1  0.627911  0.503516  0.379578  1
  Gd  Gd15  1  0.009916  0.863439  0.127749  1
  Gd  Gd16  1  0.184353  0.813219  0.748911  1
  Gd  Gd17  1  0.813219  0.184353  0.251089  1
  Gd  Gd18  1  0.688518  0.688518  0.000000  1
  Si  Si19  1  0.286596  0.913245  0.562007  1
  Si  Si20  1  0.710759  0.070086  0.060070  1
  Si  Si21  1  0.913245  0.286596  0.437993  1
  Si  Si22  1  0.432042  0.208380  0.308250  1
  Si  Si23  1  0.569288  0.791113  0.806646  1
  Si  Si24  1  0.208380  0.432042  0.691750  1
  Si  Si25  1  0.791113  0.569288  0.193354  1
  Si  Si26  1  0.070086  0.710759  0.939930  1
  Si  Si27  1  0.794690  0.843919  0.686275  1
  Si  Si28  1  0.202028  0.158198  0.193181  1
  Si  Si29  1  0.843919  0.794690  0.313725  1
  Si  Si30  1  0.352650  0.724170  0.432632  1
  Si  Si31  1  0.657458  0.295875  0.940396  1
  Si  Si32  1  0.724170  0.352650  0.567368  1
  Si  Si33  1  0.295875  0.657458  0.059604  1
  Si  Si34  1  0.158198  0.202028  0.806819  1
  Hg  Hg35  1  0.314650  0.314650  0.500000  1
