# generated using pymatgen
data_Y2Mg2PdRu
_symmetry_space_group_name_H-M   'P 1'
_cell_length_a   4.13359600
_cell_length_b   7.19197194
_cell_length_c   8.62907434
_cell_angle_alpha   91.51582992
_cell_angle_beta   90.00000000
_cell_angle_gamma   90.00000000
_symmetry_Int_Tables_number   1
_chemical_formula_structural   Y2Mg2PdRu
_chemical_formula_sum   'Y4 Mg4 Pd2 Ru2'
_cell_volume   256.44144596
_cell_formula_units_Z   2
loop_
 _symmetry_equiv_pos_site_id
 _symmetry_equiv_pos_as_xyz
  1  'x, y, z'
loop_
 _atom_site_type_symbol
 _atom_site_label
 _atom_site_symmetry_multiplicity
 _atom_site_fract_x
 _atom_site_fract_y
 _atom_site_fract_z
 _atom_site_occupancy
  Y  Y0  1  0.250000  0.545042  0.186873  1
  Y  Y1  1  0.750000  0.454958  0.813127  1
  Y  Y2  1  0.250000  0.024742  0.332472  1
  Y  Y3  1  0.750000  0.975258  0.667528  1
  Mg  Mg4  1  0.250000  0.637609  0.556982  1
  Mg  Mg5  1  0.750000  0.362391  0.443018  1
  Mg  Mg6  1  0.250000  0.138128  0.938880  1
  Mg  Mg7  1  0.750000  0.861872  0.061120  1
  Pd  Pd8  1  0.750000  0.242401  0.128150  1
  Pd  Pd9  1  0.250000  0.757599  0.871850  1
  Ru  Ru10  1  0.750000  0.745213  0.365048  1
  Ru  Ru11  1  0.250000  0.254787  0.634952  1
