# generated using pymatgen
data_Er5Sn2Bi
_symmetry_space_group_name_H-M   'P 1'
_cell_length_a   8.95279239
_cell_length_b   8.94414767
_cell_length_c   6.43467300
_cell_angle_alpha   90.00000000
_cell_angle_beta   90.00000000
_cell_angle_gamma   119.96806639
_symmetry_Int_Tables_number   1
_chemical_formula_structural   Er5Sn2Bi
_chemical_formula_sum   'Er10 Sn4 Bi2'
_cell_volume   446.36922756
_cell_formula_units_Z   2
loop_
 _symmetry_equiv_pos_site_id
 _symmetry_equiv_pos_as_xyz
  1  'x, y, z'
loop_
 _atom_site_type_symbol
 _atom_site_label
 _atom_site_symmetry_multiplicity
 _atom_site_fract_x
 _atom_site_fract_y
 _atom_site_fract_z
 _atom_site_occupancy
  Er  Er0  1  0.995181  0.757792  0.750000  1
  Er  Er1  1  0.995181  0.237389  0.250000  1
  Er  Er2  1  0.764931  0.764682  0.250000  1
  Er  Er3  1  0.764931  0.000249  0.750000  1
  Er  Er4  1  0.236148  0.241443  0.750000  1
  Er  Er5  1  0.236148  0.994705  0.250000  1
  Er  Er6  1  0.331255  0.665628  0.500000  1
  Er  Er7  1  0.672697  0.336348  0.000000  1
  Er  Er8  1  0.672697  0.336348  0.500000  1
  Er  Er9  1  0.331255  0.665628  0.000000  1
  Sn  Sn10  1  0.000556  0.604783  0.250000  1
  Sn  Sn11  1  0.000556  0.395773  0.750000  1
  Sn  Sn12  1  0.604880  0.605092  0.750000  1
  Sn  Sn13  1  0.604880  0.999788  0.250000  1
  Bi  Bi14  1  0.394352  0.001537  0.750000  1
  Bi  Bi15  1  0.394352  0.392814  0.250000  1
