# generated using pymatgen
data_Dy4Ge2As4Ir7
_symmetry_space_group_name_H-M   'P 1'
_cell_length_a   7.29174088
_cell_length_b   7.29174031
_cell_length_c   7.30103790
_cell_angle_alpha   109.20838800
_cell_angle_beta   109.20838836
_cell_angle_gamma   109.94703556
_symmetry_Int_Tables_number   1
_chemical_formula_structural   Dy4Ge2As4Ir7
_chemical_formula_sum   'Dy4 Ge2 As4 Ir7'
_cell_volume   299.00189727
_cell_formula_units_Z   1
loop_
 _symmetry_equiv_pos_site_id
 _symmetry_equiv_pos_as_xyz
  1  'x, y, z'
loop_
 _atom_site_type_symbol
 _atom_site_label
 _atom_site_symmetry_multiplicity
 _atom_site_fract_x
 _atom_site_fract_y
 _atom_site_fract_z
 _atom_site_occupancy
  Dy  Dy0  1  0.000516  0.000516  0.500341  1
  Dy  Dy1  1  0.000409  0.500409  0.000817  1
  Dy  Dy2  1  0.500409  0.000409  0.000817  1
  Dy  Dy3  1  0.499825  0.499825  0.500341  1
  Ge  Ge4  1  0.682135  0.998281  0.680416  1
  Ge  Ge5  1  0.998281  0.682135  0.680416  1
  As  As6  1  0.681307  0.681307  0.997473  1
  As  As7  1  0.323431  0.998881  0.322312  1
  As  As8  1  0.998881  0.323431  0.322312  1
  As  As9  1  0.316166  0.316166  0.997473  1
  Ir  Ir10  1  0.751769  0.251769  0.503537  1
  Ir  Ir11  1  0.749163  0.501649  0.250812  1
  Ir  Ir12  1  0.502091  0.250456  0.752547  1
  Ir  Ir13  1  0.250456  0.502091  0.752547  1
  Ir  Ir14  1  0.251769  0.751769  0.503537  1
  Ir  Ir15  1  0.501649  0.749163  0.250812  1
  Ir  Ir16  1  0.991743  0.991743  0.983487  1
