# generated using pymatgen
data_Dy3Y3(Er7Pb8)2
_symmetry_space_group_name_H-M   'P 1'
_cell_length_a   8.17879800
_cell_length_b   8.24198861
_cell_length_c   15.56919404
_cell_angle_alpha   90.04125900
_cell_angle_beta   89.99930388
_cell_angle_gamma   90.00194727
_symmetry_Int_Tables_number   1
_chemical_formula_structural   Dy3Y3(Er7Pb8)2
_chemical_formula_sum   'Dy3 Y3 Er14 Pb16'
_cell_volume   1049.51224655
_cell_formula_units_Z   1
loop_
 _symmetry_equiv_pos_site_id
 _symmetry_equiv_pos_as_xyz
  1  'x, y, z'
loop_
 _atom_site_type_symbol
 _atom_site_label
 _atom_site_symmetry_multiplicity
 _atom_site_fract_x
 _atom_site_fract_y
 _atom_site_fract_z
 _atom_site_occupancy
  Dy  Dy0  1  0.963004  0.824158  0.400525  1
  Dy  Dy1  1  0.536427  0.323774  0.599515  1
  Dy  Dy2  1  0.036426  0.176223  0.900484  1
  Y  Y3  1  0.463268  0.676203  0.400243  1
  Y  Y4  1  0.963274  0.823790  0.099758  1
  Y  Y5  1  0.462989  0.675831  0.099471  1
  Er  Er6  1  0.376813  0.842144  0.878328  1
  Er  Er7  1  0.876827  0.657867  0.621651  1
  Er  Er8  1  0.622780  0.158012  0.378729  1
  Er  Er9  1  0.122768  0.341987  0.121270  1
  Er  Er10  1  0.622687  0.158176  0.121065  1
  Er  Er11  1  0.122687  0.341830  0.378939  1
  Er  Er12  1  0.377064  0.842301  0.621744  1
  Er  Er13  1  0.877060  0.657697  0.878252  1
  Er  Er14  1  0.538030  0.324253  0.899655  1
  Er  Er15  1  0.038026  0.175739  0.600340  1
  Er  Er16  1  0.209177  0.504759  0.750031  1
  Er  Er17  1  0.709179  0.995248  0.749962  1
  Er  Er18  1  0.790979  0.495160  0.249873  1
  Er  Er19  1  0.290956  0.004851  0.250137  1
  Pb  Pb20  1  0.281586  0.034092  0.042841  1
  Pb  Pb21  1  0.781592  0.465920  0.457158  1
  Pb  Pb22  1  0.718731  0.966577  0.543039  1
  Pb  Pb23  1  0.218719  0.533421  0.956947  1
  Pb  Pb24  1  0.717205  0.965551  0.957125  1
  Pb  Pb25  1  0.217203  0.534454  0.542875  1
  Pb  Pb26  1  0.281588  0.034940  0.457917  1
  Pb  Pb27  1  0.781627  0.465041  0.042081  1
  Pb  Pb28  1  0.572005  0.625973  0.749833  1
  Pb  Pb29  1  0.072003  0.874035  0.750169  1
  Pb  Pb30  1  0.428092  0.373131  0.250003  1
  Pb  Pb31  1  0.928097  0.126847  0.250013  1
  Pb  Pb32  1  0.348952  0.154733  0.750155  1
  Pb  Pb33  1  0.848956  0.345267  0.749847  1
  Pb  Pb34  1  0.651628  0.845868  0.249621  1
  Pb  Pb35  1  0.151595  0.654149  0.250406  1
