# generated using pymatgen
data_Y13Th3MgZn3Co4
_symmetry_space_group_name_H-M   'P 1'
_cell_length_a   9.51868663
_cell_length_b   9.53764627
_cell_length_c   9.53764700
_cell_angle_alpha   60.00000093
_cell_angle_beta   59.93408970
_cell_angle_gamma   59.93408985
_symmetry_Int_Tables_number   1
_chemical_formula_structural   Y13Th3MgZn3Co4
_chemical_formula_sum   'Y13 Th3 Mg1 Zn3 Co4'
_cell_volume   611.66145420
_cell_formula_units_Z   1
loop_
 _symmetry_equiv_pos_site_id
 _symmetry_equiv_pos_as_xyz
  1  'x, y, z'
loop_
 _atom_site_type_symbol
 _atom_site_label
 _atom_site_symmetry_multiplicity
 _atom_site_fract_x
 _atom_site_fract_y
 _atom_site_fract_z
 _atom_site_occupancy
  Y  Y0  1  0.945663  0.351446  0.351446  1
  Y  Y1  1  0.808352  0.191661  0.191661  1
  Y  Y2  1  0.187587  0.812273  0.812273  1
  Y  Y3  1  0.187587  0.812273  0.187866  1
  Y  Y4  1  0.808352  0.191661  0.808325  1
  Y  Y5  1  0.187587  0.187866  0.812273  1
  Y  Y6  1  0.808352  0.808325  0.191661  1
  Y  Y7  1  0.930180  0.565136  0.565136  1
  Y  Y8  1  0.560866  0.937196  0.937196  1
  Y  Y9  1  0.560866  0.937196  0.564743  1
  Y  Y10  1  0.930180  0.565136  0.939547  1
  Y  Y11  1  0.560866  0.564743  0.937196  1
  Y  Y12  1  0.930180  0.939547  0.565136  1
  Th  Th13  1  0.343425  0.346691  0.346691  1
  Th  Th14  1  0.343425  0.346691  0.963195  1
  Th  Th15  1  0.343425  0.963195  0.346691  1
  Mg  Mg16  1  0.285339  0.571554  0.571554  1
  Zn  Zn17  1  0.587261  0.579094  0.579094  1
  Zn  Zn18  1  0.587261  0.579094  0.254551  1
  Zn  Zn19  1  0.587261  0.254551  0.579094  1
  Co  Co20  1  0.150556  0.140505  0.140505  1
  Co  Co21  1  0.150556  0.140505  0.568435  1
  Co  Co22  1  0.150556  0.568435  0.140505  1
  Co  Co23  1  0.564317  0.145228  0.145228  1
