# generated using pymatgen
data_Sc12Ni6Os5Ru
_symmetry_space_group_name_H-M   'P 1'
_cell_length_a   4.52160700
_cell_length_b   6.35393100
_cell_length_c   13.54443900
_cell_angle_alpha   90.00000000
_cell_angle_beta   90.00094263
_cell_angle_gamma   90.00000000
_symmetry_Int_Tables_number   1
_chemical_formula_structural   Sc12Ni6Os5Ru
_chemical_formula_sum   'Sc12 Ni6 Os5 Ru1'
_cell_volume   389.13144648
_cell_formula_units_Z   1
loop_
 _symmetry_equiv_pos_site_id
 _symmetry_equiv_pos_as_xyz
  1  'x, y, z'
loop_
 _atom_site_type_symbol
 _atom_site_label
 _atom_site_symmetry_multiplicity
 _atom_site_fract_x
 _atom_site_fract_y
 _atom_site_fract_z
 _atom_site_occupancy
  Sc  Sc0  1  0.500001  0.250682  0.000273  1
  Sc  Sc1  1  0.500001  0.749318  0.000273  1
  Sc  Sc2  1  0.999823  0.249638  0.166720  1
  Sc  Sc3  1  0.999823  0.750363  0.166720  1
  Sc  Sc4  1  0.499830  0.250595  0.333360  1
  Sc  Sc5  1  0.499830  0.749406  0.333360  1
  Sc  Sc6  1  0.000001  0.249641  0.499947  1
  Sc  Sc7  1  0.000001  0.750359  0.499947  1
  Sc  Sc8  1  0.500177  0.250676  0.666363  1
  Sc  Sc9  1  0.500177  0.749325  0.666363  1
  Sc  Sc10  1  0.000171  0.248851  0.833325  1
  Sc  Sc11  1  0.000171  0.751150  0.833325  1
  Ni  Ni12  1  0.000000  0.500000  0.999992  1
  Ni  Ni13  1  0.499767  0.000000  0.166669  1
  Ni  Ni14  1  0.999765  0.500000  0.333296  1
  Ni  Ni15  1  0.499999  0.000000  0.500027  1
  Ni  Ni16  1  0.000233  0.500000  0.666703  1
  Ni  Ni17  1  0.500234  0.000000  0.833297  1
  Os  Os18  1  0.000003  0.000000  0.999438  1
  Os  Os19  1  0.499820  0.500000  0.166285  1
  Os  Os20  1  0.999818  0.000000  0.333334  1
  Os  Os21  1  0.500001  0.500000  0.500381  1
  Os  Os22  1  0.000188  0.000000  0.667229  1
  Ru  Ru23  1  0.500164  0.500000  0.833374  1
