# generated using pymatgen
data_Lu4Ga6IrPt6
_symmetry_space_group_name_H-M   'P 1'
_cell_length_a   7.31889664
_cell_length_b   7.31889699
_cell_length_c   7.31889700
_cell_angle_alpha   109.47121789
_cell_angle_beta   109.47121887
_cell_angle_gamma   109.47122925
_symmetry_Int_Tables_number   1
_chemical_formula_structural   Lu4Ga6IrPt6
_chemical_formula_sum   'Lu4 Ga6 Ir1 Pt6'
_cell_volume   301.79703660
_cell_formula_units_Z   1
loop_
 _symmetry_equiv_pos_site_id
 _symmetry_equiv_pos_as_xyz
  1  'x, y, z'
loop_
 _atom_site_type_symbol
 _atom_site_label
 _atom_site_symmetry_multiplicity
 _atom_site_fract_x
 _atom_site_fract_y
 _atom_site_fract_z
 _atom_site_occupancy
  Lu  Lu0  1  0.000000  0.000000  0.500000  1
  Lu  Lu1  1  0.000000  0.500000  0.000000  1
  Lu  Lu2  1  0.500000  0.000000  0.000000  1
  Lu  Lu3  1  0.500000  0.500000  0.500000  1
  Ga  Ga4  1  0.688245  0.688245  0.000000  1
  Ga  Ga5  1  0.311755  0.000000  0.311755  1
  Ga  Ga6  1  0.000000  0.311755  0.311755  1
  Ga  Ga7  1  0.311755  0.311755  0.000000  1
  Ga  Ga8  1  0.688245  0.000000  0.688245  1
  Ga  Ga9  1  0.000000  0.688245  0.688245  1
  Ir  Ir10  1  0.000000  0.000000  0.000000  1
  Pt  Pt11  1  0.750000  0.250000  0.500000  1
  Pt  Pt12  1  0.750000  0.500000  0.250000  1
  Pt  Pt13  1  0.500000  0.250000  0.750000  1
  Pt  Pt14  1  0.250000  0.500000  0.750000  1
  Pt  Pt15  1  0.250000  0.750000  0.500000  1
  Pt  Pt16  1  0.500000  0.750000  0.250000  1
