# generated using pymatgen
data_Dy2YTm7(CoSb2)2
_symmetry_space_group_name_H-M   'P 1'
_cell_length_a   7.80695100
_cell_length_b   8.74375500
_cell_length_c   12.09193900
_cell_angle_alpha   90.00000000
_cell_angle_beta   90.00000000
_cell_angle_gamma   90.00000000
_symmetry_Int_Tables_number   1
_chemical_formula_structural   Dy2YTm7(CoSb2)2
_chemical_formula_sum   'Dy4 Y2 Tm14 Co4 Sb8'
_cell_volume   825.42074826
_cell_formula_units_Z   2
loop_
 _symmetry_equiv_pos_site_id
 _symmetry_equiv_pos_as_xyz
  1  'x, y, z'
loop_
 _atom_site_type_symbol
 _atom_site_label
 _atom_site_symmetry_multiplicity
 _atom_site_fract_x
 _atom_site_fract_y
 _atom_site_fract_z
 _atom_site_occupancy
  Dy  Dy0  1  0.622158  0.750000  0.307311  1
  Dy  Dy1  1  0.877842  0.750000  0.807311  1
  Dy  Dy2  1  0.378264  0.250000  0.692649  1
  Dy  Dy3  1  0.121736  0.250000  0.192649  1
  Y  Y4  1  0.155658  0.750000  0.204606  1
  Y  Y5  1  0.344342  0.750000  0.704606  1
  Tm  Tm6  1  0.844710  0.250000  0.796733  1
  Tm  Tm7  1  0.655290  0.250000  0.296733  1
  Tm  Tm8  1  0.451162  0.750000  0.998049  1
  Tm  Tm9  1  0.048838  0.750000  0.498049  1
  Tm  Tm10  1  0.550005  0.250000  0.001983  1
  Tm  Tm11  1  0.949995  0.250000  0.501983  1
  Tm  Tm12  1  0.822861  0.535814  0.064895  1
  Tm  Tm13  1  0.677139  0.964186  0.564895  1
  Tm  Tm14  1  0.176683  0.036655  0.934777  1
  Tm  Tm15  1  0.323317  0.463345  0.434777  1
  Tm  Tm16  1  0.176683  0.463345  0.934777  1
  Tm  Tm17  1  0.323317  0.036655  0.434777  1
  Tm  Tm18  1  0.822861  0.964186  0.064895  1
  Tm  Tm19  1  0.677139  0.535814  0.564895  1
  Co  Co20  1  0.433461  0.750000  0.490185  1
  Co  Co21  1  0.066539  0.750000  0.990185  1
  Co  Co22  1  0.566841  0.250000  0.508574  1
  Co  Co23  1  0.933159  0.250000  0.008574  1
  Sb  Sb24  1  0.929377  0.507880  0.328661  1
  Sb  Sb25  1  0.570623  0.992120  0.828661  1
  Sb  Sb26  1  0.069186  0.009258  0.671622  1
  Sb  Sb27  1  0.430814  0.490742  0.171622  1
  Sb  Sb28  1  0.069186  0.490742  0.671622  1
  Sb  Sb29  1  0.430814  0.009258  0.171622  1
  Sb  Sb30  1  0.929377  0.992120  0.328661  1
  Sb  Sb31  1  0.570623  0.507880  0.828661  1
