# generated using pymatgen
data_LaPr7CdHgPt2
_symmetry_space_group_name_H-M   'P 1'
_cell_length_a   10.10968546
_cell_length_b   10.10968492
_cell_length_c   10.12085500
_cell_angle_alpha   59.96344712
_cell_angle_beta   59.96344888
_cell_angle_gamma   59.93105759
_symmetry_Int_Tables_number   1
_chemical_formula_structural   LaPr7CdHgPt2
_chemical_formula_sum   'La2 Pr14 Cd2 Hg2 Pt4'
_cell_volume   730.65231668
_cell_formula_units_Z   2
loop_
 _symmetry_equiv_pos_site_id
 _symmetry_equiv_pos_as_xyz
  1  'x, y, z'
loop_
 _atom_site_type_symbol
 _atom_site_label
 _atom_site_symmetry_multiplicity
 _atom_site_fract_x
 _atom_site_fract_y
 _atom_site_fract_z
 _atom_site_occupancy
  La  La0  1  0.349710  0.349710  0.349901  1
  La  La1  1  0.349710  0.349710  0.950678  1
  Pr  Pr2  1  0.352755  0.942046  0.352599  1
  Pr  Pr3  1  0.942046  0.352755  0.352599  1
  Pr  Pr4  1  0.809525  0.191183  0.191982  1
  Pr  Pr5  1  0.191183  0.809525  0.807310  1
  Pr  Pr6  1  0.191183  0.809525  0.191982  1
  Pr  Pr7  1  0.809525  0.191183  0.807310  1
  Pr  Pr8  1  0.191360  0.191360  0.808640  1
  Pr  Pr9  1  0.807740  0.807740  0.192260  1
  Pr  Pr10  1  0.937064  0.562923  0.565245  1
  Pr  Pr11  1  0.562923  0.937064  0.934769  1
  Pr  Pr12  1  0.562923  0.937064  0.565245  1
  Pr  Pr13  1  0.937064  0.562923  0.934769  1
  Pr  Pr14  1  0.562899  0.562899  0.937101  1
  Pr  Pr15  1  0.935452  0.935452  0.564548  1
  Cd  Cd16  1  0.579989  0.259185  0.580412  1
  Cd  Cd17  1  0.259185  0.579989  0.580412  1
  Hg  Hg18  1  0.584307  0.584307  0.585887  1
  Hg  Hg19  1  0.584307  0.584307  0.245497  1
  Pt  Pt20  1  0.143070  0.143070  0.144851  1
  Pt  Pt21  1  0.143070  0.143070  0.569009  1
  Pt  Pt22  1  0.142908  0.570099  0.143497  1
  Pt  Pt23  1  0.570099  0.142908  0.143497  1
