# generated using pymatgen
data_Pr16Cd3HgOsPt3
_symmetry_space_group_name_H-M   'P 1'
_cell_length_a   10.11533594
_cell_length_b   10.11533519
_cell_length_c   10.11533525
_cell_angle_alpha   59.59723288
_cell_angle_beta   59.59723582
_cell_angle_gamma   59.59723002
_symmetry_Int_Tables_number   1
_chemical_formula_structural   Pr16Cd3HgOsPt3
_chemical_formula_sum   'Pr16 Cd3 Hg1 Os1 Pt3'
_cell_volume   725.15655594
_cell_formula_units_Z   1
loop_
 _symmetry_equiv_pos_site_id
 _symmetry_equiv_pos_as_xyz
  1  'x, y, z'
loop_
 _atom_site_type_symbol
 _atom_site_label
 _atom_site_symmetry_multiplicity
 _atom_site_fract_x
 _atom_site_fract_y
 _atom_site_fract_z
 _atom_site_occupancy
  Pr  Pr0  1  0.351179  0.351179  0.351179  1
  Pr  Pr1  1  0.348102  0.348102  0.951835  1
  Pr  Pr2  1  0.348102  0.951835  0.348102  1
  Pr  Pr3  1  0.951835  0.348102  0.348102  1
  Pr  Pr4  1  0.816005  0.188760  0.188760  1
  Pr  Pr5  1  0.189138  0.807195  0.807195  1
  Pr  Pr6  1  0.188760  0.816005  0.188760  1
  Pr  Pr7  1  0.807195  0.189138  0.807195  1
  Pr  Pr8  1  0.188760  0.188760  0.816005  1
  Pr  Pr9  1  0.807195  0.807195  0.189138  1
  Pr  Pr10  1  0.937390  0.563237  0.563237  1
  Pr  Pr11  1  0.555935  0.938092  0.938092  1
  Pr  Pr12  1  0.563237  0.937390  0.563237  1
  Pr  Pr13  1  0.938092  0.555935  0.938092  1
  Pr  Pr14  1  0.563237  0.563237  0.937390  1
  Pr  Pr15  1  0.938092  0.938092  0.555935  1
  Cd  Cd16  1  0.579798  0.579798  0.259371  1
  Cd  Cd17  1  0.579798  0.259371  0.579798  1
  Cd  Cd18  1  0.259371  0.579798  0.579798  1
  Hg  Hg19  1  0.583327  0.583327  0.583327  1
  Os  Os20  1  0.142939  0.142939  0.142939  1
  Pt  Pt21  1  0.144835  0.144835  0.572848  1
  Pt  Pt22  1  0.144835  0.572848  0.144835  1
  Pt  Pt23  1  0.572848  0.144835  0.144835  1
