# generated using pymatgen
data_Tm4InPt10Au
_symmetry_space_group_name_H-M   'P 1'
_cell_length_a   4.20161400
_cell_length_b   5.81644377
_cell_length_c   11.63263420
_cell_angle_alpha   86.92385939
_cell_angle_beta   90.00000000
_cell_angle_gamma   90.00000000
_symmetry_Int_Tables_number   1
_chemical_formula_structural   Tm4InPt10Au
_chemical_formula_sum   'Tm4 In1 Pt10 Au1'
_cell_volume   283.87394428
_cell_formula_units_Z   1
loop_
 _symmetry_equiv_pos_site_id
 _symmetry_equiv_pos_as_xyz
  1  'x, y, z'
loop_
 _atom_site_type_symbol
 _atom_site_label
 _atom_site_symmetry_multiplicity
 _atom_site_fract_x
 _atom_site_fract_y
 _atom_site_fract_z
 _atom_site_occupancy
  Tm  Tm0  1  0.500000  0.748618  0.371936  1
  Tm  Tm1  1  0.500000  0.719727  0.862813  1
  Tm  Tm2  1  0.500000  0.280273  0.137187  1
  Tm  Tm3  1  0.500000  0.251382  0.628064  1
  In  In4  1  0.000000  0.000000  0.000000  1
  Pt  Pt5  1  0.000000  0.012678  0.248938  1
  Pt  Pt6  1  0.000000  0.987322  0.751062  1
  Pt  Pt7  1  0.000000  0.500000  0.000000  1
  Pt  Pt8  1  0.000000  0.500000  0.500000  1
  Pt  Pt9  1  0.000000  0.513734  0.250375  1
  Pt  Pt10  1  0.000000  0.486266  0.749625  1
  Pt  Pt11  1  0.500000  0.253976  0.377703  1
  Pt  Pt12  1  0.500000  0.229891  0.880499  1
  Pt  Pt13  1  0.500000  0.770109  0.119501  1
  Pt  Pt14  1  0.500000  0.746024  0.622297  1
  Au  Au15  1  0.000000  0.000000  0.500000  1
