# generated using pymatgen
data_Tm2Mn4Ni(PRh)7
_symmetry_space_group_name_H-M   'P 1'
_cell_length_a   9.34869515
_cell_length_b   9.40782896
_cell_length_c   3.79061100
_cell_angle_alpha   90.00000000
_cell_angle_beta   90.00000000
_cell_angle_gamma   119.38037253
_symmetry_Int_Tables_number   1
_chemical_formula_structural   Tm2Mn4Ni(PRh)7
_chemical_formula_sum   'Tm2 Mn4 Ni1 P7 Rh7'
_cell_volume   290.50805425
_cell_formula_units_Z   1
loop_
 _symmetry_equiv_pos_site_id
 _symmetry_equiv_pos_as_xyz
  1  'x, y, z'
loop_
 _atom_site_type_symbol
 _atom_site_label
 _atom_site_symmetry_multiplicity
 _atom_site_fract_x
 _atom_site_fract_y
 _atom_site_fract_z
 _atom_site_occupancy
  Tm  Tm0  1  0.999587  0.998656  0.000000  1
  Tm  Tm1  1  0.668330  0.334222  0.500000  1
  Mn  Mn2  1  0.606476  0.826942  0.000000  1
  Mn  Mn3  1  0.173904  0.777330  0.000000  1
  Mn  Mn4  1  0.435332  0.888936  0.500000  1
  Mn  Mn5  1  0.107358  0.539906  0.500000  1
  Ni  Ni6  1  0.223897  0.396126  0.000000  1
  P  P7  1  0.445016  0.363598  0.000000  1
  P  P8  1  0.633491  0.075536  0.000000  1
  P  P9  1  0.924068  0.553902  0.000000  1
  P  P10  1  0.052868  0.268702  0.500000  1
  P  P11  1  0.730674  0.789557  0.500000  1
  P  P12  1  0.210890  0.942735  0.500000  1
  P  P13  1  0.336968  0.668651  0.000000  1
  Rh  Rh14  1  0.692637  0.597639  0.000000  1
  Rh  Rh15  1  0.399518  0.093916  0.000000  1
  Rh  Rh16  1  0.906684  0.301510  0.000000  1
  Rh  Rh17  1  0.278046  0.223668  0.500000  1
  Rh  Rh18  1  0.775747  0.055477  0.500000  1
  Rh  Rh19  1  0.942542  0.721177  0.500000  1
  Rh  Rh20  1  0.455966  0.581820  0.500000  1
