# generated using pymatgen
data_Y6PaSn23Os6
_symmetry_space_group_name_H-M   'P 1'
_cell_length_a   9.86284806
_cell_length_b   9.86418593
_cell_length_c   10.14901793
_cell_angle_alpha   90.00000070
_cell_angle_beta   90.36218289
_cell_angle_gamma   120.00448993
_symmetry_Int_Tables_number   1
_chemical_formula_structural   Y6PaSn23Os6
_chemical_formula_sum   'Y6 Pa1 Sn23 Os6'
_cell_volume   855.04116163
_cell_formula_units_Z   1
loop_
 _symmetry_equiv_pos_site_id
 _symmetry_equiv_pos_as_xyz
  1  'x, y, z'
loop_
 _atom_site_type_symbol
 _atom_site_label
 _atom_site_symmetry_multiplicity
 _atom_site_fract_x
 _atom_site_fract_y
 _atom_site_fract_z
 _atom_site_occupancy
  Y  Y0  1  0.000953  0.000477  0.998454  1
  Y  Y1  1  0.484125  0.966801  0.304526  1
  Y  Y2  1  0.484125  0.517323  0.304526  1
  Y  Y3  1  0.967273  0.483637  0.695973  1
  Y  Y4  1  0.515377  0.031117  0.695731  1
  Y  Y5  1  0.515377  0.484260  0.695731  1
  Pa  Pa6  1  0.023133  0.511567  0.299492  1
  Sn  Sn7  1  0.998041  0.999020  0.500102  1
  Sn  Sn8  1  0.119869  0.885855  0.278377  1
  Sn  Sn9  1  0.770059  0.885030  0.276092  1
  Sn  Sn10  1  0.119869  0.234015  0.278377  1
  Sn  Sn11  1  0.883118  0.115350  0.721732  1
  Sn  Sn12  1  0.231968  0.115984  0.723706  1
  Sn  Sn13  1  0.883118  0.767768  0.721732  1
  Sn  Sn14  1  0.350122  0.000864  0.999191  1
  Sn  Sn15  1  0.652087  0.650564  0.001051  1
  Sn  Sn16  1  0.001742  0.349941  0.997435  1
  Sn  Sn17  1  0.350122  0.349258  0.999191  1
  Sn  Sn18  1  0.001742  0.651801  0.997435  1
  Sn  Sn19  1  0.652087  0.001523  0.001051  1
  Sn  Sn20  1  0.777777  0.558921  0.465005  1
  Sn  Sn21  1  0.777777  0.218857  0.465005  1
  Sn  Sn22  1  0.438935  0.219468  0.461569  1
  Sn  Sn23  1  0.217442  0.440443  0.537893  1
  Sn  Sn24  1  0.217442  0.776998  0.537893  1
  Sn  Sn25  1  0.560895  0.780447  0.538993  1
  Sn  Sn26  1  0.661581  0.330790  0.174594  1
  Sn  Sn27  1  0.335000  0.667501  0.823810  1
  Sn  Sn28  1  0.666073  0.333036  0.871913  1
  Sn  Sn29  1  0.329747  0.664874  0.128948  1
  Os  Os30  1  0.170102  0.830125  0.797689  1
  Os  Os31  1  0.661400  0.830700  0.800588  1
  Os  Os32  1  0.170102  0.339977  0.797689  1
  Os  Os33  1  0.835965  0.180381  0.204037  1
  Os  Os34  1  0.339486  0.169743  0.200433  1
  Os  Os35  1  0.835965  0.655584  0.204037  1
