# generated using pymatgen
data_Ho5Er5Tl3In(HgPd)4
_symmetry_space_group_name_H-M   'P 1'
_cell_length_a   3.61179100
_cell_length_b   7.98510021
_cell_length_c   18.27310900
_cell_angle_alpha   89.96845004
_cell_angle_beta   90.00000000
_cell_angle_gamma   90.00000000
_symmetry_Int_Tables_number   1
_chemical_formula_structural   Ho5Er5Tl3In(HgPd)4
_chemical_formula_sum   'Ho5 Er5 Tl3 In1 Hg4 Pd4'
_cell_volume   527.00575913
_cell_formula_units_Z   1
loop_
 _symmetry_equiv_pos_site_id
 _symmetry_equiv_pos_as_xyz
  1  'x, y, z'
loop_
 _atom_site_type_symbol
 _atom_site_label
 _atom_site_symmetry_multiplicity
 _atom_site_fract_x
 _atom_site_fract_y
 _atom_site_fract_z
 _atom_site_occupancy
  Ho  Ho0  1  0.000000  0.500748  0.500219  1
  Ho  Ho1  1  0.000000  0.999718  0.998821  1
  Ho  Ho2  1  0.000000  0.745315  0.285248  1
  Ho  Ho3  1  0.000000  0.255165  0.714969  1
  Ho  Ho4  1  0.000000  0.753661  0.785600  1
  Er  Er5  1  0.000000  0.244484  0.214591  1
  Er  Er6  1  0.000000  0.609665  0.084011  1
  Er  Er7  1  0.000000  0.389220  0.916798  1
  Er  Er8  1  0.000000  0.891096  0.584444  1
  Er  Er9  1  0.000000  0.109938  0.416174  1
  Tl  Tl10  1  0.500000  0.580669  0.648329  1
  Tl  Tl11  1  0.500000  0.419397  0.351928  1
  Tl  Tl12  1  0.500000  0.920444  0.147772  1
  In  In13  1  0.500000  0.081001  0.850502  1
  Hg  Hg14  1  0.500000  0.710877  0.934142  1
  Hg  Hg15  1  0.500000  0.291742  0.064327  1
  Hg  Hg16  1  0.500000  0.792859  0.435671  1
  Hg  Hg17  1  0.500000  0.207667  0.564663  1
  Pd  Pd18  1  0.500000  0.529902  0.196803  1
  Pd  Pd19  1  0.500000  0.464822  0.803652  1
  Pd  Pd20  1  0.500000  0.969370  0.698383  1
  Pd  Pd21  1  0.500000  0.032238  0.302954  1
