# generated using pymatgen
data_Tm20Ga3CoBi8
_symmetry_space_group_name_H-M   'P 1'
_cell_length_a   7.95054165
_cell_length_b   9.19067300
_cell_length_c   11.97225805
_cell_angle_alpha   90.00000000
_cell_angle_beta   89.61059233
_cell_angle_gamma   90.00000000
_symmetry_Int_Tables_number   1
_chemical_formula_structural   Tm20Ga3CoBi8
_chemical_formula_sum   'Tm20 Ga3 Co1 Bi8'
_cell_volume   874.80260942
_cell_formula_units_Z   1
loop_
 _symmetry_equiv_pos_site_id
 _symmetry_equiv_pos_as_xyz
  1  'x, y, z'
loop_
 _atom_site_type_symbol
 _atom_site_label
 _atom_site_symmetry_multiplicity
 _atom_site_fract_x
 _atom_site_fract_y
 _atom_site_fract_z
 _atom_site_occupancy
  Tm  Tm0  1  0.342795  0.750000  0.701229  1
  Tm  Tm1  1  0.671611  0.250000  0.282894  1
  Tm  Tm2  1  0.835747  0.250000  0.784701  1
  Tm  Tm3  1  0.168596  0.750000  0.215156  1
  Tm  Tm4  1  0.861028  0.750000  0.795807  1
  Tm  Tm5  1  0.137144  0.250000  0.208185  1
  Tm  Tm6  1  0.361583  0.250000  0.708183  1
  Tm  Tm7  1  0.615097  0.750000  0.304872  1
  Tm  Tm8  1  0.673922  0.561407  0.560402  1
  Tm  Tm9  1  0.324199  0.468248  0.438710  1
  Tm  Tm10  1  0.180374  0.445621  0.935633  1
  Tm  Tm11  1  0.324199  0.031752  0.438710  1
  Tm  Tm12  1  0.815354  0.555145  0.064192  1
  Tm  Tm13  1  0.673922  0.938593  0.560402  1
  Tm  Tm14  1  0.815354  0.944855  0.064192  1
  Tm  Tm15  1  0.180374  0.054379  0.935633  1
  Tm  Tm16  1  0.057931  0.750000  0.500074  1
  Tm  Tm17  1  0.963269  0.250000  0.496704  1
  Tm  Tm18  1  0.541262  0.250000  0.996351  1
  Tm  Tm19  1  0.459075  0.750000  0.000132  1
  Ga  Ga20  1  0.090122  0.750000  0.977633  1
  Ga  Ga21  1  0.907889  0.250000  0.027273  1
  Ga  Ga22  1  0.590948  0.250000  0.522689  1
  Co  Co23  1  0.420518  0.750000  0.486878  1
  Bi  Bi24  1  0.567980  0.509029  0.825717  1
  Bi  Bi25  1  0.429975  0.487516  0.170990  1
  Bi  Bi26  1  0.066247  0.490420  0.673960  1
  Bi  Bi27  1  0.429975  0.012484  0.170990  1
  Bi  Bi28  1  0.929643  0.511569  0.326015  1
  Bi  Bi29  1  0.567980  0.990971  0.825717  1
  Bi  Bi30  1  0.929643  0.988431  0.326015  1
  Bi  Bi31  1  0.066247  0.009580  0.673960  1
