# generated using pymatgen
data_Dy6Nb3Al13Os7
_symmetry_space_group_name_H-M   'P 1'
_cell_length_a   9.05417127
_cell_length_b   9.05417208
_cell_length_c   9.05417078
_cell_angle_alpha   59.68251294
_cell_angle_beta   59.68250586
_cell_angle_gamma   59.68251334
_symmetry_Int_Tables_number   1
_chemical_formula_structural   Dy6Nb3Al13Os7
_chemical_formula_sum   'Dy6 Nb3 Al13 Os7'
_cell_volume   521.05963238
_cell_formula_units_Z   1
loop_
 _symmetry_equiv_pos_site_id
 _symmetry_equiv_pos_as_xyz
  1  'x, y, z'
loop_
 _atom_site_type_symbol
 _atom_site_label
 _atom_site_symmetry_multiplicity
 _atom_site_fract_x
 _atom_site_fract_y
 _atom_site_fract_z
 _atom_site_occupancy
  Dy  Dy0  1  0.710943  0.710943  0.281693  1
  Dy  Dy1  1  0.292648  0.709417  0.292648  1
  Dy  Dy2  1  0.709417  0.292648  0.292648  1
  Dy  Dy3  1  0.292648  0.292648  0.709417  1
  Dy  Dy4  1  0.710943  0.281693  0.710943  1
  Dy  Dy5  1  0.281693  0.710943  0.710943  1
  Nb  Nb6  1  0.877361  0.877361  0.362109  1
  Nb  Nb7  1  0.877361  0.362109  0.877361  1
  Nb  Nb8  1  0.362109  0.877361  0.877361  1
  Al  Al9  1  0.880858  0.880858  0.880858  1
  Al  Al10  1  0.121401  0.121401  0.639108  1
  Al  Al11  1  0.121401  0.639108  0.121401  1
  Al  Al12  1  0.639108  0.121401  0.121401  1
  Al  Al13  1  0.120820  0.120820  0.120820  1
  Al  Al14  1  0.670368  0.670368  0.993571  1
  Al  Al15  1  0.670368  0.993571  0.670368  1
  Al  Al16  1  0.993571  0.670368  0.670368  1
  Al  Al17  1  0.665399  0.665399  0.665399  1
  Al  Al18  1  0.331517  0.331517  0.007747  1
  Al  Al19  1  0.331517  0.007747  0.331517  1
  Al  Al20  1  0.007747  0.331517  0.331517  1
  Al  Al21  1  0.331748  0.331748  0.331748  1
  Os  Os22  1  0.002129  0.002129  0.002129  1
  Os  Os23  1  0.998551  0.998551  0.498334  1
  Os  Os24  1  0.502434  0.996618  0.502434  1
  Os  Os25  1  0.996618  0.502434  0.502434  1
  Os  Os26  1  0.502434  0.502434  0.996618  1
  Os  Os27  1  0.998551  0.498334  0.998551  1
  Os  Os28  1  0.498334  0.998551  0.998551  1
