# generated using pymatgen
data_LiAc10Yb9Sn16
_symmetry_space_group_name_H-M   'P 1'
_cell_length_a   8.24911989
_cell_length_b   8.75346836
_cell_length_c   16.61716800
_cell_angle_alpha   89.97887114
_cell_angle_beta   90.03879165
_cell_angle_gamma   90.08985778
_symmetry_Int_Tables_number   1
_chemical_formula_structural   LiAc10Yb9Sn16
_chemical_formula_sum   'Li1 Ac10 Yb9 Sn16'
_cell_volume   1199.89744712
_cell_formula_units_Z   1
loop_
 _symmetry_equiv_pos_site_id
 _symmetry_equiv_pos_as_xyz
  1  'x, y, z'
loop_
 _atom_site_type_symbol
 _atom_site_label
 _atom_site_symmetry_multiplicity
 _atom_site_fract_x
 _atom_site_fract_y
 _atom_site_fract_z
 _atom_site_occupancy
  Li  Li0  1  0.170830  0.998875  0.250236  1
  Ac  Ac1  1  0.503515  0.818009  0.909129  1
  Ac  Ac2  1  0.003714  0.681813  0.590716  1
  Ac  Ac3  1  0.493931  0.180715  0.398700  1
  Ac  Ac4  1  0.997334  0.312525  0.100858  1
  Ac  Ac5  1  0.490988  0.180903  0.102810  1
  Ac  Ac6  1  0.994474  0.313487  0.397745  1
  Ac  Ac7  1  0.504610  0.815087  0.592079  1
  Ac  Ac8  1  0.005033  0.683971  0.908399  1
  Ac  Ac9  1  0.665770  0.325726  0.878364  1
  Ac  Ac10  1  0.165725  0.175011  0.621890  1
  Yb  Yb11  1  0.335396  0.674272  0.371760  1
  Yb  Yb12  1  0.841165  0.831843  0.129388  1
  Yb  Yb13  1  0.329051  0.675166  0.128118  1
  Yb  Yb14  1  0.834218  0.830651  0.370838  1
  Yb  Yb15  1  0.666100  0.329522  0.620742  1
  Yb  Yb16  1  0.166332  0.171016  0.878791  1
  Yb  Yb17  1  0.334942  0.503587  0.751057  1
  Yb  Yb18  1  0.834857  0.996574  0.749011  1
  Yb  Yb19  1  0.666063  0.504517  0.250567  1
  Sn  Sn20  1  0.169437  0.959805  0.039928  1
  Sn  Sn21  1  0.669056  0.539341  0.458147  1
  Sn  Sn22  1  0.826995  0.034641  0.535104  1
  Sn  Sn23  1  0.328088  0.464923  0.965180  1
  Sn  Sn24  1  0.840342  0.031754  0.964778  1
  Sn  Sn25  1  0.340834  0.467576  0.534656  1
  Sn  Sn26  1  0.163901  0.956792  0.455517  1
  Sn  Sn27  1  0.664234  0.541860  0.045782  1
  Sn  Sn28  1  0.709301  0.637144  0.749536  1
  Sn  Sn29  1  0.208935  0.862718  0.750466  1
  Sn  Sn30  1  0.289754  0.369833  0.250419  1
  Sn  Sn31  1  0.792263  0.128772  0.249527  1
  Sn  Sn32  1  0.464844  0.101623  0.751855  1
  Sn  Sn33  1  0.964212  0.398196  0.747791  1
  Sn  Sn34  1  0.528838  0.892865  0.249340  1
  Sn  Sn35  1  0.034922  0.608889  0.250780  1
