# generated using pymatgen
data_Hf9TaGaRe3
_symmetry_space_group_name_H-M   'P 1'
_cell_length_a   8.68958200
_cell_length_b   8.68958271
_cell_length_c   8.65469100
_cell_angle_alpha   90.00000000
_cell_angle_beta   90.00000000
_cell_angle_gamma   120.00000492
_symmetry_Int_Tables_number   1
_chemical_formula_structural   Hf9TaGaRe3
_chemical_formula_sum   'Hf18 Ta2 Ga2 Re6'
_cell_volume   565.95250170
_cell_formula_units_Z   2
loop_
 _symmetry_equiv_pos_site_id
 _symmetry_equiv_pos_as_xyz
  1  'x, y, z'
loop_
 _atom_site_type_symbol
 _atom_site_label
 _atom_site_symmetry_multiplicity
 _atom_site_fract_x
 _atom_site_fract_y
 _atom_site_fract_z
 _atom_site_occupancy
  Hf  Hf0  1  0.196243  0.803757  0.453974  1
  Hf  Hf1  1  0.196243  0.392485  0.453974  1
  Hf  Hf2  1  0.607515  0.803757  0.453974  1
  Hf  Hf3  1  0.803757  0.196243  0.546026  1
  Hf  Hf4  1  0.803757  0.607515  0.546026  1
  Hf  Hf5  1  0.392485  0.196243  0.546026  1
  Hf  Hf6  1  0.803757  0.196243  0.953974  1
  Hf  Hf7  1  0.803757  0.607515  0.953974  1
  Hf  Hf8  1  0.392485  0.196243  0.953974  1
  Hf  Hf9  1  0.196243  0.803757  0.046026  1
  Hf  Hf10  1  0.196243  0.392485  0.046026  1
  Hf  Hf11  1  0.607515  0.803757  0.046026  1
  Hf  Hf12  1  0.540352  0.459648  0.250000  1
  Hf  Hf13  1  0.540352  0.080703  0.250000  1
  Hf  Hf14  1  0.919297  0.459648  0.250000  1
  Hf  Hf15  1  0.459648  0.540352  0.750000  1
  Hf  Hf16  1  0.459648  0.919297  0.750000  1
  Hf  Hf17  1  0.080703  0.540352  0.750000  1
  Ta  Ta18  1  0.000000  0.000000  0.500000  1
  Ta  Ta19  1  0.000000  0.000000  0.000000  1
  Ga  Ga20  1  0.333333  0.666667  0.250000  1
  Ga  Ga21  1  0.666667  0.333333  0.750000  1
  Re  Re22  1  0.887828  0.112172  0.250000  1
  Re  Re23  1  0.887828  0.775658  0.250000  1
  Re  Re24  1  0.224342  0.112172  0.250000  1
  Re  Re25  1  0.112172  0.887828  0.750000  1
  Re  Re26  1  0.112172  0.224342  0.750000  1
  Re  Re27  1  0.775658  0.887828  0.750000  1
