# generated using pymatgen
data_TbHo5Tm10(CdPt)4
_symmetry_space_group_name_H-M   'P 1'
_cell_length_a   9.59102364
_cell_length_b   9.59102392
_cell_length_c   9.58679300
_cell_angle_alpha   60.01458805
_cell_angle_beta   60.01458710
_cell_angle_gamma   59.96972872
_symmetry_Int_Tables_number   1
_chemical_formula_structural   TbHo5Tm10(CdPt)4
_chemical_formula_sum   'Tb1 Ho5 Tm10 Cd4 Pt4'
_cell_volume   623.56899470
_cell_formula_units_Z   1
loop_
 _symmetry_equiv_pos_site_id
 _symmetry_equiv_pos_as_xyz
  1  'x, y, z'
loop_
 _atom_site_type_symbol
 _atom_site_label
 _atom_site_symmetry_multiplicity
 _atom_site_fract_x
 _atom_site_fract_y
 _atom_site_fract_z
 _atom_site_occupancy
  Tb  Tb0  1  0.936558  0.936558  0.563442  1
  Ho  Ho1  1  0.935874  0.563571  0.564320  1
  Ho  Ho2  1  0.563571  0.935874  0.936235  1
  Ho  Ho3  1  0.563571  0.935874  0.564320  1
  Ho  Ho4  1  0.935874  0.563571  0.936235  1
  Ho  Ho5  1  0.564841  0.564841  0.935159  1
  Tm  Tm6  1  0.351990  0.351990  0.350442  1
  Tm  Tm7  1  0.351990  0.351990  0.945579  1
  Tm  Tm8  1  0.354474  0.941212  0.352157  1
  Tm  Tm9  1  0.941212  0.354474  0.352157  1
  Tm  Tm10  1  0.810727  0.189410  0.189427  1
  Tm  Tm11  1  0.189410  0.810727  0.810436  1
  Tm  Tm12  1  0.189410  0.810727  0.189427  1
  Tm  Tm13  1  0.810727  0.189410  0.810436  1
  Tm  Tm14  1  0.189858  0.189858  0.810142  1
  Tm  Tm15  1  0.811136  0.811136  0.188864  1
  Cd  Cd16  1  0.581381  0.581381  0.581865  1
  Cd  Cd17  1  0.581381  0.581381  0.255373  1
  Cd  Cd18  1  0.581139  0.255349  0.581756  1
  Cd  Cd19  1  0.255349  0.581139  0.581756  1
  Pt  Pt20  1  0.142961  0.142961  0.143661  1
  Pt  Pt21  1  0.142961  0.142961  0.570419  1
  Pt  Pt22  1  0.142347  0.571262  0.143197  1
  Pt  Pt23  1  0.571262  0.142347  0.143197  1
