# generated using pymatgen
data_Tb12Ga8Ru3Rh5
_symmetry_space_group_name_H-M   'P 1'
_cell_length_a   5.58087074
_cell_length_b   7.87615282
_cell_length_c   13.60492579
_cell_angle_alpha   89.90075302
_cell_angle_beta   90.13713782
_cell_angle_gamma   90.27116751
_symmetry_Int_Tables_number   1
_chemical_formula_structural   Tb12Ga8Ru3Rh5
_chemical_formula_sum   'Tb12 Ga8 Ru3 Rh5'
_cell_volume   598.00597582
_cell_formula_units_Z   1
loop_
 _symmetry_equiv_pos_site_id
 _symmetry_equiv_pos_as_xyz
  1  'x, y, z'
loop_
 _atom_site_type_symbol
 _atom_site_label
 _atom_site_symmetry_multiplicity
 _atom_site_fract_x
 _atom_site_fract_y
 _atom_site_fract_z
 _atom_site_occupancy
  Tb  Tb0  1  0.622500  0.261809  0.249603  1
  Tb  Tb1  1  0.378266  0.739894  0.749721  1
  Tb  Tb2  1  0.371184  0.768485  0.247926  1
  Tb  Tb3  1  0.627153  0.228966  0.750137  1
  Tb  Tb4  1  0.151409  0.398650  0.096392  1
  Tb  Tb5  1  0.848077  0.600451  0.902937  1
  Tb  Tb6  1  0.848789  0.601520  0.596764  1
  Tb  Tb7  1  0.848953  0.901568  0.403308  1
  Tb  Tb8  1  0.150003  0.401763  0.403662  1
  Tb  Tb9  1  0.150078  0.095534  0.598074  1
  Tb  Tb10  1  0.151281  0.094567  0.902994  1
  Tb  Tb11  1  0.848125  0.906161  0.096845  1
  Ga  Ga12  1  0.118762  0.111249  0.250480  1
  Ga  Ga13  1  0.879467  0.888787  0.749806  1
  Ga  Ga14  1  0.875398  0.609952  0.249835  1
  Ga  Ga15  1  0.122880  0.390042  0.750342  1
  Ga  Ga16  1  0.634374  0.248301  0.997440  1
  Ga  Ga17  1  0.365938  0.751196  0.002525  1
  Ga  Ga18  1  0.365240  0.750623  0.498869  1
  Ga  Ga19  1  0.638616  0.250228  0.502681  1
  Ru  Ru20  1  0.351666  0.036295  0.094409  1
  Ru  Ru21  1  0.649313  0.962269  0.906912  1
  Ru  Ru22  1  0.651548  0.963654  0.591386  1
  Rh  Rh23  1  0.645646  0.531677  0.405540  1
  Rh  Rh24  1  0.352840  0.038847  0.406911  1
  Rh  Rh25  1  0.352552  0.466846  0.594130  1
  Rh  Rh26  1  0.353598  0.470774  0.905634  1
  Rh  Rh27  1  0.646344  0.529893  0.094740  1
