# generated using pymatgen
data_Th10BiPb7
_symmetry_space_group_name_H-M   'P 1'
_cell_length_a   9.83671503
_cell_length_b   9.83671540
_cell_length_c   6.64582600
_cell_angle_alpha   90.00000000
_cell_angle_beta   90.00000000
_cell_angle_gamma   119.94758989
_symmetry_Int_Tables_number   1
_chemical_formula_structural   Th10BiPb7
_chemical_formula_sum   'Th10 Bi1 Pb7'
_cell_volume   557.19718230
_cell_formula_units_Z   1
loop_
 _symmetry_equiv_pos_site_id
 _symmetry_equiv_pos_as_xyz
  1  'x, y, z'
loop_
 _atom_site_type_symbol
 _atom_site_label
 _atom_site_symmetry_multiplicity
 _atom_site_fract_x
 _atom_site_fract_y
 _atom_site_fract_z
 _atom_site_occupancy
  Th  Th0  1  0.666913  0.333522  0.500265  1
  Th  Th1  1  0.333522  0.666913  0.500265  1
  Th  Th2  1  0.333522  0.666913  0.999735  1
  Th  Th3  1  0.666913  0.333522  0.999735  1
  Th  Th4  1  0.715284  0.715284  0.250000  1
  Th  Th5  1  0.284328  0.999448  0.250000  1
  Th  Th6  1  0.999448  0.284328  0.250000  1
  Th  Th7  1  0.284439  0.284439  0.750000  1
  Th  Th8  1  0.715368  0.000093  0.750000  1
  Th  Th9  1  0.000093  0.715368  0.750000  1
  Bi  Bi10  1  0.378439  0.378439  0.250000  1
  Pb  Pb11  1  0.999901  0.999901  0.500115  1
  Pb  Pb12  1  0.999901  0.999901  0.999885  1
  Pb  Pb13  1  0.622051  0.999873  0.250000  1
  Pb  Pb14  1  0.999873  0.622051  0.250000  1
  Pb  Pb15  1  0.622237  0.622237  0.750000  1
  Pb  Pb16  1  0.377964  0.999803  0.750000  1
  Pb  Pb17  1  0.999803  0.377964  0.750000  1
