# generated using pymatgen
data_Th10SnBi5Au2
_symmetry_space_group_name_H-M   'P 1'
_cell_length_a   9.69005500
_cell_length_b   9.69005659
_cell_length_c   6.63573800
_cell_angle_alpha   90.00000000
_cell_angle_beta   90.00000000
_cell_angle_gamma   120.13770561
_symmetry_Int_Tables_number   1
_chemical_formula_structural   Th10SnBi5Au2
_chemical_formula_sum   'Th10 Sn1 Bi5 Au2'
_cell_volume   538.85027755
_cell_formula_units_Z   1
loop_
 _symmetry_equiv_pos_site_id
 _symmetry_equiv_pos_as_xyz
  1  'x, y, z'
loop_
 _atom_site_type_symbol
 _atom_site_label
 _atom_site_symmetry_multiplicity
 _atom_site_fract_x
 _atom_site_fract_y
 _atom_site_fract_z
 _atom_site_occupancy
  Th  Th0  1  0.266903  0.999446  0.750000  1
  Th  Th1  1  0.730864  0.995452  0.250000  1
  Th  Th2  1  0.999446  0.266903  0.750000  1
  Th  Th3  1  0.995452  0.730864  0.250000  1
  Th  Th4  1  0.732283  0.732283  0.750000  1
  Th  Th5  1  0.269205  0.269205  0.250000  1
  Th  Th6  1  0.336959  0.666109  0.498186  1
  Th  Th7  1  0.666109  0.336959  0.498186  1
  Th  Th8  1  0.666109  0.336959  0.001814  1
  Th  Th9  1  0.336959  0.666109  0.001814  1
  Sn  Sn10  1  0.616111  0.616111  0.250000  1
  Bi  Bi11  1  0.614972  0.999618  0.750000  1
  Bi  Bi12  1  0.384479  0.000151  0.250000  1
  Bi  Bi13  1  0.999618  0.614972  0.750000  1
  Bi  Bi14  1  0.000151  0.384479  0.250000  1
  Bi  Bi15  1  0.383959  0.383959  0.750000  1
  Au  Au16  1  0.000210  0.000210  0.499365  1
  Au  Au17  1  0.000210  0.000210  0.000635  1
