# generated using pymatgen
data_Zr2FeRe(BRu2)2
_symmetry_space_group_name_H-M   'P 1'
_cell_length_a   9.38859500
_cell_length_b   9.38859500
_cell_length_c   3.04215900
_cell_angle_alpha   90.00000000
_cell_angle_beta   90.00000000
_cell_angle_gamma   90.00000000
_symmetry_Int_Tables_number   1
_chemical_formula_structural   Zr2FeRe(BRu2)2
_chemical_formula_sum   'Zr4 Fe2 Re2 B4 Ru8'
_cell_volume   268.15328347
_cell_formula_units_Z   2
loop_
 _symmetry_equiv_pos_site_id
 _symmetry_equiv_pos_as_xyz
  1  'x, y, z'
loop_
 _atom_site_type_symbol
 _atom_site_label
 _atom_site_symmetry_multiplicity
 _atom_site_fract_x
 _atom_site_fract_y
 _atom_site_fract_z
 _atom_site_occupancy
  Zr  Zr0  1  0.674054  0.174054  0.000000  1
  Zr  Zr1  1  0.325946  0.825946  0.000000  1
  Zr  Zr2  1  0.174054  0.325946  0.000000  1
  Zr  Zr3  1  0.825946  0.674054  0.000000  1
  Fe  Fe4  1  0.500000  0.000000  0.500000  1
  Fe  Fe5  1  0.000000  0.500000  0.500000  1
  Re  Re6  1  0.000000  0.000000  0.000000  1
  Re  Re7  1  0.500000  0.500000  0.000000  1
  B  B8  1  0.110940  0.610940  0.000000  1
  B  B9  1  0.889060  0.389060  0.000000  1
  B  B10  1  0.610940  0.889060  0.000000  1
  B  B11  1  0.389060  0.110940  0.000000  1
  Ru  Ru12  1  0.222845  0.066726  0.500000  1
  Ru  Ru13  1  0.777155  0.933274  0.500000  1
  Ru  Ru14  1  0.066726  0.777155  0.500000  1
  Ru  Ru15  1  0.722845  0.433274  0.500000  1
  Ru  Ru16  1  0.933274  0.222845  0.500000  1
  Ru  Ru17  1  0.277155  0.566726  0.500000  1
  Ru  Ru18  1  0.566726  0.722845  0.500000  1
  Ru  Ru19  1  0.433274  0.277155  0.500000  1
