# generated using pymatgen
data_Na10TaGaAs6
_symmetry_space_group_name_H-M   'P 1'
_cell_length_a   7.56149200
_cell_length_b   8.40585579
_cell_length_c   15.92587618
_cell_angle_alpha   59.05335867
_cell_angle_beta   90.00000000
_cell_angle_gamma   90.00000000
_symmetry_Int_Tables_number   1
_chemical_formula_structural   Na10TaGaAs6
_chemical_formula_sum   'Na20 Ta2 Ga2 As12'
_cell_volume   868.16270436
_cell_formula_units_Z   2
loop_
 _symmetry_equiv_pos_site_id
 _symmetry_equiv_pos_as_xyz
  1  'x, y, z'
loop_
 _atom_site_type_symbol
 _atom_site_label
 _atom_site_symmetry_multiplicity
 _atom_site_fract_x
 _atom_site_fract_y
 _atom_site_fract_z
 _atom_site_occupancy
  Na  Na0  1  0.738003  0.941735  0.246140  1
  Na  Na1  1  0.261997  0.941735  0.746140  1
  Na  Na2  1  0.771576  0.055449  0.759589  1
  Na  Na3  1  0.228424  0.055449  0.259589  1
  Na  Na4  1  0.267338  0.246323  0.418905  1
  Na  Na5  1  0.732662  0.246323  0.918905  1
  Na  Na6  1  0.219641  0.752984  0.578979  1
  Na  Na7  1  0.780359  0.752984  0.078979  1
  Na  Na8  1  0.089126  0.346034  0.583030  1
  Na  Na9  1  0.910874  0.346034  0.083030  1
  Na  Na10  1  0.405866  0.655510  0.418709  1
  Na  Na11  1  0.594134  0.655510  0.918709  1
  Na  Na12  1  0.596981  0.335023  0.242934  1
  Na  Na13  1  0.403019  0.335023  0.742934  1
  Na  Na14  1  0.907897  0.664297  0.759968  1
  Na  Na15  1  0.092103  0.664297  0.259968  1
  Na  Na16  1  0.770194  0.420757  0.408411  1
  Na  Na17  1  0.229806  0.420757  0.908411  1
  Na  Na18  1  0.739700  0.581413  0.588572  1
  Na  Na19  1  0.260300  0.581413  0.088572  1
  Ta  Ta20  1  0.615994  0.988950  0.578476  1
  Ta  Ta21  1  0.384006  0.988950  0.078476  1
  Ga  Ga22  1  0.891282  0.012774  0.415686  1
  Ga  Ga23  1  0.108718  0.012774  0.915686  1
  As  As24  1  0.983037  0.319260  0.271300  1
  As  As25  1  0.016963  0.319260  0.771300  1
  As  As26  1  0.519182  0.691611  0.725383  1
  As  As27  1  0.480818  0.691611  0.225383  1
  As  As28  1  0.947553  0.020058  0.574750  1
  As  As29  1  0.052447  0.020058  0.074750  1
  As  As30  1  0.541309  0.978820  0.427904  1
  As  As31  1  0.458691  0.978820  0.927904  1
  As  As32  1  0.004720  0.723636  0.422137  1
  As  As33  1  0.995280  0.723636  0.922137  1
  As  As34  1  0.491770  0.265363  0.579127  1
  As  As35  1  0.508230  0.265363  0.079127  1
