# generated using pymatgen
data_Ba3Al11Zn
_symmetry_space_group_name_H-M   'P 1'
_cell_length_a   9.12649257
_cell_length_b   9.12648994
_cell_length_c   9.12649083
_cell_angle_alpha   150.68134271
_cell_angle_beta   104.11289118
_cell_angle_gamma   83.35351540
_symmetry_Int_Tables_number   1
_chemical_formula_structural   Ba3Al11Zn
_chemical_formula_sum   'Ba3 Al11 Zn1'
_cell_volume   353.40706828
_cell_formula_units_Z   1
loop_
 _symmetry_equiv_pos_site_id
 _symmetry_equiv_pos_as_xyz
  1  'x, y, z'
loop_
 _atom_site_type_symbol
 _atom_site_label
 _atom_site_symmetry_multiplicity
 _atom_site_fract_x
 _atom_site_fract_y
 _atom_site_fract_z
 _atom_site_occupancy
  Ba  Ba0  1  0.000041  0.000000  0.000041  1
  Ba  Ba1  1  0.334377  0.332694  0.001683  1
  Ba  Ba2  1  0.668989  0.667306  0.001683  1
  Al  Al3  1  0.385426  0.000000  0.385426  1
  Al  Al4  1  0.251433  0.500000  0.751433  1
  Al  Al5  1  0.747150  0.500000  0.247150  1
  Al  Al6  1  0.586476  0.836862  0.749615  1
  Al  Al7  1  0.912754  0.163138  0.749615  1
  Al  Al8  1  0.289389  0.667777  0.621612  1
  Al  Al9  1  0.953835  0.332223  0.621612  1
  Al  Al10  1  0.046136  0.666404  0.379732  1
  Al  Al11  1  0.713326  0.333596  0.379732  1
  Al  Al12  1  0.084919  0.834703  0.250217  1
  Al  Al13  1  0.415512  0.165297  0.250217  1
  Zn  Zn14  1  0.621235  0.000000  0.621235  1
