# generated using pymatgen
data_Zr6MnFe15Si6P
_symmetry_space_group_name_H-M   'P 1'
_cell_length_a   8.08300310
_cell_length_b   8.08300282
_cell_length_c   8.07390647
_cell_angle_alpha   59.95079797
_cell_angle_beta   59.95081004
_cell_angle_gamma   60.04238648
_symmetry_Int_Tables_number   1
_chemical_formula_structural   Zr6MnFe15Si6P
_chemical_formula_sum   'Zr6 Mn1 Fe15 Si6 P1'
_cell_volume   372.84607113
_cell_formula_units_Z   1
loop_
 _symmetry_equiv_pos_site_id
 _symmetry_equiv_pos_as_xyz
  1  'x, y, z'
loop_
 _atom_site_type_symbol
 _atom_site_label
 _atom_site_symmetry_multiplicity
 _atom_site_fract_x
 _atom_site_fract_y
 _atom_site_fract_z
 _atom_site_occupancy
  Zr  Zr0  1  0.702607  0.702607  0.296026  1
  Zr  Zr1  1  0.298708  0.702765  0.295967  1
  Zr  Zr2  1  0.702765  0.298708  0.295967  1
  Zr  Zr3  1  0.293683  0.293683  0.707476  1
  Zr  Zr4  1  0.705228  0.293709  0.707346  1
  Zr  Zr5  1  0.293709  0.705228  0.707346  1
  Mn  Mn6  1  0.881344  0.881344  0.355960  1
  Fe  Fe7  1  0.879471  0.361441  0.879667  1
  Fe  Fe8  1  0.361441  0.879471  0.879667  1
  Fe  Fe9  1  0.879421  0.879421  0.879649  1
  Fe  Fe10  1  0.120807  0.120807  0.637609  1
  Fe  Fe11  1  0.117222  0.641922  0.123626  1
  Fe  Fe12  1  0.641922  0.117222  0.123626  1
  Fe  Fe13  1  0.117216  0.117216  0.123561  1
  Fe  Fe14  1  0.676114  0.676114  0.971748  1
  Fe  Fe15  1  0.676298  0.972943  0.674478  1
  Fe  Fe16  1  0.972943  0.676298  0.674478  1
  Fe  Fe17  1  0.676323  0.676323  0.674425  1
  Fe  Fe18  1  0.324365  0.324365  0.026773  1
  Fe  Fe19  1  0.324424  0.027951  0.323141  1
  Fe  Fe20  1  0.027951  0.324424  0.323141  1
  Fe  Fe21  1  0.324395  0.324395  0.323187  1
  Si  Si22  1  0.000694  0.000694  0.501741  1
  Si  Si23  1  0.496883  0.000618  0.501837  1
  Si  Si24  1  0.000618  0.496883  0.501837  1
  Si  Si25  1  0.500140  0.500140  0.999782  1
  Si  Si26  1  0.999961  0.500056  0.999858  1
  Si  Si27  1  0.500056  0.999961  0.999858  1
  P  P28  1  0.003287  0.003287  0.990222  1
