# generated using pymatgen
data_La3In4Br
_symmetry_space_group_name_H-M   'P 1'
_cell_length_a   8.64872277
_cell_length_b   8.64872220
_cell_length_c   8.64872300
_cell_angle_alpha   119.52357900
_cell_angle_beta   119.52357686
_cell_angle_gamma   90.82718697
_symmetry_Int_Tables_number   1
_chemical_formula_structural   La3In4Br
_chemical_formula_sum   'La6 In8 Br2'
_cell_volume   460.68928964
_cell_formula_units_Z   2
loop_
 _symmetry_equiv_pos_site_id
 _symmetry_equiv_pos_as_xyz
  1  'x, y, z'
loop_
 _atom_site_type_symbol
 _atom_site_label
 _atom_site_symmetry_multiplicity
 _atom_site_fract_x
 _atom_site_fract_y
 _atom_site_fract_z
 _atom_site_occupancy
  La  La0  1  0.750000  0.750000  0.000000  1
  La  La1  1  0.250000  0.250000  0.000000  1
  La  La2  1  0.338022  0.838022  0.176042  1
  La  La3  1  0.661978  0.161978  0.823958  1
  La  La4  1  0.838022  0.661978  0.500000  1
  La  La5  1  0.161978  0.338022  0.500000  1
  In  In6  1  0.957406  0.457406  0.787749  1
  In  In7  1  0.669657  0.169657  0.212251  1
  In  In8  1  0.457406  0.669657  0.500000  1
  In  In9  1  0.169657  0.957406  0.500000  1
  In  In10  1  0.042594  0.542594  0.212251  1
  In  In11  1  0.330343  0.830343  0.787749  1
  In  In12  1  0.542594  0.330343  0.500000  1
  In  In13  1  0.830343  0.042594  0.500000  1
  Br  Br14  1  0.000000  0.000000  0.000000  1
  Br  Br15  1  0.500000  0.500000  0.000000  1
