# generated using pymatgen
data_Li2Sm3(MgSn2)2
_symmetry_space_group_name_H-M   'P 1'
_cell_length_a   8.96274372
_cell_length_b   8.72734150
_cell_length_c   8.72734229
_cell_angle_alpha   148.83535224
_cell_angle_beta   130.21799084
_cell_angle_gamma   59.65726307
_symmetry_Int_Tables_number   1
_chemical_formula_structural   Li2Sm3(MgSn2)2
_chemical_formula_sum   'Li2 Sm3 Mg2 Sn4'
_cell_volume   267.81657322
_cell_formula_units_Z   1
loop_
 _symmetry_equiv_pos_site_id
 _symmetry_equiv_pos_as_xyz
  1  'x, y, z'
loop_
 _atom_site_type_symbol
 _atom_site_label
 _atom_site_symmetry_multiplicity
 _atom_site_fract_x
 _atom_site_fract_y
 _atom_site_fract_z
 _atom_site_occupancy
  Li  Li0  1  0.634263  0.325223  0.309041  1
  Li  Li1  1  0.365737  0.674777  0.690959  1
  Sm  Sm2  1  0.393726  0.878913  0.514813  1
  Sm  Sm3  1  0.606274  0.121087  0.485187  1
  Sm  Sm4  1  0.000000  0.000000  0.000000  1
  Mg  Mg5  1  0.017640  0.327945  0.689694  1
  Mg  Mg6  1  0.982360  0.672055  0.310306  1
  Sn  Sn7  1  0.236057  0.216914  0.019144  1
  Sn  Sn8  1  0.763943  0.783086  0.980856  1
  Sn  Sn9  1  0.696989  0.495845  0.201145  1
  Sn  Sn10  1  0.303011  0.504155  0.798855  1
