# generated using pymatgen
data_Tb4Y12MgHg3Rh4
_symmetry_space_group_name_H-M   'P 1'
_cell_length_a   9.63742862
_cell_length_b   9.63846760
_cell_length_c   9.63846700
_cell_angle_alpha   60.00000549
_cell_angle_beta   59.99643921
_cell_angle_gamma   59.99643575
_symmetry_Int_Tables_number   1
_chemical_formula_structural   Tb4Y12MgHg3Rh4
_chemical_formula_sum   'Tb4 Y12 Mg1 Hg3 Rh4'
_cell_volume   633.05109380
_cell_formula_units_Z   1
loop_
 _symmetry_equiv_pos_site_id
 _symmetry_equiv_pos_as_xyz
  1  'x, y, z'
loop_
 _atom_site_type_symbol
 _atom_site_label
 _atom_site_symmetry_multiplicity
 _atom_site_fract_x
 _atom_site_fract_y
 _atom_site_fract_z
 _atom_site_occupancy
  Tb  Tb0  1  0.601428  0.598787  0.598787  1
  Tb  Tb1  1  0.601428  0.598787  0.200999  1
  Tb  Tb2  1  0.601428  0.200999  0.598787  1
  Tb  Tb3  1  0.190439  0.603188  0.603188  1
  Y  Y4  1  0.060074  0.439745  0.439745  1
  Y  Y5  1  0.435927  0.063094  0.063094  1
  Y  Y6  1  0.435927  0.063094  0.437883  1
  Y  Y7  1  0.060074  0.439745  0.060437  1
  Y  Y8  1  0.435927  0.437883  0.063094  1
  Y  Y9  1  0.060074  0.060437  0.439745  1
  Y  Y10  1  0.184710  0.814153  0.814153  1
  Y  Y11  1  0.813291  0.186159  0.186159  1
  Y  Y12  1  0.813291  0.186159  0.814392  1
  Y  Y13  1  0.184710  0.814153  0.186985  1
  Y  Y14  1  0.813291  0.814392  0.186159  1
  Y  Y15  1  0.184710  0.186985  0.814153  1
  Mg  Mg16  1  0.534192  0.821936  0.821936  1
  Hg  Hg17  1  0.831428  0.836176  0.836176  1
  Hg  Hg18  1  0.831428  0.836176  0.496219  1
  Hg  Hg19  1  0.831428  0.496219  0.836176  1
  Rh  Rh20  1  0.391334  0.394522  0.394522  1
  Rh  Rh21  1  0.391334  0.394522  0.819623  1
  Rh  Rh22  1  0.391334  0.819623  0.394522  1
  Rh  Rh23  1  0.820795  0.393069  0.393069  1
