# generated using pymatgen
data_Y3In4CoPd
_symmetry_space_group_name_H-M   'P 1'
_cell_length_a   7.95984600
_cell_length_b   7.95984613
_cell_length_c   3.71829300
_cell_angle_alpha   90.00000000
_cell_angle_beta   90.00000000
_cell_angle_gamma   119.99999945
_symmetry_Int_Tables_number   1
_chemical_formula_structural   Y3In4CoPd
_chemical_formula_sum   'Y3 In4 Co1 Pd1'
_cell_volume   204.02509153
_cell_formula_units_Z   1
loop_
 _symmetry_equiv_pos_site_id
 _symmetry_equiv_pos_as_xyz
  1  'x, y, z'
loop_
 _atom_site_type_symbol
 _atom_site_label
 _atom_site_symmetry_multiplicity
 _atom_site_fract_x
 _atom_site_fract_y
 _atom_site_fract_z
 _atom_site_occupancy
  Y  Y0  1  0.708264  0.952363  0.500000  1
  Y  Y1  1  0.244099  0.291736  0.500000  1
  Y  Y2  1  0.047637  0.755901  0.500000  1
  In  In3  1  0.929068  0.332496  0.000000  1
  In  In4  1  0.403428  0.070932  0.000000  1
  In  In5  1  0.667504  0.596572  0.000000  1
  In  In6  1  0.333333  0.666667  0.000000  1
  Co  Co7  1  0.000000  0.000000  0.000000  1
  Pd  Pd8  1  0.666667  0.333333  0.500000  1
