# generated using pymatgen
data_La2Ho2UP12Ru19
_symmetry_space_group_name_H-M   'P 1'
_cell_length_a   12.62690272
_cell_length_b   12.61311145
_cell_length_c   3.98003800
_cell_angle_alpha   90.00000000
_cell_angle_beta   90.00000000
_cell_angle_gamma   119.96387735
_symmetry_Int_Tables_number   1
_chemical_formula_structural   La2Ho2UP12Ru19
_chemical_formula_sum   'La2 Ho2 U1 P12 Ru19'
_cell_volume   549.15492680
_cell_formula_units_Z   1
loop_
 _symmetry_equiv_pos_site_id
 _symmetry_equiv_pos_as_xyz
  1  'x, y, z'
loop_
 _atom_site_type_symbol
 _atom_site_label
 _atom_site_symmetry_multiplicity
 _atom_site_fract_x
 _atom_site_fract_y
 _atom_site_fract_z
 _atom_site_occupancy
  La  La0  1  0.812703  0.811979  0.500000  1
  La  La1  1  0.187297  0.999275  0.500000  1
  Ho  Ho2  1  0.668418  0.332420  0.000000  1
  Ho  Ho3  1  0.331582  0.664003  0.000000  1
  U  U4  1  0.000000  0.179103  0.500000  1
  P  P5  1  0.000000  0.812602  0.000000  1
  P  P6  1  0.190276  0.187945  0.000000  1
  P  P7  1  0.809724  0.997669  0.000000  1
  P  P8  1  0.694091  0.173546  0.500000  1
  P  P9  1  0.826417  0.520580  0.500000  1
  P  P10  1  0.478898  0.306564  0.500000  1
  P  P11  1  0.173583  0.694163  0.500000  1
  P  P12  1  0.521102  0.827667  0.500000  1
  P  P13  1  0.305909  0.479456  0.500000  1
  P  P14  1  0.000000  0.374157  0.000000  1
  P  P15  1  0.622612  0.623351  0.000000  1
  P  P16  1  0.377388  0.000740  0.000000  1
  Ru  Ru17  1  0.000000  0.553978  0.000000  1
  Ru  Ru18  1  0.440454  0.446020  0.000000  1
  Ru  Ru19  1  0.559546  0.005566  0.000000  1
  Ru  Ru20  1  0.000000  0.712806  0.500000  1
  Ru  Ru21  1  0.283208  0.287122  0.500000  1
  Ru  Ru22  1  0.716792  0.003913  0.500000  1
  Ru  Ru23  1  0.815028  0.185425  0.000000  1
  Ru  Ru24  1  0.814332  0.617955  0.000000  1
  Ru  Ru25  1  0.382391  0.198361  0.000000  1
  Ru  Ru26  1  0.185668  0.803623  0.000000  1
  Ru  Ru27  1  0.617609  0.815970  0.000000  1
  Ru  Ru28  1  0.184972  0.370397  0.000000  1
  Ru  Ru29  1  0.873612  0.365071  0.500000  1
  Ru  Ru30  1  0.631229  0.506985  0.500000  1
  Ru  Ru31  1  0.494251  0.127897  0.500000  1
  Ru  Ru32  1  0.368771  0.875756  0.500000  1
  Ru  Ru33  1  0.505749  0.633646  0.500000  1
  Ru  Ru34  1  0.126388  0.491460  0.500000  1
  Ru  Ru35  1  0.000000  0.012829  0.000000  1
