# generated using pymatgen
data_Sc22Tc3IrRh4
_symmetry_space_group_name_H-M   'P 1'
_cell_length_a   9.49990717
_cell_length_b   9.49900382
_cell_length_c   9.49900475
_cell_angle_alpha   60.00786316
_cell_angle_beta   59.99818838
_cell_angle_gamma   59.99819675
_symmetry_Int_Tables_number   1
_chemical_formula_structural   Sc22Tc3IrRh4
_chemical_formula_sum   'Sc22 Tc3 Ir1 Rh4'
_cell_volume   606.14212341
_cell_formula_units_Z   1
loop_
 _symmetry_equiv_pos_site_id
 _symmetry_equiv_pos_as_xyz
  1  'x, y, z'
loop_
 _atom_site_type_symbol
 _atom_site_label
 _atom_site_symmetry_multiplicity
 _atom_site_fract_x
 _atom_site_fract_y
 _atom_site_fract_z
 _atom_site_occupancy
  Sc  Sc0  1  0.803265  0.803255  0.196741  1
  Sc  Sc1  1  0.196735  0.803259  0.196745  1
  Sc  Sc2  1  0.803721  0.196287  0.196287  1
  Sc  Sc3  1  0.196735  0.196745  0.803259  1
  Sc  Sc4  1  0.803265  0.196741  0.803255  1
  Sc  Sc5  1  0.196279  0.803713  0.803713  1
  Sc  Sc6  1  0.615368  0.619339  0.149923  1
  Sc  Sc7  1  0.615368  0.149923  0.619339  1
  Sc  Sc8  1  0.149923  0.615363  0.615363  1
  Sc  Sc9  1  0.619345  0.615366  0.615366  1
  Sc  Sc10  1  0.384632  0.380661  0.850077  1
  Sc  Sc11  1  0.384632  0.850077  0.380661  1
  Sc  Sc12  1  0.850077  0.384637  0.384637  1
  Sc  Sc13  1  0.380655  0.384634  0.384634  1
  Sc  Sc14  1  0.843650  0.843197  0.469507  1
  Sc  Sc15  1  0.843650  0.469507  0.843197  1
  Sc  Sc16  1  0.469506  0.843642  0.843642  1
  Sc  Sc17  1  0.843213  0.843641  0.843641  1
  Sc  Sc18  1  0.156350  0.156803  0.530493  1
  Sc  Sc19  1  0.156350  0.530493  0.156803  1
  Sc  Sc20  1  0.530494  0.156358  0.156358  1
  Sc  Sc21  1  0.156787  0.156359  0.156359  1
  Tc  Tc22  1  0.000000  0.000000  0.000000  1
  Tc  Tc23  1  0.000000  0.500000  0.500000  1
  Tc  Tc24  1  0.500000  0.000000  0.000000  1
  Ir  Ir25  1  0.500000  0.500000  0.500000  1
  Rh  Rh26  1  0.000000  0.000000  0.500000  1
  Rh  Rh27  1  0.500000  0.000000  0.500000  1
  Rh  Rh28  1  0.500000  0.500000  0.000000  1
  Rh  Rh29  1  0.000000  0.500000  0.000000  1
