# generated using pymatgen
data_Er12Al2Tc2Pb
_symmetry_space_group_name_H-M   'P 1'
_cell_length_a   8.37041003
_cell_length_b   8.37172938
_cell_length_c   8.37041200
_cell_angle_alpha   109.89589143
_cell_angle_beta   110.22156511
_cell_angle_gamma   108.29642800
_symmetry_Int_Tables_number   1
_chemical_formula_structural   Er12Al2Tc2Pb
_chemical_formula_sum   'Er12 Al2 Tc2 Pb1'
_cell_volume   451.41996419
_cell_formula_units_Z   1
loop_
 _symmetry_equiv_pos_site_id
 _symmetry_equiv_pos_as_xyz
  1  'x, y, z'
loop_
 _atom_site_type_symbol
 _atom_site_label
 _atom_site_symmetry_multiplicity
 _atom_site_fract_x
 _atom_site_fract_y
 _atom_site_fract_z
 _atom_site_occupancy
  Er  Er0  1  0.445142  0.191129  0.253971  1
  Er  Er1  1  0.554858  0.808871  0.746029  1
  Er  Er2  1  0.937158  0.191129  0.745988  1
  Er  Er3  1  0.196611  0.948333  0.751722  1
  Er  Er4  1  0.062842  0.808871  0.254012  1
  Er  Er5  1  0.803389  0.051667  0.248278  1
  Er  Er6  1  0.196624  0.444784  0.248161  1
  Er  Er7  1  0.803376  0.555216  0.751839  1
  Er  Er8  1  0.320035  0.316502  0.636564  1
  Er  Er9  1  0.679965  0.683498  0.363436  1
  Er  Er10  1  0.320062  0.683498  0.003532  1
  Er  Er11  1  0.679938  0.316502  0.996468  1
  Al  Al12  1  0.500000  0.000000  0.500000  1
  Al  Al13  1  0.000000  0.000000  0.000000  1
  Tc  Tc14  1  0.336786  0.336731  0.999945  1
  Tc  Tc15  1  0.663214  0.663269  0.000055  1
  Pb  Pb16  1  0.000000  0.500000  0.500000  1
