# generated using pymatgen
data_Ba3Pr(BO3)3
_symmetry_space_group_name_H-M   'P 1'
_cell_length_a   8.34719482
_cell_length_b   8.34719526
_cell_length_c   8.34719423
_cell_angle_alpha   105.46105900
_cell_angle_beta   105.46106583
_cell_angle_gamma   105.46107512
_symmetry_Int_Tables_number   1
_chemical_formula_structural   Ba3Pr(BO3)3
_chemical_formula_sum   'Ba6 Pr2 B6 O18'
_cell_volume   503.31078238
_cell_formula_units_Z   2
loop_
 _symmetry_equiv_pos_site_id
 _symmetry_equiv_pos_as_xyz
  1  'x, y, z'
loop_
 _atom_site_type_symbol
 _atom_site_label
 _atom_site_symmetry_multiplicity
 _atom_site_fract_x
 _atom_site_fract_y
 _atom_site_fract_z
 _atom_site_occupancy
  Ba  Ba0  1  0.356054  0.732410  0.851393  1
  Ba  Ba1  1  0.851393  0.356054  0.732410  1
  Ba  Ba2  1  0.732410  0.851393  0.356054  1
  Ba  Ba3  1  0.643946  0.267590  0.148607  1
  Ba  Ba4  1  0.148607  0.643946  0.267590  1
  Ba  Ba5  1  0.267590  0.148607  0.643946  1
  Pr  Pr6  1  0.500000  0.500000  0.500000  1
  Pr  Pr7  1  0.000000  0.000000  0.000000  1
  B  B8  1  0.709920  0.614579  0.959572  1
  B  B9  1  0.959572  0.709920  0.614579  1
  B  B10  1  0.614579  0.959572  0.709920  1
  B  B11  1  0.040428  0.290080  0.385421  1
  B  B12  1  0.385421  0.040428  0.290080  1
  B  B13  1  0.290080  0.385421  0.040428  1
  O  O14  1  0.053710  0.811188  0.540290  1
  O  O15  1  0.540290  0.053710  0.811188  1
  O  O16  1  0.430145  0.495200  0.203189  1
  O  O17  1  0.495200  0.203189  0.430145  1
  O  O18  1  0.203189  0.430145  0.495200  1
  O  O19  1  0.796811  0.569855  0.504800  1
  O  O20  1  0.569855  0.504800  0.796811  1
  O  O21  1  0.504800  0.796811  0.569855  1
  O  O22  1  0.257836  0.202388  0.977968  1
  O  O23  1  0.202388  0.977968  0.257836  1
  O  O24  1  0.977968  0.257836  0.202388  1
  O  O25  1  0.742164  0.797612  0.022032  1
  O  O26  1  0.797612  0.022032  0.742164  1
  O  O27  1  0.022032  0.742164  0.797612  1
  O  O28  1  0.188812  0.459710  0.946290  1
  O  O29  1  0.459710  0.946290  0.188812  1
  O  O30  1  0.946290  0.188812  0.459710  1
  O  O31  1  0.811188  0.540290  0.053710  1
