# generated using pymatgen
data_Ti3Ga2CuN
_symmetry_space_group_name_H-M   'P 1'
_cell_length_a   8.07866400
_cell_length_b   8.07866464
_cell_length_c   8.07866400
_cell_angle_alpha   119.99999739
_cell_angle_beta   90.00000000
_cell_angle_gamma   119.99999739
_symmetry_Int_Tables_number   1
_chemical_formula_structural   Ti3Ga2CuN
_chemical_formula_sum   'Ti12 Ga8 Cu4 N4'
_cell_volume   372.82386813
_cell_formula_units_Z   4
loop_
 _symmetry_equiv_pos_site_id
 _symmetry_equiv_pos_as_xyz
  1  'x, y, z'
loop_
 _atom_site_type_symbol
 _atom_site_label
 _atom_site_symmetry_multiplicity
 _atom_site_fract_x
 _atom_site_fract_y
 _atom_site_fract_z
 _atom_site_occupancy
  Ti  Ti0  1  0.943251  0.386503  0.193251  1
  Ti  Ti1  1  0.306749  0.750000  0.193251  1
  Ti  Ti2  1  0.943251  0.750000  0.193251  1
  Ti  Ti3  1  0.693251  0.250000  0.443251  1
  Ti  Ti4  1  0.693251  0.886503  0.443251  1
  Ti  Ti5  1  0.056749  0.250000  0.443251  1
  Ti  Ti6  1  0.306749  0.113497  0.556749  1
  Ti  Ti7  1  0.306749  0.750000  0.556749  1
  Ti  Ti8  1  0.943251  0.750000  0.556749  1
  Ti  Ti9  1  0.056749  0.250000  0.806749  1
  Ti  Ti10  1  0.693251  0.250000  0.806749  1
  Ti  Ti11  1  0.056749  0.613497  0.806749  1
  Ga  Ga12  1  0.710832  0.921664  0.132497  1
  Ga  Ga13  1  0.289168  0.078336  0.210832  1
  Ga  Ga14  1  0.289168  0.421664  0.210832  1
  Ga  Ga15  1  0.632497  0.421664  0.210832  1
  Ga  Ga16  1  0.367503  0.578336  0.789168  1
  Ga  Ga17  1  0.710832  0.578336  0.789168  1
  Ga  Ga18  1  0.710832  0.921664  0.789168  1
  Ga  Ga19  1  0.289168  0.078336  0.867503  1
  Cu  Cu20  1  0.000000  0.000000  0.000000  1
  Cu  Cu21  1  0.500000  0.000000  0.000000  1
  Cu  Cu22  1  0.500000  0.500000  0.000000  1
  Cu  Cu23  1  0.500000  0.500000  0.500000  1
  N  N24  1  0.000000  0.500000  0.000000  1
  N  N25  1  0.000000  0.000000  0.500000  1
  N  N26  1  0.500000  0.000000  0.500000  1
  N  N27  1  0.000000  0.500000  0.500000  1
