# generated using pymatgen
data_Y6HoTm13Pb16
_symmetry_space_group_name_H-M   'P 1'
_cell_length_a   8.16216491
_cell_length_b   15.52050831
_cell_length_c   8.22317802
_cell_angle_alpha   90.00994733
_cell_angle_beta   89.88697343
_cell_angle_gamma   90.11129454
_symmetry_Int_Tables_number   1
_chemical_formula_structural   Y6HoTm13Pb16
_chemical_formula_sum   'Y6 Ho1 Tm13 Pb16'
_cell_volume   1041.71598188
_cell_formula_units_Z   1
loop_
 _symmetry_equiv_pos_site_id
 _symmetry_equiv_pos_as_xyz
  1  'x, y, z'
loop_
 _atom_site_type_symbol
 _atom_site_label
 _atom_site_symmetry_multiplicity
 _atom_site_fract_x
 _atom_site_fract_y
 _atom_site_fract_z
 _atom_site_occupancy
  Y  Y0  1  0.963582  0.900242  0.823411  1
  Y  Y1  1  0.536611  0.099591  0.323673  1
  Y  Y2  1  0.036988  0.400297  0.176163  1
  Y  Y3  1  0.537044  0.400383  0.323945  1
  Y  Y4  1  0.036581  0.099558  0.176439  1
  Y  Y5  1  0.463679  0.900497  0.676358  1
  Ho  Ho6  1  0.963232  0.599727  0.823578  1
  Tm  Tm7  1  0.623188  0.621534  0.158272  1
  Tm  Tm8  1  0.123647  0.878436  0.341829  1
  Tm  Tm9  1  0.376596  0.121556  0.841745  1
  Tm  Tm10  1  0.877133  0.378678  0.658559  1
  Tm  Tm11  1  0.377225  0.378884  0.841354  1
  Tm  Tm12  1  0.876441  0.121484  0.658288  1
  Tm  Tm13  1  0.623409  0.878261  0.158153  1
  Tm  Tm14  1  0.123181  0.621486  0.341901  1
  Tm  Tm15  1  0.462093  0.600049  0.675707  1
  Tm  Tm16  1  0.791400  0.749658  0.495390  1
  Tm  Tm17  1  0.291721  0.749728  0.004804  1
  Tm  Tm18  1  0.208379  0.250124  0.504849  1
  Tm  Tm19  1  0.708304  0.250109  0.995065  1
  Pb  Pb20  1  0.718113  0.457352  0.966146  1
  Pb  Pb21  1  0.217509  0.042750  0.534538  1
  Pb  Pb22  1  0.282608  0.957070  0.034127  1
  Pb  Pb23  1  0.780997  0.543008  0.467234  1
  Pb  Pb24  1  0.282350  0.543080  0.033066  1
  Pb  Pb25  1  0.782657  0.957097  0.465508  1
  Pb  Pb26  1  0.717496  0.042692  0.965772  1
  Pb  Pb27  1  0.218285  0.457805  0.534571  1
  Pb  Pb28  1  0.428856  0.749947  0.372970  1
  Pb  Pb29  1  0.928954  0.749946  0.127488  1
  Pb  Pb30  1  0.571038  0.250096  0.627454  1
  Pb  Pb31  1  0.071039  0.250009  0.872241  1
  Pb  Pb32  1  0.651047  0.749238  0.845307  1
  Pb  Pb33  1  0.152044  0.749686  0.653986  1
  Pb  Pb34  1  0.348332  0.250035  0.153752  1
  Pb  Pb35  1  0.848237  0.249909  0.346358  1
