# generated using pymatgen
data_Sr8Yb7Sm5Pt16
_symmetry_space_group_name_H-M   'P 1'
_cell_length_a   7.72992604
_cell_length_b   7.86440726
_cell_length_c   15.02289853
_cell_angle_alpha   90.02875808
_cell_angle_beta   90.00999296
_cell_angle_gamma   89.99413590
_symmetry_Int_Tables_number   1
_chemical_formula_structural   Sr8Yb7Sm5Pt16
_chemical_formula_sum   'Sr8 Yb7 Sm5 Pt16'
_cell_volume   913.26119413
_cell_formula_units_Z   1
loop_
 _symmetry_equiv_pos_site_id
 _symmetry_equiv_pos_as_xyz
  1  'x, y, z'
loop_
 _atom_site_type_symbol
 _atom_site_label
 _atom_site_symmetry_multiplicity
 _atom_site_fract_x
 _atom_site_fract_y
 _atom_site_fract_z
 _atom_site_occupancy
  Sr  Sr0  1  0.500592  0.325287  0.901950  1
  Sr  Sr1  1  0.001672  0.175840  0.595935  1
  Sr  Sr2  1  0.497598  0.676266  0.404989  1
  Sr  Sr3  1  0.000470  0.822216  0.095936  1
  Sr  Sr4  1  0.500272  0.676885  0.097528  1
  Sr  Sr5  1  0.001463  0.821849  0.403386  1
  Sr  Sr6  1  0.499042  0.322646  0.597796  1
  Sr  Sr7  1  0.999382  0.177451  0.901613  1
  Yb  Yb8  1  0.161267  0.332860  0.377197  1
  Yb  Yb9  1  0.338800  0.832044  0.623272  1
  Yb  Yb10  1  0.839541  0.667579  0.876128  1
  Yb  Yb11  1  0.177701  0.494662  0.749280  1
  Yb  Yb12  1  0.678101  0.005304  0.749602  1
  Yb  Yb13  1  0.823466  0.507929  0.251326  1
  Yb  Yb14  1  0.320143  0.992959  0.251455  1
  Sm  Sm15  1  0.339161  0.833450  0.875976  1
  Sm  Sm16  1  0.839465  0.666811  0.623656  1
  Sm  Sm17  1  0.660482  0.166987  0.376903  1
  Sm  Sm18  1  0.160609  0.333116  0.123884  1
  Sm  Sm19  1  0.661846  0.168079  0.123328  1
  Pt  Pt20  1  0.332747  0.042142  0.043425  1
  Pt  Pt21  1  0.832943  0.458812  0.456887  1
  Pt  Pt22  1  0.666690  0.958455  0.543391  1
  Pt  Pt23  1  0.165273  0.542059  0.957184  1
  Pt  Pt24  1  0.663937  0.961651  0.956887  1
  Pt  Pt25  1  0.161143  0.539164  0.543653  1
  Pt  Pt26  1  0.338560  0.039222  0.456082  1
  Pt  Pt27  1  0.837477  0.457650  0.043077  1
  Pt  Pt28  1  0.545195  0.631314  0.752204  1
  Pt  Pt29  1  0.045452  0.869076  0.748296  1
  Pt  Pt30  1  0.456553  0.368928  0.249630  1
  Pt  Pt31  1  0.955039  0.131177  0.248407  1
  Pt  Pt32  1  0.302590  0.123226  0.751185  1
  Pt  Pt33  1  0.802945  0.377230  0.748451  1
  Pt  Pt34  1  0.694983  0.877227  0.250733  1
  Pt  Pt35  1  0.197402  0.622445  0.249368  1
