# generated using pymatgen
data_Dy5Er15(Bi2Pt)4
_symmetry_space_group_name_H-M   'P 1'
_cell_length_a   8.02596534
_cell_length_b   9.00029600
_cell_length_c   12.34186652
_cell_angle_alpha   90.00000000
_cell_angle_beta   90.03328676
_cell_angle_gamma   90.00000000
_symmetry_Int_Tables_number   1
_chemical_formula_structural   Dy5Er15(Bi2Pt)4
_chemical_formula_sum   'Dy5 Er15 Bi8 Pt4'
_cell_volume   891.52770612
_cell_formula_units_Z   1
loop_
 _symmetry_equiv_pos_site_id
 _symmetry_equiv_pos_as_xyz
  1  'x, y, z'
loop_
 _atom_site_type_symbol
 _atom_site_label
 _atom_site_symmetry_multiplicity
 _atom_site_fract_x
 _atom_site_fract_y
 _atom_site_fract_z
 _atom_site_occupancy
  Dy  Dy0  1  0.664119  0.750000  0.710335  1
  Dy  Dy1  1  0.334940  0.250000  0.289363  1
  Dy  Dy2  1  0.163884  0.250000  0.789686  1
  Dy  Dy3  1  0.835115  0.750000  0.210795  1
  Dy  Dy4  1  0.127972  0.750000  0.803257  1
  Er  Er5  1  0.872531  0.250000  0.196602  1
  Er  Er6  1  0.627781  0.250000  0.696428  1
  Er  Er7  1  0.372129  0.750000  0.303217  1
  Er  Er8  1  0.550869  0.750000  0.000201  1
  Er  Er9  1  0.449395  0.250000  0.999949  1
  Er  Er10  1  0.051146  0.250000  0.499656  1
  Er  Er11  1  0.949223  0.750000  0.500286  1
  Er  Er12  1  0.822326  0.452493  0.933776  1
  Er  Er13  1  0.177369  0.547246  0.067038  1
  Er  Er14  1  0.322892  0.546984  0.566153  1
  Er  Er15  1  0.177369  0.952754  0.067038  1
  Er  Er16  1  0.677804  0.452856  0.433221  1
  Er  Er17  1  0.822326  0.047507  0.933776  1
  Er  Er18  1  0.677804  0.047144  0.433221  1
  Er  Er19  1  0.322892  0.953016  0.566153  1
  Bi  Bi20  1  0.932267  0.010158  0.671681  1
  Bi  Bi21  1  0.067163  0.990137  0.328193  1
  Bi  Bi22  1  0.433558  0.990876  0.827959  1
  Bi  Bi23  1  0.067163  0.509863  0.328193  1
  Bi  Bi24  1  0.567083  0.009839  0.171964  1
  Bi  Bi25  1  0.932267  0.489842  0.671681  1
  Bi  Bi26  1  0.567083  0.490161  0.171964  1
  Bi  Bi27  1  0.433558  0.509124  0.827959  1
  Pt  Pt28  1  0.921702  0.750000  0.988773  1
  Pt  Pt29  1  0.077536  0.250000  0.012327  1
  Pt  Pt30  1  0.424222  0.250000  0.511859  1
  Pt  Pt31  1  0.576513  0.750000  0.487294  1
