# generated using pymatgen
data_YHo(Si2Rh3)2
_symmetry_space_group_name_H-M   'P 1'
_cell_length_a   6.62633547
_cell_length_b   6.62633450
_cell_length_c   6.62633528
_cell_angle_alpha   130.42157218
_cell_angle_beta   114.11669876
_cell_angle_gamma   86.73219486
_symmetry_Int_Tables_number   1
_chemical_formula_structural   YHo(Si2Rh3)2
_chemical_formula_sum   'Y1 Ho1 Si4 Rh6'
_cell_volume   192.90150584
_cell_formula_units_Z   1
loop_
 _symmetry_equiv_pos_site_id
 _symmetry_equiv_pos_as_xyz
  1  'x, y, z'
loop_
 _atom_site_type_symbol
 _atom_site_label
 _atom_site_symmetry_multiplicity
 _atom_site_fract_x
 _atom_site_fract_y
 _atom_site_fract_z
 _atom_site_occupancy
  Y  Y0  1  0.750000  0.460260  0.710260  1
  Ho  Ho1  1  0.250000  0.541010  0.291010  1
  Si  Si2  1  0.078918  0.883418  0.804500  1
  Si  Si3  1  0.921284  0.117097  0.195813  1
  Si  Si4  1  0.578716  0.774529  0.195813  1
  Si  Si5  1  0.421082  0.225582  0.804500  1
  Rh  Rh6  1  0.714445  0.999391  0.714407  1
  Rh  Rh7  1  0.215015  0.499962  0.714407  1
  Rh  Rh8  1  0.284985  0.999391  0.284946  1
  Rh  Rh9  1  0.785555  0.499962  0.284946  1
  Rh  Rh10  1  0.000302  0.999699  0.500001  1
  Rh  Rh11  1  0.499698  0.999699  0.999396  1
