# generated using pymatgen
data_Tm4V4Co16Si7P5
_symmetry_space_group_name_H-M   'P 1'
_cell_length_a   3.68263600
_cell_length_b   10.41436126
_cell_length_c   11.96115329
_cell_angle_alpha   90.02543209
_cell_angle_beta   90.00000000
_cell_angle_gamma   90.00000000
_symmetry_Int_Tables_number   1
_chemical_formula_structural   Tm4V4Co16Si7P5
_chemical_formula_sum   'Tm4 V4 Co16 Si7 P5'
_cell_volume   458.73771440
_cell_formula_units_Z   1
loop_
 _symmetry_equiv_pos_site_id
 _symmetry_equiv_pos_as_xyz
  1  'x, y, z'
loop_
 _atom_site_type_symbol
 _atom_site_label
 _atom_site_symmetry_multiplicity
 _atom_site_fract_x
 _atom_site_fract_y
 _atom_site_fract_z
 _atom_site_occupancy
  Tm  Tm0  1  0.250000  0.579073  0.703240  1
  Tm  Tm1  1  0.250000  0.924464  0.203039  1
  Tm  Tm2  1  0.750000  0.425003  0.297410  1
  Tm  Tm3  1  0.750000  0.075600  0.796718  1
  V  V4  1  0.250000  0.699396  0.992103  1
  V  V5  1  0.250000  0.799527  0.494776  1
  V  V6  1  0.750000  0.300695  0.007045  1
  V  V7  1  0.750000  0.199645  0.508150  1
  Co  Co8  1  0.250000  0.411573  0.488792  1
  Co  Co9  1  0.250000  0.089824  0.987824  1
  Co  Co10  1  0.750000  0.594115  0.514577  1
  Co  Co11  1  0.750000  0.908860  0.009704  1
  Co  Co12  1  0.250000  0.213561  0.170882  1
  Co  Co13  1  0.250000  0.286310  0.670708  1
  Co  Co14  1  0.750000  0.784032  0.824378  1
  Co  Co15  1  0.750000  0.713857  0.329550  1
  Co  Co16  1  0.250000  0.878730  0.701358  1
  Co  Co17  1  0.250000  0.619754  0.202713  1
  Co  Co18  1  0.750000  0.118735  0.297603  1
  Co  Co19  1  0.750000  0.381117  0.796993  1
  Co  Co20  1  0.250000  0.464934  0.933039  1
  Co  Co21  1  0.250000  0.033735  0.433856  1
  Co  Co22  1  0.750000  0.534509  0.067383  1
  Co  Co23  1  0.750000  0.961994  0.568594  1
  Si  Si24  1  0.250000  0.419964  0.116258  1
  Si  Si25  1  0.250000  0.080252  0.616197  1
  Si  Si26  1  0.750000  0.579136  0.884551  1
  Si  Si27  1  0.750000  0.919658  0.384122  1
  Si  Si28  1  0.250000  0.266320  0.861983  1
  Si  Si29  1  0.250000  0.233519  0.362806  1
  Si  Si30  1  0.750000  0.733809  0.137348  1
  P  P31  1  0.750000  0.766979  0.637071  1
  P  P32  1  0.250000  0.599904  0.392466  1
  P  P33  1  0.250000  0.900648  0.892045  1
  P  P34  1  0.750000  0.401998  0.607832  1
  P  P35  1  0.750000  0.098769  0.106888  1
