# generated using pymatgen
data_Sr10Si17Sn
_symmetry_space_group_name_H-M   'P 1'
_cell_length_a   6.49711384
_cell_length_b   6.49711226
_cell_length_c   17.45575700
_cell_angle_alpha   81.62503795
_cell_angle_beta   81.62503109
_cell_angle_gamma   100.72622320
_symmetry_Int_Tables_number   1
_chemical_formula_structural   Sr10Si17Sn
_chemical_formula_sum   'Sr10 Si17 Sn1'
_cell_volume   704.85305062
_cell_formula_units_Z   1
loop_
 _symmetry_equiv_pos_site_id
 _symmetry_equiv_pos_as_xyz
  1  'x, y, z'
loop_
 _atom_site_type_symbol
 _atom_site_label
 _atom_site_symmetry_multiplicity
 _atom_site_fract_x
 _atom_site_fract_y
 _atom_site_fract_z
 _atom_site_occupancy
  Sr  Sr0  1  0.748446  0.250466  0.002283  1
  Sr  Sr1  1  0.110359  0.578226  0.787814  1
  Sr  Sr2  1  0.293647  0.707540  0.499819  1
  Sr  Sr3  1  0.758706  0.758706  0.641615  1
  Sr  Sr4  1  0.246347  0.246347  0.352708  1
  Sr  Sr5  1  0.578226  0.110359  0.787814  1
  Sr  Sr6  1  0.250466  0.748446  0.002283  1
  Sr  Sr7  1  0.707540  0.293647  0.499819  1
  Sr  Sr8  1  0.419300  0.888182  0.209790  1
  Sr  Sr9  1  0.888182  0.419300  0.209790  1
  Si  Si10  1  0.221660  0.221660  0.072368  1
  Si  Si11  1  0.936770  0.936770  0.265792  1
  Si  Si12  1  0.061719  0.061719  0.734506  1
  Si  Si13  1  0.785021  0.785021  0.936285  1
  Si  Si14  1  0.352342  0.352342  0.646104  1
  Si  Si15  1  0.283724  0.283724  0.933781  1
  Si  Si16  1  0.935831  0.935831  0.132489  1
  Si  Si17  1  0.648207  0.648207  0.352895  1
  Si  Si18  1  0.419936  0.419936  0.152582  1
  Si  Si19  1  0.063144  0.063144  0.868864  1
  Si  Si20  1  0.818632  0.818632  0.454164  1
  Si  Si21  1  0.339958  0.967522  0.641796  1
  Si  Si22  1  0.660008  0.032485  0.357482  1
  Si  Si23  1  0.182099  0.182099  0.544769  1
  Si  Si24  1  0.967522  0.339958  0.641796  1
  Si  Si25  1  0.032485  0.660008  0.357482  1
  Si  Si26  1  0.702735  0.702735  0.073805  1
  Sn  Sn27  1  0.586987  0.586987  0.839306  1
