# generated using pymatgen
data_Dy16MgIn(HgRh2)2
_symmetry_space_group_name_H-M   'P 1'
_cell_length_a   9.63900667
_cell_length_b   9.63900712
_cell_length_c   9.68157406
_cell_angle_alpha   59.78626424
_cell_angle_beta   59.78626016
_cell_angle_gamma   59.59206081
_symmetry_Int_Tables_number   1
_chemical_formula_structural   Dy16MgIn(HgRh2)2
_chemical_formula_sum   'Dy16 Mg1 In1 Hg2 Rh4'
_cell_volume   632.02861032
_cell_formula_units_Z   1
loop_
 _symmetry_equiv_pos_site_id
 _symmetry_equiv_pos_as_xyz
  1  'x, y, z'
loop_
 _atom_site_type_symbol
 _atom_site_label
 _atom_site_symmetry_multiplicity
 _atom_site_fract_x
 _atom_site_fract_y
 _atom_site_fract_z
 _atom_site_occupancy
  Dy  Dy0  1  0.688428  0.311042  0.314340  1
  Dy  Dy1  1  0.688502  0.688502  0.312887  1
  Dy  Dy2  1  0.311042  0.688428  0.314340  1
  Dy  Dy3  1  0.934437  0.934437  0.565108  1
  Dy  Dy4  1  0.147093  0.147093  0.555039  1
  Dy  Dy5  1  0.561379  0.937199  0.563506  1
  Dy  Dy6  1  0.152486  0.152486  0.152358  1
  Dy  Dy7  1  0.309617  0.309617  0.691362  1
  Dy  Dy8  1  0.937199  0.561379  0.563506  1
  Dy  Dy9  1  0.562128  0.562128  0.938423  1
  Dy  Dy10  1  0.559584  0.934395  0.936828  1
  Dy  Dy11  1  0.934395  0.559584  0.936828  1
  Dy  Dy12  1  0.150086  0.547833  0.147325  1
  Dy  Dy13  1  0.309893  0.690581  0.691617  1
  Dy  Dy14  1  0.690581  0.309893  0.691617  1
  Dy  Dy15  1  0.547833  0.150086  0.147325  1
  Mg  Mg16  1  0.928927  0.928927  0.220898  1
  In  In17  1  0.919206  0.919206  0.916630  1
  Hg  Hg18  1  0.256835  0.913102  0.918223  1
  Hg  Hg19  1  0.913102  0.256835  0.918223  1
  Rh  Rh20  1  0.356289  0.356289  0.359724  1
  Rh  Rh21  1  0.927352  0.356565  0.358710  1
  Rh  Rh22  1  0.357041  0.357041  0.926470  1
  Rh  Rh23  1  0.356565  0.927352  0.358710  1
