# generated using pymatgen
data_TbHoNi7
_symmetry_space_group_name_H-M   'P 1'
_cell_length_a   4.96909595
_cell_length_b   4.96909673
_cell_length_c   12.42926181
_cell_angle_alpha   78.46917586
_cell_angle_beta   78.46917300
_cell_angle_gamma   59.99999911
_symmetry_Int_Tables_number   1
_chemical_formula_structural   TbHoNi7
_chemical_formula_sum   'Tb2 Ho2 Ni14'
_cell_volume   258.60812643
_cell_formula_units_Z   2
loop_
 _symmetry_equiv_pos_site_id
 _symmetry_equiv_pos_as_xyz
  1  'x, y, z'
loop_
 _atom_site_type_symbol
 _atom_site_label
 _atom_site_symmetry_multiplicity
 _atom_site_fract_x
 _atom_site_fract_y
 _atom_site_fract_z
 _atom_site_occupancy
  Tb  Tb0  1  0.949093  0.949093  0.152720  1
  Tb  Tb1  1  0.050907  0.050907  0.847280  1
  Ho  Ho2  1  0.852577  0.852577  0.442270  1
  Ho  Ho3  1  0.147423  0.147423  0.557730  1
  Ni  Ni4  1  0.500000  0.500000  0.500000  1
  Ni  Ni5  1  0.721946  0.721946  0.834164  1
  Ni  Ni6  1  0.278054  0.278054  0.165836  1
  Ni  Ni7  1  0.611596  0.611596  0.165213  1
  Ni  Ni8  1  0.388404  0.388404  0.834787  1
  Ni  Ni9  1  0.000000  0.500000  0.000000  1
  Ni  Ni10  1  0.500000  0.000000  0.000000  1
  Ni  Ni11  1  0.500000  0.500000  0.000000  1
  Ni  Ni12  1  0.389396  0.389396  0.330041  1
  Ni  Ni13  1  0.891167  0.389396  0.330041  1
  Ni  Ni14  1  0.389396  0.891167  0.330041  1
  Ni  Ni15  1  0.610604  0.610604  0.669959  1
  Ni  Ni16  1  0.108833  0.610604  0.669959  1
  Ni  Ni17  1  0.610604  0.108833  0.669959  1
