# generated using pymatgen
data_Sc8Ga4TcHg3
_symmetry_space_group_name_H-M   'P 1'
_cell_length_a   6.71550818
_cell_length_b   7.08717700
_cell_length_c   6.71526218
_cell_angle_alpha   90.00000000
_cell_angle_beta   90.02687585
_cell_angle_gamma   90.00000000
_symmetry_Int_Tables_number   1
_chemical_formula_structural   Sc8Ga4TcHg3
_chemical_formula_sum   'Sc8 Ga4 Tc1 Hg3'
_cell_volume   319.60612069
_cell_formula_units_Z   1
loop_
 _symmetry_equiv_pos_site_id
 _symmetry_equiv_pos_as_xyz
  1  'x, y, z'
loop_
 _atom_site_type_symbol
 _atom_site_label
 _atom_site_symmetry_multiplicity
 _atom_site_fract_x
 _atom_site_fract_y
 _atom_site_fract_z
 _atom_site_occupancy
  Sc  Sc0  1  0.758148  0.490026  0.258338  1
  Sc  Sc1  1  0.758148  0.009974  0.258338  1
  Sc  Sc2  1  0.241447  0.012974  0.258338  1
  Sc  Sc3  1  0.241447  0.487026  0.258338  1
  Sc  Sc4  1  0.758220  0.490014  0.741596  1
  Sc  Sc5  1  0.758220  0.009986  0.741596  1
  Sc  Sc6  1  0.241507  0.012957  0.741708  1
  Sc  Sc7  1  0.241507  0.487043  0.741708  1
  Ga  Ga8  1  0.997958  0.250000  0.999981  1
  Ga  Ga9  1  0.002223  0.750000  0.999982  1
  Ga  Ga10  1  0.502680  0.250000  0.500015  1
  Ga  Ga11  1  0.498102  0.750000  0.500037  1
  Tc  Tc12  1  0.998109  0.250000  0.500042  1
  Hg  Hg13  1  0.502039  0.250000  0.000003  1
  Hg  Hg14  1  0.497881  0.750000  0.000013  1
  Hg  Hg15  1  0.002368  0.750000  0.499967  1
