# generated using pymatgen
data_PrTmI26
_symmetry_space_group_name_H-M   'P 1'
_cell_length_a   13.02696062
_cell_length_b   11.70421701
_cell_length_c   15.56856507
_cell_angle_alpha   123.96965282
_cell_angle_beta   87.22791727
_cell_angle_gamma   105.93849258
_symmetry_Int_Tables_number   1
_chemical_formula_structural   PrTmI26
_chemical_formula_sum   'Pr1 Tm1 I26'
_cell_volume   1876.44287586
_cell_formula_units_Z   1
loop_
 _symmetry_equiv_pos_site_id
 _symmetry_equiv_pos_as_xyz
  1  'x, y, z'
loop_
 _atom_site_type_symbol
 _atom_site_label
 _atom_site_symmetry_multiplicity
 _atom_site_fract_x
 _atom_site_fract_y
 _atom_site_fract_z
 _atom_site_occupancy
  Pr  Pr0  1  0.676038  0.135960  0.063081  1
  Tm  Tm1  1  0.326921  0.864269  0.937769  1
  I  I2  1  0.382109  0.659273  0.975960  1
  I  I3  1  0.611682  0.341831  0.017086  1
  I  I4  1  0.578878  0.807861  0.392085  1
  I  I5  1  0.426208  0.194560  0.601897  1
  I  I6  1  0.736788  0.699620  0.014850  1
  I  I7  1  0.267944  0.302476  0.988703  1
  I  I8  1  0.720365  0.977344  0.168407  1
  I  I9  1  0.283268  0.020836  0.842132  1
  I  I10  1  0.438580  0.137819  0.136138  1
  I  I11  1  0.546627  0.848769  0.857296  1
  I  I12  1  0.227949  0.644121  0.709320  1
  I  I13  1  0.764862  0.356004  0.306812  1
  I  I14  1  0.116843  0.821158  0.004497  1
  I  I15  1  0.896659  0.188280  0.995660  1
  I  I16  1  0.088013  0.096228  0.220537  1
  I  I17  1  0.914981  0.903190  0.779217  1
  I  I18  1  0.278210  0.909900  0.453219  1
  I  I19  1  0.725243  0.092288  0.542645  1
  I  I20  1  0.325650  0.413767  0.647968  1
  I  I21  1  0.673036  0.585892  0.354176  1
  I  I22  1  0.856044  0.391239  0.703136  1
  I  I23  1  0.144972  0.612838  0.294438  1
  I  I24  1  0.945843  0.669010  0.592219  1
  I  I25  1  0.049412  0.324877  0.406932  1
  I  I26  1  0.254348  0.622111  0.125770  1
  I  I27  1  0.742527  0.378476  0.868053  1
