# generated using pymatgen
data_CsK2BiSbAu3
_symmetry_space_group_name_H-M   'P 1'
_cell_length_a   8.29271356
_cell_length_b   8.29271233
_cell_length_c   8.29271231
_cell_angle_alpha   46.73723511
_cell_angle_beta   46.73724025
_cell_angle_gamma   46.73723961
_symmetry_Int_Tables_number   1
_chemical_formula_structural   CsK2BiSbAu3
_chemical_formula_sum   'Cs1 K2 Bi1 Sb1 Au3'
_cell_volume   276.28775579
_cell_formula_units_Z   1
loop_
 _symmetry_equiv_pos_site_id
 _symmetry_equiv_pos_as_xyz
  1  'x, y, z'
loop_
 _atom_site_type_symbol
 _atom_site_label
 _atom_site_symmetry_multiplicity
 _atom_site_fract_x
 _atom_site_fract_y
 _atom_site_fract_z
 _atom_site_occupancy
  Cs  Cs0  1  0.498846  0.498846  0.498846  1
  K  K1  1  0.919638  0.919638  0.919638  1
  K  K2  1  0.077895  0.077895  0.077895  1
  Bi  Bi3  1  0.242616  0.242616  0.242616  1
  Sb  Sb4  1  0.754200  0.754200  0.754200  1
  Au  Au5  1  0.005469  0.500668  0.500668  1
  Au  Au6  1  0.500668  0.005469  0.500668  1
  Au  Au7  1  0.500668  0.500668  0.005469  1
