# generated using pymatgen
data_YbDy6FeBr12
_symmetry_space_group_name_H-M   'P 1'
_cell_length_a   9.21010390
_cell_length_b   9.21010444
_cell_length_c   9.21010480
_cell_angle_alpha   106.84896073
_cell_angle_beta   106.84894682
_cell_angle_gamma   106.84894854
_symmetry_Int_Tables_number   1
_chemical_formula_structural   YbDy6FeBr12
_chemical_formula_sum   'Yb1 Dy6 Fe1 Br12'
_cell_volume   653.30027104
_cell_formula_units_Z   1
loop_
 _symmetry_equiv_pos_site_id
 _symmetry_equiv_pos_as_xyz
  1  'x, y, z'
loop_
 _atom_site_type_symbol
 _atom_site_label
 _atom_site_symmetry_multiplicity
 _atom_site_fract_x
 _atom_site_fract_y
 _atom_site_fract_z
 _atom_site_occupancy
  Yb  Yb0  1  0.000000  0.000000  0.000000  1
  Dy  Dy1  1  0.803787  0.523335  0.598207  1
  Dy  Dy2  1  0.523335  0.598207  0.803787  1
  Dy  Dy3  1  0.196213  0.476665  0.401793  1
  Dy  Dy4  1  0.476665  0.401793  0.196213  1
  Dy  Dy5  1  0.598207  0.803787  0.523335  1
  Dy  Dy6  1  0.401793  0.196213  0.476665  1
  Fe  Fe7  1  0.500000  0.500000  0.500000  1
  Br  Br8  1  0.721569  0.181987  0.572407  1
  Br  Br9  1  0.951949  0.875468  0.654334  1
  Br  Br10  1  0.572407  0.721569  0.181987  1
  Br  Br11  1  0.124532  0.345666  0.048051  1
  Br  Br12  1  0.654334  0.951949  0.875468  1
  Br  Br13  1  0.875468  0.654334  0.951949  1
  Br  Br14  1  0.048051  0.124532  0.345666  1
  Br  Br15  1  0.818013  0.427593  0.278431  1
  Br  Br16  1  0.345666  0.048051  0.124532  1
  Br  Br17  1  0.278431  0.818013  0.427593  1
  Br  Br18  1  0.181987  0.572407  0.721569  1
  Br  Br19  1  0.427593  0.278431  0.818013  1
