# generated using pymatgen
data_TbRhI18
_symmetry_space_group_name_H-M   'P 1'
_cell_length_a   10.22685696
_cell_length_b   10.22685471
_cell_length_c   10.22685574
_cell_angle_alpha   95.61138585
_cell_angle_beta   95.61138317
_cell_angle_gamma   95.61138609
_symmetry_Int_Tables_number   1
_chemical_formula_structural   TbRhI18
_chemical_formula_sum   'Tb1 Rh1 I18'
_cell_volume   1053.14566856
_cell_formula_units_Z   1
loop_
 _symmetry_equiv_pos_site_id
 _symmetry_equiv_pos_as_xyz
  1  'x, y, z'
loop_
 _atom_site_type_symbol
 _atom_site_label
 _atom_site_symmetry_multiplicity
 _atom_site_fract_x
 _atom_site_fract_y
 _atom_site_fract_z
 _atom_site_occupancy
  Tb  Tb0  1  0.500000  0.500000  0.500000  1
  Rh  Rh1  1  0.000000  0.000000  0.000000  1
  I  I2  1  0.266547  0.016125  0.025171  1
  I  I3  1  0.025171  0.266547  0.016125  1
  I  I4  1  0.016125  0.025171  0.266547  1
  I  I5  1  0.733453  0.983875  0.974829  1
  I  I6  1  0.974829  0.733453  0.983875  1
  I  I7  1  0.983875  0.974829  0.733453  1
  I  I8  1  0.639212  0.218347  0.103405  1
  I  I9  1  0.103405  0.639212  0.218347  1
  I  I10  1  0.218347  0.103405  0.639212  1
  I  I11  1  0.360788  0.781653  0.896595  1
  I  I12  1  0.896595  0.360788  0.781653  1
  I  I13  1  0.781653  0.896595  0.360788  1
  I  I14  1  0.463621  0.204693  0.528074  1
  I  I15  1  0.528074  0.463621  0.204693  1
  I  I16  1  0.204693  0.528074  0.463621  1
  I  I17  1  0.536379  0.795307  0.471926  1
  I  I18  1  0.471926  0.536379  0.795307  1
  I  I19  1  0.795307  0.471926  0.536379  1
