# generated using pymatgen
data_Tb5Dy2CoI12
_symmetry_space_group_name_H-M   'P 1'
_cell_length_a   9.76512618
_cell_length_b   9.76459862
_cell_length_c   9.76284706
_cell_angle_alpha   106.85709344
_cell_angle_beta   106.85051514
_cell_angle_gamma   106.85777179
_symmetry_Int_Tables_number   1
_chemical_formula_structural   Tb5Dy2CoI12
_chemical_formula_sum   'Tb5 Dy2 Co1 I12'
_cell_volume   778.31615654
_cell_formula_units_Z   1
loop_
 _symmetry_equiv_pos_site_id
 _symmetry_equiv_pos_as_xyz
  1  'x, y, z'
loop_
 _atom_site_type_symbol
 _atom_site_label
 _atom_site_symmetry_multiplicity
 _atom_site_fract_x
 _atom_site_fract_y
 _atom_site_fract_z
 _atom_site_occupancy
  Tb  Tb0  1  0.092222  0.288553  0.022359  1
  Tb  Tb1  1  0.288539  0.022305  0.092284  1
  Tb  Tb2  1  0.977711  0.907748  0.711383  1
  Tb  Tb3  1  0.907787  0.711507  0.977805  1
  Tb  Tb4  1  0.711490  0.977745  0.907886  1
  Dy  Dy5  1  0.499996  0.499997  0.500012  1
  Dy  Dy6  1  0.022213  0.092017  0.288118  1
  Co  Co7  1  0.000019  0.000069  0.000187  1
  I  I8  1  0.161149  0.463975  0.386989  1
  I  I9  1  0.464087  0.386991  0.161197  1
  I  I10  1  0.386891  0.161186  0.464067  1
  I  I11  1  0.838821  0.535919  0.613014  1
  I  I12  1  0.535913  0.613009  0.838805  1
  I  I13  1  0.613018  0.838820  0.535915  1
  I  I14  1  0.678368  0.072013  0.225363  1
  I  I15  1  0.071981  0.225285  0.678152  1
  I  I16  1  0.225312  0.678242  0.071997  1
  I  I17  1  0.321743  0.928002  0.774691  1
  I  I18  1  0.928052  0.774859  0.321775  1
  I  I19  1  0.774689  0.321758  0.928002  1
