# generated using pymatgen
data_Nb12Ga8FeTc3N4
_symmetry_space_group_name_H-M   'P 1'
_cell_length_a   8.29643198
_cell_length_b   8.29643181
_cell_length_c   8.29643336
_cell_angle_alpha   59.92008158
_cell_angle_beta   59.92009269
_cell_angle_gamma   59.92008204
_symmetry_Int_Tables_number   1
_chemical_formula_structural   Nb12Ga8FeTc3N4
_chemical_formula_sum   'Nb12 Ga8 Fe1 Tc3 N4'
_cell_volume   403.06134040
_cell_formula_units_Z   1
loop_
 _symmetry_equiv_pos_site_id
 _symmetry_equiv_pos_as_xyz
  1  'x, y, z'
loop_
 _atom_site_type_symbol
 _atom_site_label
 _atom_site_symmetry_multiplicity
 _atom_site_fract_x
 _atom_site_fract_y
 _atom_site_fract_z
 _atom_site_occupancy
  Nb  Nb0  1  0.805097  0.805097  0.193903  1
  Nb  Nb1  1  0.195697  0.195697  0.804161  1
  Nb  Nb2  1  0.805097  0.193903  0.805097  1
  Nb  Nb3  1  0.195697  0.804161  0.195697  1
  Nb  Nb4  1  0.193903  0.805097  0.805097  1
  Nb  Nb5  1  0.804161  0.195697  0.195697  1
  Nb  Nb6  1  0.444903  0.444903  0.056097  1
  Nb  Nb7  1  0.054303  0.054303  0.445839  1
  Nb  Nb8  1  0.444903  0.056097  0.444903  1
  Nb  Nb9  1  0.054303  0.445839  0.054303  1
  Nb  Nb10  1  0.056097  0.444903  0.444903  1
  Nb  Nb11  1  0.445839  0.054303  0.054303  1
  Ga  Ga12  1  0.757714  0.418596  0.418596  1
  Ga  Ga13  1  0.418596  0.757714  0.418596  1
  Ga  Ga14  1  0.418596  0.418596  0.757714  1
  Ga  Ga15  1  0.413236  0.413236  0.413236  1
  Ga  Ga16  1  0.492286  0.831404  0.831404  1
  Ga  Ga17  1  0.831404  0.492286  0.831404  1
  Ga  Ga18  1  0.831404  0.831404  0.492286  1
  Ga  Ga19  1  0.836764  0.836764  0.836764  1
  Fe  Fe20  1  0.625000  0.625000  0.625000  1
  Tc  Tc21  1  0.125000  0.625000  0.625000  1
  Tc  Tc22  1  0.625000  0.125000  0.625000  1
  Tc  Tc23  1  0.625000  0.625000  0.125000  1
  N  N24  1  0.625000  0.125000  0.125000  1
  N  N25  1  0.125000  0.625000  0.125000  1
  N  N26  1  0.125000  0.125000  0.625000  1
  N  N27  1  0.125000  0.125000  0.125000  1
