# generated using pymatgen
data_LuCu4Au
_symmetry_space_group_name_H-M   'P 1'
_cell_length_a   4.99133300
_cell_length_b   4.99133292
_cell_length_c   4.99133300
_cell_angle_alpha   119.99999393
_cell_angle_beta   90.00000000
_cell_angle_gamma   119.99999393
_symmetry_Int_Tables_number   1
_chemical_formula_structural   LuCu4Au
_chemical_formula_sum   'Lu1 Cu4 Au1'
_cell_volume   87.92952150
_cell_formula_units_Z   1
loop_
 _symmetry_equiv_pos_site_id
 _symmetry_equiv_pos_as_xyz
  1  'x, y, z'
loop_
 _atom_site_type_symbol
 _atom_site_label
 _atom_site_symmetry_multiplicity
 _atom_site_fract_x
 _atom_site_fract_y
 _atom_site_fract_z
 _atom_site_occupancy
  Lu  Lu0  1  0.000000  0.000000  0.000000  1
  Cu  Cu1  1  0.375650  0.751302  0.126953  1
  Cu  Cu2  1  0.375650  0.248698  0.624349  1
  Cu  Cu3  1  0.873047  0.248698  0.624349  1
  Cu  Cu4  1  0.375650  0.751302  0.624349  1
  Au  Au5  1  0.750002  0.500001  0.250001  1
