# generated using pymatgen
data_Pr7ThZn8Ir5Rh3
_symmetry_space_group_name_H-M   'P 1'
_cell_length_a   4.04796600
_cell_length_b   7.38236213
_cell_length_c   16.70478722
_cell_angle_alpha   89.70497373
_cell_angle_beta   90.00000000
_cell_angle_gamma   90.00000000
_symmetry_Int_Tables_number   1
_chemical_formula_structural   Pr7ThZn8Ir5Rh3
_chemical_formula_sum   'Pr7 Th1 Zn8 Ir5 Rh3'
_cell_volume   499.19174161
_cell_formula_units_Z   1
loop_
 _symmetry_equiv_pos_site_id
 _symmetry_equiv_pos_as_xyz
  1  'x, y, z'
loop_
 _atom_site_type_symbol
 _atom_site_label
 _atom_site_symmetry_multiplicity
 _atom_site_fract_x
 _atom_site_fract_y
 _atom_site_fract_z
 _atom_site_occupancy
  Pr  Pr0  1  0.750000  0.950461  0.283207  1
  Pr  Pr1  1  0.750000  0.829575  0.059844  1
  Pr  Pr2  1  0.250000  0.049050  0.716881  1
  Pr  Pr3  1  0.250000  0.167553  0.939920  1
  Pr  Pr4  1  0.250000  0.548396  0.783061  1
  Pr  Pr5  1  0.750000  0.333451  0.440455  1
  Pr  Pr6  1  0.250000  0.669942  0.561160  1
  Th  Th7  1  0.750000  0.449246  0.216525  1
  Zn  Zn8  1  0.250000  0.002757  0.440172  1
  Zn  Zn9  1  0.750000  0.501121  0.940369  1
  Zn  Zn10  1  0.750000  0.004426  0.560337  1
  Zn  Zn11  1  0.250000  0.626176  0.351210  1
  Zn  Zn12  1  0.750000  0.376899  0.650392  1
  Zn  Zn13  1  0.750000  0.876905  0.849889  1
  Zn  Zn14  1  0.250000  0.497738  0.057962  1
  Zn  Zn15  1  0.250000  0.119841  0.150496  1
  Ir  Ir16  1  0.250000  0.245157  0.565888  1
  Ir  Ir17  1  0.750000  0.257589  0.067445  1
  Ir  Ir18  1  0.250000  0.252070  0.307136  1
  Ir  Ir19  1  0.250000  0.743848  0.933458  1
  Ir  Ir20  1  0.250000  0.724634  0.188275  1
  Rh  Rh21  1  0.750000  0.255292  0.813449  1
  Rh  Rh22  1  0.750000  0.755913  0.686668  1
  Rh  Rh23  1  0.750000  0.761963  0.435803  1
