# generated using pymatgen
data_TbYTa2(SbRh)4
_symmetry_space_group_name_H-M   'P 1'
_cell_length_a   6.37334800
_cell_length_b   4.49377700
_cell_length_c   9.02262100
_cell_angle_alpha   90.00025451
_cell_angle_beta   89.99936784
_cell_angle_gamma   90.00032757
_symmetry_Int_Tables_number   1
_chemical_formula_structural   TbYTa2(SbRh)4
_chemical_formula_sum   'Tb1 Y1 Ta2 Sb4 Rh4'
_cell_volume   258.41151648
_cell_formula_units_Z   1
loop_
 _symmetry_equiv_pos_site_id
 _symmetry_equiv_pos_as_xyz
  1  'x, y, z'
loop_
 _atom_site_type_symbol
 _atom_site_label
 _atom_site_symmetry_multiplicity
 _atom_site_fract_x
 _atom_site_fract_y
 _atom_site_fract_z
 _atom_site_occupancy
  Tb  Tb0  1  0.005755  0.000000  0.376392  1
  Y  Y1  1  0.505776  0.500005  0.623546  1
  Ta  Ta2  1  0.494518  0.500001  0.120576  1
  Ta  Ta3  1  0.994524  0.999998  0.879424  1
  Sb  Sb4  1  0.984560  0.500002  0.124434  1
  Sb  Sb5  1  0.510242  0.000003  0.370076  1
  Sb  Sb6  1  0.010244  0.500003  0.630163  1
  Sb  Sb7  1  0.484569  0.000001  0.875352  1
  Rh  Rh8  1  0.733056  0.999999  0.108725  1
  Rh  Rh9  1  0.271709  0.500003  0.350033  1
  Rh  Rh10  1  0.772013  0.999992  0.649960  1
  Rh  Rh11  1  0.233029  0.499999  0.891315  1
