# generated using pymatgen
data_Pr2ReSi2MoC
_symmetry_space_group_name_H-M   'P 1'
_cell_length_a   3.99047158
_cell_length_b   5.97399902
_cell_length_c   6.32124842
_cell_angle_alpha   73.08642821
_cell_angle_beta   71.60056039
_cell_angle_gamma   70.48907712
_symmetry_Int_Tables_number   1
_chemical_formula_structural   Pr2ReSi2MoC
_chemical_formula_sum   'Pr2 Re1 Si2 Mo1 C1'
_cell_volume   131.84742298
_cell_formula_units_Z   1
loop_
 _symmetry_equiv_pos_site_id
 _symmetry_equiv_pos_as_xyz
  1  'x, y, z'
loop_
 _atom_site_type_symbol
 _atom_site_label
 _atom_site_symmetry_multiplicity
 _atom_site_fract_x
 _atom_site_fract_y
 _atom_site_fract_z
 _atom_site_occupancy
  Pr  Pr0  1  0.426237  0.843046  0.304480  1
  Pr  Pr1  1  0.574682  0.154016  0.696619  1
  Re  Re2  1  0.204987  0.672030  0.917997  1
  Si  Si3  1  0.853629  0.603540  0.689203  1
  Si  Si4  1  0.138031  0.408864  0.315075  1
  Mo  Mo5  1  0.798271  0.323993  0.079464  1
  C  C6  1  0.004163  0.994512  0.997161  1
