# generated using pymatgen
data_Ce4Al17SiIr5Os
_symmetry_space_group_name_H-M   'P 1'
_cell_length_a   7.61969786
_cell_length_b   7.61969650
_cell_length_c   9.40754780
_cell_angle_alpha   89.92213927
_cell_angle_beta   89.92213664
_cell_angle_gamma   119.47259635
_symmetry_Int_Tables_number   1
_chemical_formula_structural   Ce4Al17SiIr5Os
_chemical_formula_sum   'Ce4 Al17 Si1 Ir5 Os1'
_cell_volume   475.51531575
_cell_formula_units_Z   1
loop_
 _symmetry_equiv_pos_site_id
 _symmetry_equiv_pos_as_xyz
  1  'x, y, z'
loop_
 _atom_site_type_symbol
 _atom_site_label
 _atom_site_symmetry_multiplicity
 _atom_site_fract_x
 _atom_site_fract_y
 _atom_site_fract_z
 _atom_site_occupancy
  Ce  Ce0  1  0.995146  0.677155  0.248691  1
  Ce  Ce1  1  0.003382  0.327425  0.751444  1
  Ce  Ce2  1  0.677155  0.995146  0.248691  1
  Ce  Ce3  1  0.327425  0.003382  0.751444  1
  Al  Al4  1  0.871448  0.871448  0.750599  1
  Al  Al5  1  0.003517  0.337320  0.076617  1
  Al  Al6  1  0.996694  0.665392  0.924723  1
  Al  Al7  1  0.997276  0.663960  0.575354  1
  Al  Al8  1  0.337918  0.002967  0.423330  1
  Al  Al9  1  0.002967  0.337918  0.423330  1
  Al  Al10  1  0.663960  0.997276  0.575354  1
  Al  Al11  1  0.665392  0.996694  0.924723  1
  Al  Al12  1  0.337320  0.003517  0.076617  1
  Al  Al13  1  0.334225  0.334225  0.554112  1
  Al  Al14  1  0.663424  0.663424  0.449395  1
  Al  Al15  1  0.664149  0.664149  0.049431  1
  Al  Al16  1  0.333340  0.333340  0.947302  1
  Al  Al17  1  0.338718  0.548764  0.250098  1
  Al  Al18  1  0.658541  0.451123  0.749844  1
  Al  Al19  1  0.548764  0.338718  0.250098  1
  Al  Al20  1  0.451123  0.658541  0.749844  1
  Si  Si21  1  0.130589  0.130589  0.248525  1
  Ir  Ir22  1  0.671055  0.327244  0.000282  1
  Ir  Ir23  1  0.327244  0.671055  0.000282  1
  Ir  Ir24  1  0.327133  0.670783  0.499628  1
  Ir  Ir25  1  0.670783  0.327133  0.499628  1
  Ir  Ir26  1  0.000815  0.000815  0.493579  1
  Os  Os27  1  0.000497  0.000497  0.007037  1
