# generated using pymatgen
data_Tm5OsRuC7
_symmetry_space_group_name_H-M   'P 1'
_cell_length_a   8.06116350
_cell_length_b   8.06116332
_cell_length_c   3.46467500
_cell_angle_alpha   90.00000000
_cell_angle_beta   90.00000000
_cell_angle_gamma   121.40736180
_symmetry_Int_Tables_number   1
_chemical_formula_structural   Tm5OsRuC7
_chemical_formula_sum   'Tm5 Os1 Ru1 C7'
_cell_volume   192.15569423
_cell_formula_units_Z   1
loop_
 _symmetry_equiv_pos_site_id
 _symmetry_equiv_pos_as_xyz
  1  'x, y, z'
loop_
 _atom_site_type_symbol
 _atom_site_label
 _atom_site_symmetry_multiplicity
 _atom_site_fract_x
 _atom_site_fract_y
 _atom_site_fract_z
 _atom_site_occupancy
  Tm  Tm0  1  0.500187  0.499813  0.000000  1
  Tm  Tm1  1  0.077659  0.337683  0.500000  1
  Tm  Tm2  1  0.921053  0.659831  0.500000  1
  Tm  Tm3  1  0.662317  0.922341  0.500000  1
  Tm  Tm4  1  0.340169  0.078947  0.500000  1
  Os  Os5  1  0.286035  0.713965  0.000000  1
  Ru  Ru6  1  0.713627  0.286373  0.000000  1
  C  C7  1  0.627717  0.372283  0.500000  1
  C  C8  1  0.370058  0.629942  0.500000  1
  C  C9  1  0.999650  0.000350  0.000000  1
  C  C10  1  0.172599  0.172165  0.000000  1
  C  C11  1  0.827835  0.827401  0.000000  1
  C  C12  1  0.002075  0.500980  0.000000  1
  C  C13  1  0.499020  0.997925  0.000000  1
