# generated using pymatgen
data_Cs3DyV2O8
_symmetry_space_group_name_H-M   'P 1'
_cell_length_a   6.17253600
_cell_length_b   6.17253465
_cell_length_c   8.42050900
_cell_angle_alpha   90.00000000
_cell_angle_beta   90.00000000
_cell_angle_gamma   119.99999652
_symmetry_Int_Tables_number   1
_chemical_formula_structural   Cs3DyV2O8
_chemical_formula_sum   'Cs3 Dy1 V2 O8'
_cell_volume   277.84088867
_cell_formula_units_Z   1
loop_
 _symmetry_equiv_pos_site_id
 _symmetry_equiv_pos_as_xyz
  1  'x, y, z'
loop_
 _atom_site_type_symbol
 _atom_site_label
 _atom_site_symmetry_multiplicity
 _atom_site_fract_x
 _atom_site_fract_y
 _atom_site_fract_z
 _atom_site_occupancy
  Cs  Cs0  1  0.333333  0.666667  0.725776  1
  Cs  Cs1  1  0.666667  0.333333  0.274224  1
  Cs  Cs2  1  0.000000  0.000000  0.000000  1
  Dy  Dy3  1  0.000000  0.000000  0.500000  1
  V  V4  1  0.333333  0.666667  0.278915  1
  V  V5  1  0.666667  0.333333  0.721085  1
  O  O6  1  0.333333  0.666667  0.077873  1
  O  O7  1  0.666667  0.333333  0.922127  1
  O  O8  1  0.176257  0.823743  0.345801  1
  O  O9  1  0.823743  0.176257  0.654199  1
  O  O10  1  0.176257  0.352514  0.345801  1
  O  O11  1  0.823743  0.647486  0.654199  1
  O  O12  1  0.647486  0.823743  0.345801  1
  O  O13  1  0.352514  0.176257  0.654199  1
