# generated using pymatgen
data_CeY3(AlRu)4
_symmetry_space_group_name_H-M   'P 1'
_cell_length_a   7.04795353
_cell_length_b   4.00428400
_cell_length_c   8.19167186
_cell_angle_alpha   90.00000000
_cell_angle_beta   91.02868262
_cell_angle_gamma   90.00000000
_symmetry_Int_Tables_number   1
_chemical_formula_structural   CeY3(AlRu)4
_chemical_formula_sum   'Ce1 Y3 Al4 Ru4'
_cell_volume   231.14816580
_cell_formula_units_Z   1
loop_
 _symmetry_equiv_pos_site_id
 _symmetry_equiv_pos_as_xyz
  1  'x, y, z'
loop_
 _atom_site_type_symbol
 _atom_site_label
 _atom_site_symmetry_multiplicity
 _atom_site_fract_x
 _atom_site_fract_y
 _atom_site_fract_z
 _atom_site_occupancy
  Ce  Ce0  1  0.528606  0.750000  0.684371  1
  Y  Y1  1  0.962511  0.250000  0.177264  1
  Y  Y2  1  0.467524  0.250000  0.318521  1
  Y  Y3  1  0.032695  0.750000  0.819821  1
  Al  Al4  1  0.872003  0.250000  0.557724  1
  Al  Al5  1  0.357460  0.250000  0.947555  1
  Al  Al6  1  0.138622  0.750000  0.439943  1
  Al  Al7  1  0.632771  0.750000  0.060462  1
  Ru  Ru8  1  0.720276  0.250000  0.863942  1
  Ru  Ru9  1  0.249967  0.250000  0.627421  1
  Ru  Ru10  1  0.265055  0.750000  0.125819  1
  Ru  Ru11  1  0.772510  0.750000  0.377156  1
