# generated using pymatgen
data_Zr2U(ZnIr)3
_symmetry_space_group_name_H-M   'P 1'
_cell_length_a   7.01846017
_cell_length_b   7.23010002
_cell_length_c   3.69494000
_cell_angle_alpha   90.00000000
_cell_angle_beta   90.00000000
_cell_angle_gamma   121.00263087
_symmetry_Int_Tables_number   1
_chemical_formula_structural   Zr2U(ZnIr)3
_chemical_formula_sum   'Zr2 U1 Zn3 Ir3'
_cell_volume   160.71157157
_cell_formula_units_Z   1
loop_
 _symmetry_equiv_pos_site_id
 _symmetry_equiv_pos_as_xyz
  1  'x, y, z'
loop_
 _atom_site_type_symbol
 _atom_site_label
 _atom_site_symmetry_multiplicity
 _atom_site_fract_x
 _atom_site_fract_y
 _atom_site_fract_z
 _atom_site_occupancy
  Zr  Zr0  1  0.400907  0.399167  0.500000  1
  Zr  Zr1  1  0.599093  0.998259  0.500000  1
  U  U2  1  0.000000  0.588181  0.500000  1
  Zn  Zn3  1  0.730730  0.743403  0.000000  1
  Zn  Zn4  1  0.269270  0.012674  0.000000  1
  Zn  Zn5  1  0.000000  0.242353  0.000000  1
  Ir  Ir6  1  0.685314  0.353405  0.000000  1
  Ir  Ir7  1  0.314686  0.668093  0.000000  1
  Ir  Ir8  1  0.000000  0.994466  0.500000  1
