# generated using pymatgen
data_Ca4Ac3Ni4Sn13
_symmetry_space_group_name_H-M   'P 1'
_cell_length_a   11.45154600
_cell_length_b   11.45154600
_cell_length_c   4.71737800
_cell_angle_alpha   90.00000000
_cell_angle_beta   90.00000000
_cell_angle_gamma   90.00000000
_symmetry_Int_Tables_number   1
_chemical_formula_structural   Ca4Ac3Ni4Sn13
_chemical_formula_sum   'Ca4 Ac3 Ni4 Sn13'
_cell_volume   618.62707174
_cell_formula_units_Z   1
loop_
 _symmetry_equiv_pos_site_id
 _symmetry_equiv_pos_as_xyz
  1  'x, y, z'
loop_
 _atom_site_type_symbol
 _atom_site_label
 _atom_site_symmetry_multiplicity
 _atom_site_fract_x
 _atom_site_fract_y
 _atom_site_fract_z
 _atom_site_occupancy
  Ca  Ca0  1  0.838709  0.170449  0.000000  1
  Ca  Ca1  1  0.829551  0.838709  0.000000  1
  Ca  Ca2  1  0.161291  0.829551  0.000000  1
  Ca  Ca3  1  0.170449  0.161291  0.000000  1
  Ac  Ac4  1  0.500000  0.500000  0.500000  1
  Ac  Ac5  1  0.000000  0.500000  0.000000  1
  Ac  Ac6  1  0.500000  0.000000  0.000000  1
  Ni  Ni7  1  0.778217  0.618144  0.500000  1
  Ni  Ni8  1  0.381856  0.778217  0.500000  1
  Ni  Ni9  1  0.618144  0.221783  0.500000  1
  Ni  Ni10  1  0.221783  0.381856  0.500000  1
  Sn  Sn11  1  0.019732  0.278452  0.500000  1
  Sn  Sn12  1  0.980268  0.721548  0.500000  1
  Sn  Sn13  1  0.214209  0.614478  0.500000  1
  Sn  Sn14  1  0.577345  0.302580  0.000000  1
  Sn  Sn15  1  0.697420  0.577345  0.000000  1
  Sn  Sn16  1  0.785791  0.385522  0.500000  1
  Sn  Sn17  1  0.721548  0.019732  0.500000  1
  Sn  Sn18  1  0.000000  0.000000  0.500000  1
  Sn  Sn19  1  0.278452  0.980268  0.500000  1
  Sn  Sn20  1  0.422655  0.697420  0.000000  1
  Sn  Sn21  1  0.614478  0.785791  0.500000  1
  Sn  Sn22  1  0.302580  0.422655  0.000000  1
  Sn  Sn23  1  0.385522  0.214209  0.500000  1
