# generated using pymatgen
data_Y3Sn2Pd2RhPb
_symmetry_space_group_name_H-M   'P 1'
_cell_length_a   7.78718800
_cell_length_b   7.74001284
_cell_length_c   3.83023400
_cell_angle_alpha   90.00000000
_cell_angle_beta   90.00000000
_cell_angle_gamma   120.20182569
_symmetry_Int_Tables_number   1
_chemical_formula_structural   Y3Sn2Pd2RhPb
_chemical_formula_sum   'Y3 Sn2 Pd2 Rh1 Pb1'
_cell_volume   199.52230095
_cell_formula_units_Z   1
loop_
 _symmetry_equiv_pos_site_id
 _symmetry_equiv_pos_as_xyz
  1  'x, y, z'
loop_
 _atom_site_type_symbol
 _atom_site_label
 _atom_site_symmetry_multiplicity
 _atom_site_fract_x
 _atom_site_fract_y
 _atom_site_fract_z
 _atom_site_occupancy
  Y  Y0  1  0.397073  0.000000  0.500000  1
  Y  Y1  1  0.002529  0.402271  0.500000  1
  Y  Y2  1  0.600257  0.597729  0.500000  1
  Sn  Sn3  1  0.001064  0.739465  0.000000  1
  Sn  Sn4  1  0.261598  0.260535  0.000000  1
  Pd  Pd5  1  0.327069  0.661810  0.000000  1
  Pd  Pd6  1  0.665259  0.338190  0.000000  1
  Rh  Rh7  1  0.008346  0.000000  0.500000  1
  Pb  Pb8  1  0.736805  0.000000  0.000000  1
