# generated using pymatgen
data_Hf7ZrIn4Ir3Au5
_symmetry_space_group_name_H-M   'P 1'
_cell_length_a   7.60351166
_cell_length_b   7.60351317
_cell_length_c   6.92670523
_cell_angle_alpha   90.12217374
_cell_angle_beta   90.12217611
_cell_angle_gamma   89.83255073
_symmetry_Int_Tables_number   1
_chemical_formula_structural   Hf7ZrIn4Ir3Au5
_chemical_formula_sum   'Hf7 Zr1 In4 Ir3 Au5'
_cell_volume   400.45286221
_cell_formula_units_Z   1
loop_
 _symmetry_equiv_pos_site_id
 _symmetry_equiv_pos_as_xyz
  1  'x, y, z'
loop_
 _atom_site_type_symbol
 _atom_site_label
 _atom_site_symmetry_multiplicity
 _atom_site_fract_x
 _atom_site_fract_y
 _atom_site_fract_z
 _atom_site_occupancy
  Hf  Hf0  1  0.150125  0.150125  0.008786  1
  Hf  Hf1  1  0.836176  0.836176  0.996215  1
  Hf  Hf2  1  0.647284  0.361743  0.490361  1
  Hf  Hf3  1  0.361743  0.647284  0.490361  1
  Hf  Hf4  1  0.681181  0.334857  0.007131  1
  Hf  Hf5  1  0.334857  0.681181  0.007131  1
  Hf  Hf6  1  0.802168  0.802168  0.502096  1
  Zr  Zr7  1  0.195815  0.195815  0.490805  1
  In  In8  1  0.500724  0.004632  0.243857  1
  In  In9  1  0.498697  0.997030  0.752167  1
  In  In10  1  0.004632  0.500724  0.243857  1
  In  In11  1  0.997030  0.498697  0.752167  1
  Ir  Ir12  1  0.369366  0.369366  0.219938  1
  Ir  Ir13  1  0.628379  0.628379  0.774982  1
  Ir  Ir14  1  0.635159  0.635159  0.219970  1
  Au  Au15  1  0.866088  0.130167  0.715741  1
  Au  Au16  1  0.866369  0.127811  0.286202  1
  Au  Au17  1  0.366227  0.366227  0.796289  1
  Au  Au18  1  0.127811  0.866369  0.286202  1
  Au  Au19  1  0.130167  0.866088  0.715741  1
