# generated using pymatgen
data_Ba2Cd8PdPt3
_symmetry_space_group_name_H-M   'P 1'
_cell_length_a   8.56238496
_cell_length_b   8.56238496
_cell_length_c   4.51678500
_cell_angle_alpha   90.00000000
_cell_angle_beta   90.00000000
_cell_angle_gamma   90.12332562
_symmetry_Int_Tables_number   1
_chemical_formula_structural   Ba2Cd8PdPt3
_chemical_formula_sum   'Ba2 Cd8 Pd1 Pt3'
_cell_volume   331.14477853
_cell_formula_units_Z   1
loop_
 _symmetry_equiv_pos_site_id
 _symmetry_equiv_pos_as_xyz
  1  'x, y, z'
loop_
 _atom_site_type_symbol
 _atom_site_label
 _atom_site_symmetry_multiplicity
 _atom_site_fract_x
 _atom_site_fract_y
 _atom_site_fract_z
 _atom_site_occupancy
  Ba  Ba0  1  0.499365  0.500635  0.500000  1
  Ba  Ba1  1  0.002204  0.997796  0.000000  1
  Cd  Cd2  1  0.343898  0.089294  0.500000  1
  Cd  Cd3  1  0.656210  0.910733  0.500000  1
  Cd  Cd4  1  0.842677  0.410259  0.000000  1
  Cd  Cd5  1  0.156666  0.589716  0.000000  1
  Cd  Cd6  1  0.089267  0.343790  0.500000  1
  Cd  Cd7  1  0.910706  0.656102  0.500000  1
  Cd  Cd8  1  0.410284  0.843334  0.000000  1
  Cd  Cd9  1  0.589741  0.157323  0.000000  1
  Pd  Pd10  1  0.779232  0.220768  0.500000  1
  Pt  Pt11  1  0.220095  0.779905  0.500000  1
  Pt  Pt12  1  0.279367  0.279712  0.000000  1
  Pt  Pt13  1  0.720288  0.720633  0.000000  1
