# generated using pymatgen
data_Sc5Co9(P6Ru5)2
_symmetry_space_group_name_H-M   'P 1'
_cell_length_a   12.20681650
_cell_length_b   12.14198633
_cell_length_c   3.70697000
_cell_angle_alpha   90.00000000
_cell_angle_beta   90.00000000
_cell_angle_gamma   119.64887398
_symmetry_Int_Tables_number   1
_chemical_formula_structural   Sc5Co9(P6Ru5)2
_chemical_formula_sum   'Sc5 Co9 P12 Ru10'
_cell_volume   477.49367363
_cell_formula_units_Z   1
loop_
 _symmetry_equiv_pos_site_id
 _symmetry_equiv_pos_as_xyz
  1  'x, y, z'
loop_
 _atom_site_type_symbol
 _atom_site_label
 _atom_site_symmetry_multiplicity
 _atom_site_fract_x
 _atom_site_fract_y
 _atom_site_fract_z
 _atom_site_occupancy
  Sc  Sc0  1  0.663306  0.332704  0.000000  1
  Sc  Sc1  1  0.332213  0.666406  0.000000  1
  Sc  Sc2  1  0.181271  0.180244  0.500000  1
  Sc  Sc3  1  0.820525  0.998074  0.500000  1
  Sc  Sc4  1  0.999409  0.821739  0.500000  1
  Co  Co5  1  0.805812  0.633655  0.000000  1
  Co  Co6  1  0.364565  0.171290  0.000000  1
  Co  Co7  1  0.192175  0.828601  0.000000  1
  Co  Co8  1  0.631972  0.803324  0.000000  1
  Co  Co9  1  0.176929  0.367605  0.000000  1
  Co  Co10  1  0.720946  0.720834  0.500000  1
  Co  Co11  1  0.276791  0.999980  0.500000  1
  Co  Co12  1  0.008806  0.283333  0.500000  1
  Co  Co13  1  0.999210  0.998270  0.000000  1
  P  P14  1  0.359091  0.358350  0.000000  1
  P  P15  1  0.636989  0.995953  0.000000  1
  P  P16  1  0.000169  0.642657  0.000000  1
  P  P17  1  0.837490  0.316677  0.500000  1
  P  P18  1  0.683740  0.521728  0.500000  1
  P  P19  1  0.474449  0.159640  0.500000  1
  P  P20  1  0.316517  0.839863  0.500000  1
  P  P21  1  0.522620  0.682112  0.500000  1
  P  P22  1  0.163274  0.480525  0.500000  1
  P  P23  1  0.823590  0.824497  0.000000  1
  P  P24  1  0.174415  0.000495  0.000000  1
  P  P25  1  0.007152  0.177631  0.000000  1
  Ru  Ru26  1  0.556202  0.554200  0.000000  1
  Ru  Ru27  1  0.439497  0.995773  0.000000  1
  Ru  Ru28  1  0.008621  0.450174  0.000000  1
  Ru  Ru29  1  0.828069  0.194625  0.000000  1
  Ru  Ru30  1  0.641183  0.127046  0.500000  1
  Ru  Ru31  1  0.871232  0.519174  0.500000  1
  Ru  Ru32  1  0.481466  0.351095  0.500000  1
  Ru  Ru33  1  0.131240  0.651839  0.500000  1
  Ru  Ru34  1  0.516749  0.867653  0.500000  1
  Ru  Ru35  1  0.352316  0.482230  0.500000  1
