# generated using pymatgen
data_Li6ScAs5Rh12
_symmetry_space_group_name_H-M   'P 1'
_cell_length_a   4.22253001
_cell_length_b   5.93726300
_cell_length_c   12.76485004
_cell_angle_alpha   90.00000000
_cell_angle_beta   90.00888984
_cell_angle_gamma   90.00000000
_symmetry_Int_Tables_number   1
_chemical_formula_structural   Li6ScAs5Rh12
_chemical_formula_sum   'Li6 Sc1 As5 Rh12'
_cell_volume   320.01824858
_cell_formula_units_Z   1
loop_
 _symmetry_equiv_pos_site_id
 _symmetry_equiv_pos_as_xyz
  1  'x, y, z'
loop_
 _atom_site_type_symbol
 _atom_site_label
 _atom_site_symmetry_multiplicity
 _atom_site_fract_x
 _atom_site_fract_y
 _atom_site_fract_z
 _atom_site_occupancy
  Li  Li0  1  0.000000  0.000000  0.000000  1
  Li  Li1  1  0.499617  0.500001  0.166992  1
  Li  Li2  1  0.999563  0.000000  0.336238  1
  Li  Li3  1  0.499999  0.500001  0.500000  1
  Li  Li4  1  0.000438  0.000000  0.663761  1
  Li  Li5  1  0.500384  0.500001  0.833007  1
  Sc  Sc6  1  0.000000  0.500001  0.000000  1
  As  As7  1  0.499616  0.000000  0.165431  1
  As  As8  1  0.999628  0.500001  0.332771  1
  As  As9  1  0.499999  0.000000  0.500000  1
  As  As10  1  0.000371  0.500001  0.667228  1
  As  As11  1  0.500386  0.000000  0.834569  1
  Rh  Rh12  1  0.499999  0.237223  0.000000  1
  Rh  Rh13  1  0.499999  0.762778  0.000000  1
  Rh  Rh14  1  0.999641  0.244594  0.174950  1
  Rh  Rh15  1  0.999641  0.755405  0.174950  1
  Rh  Rh16  1  0.499709  0.249758  0.336542  1
  Rh  Rh17  1  0.499709  0.750242  0.336542  1
  Rh  Rh18  1  0.000000  0.251076  0.500000  1
  Rh  Rh19  1  0.000000  0.748925  0.500000  1
  Rh  Rh20  1  0.500290  0.249758  0.663458  1
  Rh  Rh21  1  0.500290  0.750242  0.663458  1
  Rh  Rh22  1  0.000361  0.244594  0.825050  1
  Rh  Rh23  1  0.000361  0.755405  0.825050  1
