# generated using pymatgen
data_Ba2Ga6ReOs
_symmetry_space_group_name_H-M   'P 1'
_cell_length_a   6.95574623
_cell_length_b   6.95574588
_cell_length_c   6.95574600
_cell_angle_alpha   59.99999942
_cell_angle_beta   60.00000108
_cell_angle_gamma   89.99999411
_symmetry_Int_Tables_number   1
_chemical_formula_structural   Ba2Ga6ReOs
_chemical_formula_sum   'Ba2 Ga6 Re1 Os1'
_cell_volume   237.96669465
_cell_formula_units_Z   1
loop_
 _symmetry_equiv_pos_site_id
 _symmetry_equiv_pos_as_xyz
  1  'x, y, z'
loop_
 _atom_site_type_symbol
 _atom_site_label
 _atom_site_symmetry_multiplicity
 _atom_site_fract_x
 _atom_site_fract_y
 _atom_site_fract_z
 _atom_site_occupancy
  Ba  Ba0  1  0.250002  0.750000  0.499999  1
  Ba  Ba1  1  0.750001  0.249999  0.500001  1
  Ga  Ga2  1  0.250762  0.250762  0.000000  1
  Ga  Ga3  1  0.749236  0.250764  0.000000  1
  Ga  Ga4  1  0.250762  0.749238  0.000000  1
  Ga  Ga5  1  0.749238  0.749238  0.000000  1
  Ga  Ga6  1  0.250763  0.250763  0.498473  1
  Ga  Ga7  1  0.749237  0.749237  0.501528  1
  Re  Re8  1  0.000000  0.000000  0.000000  1
  Os  Os9  1  0.500000  0.500000  0.000000  1
