# generated using pymatgen
data_Ba2AcLaSi4
_symmetry_space_group_name_H-M   'P 1'
_cell_length_a   7.82007624
_cell_length_b   7.82007471
_cell_length_c   6.86355100
_cell_angle_alpha   90.00000000
_cell_angle_beta   90.00000000
_cell_angle_gamma   145.04540789
_symmetry_Int_Tables_number   1
_chemical_formula_structural   Ba2AcLaSi4
_chemical_formula_sum   'Ba2 Ac1 La1 Si4'
_cell_volume   240.47508788
_cell_formula_units_Z   1
loop_
 _symmetry_equiv_pos_site_id
 _symmetry_equiv_pos_as_xyz
  1  'x, y, z'
loop_
 _atom_site_type_symbol
 _atom_site_label
 _atom_site_symmetry_multiplicity
 _atom_site_fract_x
 _atom_site_fract_y
 _atom_site_fract_z
 _atom_site_occupancy
  Ba  Ba0  1  0.278188  0.721812  0.750000  1
  Ba  Ba1  1  0.722900  0.277100  0.250000  1
  Ac  Ac2  1  0.550028  0.449972  0.750000  1
  La  La3  1  0.452081  0.547919  0.250000  1
  Si  Si4  1  0.922666  0.077334  0.934205  1
  Si  Si5  1  0.075735  0.924265  0.072179  1
  Si  Si6  1  0.922666  0.077334  0.565795  1
  Si  Si7  1  0.075735  0.924265  0.427821  1
