# generated using pymatgen
data_Pr10Si4BiPt
_symmetry_space_group_name_H-M   'P 1'
_cell_length_a   7.74082800
_cell_length_b   9.33562529
_cell_length_c   7.74082800
_cell_angle_alpha   114.49321698
_cell_angle_beta   90.00000000
_cell_angle_gamma   114.49321698
_symmetry_Int_Tables_number   1
_chemical_formula_structural   Pr10Si4BiPt
_chemical_formula_sum   'Pr10 Si4 Bi1 Pt1'
_cell_volume   453.15715014
_cell_formula_units_Z   1
loop_
 _symmetry_equiv_pos_site_id
 _symmetry_equiv_pos_as_xyz
  1  'x, y, z'
loop_
 _atom_site_type_symbol
 _atom_site_label
 _atom_site_symmetry_multiplicity
 _atom_site_fract_x
 _atom_site_fract_y
 _atom_site_fract_z
 _atom_site_occupancy
  Pr  Pr0  1  0.974626  0.949253  0.974626  1
  Pr  Pr1  1  0.525374  0.050747  0.525374  1
  Pr  Pr2  1  0.519407  0.721523  0.666407  1
  Pr  Pr3  1  0.202117  0.721523  0.055118  1
  Pr  Pr4  1  0.666407  0.721523  0.202117  1
  Pr  Pr5  1  0.055118  0.721523  0.519407  1
  Pr  Pr6  1  0.444882  0.278477  0.297883  1
  Pr  Pr7  1  0.833593  0.278477  0.980593  1
  Pr  Pr8  1  0.297883  0.278477  0.833593  1
  Pr  Pr9  1  0.980593  0.278477  0.444882  1
  Si  Si10  1  0.884799  0.000000  0.615201  1
  Si  Si11  1  0.115201  0.000000  0.384799  1
  Si  Si12  1  0.615201  0.000000  0.115201  1
  Si  Si13  1  0.384799  0.000000  0.884799  1
  Bi  Bi14  1  0.750000  0.500000  0.750000  1
  Pt  Pt15  1  0.250000  0.500000  0.250000  1
