# generated using pymatgen
data_Hf3Al3OsPdPt
_symmetry_space_group_name_H-M   'P 1'
_cell_length_a   7.36564300
_cell_length_b   7.36564329
_cell_length_c   6.67672200
_cell_angle_alpha   90.00000000
_cell_angle_beta   90.00000000
_cell_angle_gamma   120.00000319
_symmetry_Int_Tables_number   1
_chemical_formula_structural   Hf3Al3OsPdPt
_chemical_formula_sum   'Hf6 Al6 Os2 Pd2 Pt2'
_cell_volume   313.70053527
_cell_formula_units_Z   2
loop_
 _symmetry_equiv_pos_site_id
 _symmetry_equiv_pos_as_xyz
  1  'x, y, z'
loop_
 _atom_site_type_symbol
 _atom_site_label
 _atom_site_symmetry_multiplicity
 _atom_site_fract_x
 _atom_site_fract_y
 _atom_site_fract_z
 _atom_site_occupancy
  Hf  Hf0  1  0.605356  0.009119  0.750000  1
  Hf  Hf1  1  0.990881  0.596238  0.750000  1
  Hf  Hf2  1  0.403762  0.394644  0.750000  1
  Hf  Hf3  1  0.989783  0.596138  0.250000  1
  Hf  Hf4  1  0.606355  0.010217  0.250000  1
  Hf  Hf5  1  0.403862  0.393645  0.250000  1
  Al  Al6  1  0.732489  0.732692  0.999852  1
  Al  Al7  1  0.267308  0.999797  0.999852  1
  Al  Al8  1  0.000203  0.267511  0.999852  1
  Al  Al9  1  0.732489  0.732692  0.500148  1
  Al  Al10  1  0.267308  0.999797  0.500148  1
  Al  Al11  1  0.000203  0.267511  0.500148  1
  Os  Os12  1  0.666667  0.333333  0.999611  1
  Os  Os13  1  0.666667  0.333333  0.500389  1
  Pd  Pd14  1  0.000000  0.000000  0.750000  1
  Pd  Pd15  1  0.000000  0.000000  0.250000  1
  Pt  Pt16  1  0.333333  0.666667  0.498818  1
  Pt  Pt17  1  0.333333  0.666667  0.001183  1
