# generated using pymatgen
data_SmHo5(AuO7)2
_symmetry_space_group_name_H-M   'P 1'
_cell_length_a   6.48769908
_cell_length_b   6.48769895
_cell_length_c   7.45571148
_cell_angle_alpha   90.06262176
_cell_angle_beta   89.93736727
_cell_angle_gamma   108.79300145
_symmetry_Int_Tables_number   1
_chemical_formula_structural   SmHo5(AuO7)2
_chemical_formula_sum   'Sm1 Ho5 Au2 O14'
_cell_volume   297.08261877
_cell_formula_units_Z   1
loop_
 _symmetry_equiv_pos_site_id
 _symmetry_equiv_pos_as_xyz
  1  'x, y, z'
loop_
 _atom_site_type_symbol
 _atom_site_label
 _atom_site_symmetry_multiplicity
 _atom_site_fract_x
 _atom_site_fract_y
 _atom_site_fract_z
 _atom_site_occupancy
  Sm  Sm0  1  0.500000  0.500000  0.000000  1
  Ho  Ho1  1  0.500000  0.500000  0.500000  1
  Ho  Ho2  1  0.528942  0.998258  0.748077  1
  Ho  Ho3  1  0.998258  0.528942  0.251923  1
  Ho  Ho4  1  0.471058  0.001742  0.251923  1
  Ho  Ho5  1  0.001742  0.471058  0.748077  1
  Au  Au6  1  0.000000  0.000000  0.500000  1
  Au  Au7  1  0.000000  0.000000  0.000000  1
  O  O8  1  0.670231  0.918474  0.475311  1
  O  O9  1  0.918474  0.670231  0.524689  1
  O  O10  1  0.669858  0.922322  0.024201  1
  O  O11  1  0.922322  0.669858  0.975799  1
  O  O12  1  0.329769  0.081526  0.524689  1
  O  O13  1  0.081526  0.329769  0.475311  1
  O  O14  1  0.330142  0.077678  0.975799  1
  O  O15  1  0.077678  0.330142  0.024201  1
  O  O16  1  0.920501  0.079499  0.749956  1
  O  O17  1  0.079499  0.920501  0.250044  1
  O  O18  1  0.365911  0.634089  0.743867  1
  O  O19  1  0.634089  0.365911  0.256133  1
  O  O20  1  0.640657  0.359343  0.743850  1
  O  O21  1  0.359343  0.640657  0.256150  1
