# generated using pymatgen
data_Lu8InAgRh2
_symmetry_space_group_name_H-M   'P 1'
_cell_length_a   9.39341803
_cell_length_b   9.39341856
_cell_length_c   9.39045500
_cell_angle_alpha   60.01043941
_cell_angle_beta   60.01043753
_cell_angle_gamma   60.13898572
_symmetry_Int_Tables_number   1
_chemical_formula_structural   Lu8InAgRh2
_chemical_formula_sum   'Lu16 In2 Ag2 Rh4'
_cell_volume   586.59953047
_cell_formula_units_Z   2
loop_
 _symmetry_equiv_pos_site_id
 _symmetry_equiv_pos_as_xyz
  1  'x, y, z'
loop_
 _atom_site_type_symbol
 _atom_site_label
 _atom_site_symmetry_multiplicity
 _atom_site_fract_x
 _atom_site_fract_y
 _atom_site_fract_z
 _atom_site_occupancy
  Lu  Lu0  1  0.600545  0.600545  0.601964  1
  Lu  Lu1  1  0.600545  0.600545  0.196947  1
  Lu  Lu2  1  0.599631  0.197671  0.601349  1
  Lu  Lu3  1  0.197671  0.599631  0.601349  1
  Lu  Lu4  1  0.060904  0.438988  0.439865  1
  Lu  Lu5  1  0.438988  0.060904  0.060243  1
  Lu  Lu6  1  0.438988  0.060904  0.439865  1
  Lu  Lu7  1  0.060904  0.438988  0.060243  1
  Lu  Lu8  1  0.441052  0.441052  0.058948  1
  Lu  Lu9  1  0.060703  0.060703  0.439297  1
  Lu  Lu10  1  0.181437  0.812851  0.815171  1
  Lu  Lu11  1  0.812851  0.181437  0.190541  1
  Lu  Lu12  1  0.812851  0.181437  0.815171  1
  Lu  Lu13  1  0.181437  0.812851  0.190541  1
  Lu  Lu14  1  0.811148  0.811148  0.188852  1
  Lu  Lu15  1  0.185476  0.185476  0.814524  1
  In  In16  1  0.835231  0.506333  0.829218  1
  In  In17  1  0.506333  0.835231  0.829218  1
  Ag  Ag18  1  0.835369  0.835369  0.830981  1
  Ag  Ag19  1  0.835369  0.835369  0.498281  1
  Rh  Rh20  1  0.393257  0.393257  0.392107  1
  Rh  Rh21  1  0.393257  0.393257  0.821379  1
  Rh  Rh22  1  0.394505  0.821548  0.391973  1
  Rh  Rh23  1  0.821548  0.394505  0.391973  1
