# generated using pymatgen
data_LiHo6Co6Ni11P12
_symmetry_space_group_name_H-M   'P 1'
_cell_length_a   3.74362400
_cell_length_b   10.48421400
_cell_length_c   12.26719300
_cell_angle_alpha   90.00000000
_cell_angle_beta   90.00000000
_cell_angle_gamma   90.00000000
_symmetry_Int_Tables_number   1
_chemical_formula_structural   LiHo6Co6Ni11P12
_chemical_formula_sum   'Li1 Ho6 Co6 Ni11 P12'
_cell_volume   481.47450789
_cell_formula_units_Z   1
loop_
 _symmetry_equiv_pos_site_id
 _symmetry_equiv_pos_as_xyz
  1  'x, y, z'
loop_
 _atom_site_type_symbol
 _atom_site_label
 _atom_site_symmetry_multiplicity
 _atom_site_fract_x
 _atom_site_fract_y
 _atom_site_fract_z
 _atom_site_occupancy
  Li  Li0  1  0.500000  0.500000  0.151298  1
  Ho  Ho1  1  0.000000  0.500000  0.522171  1
  Ho  Ho2  1  0.500000  0.000000  0.478964  1
  Ho  Ho3  1  0.500000  0.816732  0.206830  1
  Ho  Ho4  1  0.500000  0.183268  0.206830  1
  Ho  Ho5  1  0.000000  0.683999  0.794792  1
  Ho  Ho6  1  0.000000  0.316001  0.794792  1
  Co  Co7  1  0.000000  0.500000  0.985846  1
  Co  Co8  1  0.500000  0.000000  0.015457  1
  Co  Co9  1  0.500000  0.331854  0.994713  1
  Co  Co10  1  0.500000  0.668146  0.994713  1
  Co  Co11  1  0.000000  0.163611  0.003208  1
  Co  Co12  1  0.000000  0.836389  0.003208  1
  Ni  Ni13  1  0.500000  0.300361  0.429919  1
  Ni  Ni14  1  0.500000  0.699639  0.429919  1
  Ni  Ni15  1  0.000000  0.198887  0.570913  1
  Ni  Ni16  1  0.000000  0.801113  0.570913  1
  Ni  Ni17  1  0.500000  0.879148  0.713172  1
  Ni  Ni18  1  0.500000  0.120852  0.713172  1
  Ni  Ni19  1  0.000000  0.620703  0.287434  1
  Ni  Ni20  1  0.000000  0.379297  0.287434  1
  Ni  Ni21  1  0.000000  0.000000  0.841052  1
  Ni  Ni22  1  0.500000  0.500000  0.703990  1
  Ni  Ni23  1  0.000000  0.000000  0.296847  1
  P  P24  1  0.500000  0.313683  0.616918  1
  P  P25  1  0.500000  0.686317  0.616918  1
  P  P26  1  0.000000  0.185953  0.384926  1
  P  P27  1  0.000000  0.814047  0.384926  1
  P  P28  1  0.500000  0.500000  0.882739  1
  P  P29  1  0.000000  0.000000  0.118500  1
  P  P30  1  0.500000  0.846915  0.895739  1
  P  P31  1  0.500000  0.153085  0.895739  1
  P  P32  1  0.000000  0.659056  0.100980  1
  P  P33  1  0.000000  0.340944  0.100980  1
  P  P34  1  0.500000  0.500000  0.348189  1
  P  P35  1  0.000000  0.000000  0.655857  1
