# generated using pymatgen
data_Ho14Er2CdNi4Ag3
_symmetry_space_group_name_H-M   'P 1'
_cell_length_a   9.42052065
_cell_length_b   9.44011462
_cell_length_c   9.44013462
_cell_angle_alpha   59.97026826
_cell_angle_beta   59.89372983
_cell_angle_gamma   59.84358913
_symmetry_Int_Tables_number   1
_chemical_formula_structural   Ho14Er2CdNi4Ag3
_chemical_formula_sum   'Ho14 Er2 Cd1 Ni4 Ag3'
_cell_volume   592.31520437
_cell_formula_units_Z   1
loop_
 _symmetry_equiv_pos_site_id
 _symmetry_equiv_pos_as_xyz
  1  'x, y, z'
loop_
 _atom_site_type_symbol
 _atom_site_label
 _atom_site_symmetry_multiplicity
 _atom_site_fract_x
 _atom_site_fract_y
 _atom_site_fract_z
 _atom_site_occupancy
  Ho  Ho0  1  0.349549  0.349417  0.349132  1
  Ho  Ho1  1  0.349482  0.349389  0.951972  1
  Ho  Ho2  1  0.349580  0.951969  0.349192  1
  Ho  Ho3  1  0.949386  0.350206  0.350166  1
  Ho  Ho4  1  0.810823  0.189168  0.189155  1
  Ho  Ho5  1  0.188821  0.810919  0.810943  1
  Ho  Ho6  1  0.188810  0.811010  0.189443  1
  Ho  Ho7  1  0.810774  0.189132  0.811036  1
  Ho  Ho8  1  0.188794  0.189457  0.811018  1
  Ho  Ho9  1  0.810832  0.811062  0.189081  1
  Ho  Ho10  1  0.933197  0.564488  0.564506  1
  Ho  Ho11  1  0.563563  0.936229  0.936111  1
  Ho  Ho12  1  0.563560  0.936229  0.564223  1
  Ho  Ho13  1  0.933187  0.564499  0.937940  1
  Er  Er14  1  0.563360  0.563928  0.936382  1
  Er  Er15  1  0.933374  0.938089  0.564336  1
  Cd  Cd16  1  0.262417  0.579263  0.579151  1
  Ni  Ni17  1  0.143276  0.142530  0.142301  1
  Ni  Ni18  1  0.143787  0.142340  0.571059  1
  Ni  Ni19  1  0.141640  0.572400  0.142911  1
  Ni  Ni20  1  0.572069  0.141837  0.143041  1
  Ag  Ag21  1  0.583102  0.582366  0.582858  1
  Ag  Ag22  1  0.583099  0.582357  0.251675  1
  Ag  Ag23  1  0.583518  0.251718  0.582372  1
