# generated using pymatgen
data_Yb4AlGa(RuO6)2
_symmetry_space_group_name_H-M   'P 1'
_cell_length_a   5.30501248
_cell_length_b   5.45738326
_cell_length_c   7.56241486
_cell_angle_alpha   90.19965091
_cell_angle_beta   89.96468311
_cell_angle_gamma   89.97827567
_symmetry_Int_Tables_number   1
_chemical_formula_structural   Yb4AlGa(RuO6)2
_chemical_formula_sum   'Yb4 Al1 Ga1 Ru2 O12'
_cell_volume   218.94176352
_cell_formula_units_Z   1
loop_
 _symmetry_equiv_pos_site_id
 _symmetry_equiv_pos_as_xyz
  1  'x, y, z'
loop_
 _atom_site_type_symbol
 _atom_site_label
 _atom_site_symmetry_multiplicity
 _atom_site_fract_x
 _atom_site_fract_y
 _atom_site_fract_z
 _atom_site_occupancy
  Yb  Yb0  1  0.515521  0.556891  0.246535  1
  Yb  Yb1  1  0.987868  0.056115  0.248570  1
  Yb  Yb2  1  0.484479  0.443109  0.753465  1
  Yb  Yb3  1  0.012132  0.943885  0.751430  1
  Al  Al4  1  0.500000  0.000000  0.000000  1
  Ga  Ga5  1  0.000000  0.500000  0.500000  1
  Ru  Ru6  1  0.000000  0.500000  0.000000  1
  Ru  Ru7  1  0.500000  0.000000  0.500000  1
  O  O8  1  0.413728  0.977564  0.245478  1
  O  O9  1  0.093454  0.475303  0.249467  1
  O  O10  1  0.586272  0.022436  0.754522  1
  O  O11  1  0.906546  0.524697  0.750533  1
  O  O12  1  0.791075  0.795789  0.045324  1
  O  O13  1  0.696790  0.297580  0.451055  1
  O  O14  1  0.198759  0.199616  0.548394  1
  O  O15  1  0.297425  0.711026  0.955615  1
  O  O16  1  0.208925  0.204211  0.954676  1
  O  O17  1  0.303210  0.702420  0.548945  1
  O  O18  1  0.801241  0.800384  0.451606  1
  O  O19  1  0.702575  0.288974  0.044385  1
