# generated using pymatgen
data_K3Cr3SnO8
_symmetry_space_group_name_H-M   'P 1'
_cell_length_a   6.45501271
_cell_length_b   8.24177711
_cell_length_c   8.96201749
_cell_angle_alpha   93.98547149
_cell_angle_beta   117.90207457
_cell_angle_gamma   95.22291113
_symmetry_Int_Tables_number   1
_chemical_formula_structural   K3Cr3SnO8
_chemical_formula_sum   'K6 Cr6 Sn2 O16'
_cell_volume   416.19178206
_cell_formula_units_Z   2
loop_
 _symmetry_equiv_pos_site_id
 _symmetry_equiv_pos_as_xyz
  1  'x, y, z'
loop_
 _atom_site_type_symbol
 _atom_site_label
 _atom_site_symmetry_multiplicity
 _atom_site_fract_x
 _atom_site_fract_y
 _atom_site_fract_z
 _atom_site_occupancy
  K  K0  1  0.009603  0.995734  0.005628  1
  K  K1  1  0.739934  0.258559  0.744269  1
  K  K2  1  0.499356  0.481827  0.503003  1
  K  K3  1  0.624400  0.877274  0.631487  1
  K  K4  1  0.125458  0.375478  0.120817  1
  K  K5  1  0.237816  0.751387  0.232928  1
  Cr  Cr6  1  0.196049  0.069342  0.693024  1
  Cr  Cr7  1  0.315936  0.435661  0.816262  1
  Cr  Cr8  1  0.440328  0.811669  0.937700  1
  Cr  Cr9  1  0.938058  0.312200  0.436969  1
  Cr  Cr10  1  0.558793  0.190954  0.061204  1
  Cr  Cr11  1  0.684179  0.556732  0.180166  1
  Sn  Sn12  1  0.061874  0.684142  0.568677  1
  Sn  Sn13  1  0.809936  0.943153  0.311073  1
  O  O14  1  0.530012  0.029493  0.862156  1
  O  O15  1  0.650295  0.399723  0.985410  1
  O  O16  1  0.275402  0.278727  0.613762  1
  O  O17  1  0.409340  0.651285  0.738231  1
  O  O18  1  0.903148  0.158877  0.232517  1
  O  O19  1  0.031763  0.526806  0.358968  1
  O  O20  1  0.159411  0.902537  0.486805  1
  O  O21  1  0.220471  0.222640  0.889355  1
  O  O22  1  0.779463  0.777347  0.110078  1
  O  O23  1  0.851210  0.100521  0.519850  1
  O  O24  1  0.968276  0.465844  0.639837  1
  O  O25  1  0.100216  0.853059  0.768892  1
  O  O26  1  0.600926  0.350359  0.262430  1
  O  O27  1  0.709240  0.719259  0.389526  1
  O  O28  1  0.354778  0.597518  0.014787  1
  O  O29  1  0.464323  0.971891  0.134186  1
