# generated using pymatgen
data_Er2Fe5Co3B8
_symmetry_space_group_name_H-M   'P 1'
_cell_length_a   6.92283765
_cell_length_b   6.91400206
_cell_length_c   3.81456621
_cell_angle_alpha   90.04878428
_cell_angle_beta   90.06345435
_cell_angle_gamma   90.20193292
_symmetry_Int_Tables_number   1
_chemical_formula_structural   Er2Fe5Co3B8
_chemical_formula_sum   'Er2 Fe5 Co3 B8'
_cell_volume   182.58104424
_cell_formula_units_Z   1
loop_
 _symmetry_equiv_pos_site_id
 _symmetry_equiv_pos_as_xyz
  1  'x, y, z'
loop_
 _atom_site_type_symbol
 _atom_site_label
 _atom_site_symmetry_multiplicity
 _atom_site_fract_x
 _atom_site_fract_y
 _atom_site_fract_z
 _atom_site_occupancy
  Er  Er0  1  0.999896  0.000841  0.003151  1
  Er  Er1  1  0.501460  0.499099  0.502263  1
  Fe  Fe2  1  0.384376  0.131698  0.892040  1
  Fe  Fe3  1  0.616050  0.867179  0.891252  1
  Fe  Fe4  1  0.367746  0.883506  0.391739  1
  Fe  Fe5  1  0.633123  0.115732  0.391385  1
  Fe  Fe6  1  0.117077  0.367401  0.609475  1
  Co  Co7  1  0.883003  0.637290  0.609133  1
  Co  Co8  1  0.135443  0.618046  0.109350  1
  Co  Co9  1  0.862669  0.384794  0.109495  1
  B  B10  1  0.796518  0.665153  0.103851  1
  B  B11  1  0.201599  0.333654  0.106071  1
  B  B12  1  0.838981  0.294037  0.604322  1
  B  B13  1  0.166865  0.697952  0.605092  1
  B  B14  1  0.696972  0.834573  0.392326  1
  B  B15  1  0.299407  0.166741  0.394416  1
  B  B16  1  0.665608  0.198092  0.892098  1
  B  B17  1  0.333206  0.804212  0.892542  1
