# generated using pymatgen
data_Dy2Mn6P7(IrRh)3
_symmetry_space_group_name_H-M   'P 1'
_cell_length_a   9.43134600
_cell_length_b   9.43134630
_cell_length_c   3.81665300
_cell_angle_alpha   90.00000000
_cell_angle_beta   90.00000000
_cell_angle_gamma   120.00000595
_symmetry_Int_Tables_number   1
_chemical_formula_structural   Dy2Mn6P7(IrRh)3
_chemical_formula_sum   'Dy2 Mn6 P7 Ir3 Rh3'
_cell_volume   294.00901826
_cell_formula_units_Z   1
loop_
 _symmetry_equiv_pos_site_id
 _symmetry_equiv_pos_as_xyz
  1  'x, y, z'
loop_
 _atom_site_type_symbol
 _atom_site_label
 _atom_site_symmetry_multiplicity
 _atom_site_fract_x
 _atom_site_fract_y
 _atom_site_fract_z
 _atom_site_occupancy
  Dy  Dy0  1  0.666667  0.333333  0.000000  1
  Dy  Dy1  1  0.333333  0.666667  0.500000  1
  Mn  Mn2  1  0.888478  0.729325  0.000000  1
  Mn  Mn3  1  0.270675  0.159154  0.000000  1
  Mn  Mn4  1  0.840847  0.111522  0.000000  1
  Mn  Mn5  1  0.116079  0.901745  0.500000  1
  Mn  Mn6  1  0.098255  0.214335  0.500000  1
  Mn  Mn7  1  0.785665  0.883921  0.500000  1
  P  P8  1  0.110455  0.700811  0.000000  1
  P  P9  1  0.299189  0.409644  0.000000  1
  P  P10  1  0.590356  0.889545  0.000000  1
  P  P11  1  0.721652  0.602496  0.500000  1
  P  P12  1  0.397504  0.119157  0.500000  1
  P  P13  1  0.880843  0.278348  0.500000  1
  P  P14  1  0.000000  0.000000  0.000000  1
  Ir  Ir15  1  0.946292  0.559025  0.500000  1
  Ir  Ir16  1  0.440975  0.387268  0.500000  1
  Ir  Ir17  1  0.612732  0.053708  0.500000  1
  Rh  Rh18  1  0.361645  0.935571  0.000000  1
  Rh  Rh19  1  0.064429  0.426074  0.000000  1
  Rh  Rh20  1  0.573926  0.638355  0.000000  1
