# generated using pymatgen
data_Zr16Pd8C3O
_symmetry_space_group_name_H-M   'P 1'
_cell_length_a   8.93905996
_cell_length_b   8.93906106
_cell_length_c   8.89868191
_cell_angle_alpha   59.84978328
_cell_angle_beta   59.84978427
_cell_angle_gamma   59.99999971
_symmetry_Int_Tables_number   1
_chemical_formula_structural   Zr16Pd8C3O
_chemical_formula_sum   'Zr16 Pd8 C3 O1'
_cell_volume   501.65439886
_cell_formula_units_Z   1
loop_
 _symmetry_equiv_pos_site_id
 _symmetry_equiv_pos_as_xyz
  1  'x, y, z'
loop_
 _atom_site_type_symbol
 _atom_site_label
 _atom_site_symmetry_multiplicity
 _atom_site_fract_x
 _atom_site_fract_y
 _atom_site_fract_z
 _atom_site_occupancy
  Zr  Zr0  1  0.125000  0.625000  0.625000  1
  Zr  Zr1  1  0.625000  0.125000  0.625000  1
  Zr  Zr2  1  0.625000  0.625000  0.125000  1
  Zr  Zr3  1  0.625000  0.625000  0.625000  1
  Zr  Zr4  1  0.817852  0.817852  0.182091  1
  Zr  Zr5  1  0.182295  0.182295  0.821489  1
  Zr  Zr6  1  0.813921  0.182295  0.821489  1
  Zr  Zr7  1  0.182204  0.817852  0.182091  1
  Zr  Zr8  1  0.182295  0.813921  0.821489  1
  Zr  Zr9  1  0.817852  0.182204  0.182091  1
  Zr  Zr10  1  0.432148  0.432148  0.067909  1
  Zr  Zr11  1  0.067705  0.067705  0.428511  1
  Zr  Zr12  1  0.436079  0.067705  0.428511  1
  Zr  Zr13  1  0.067796  0.432148  0.067909  1
  Zr  Zr14  1  0.067705  0.436079  0.428511  1
  Zr  Zr15  1  0.432148  0.067796  0.067909  1
  Pd  Pd16  1  0.765718  0.410843  0.412598  1
  Pd  Pd17  1  0.410843  0.765718  0.412598  1
  Pd  Pd18  1  0.411248  0.411248  0.766258  1
  Pd  Pd19  1  0.410843  0.410843  0.412598  1
  Pd  Pd20  1  0.484282  0.839157  0.837402  1
  Pd  Pd21  1  0.839157  0.484282  0.837402  1
  Pd  Pd22  1  0.838752  0.838752  0.483742  1
  Pd  Pd23  1  0.839157  0.839157  0.837402  1
  C  C24  1  0.625000  0.125000  0.125000  1
  C  C25  1  0.125000  0.625000  0.125000  1
  C  C26  1  0.125000  0.125000  0.125000  1
  O  O27  1  0.125000  0.125000  0.625000  1
