# generated using pymatgen
data_Tb8Si12HgIr3
_symmetry_space_group_name_H-M   'P 1'
_cell_length_a   8.24286800
_cell_length_b   8.24286619
_cell_length_c   8.00837000
_cell_angle_alpha   90.00000000
_cell_angle_beta   90.00000000
_cell_angle_gamma   120.00000726
_symmetry_Int_Tables_number   1
_chemical_formula_structural   Tb8Si12HgIr3
_chemical_formula_sum   'Tb8 Si12 Hg1 Ir3'
_cell_volume   471.22825725
_cell_formula_units_Z   1
loop_
 _symmetry_equiv_pos_site_id
 _symmetry_equiv_pos_as_xyz
  1  'x, y, z'
loop_
 _atom_site_type_symbol
 _atom_site_label
 _atom_site_symmetry_multiplicity
 _atom_site_fract_x
 _atom_site_fract_y
 _atom_site_fract_z
 _atom_site_occupancy
  Tb  Tb0  1  0.516034  0.032067  0.242631  1
  Tb  Tb1  1  0.492116  0.984233  0.754447  1
  Tb  Tb2  1  0.967933  0.483966  0.242631  1
  Tb  Tb3  1  0.015767  0.507884  0.754447  1
  Tb  Tb4  1  0.516034  0.483966  0.242631  1
  Tb  Tb5  1  0.492116  0.507884  0.754447  1
  Tb  Tb6  1  0.000000  0.000000  0.253118  1
  Tb  Tb7  1  0.000000  0.000000  0.756556  1
  Si  Si8  1  0.167067  0.334134  0.005592  1
  Si  Si9  1  0.833940  0.667880  0.995483  1
  Si  Si10  1  0.665866  0.832933  0.005592  1
  Si  Si11  1  0.830498  0.660996  0.498235  1
  Si  Si12  1  0.332120  0.166060  0.995483  1
  Si  Si13  1  0.157717  0.315434  0.511026  1
  Si  Si14  1  0.167067  0.832933  0.005592  1
  Si  Si15  1  0.339004  0.169502  0.498235  1
  Si  Si16  1  0.833940  0.166060  0.995483  1
  Si  Si17  1  0.684566  0.842283  0.511026  1
  Si  Si18  1  0.830498  0.169502  0.498235  1
  Si  Si19  1  0.157717  0.842283  0.511026  1
  Hg  Hg20  1  0.333333  0.666667  0.433899  1
  Ir  Ir21  1  0.333333  0.666667  0.028024  1
  Ir  Ir22  1  0.666667  0.333333  0.963384  1
  Ir  Ir23  1  0.666667  0.333333  0.542775  1
