# generated using pymatgen
data_Dy7Th7Ru5Rh
_symmetry_space_group_name_H-M   'P 1'
_cell_length_a   9.74144436
_cell_length_b   9.74144383
_cell_length_c   6.37237610
_cell_angle_alpha   89.77433925
_cell_angle_beta   90.22565584
_cell_angle_gamma   119.56843840
_symmetry_Int_Tables_number   1
_chemical_formula_structural   Dy7Th7Ru5Rh
_chemical_formula_sum   'Dy7 Th7 Ru5 Rh1'
_cell_volume   525.95240420
_cell_formula_units_Z   1
loop_
 _symmetry_equiv_pos_site_id
 _symmetry_equiv_pos_as_xyz
  1  'x, y, z'
loop_
 _atom_site_type_symbol
 _atom_site_label
 _atom_site_symmetry_multiplicity
 _atom_site_fract_x
 _atom_site_fract_y
 _atom_site_fract_z
 _atom_site_occupancy
  Dy  Dy0  1  0.126589  0.873411  0.262341  1
  Dy  Dy1  1  0.460562  0.923817  0.543259  1
  Dy  Dy2  1  0.076183  0.539438  0.543259  1
  Dy  Dy3  1  0.461370  0.538630  0.546352  1
  Dy  Dy4  1  0.536626  0.076321  0.044378  1
  Dy  Dy5  1  0.923679  0.463374  0.044378  1
  Dy  Dy6  1  0.538038  0.461962  0.047848  1
  Th  Th7  1  0.665432  0.334568  0.515539  1
  Th  Th8  1  0.332918  0.667082  0.009265  1
  Th  Th9  1  0.876203  0.749709  0.764962  1
  Th  Th10  1  0.250291  0.123797  0.764962  1
  Th  Th11  1  0.875151  0.124849  0.768637  1
  Th  Th12  1  0.132208  0.252439  0.264992  1
  Th  Th13  1  0.747561  0.867792  0.264992  1
  Ru  Ru14  1  0.180355  0.364373  0.799706  1
  Ru  Ru15  1  0.635627  0.819645  0.799706  1
  Ru  Ru16  1  0.184090  0.815910  0.793365  1
  Ru  Ru17  1  0.805447  0.624959  0.305363  1
  Ru  Ru18  1  0.375041  0.194553  0.305363  1
  Rh  Rh19  1  0.816632  0.183368  0.292772  1
