# generated using pymatgen
data_Li6Tb6SiAu5
_symmetry_space_group_name_H-M   'P 1'
_cell_length_a   7.20813100
_cell_length_b   7.20813113
_cell_length_c   8.44215000
_cell_angle_alpha   90.00000000
_cell_angle_beta   90.00000000
_cell_angle_gamma   119.99999481
_symmetry_Int_Tables_number   1
_chemical_formula_structural   Li6Tb6SiAu5
_chemical_formula_sum   'Li6 Tb6 Si1 Au5'
_cell_volume   379.86481468
_cell_formula_units_Z   1
loop_
 _symmetry_equiv_pos_site_id
 _symmetry_equiv_pos_as_xyz
  1  'x, y, z'
loop_
 _atom_site_type_symbol
 _atom_site_label
 _atom_site_symmetry_multiplicity
 _atom_site_fract_x
 _atom_site_fract_y
 _atom_site_fract_z
 _atom_site_occupancy
  Li  Li0  1  0.765970  0.754625  0.999930  1
  Li  Li1  1  0.245375  0.011345  0.999930  1
  Li  Li2  1  0.988655  0.234030  0.999930  1
  Li  Li3  1  0.768564  0.767593  0.499979  1
  Li  Li4  1  0.232407  0.000970  0.499979  1
  Li  Li5  1  0.999030  0.231436  0.499979  1
  Tb  Tb6  1  0.586968  0.003818  0.753730  1
  Tb  Tb7  1  0.996182  0.583150  0.753730  1
  Tb  Tb8  1  0.416850  0.413032  0.753730  1
  Tb  Tb9  1  0.996151  0.583142  0.246314  1
  Tb  Tb10  1  0.586991  0.003849  0.246314  1
  Tb  Tb11  1  0.416858  0.413009  0.246314  1
  Si  Si12  1  0.666667  0.333333  0.000008  1
  Au  Au13  1  0.000000  0.000000  0.750342  1
  Au  Au14  1  0.000000  0.000000  0.249586  1
  Au  Au15  1  0.666667  0.333333  0.500078  1
  Au  Au16  1  0.333333  0.666667  0.499974  1
  Au  Au17  1  0.333333  0.666667  0.000153  1
