# generated using pymatgen
data_Y2Al3Cu7
_symmetry_space_group_name_H-M   'P 1'
_cell_length_a   4.17034500
_cell_length_b   5.09297990
_cell_length_c   8.84811009
_cell_angle_alpha   90.68709318
_cell_angle_beta   90.00000000
_cell_angle_gamma   90.00000000
_symmetry_Int_Tables_number   1
_chemical_formula_structural   Y2Al3Cu7
_chemical_formula_sum   'Y2 Al3 Cu7'
_cell_volume   187.91577348
_cell_formula_units_Z   1
loop_
 _symmetry_equiv_pos_site_id
 _symmetry_equiv_pos_as_xyz
  1  'x, y, z'
loop_
 _atom_site_type_symbol
 _atom_site_label
 _atom_site_symmetry_multiplicity
 _atom_site_fract_x
 _atom_site_fract_y
 _atom_site_fract_z
 _atom_site_occupancy
  Y  Y0  1  0.000000  0.001858  0.999780  1
  Y  Y1  1  0.000000  0.498069  0.500211  1
  Al  Al2  1  0.500000  0.513851  0.994820  1
  Al  Al3  1  0.500000  0.986098  0.505192  1
  Al  Al4  1  0.500000  0.249938  0.249989  1
  Cu  Cu5  1  0.000000  0.997526  0.334746  1
  Cu  Cu6  1  0.000000  0.499536  0.832166  1
  Cu  Cu7  1  0.000000  0.502361  0.165242  1
  Cu  Cu8  1  0.000000  0.000464  0.667827  1
  Cu  Cu9  1  0.500000  0.750065  0.750073  1
  Cu  Cu10  1  0.500000  0.750024  0.249985  1
  Cu  Cu11  1  0.500000  0.250010  0.749969  1
