# generated using pymatgen
data_Nd15Y(ZnCo)4
_symmetry_space_group_name_H-M   'P 1'
_cell_length_a   9.65167969
_cell_length_b   9.65153227
_cell_length_c   9.67856911
_cell_angle_alpha   59.89321293
_cell_angle_beta   59.89387212
_cell_angle_gamma   60.14384402
_symmetry_Int_Tables_number   1
_chemical_formula_structural   Nd15Y(ZnCo)4
_chemical_formula_sum   'Nd15 Y1 Zn4 Co4'
_cell_volume   637.18125522
_cell_formula_units_Z   1
loop_
 _symmetry_equiv_pos_site_id
 _symmetry_equiv_pos_as_xyz
  1  'x, y, z'
loop_
 _atom_site_type_symbol
 _atom_site_label
 _atom_site_symmetry_multiplicity
 _atom_site_fract_x
 _atom_site_fract_y
 _atom_site_fract_z
 _atom_site_occupancy
  Nd  Nd0  1  0.148565  0.550139  0.150503  1
  Nd  Nd1  1  0.689331  0.308699  0.691905  1
  Nd  Nd2  1  0.689555  0.308678  0.310028  1
  Nd  Nd3  1  0.939481  0.560322  0.563196  1
  Nd  Nd4  1  0.550119  0.148551  0.150518  1
  Nd  Nd5  1  0.151552  0.151532  0.549071  1
  Nd  Nd6  1  0.940033  0.940033  0.559969  1
  Nd  Nd7  1  0.308680  0.689561  0.310031  1
  Nd  Nd8  1  0.560329  0.939472  0.937003  1
  Nd  Nd9  1  0.560321  0.939484  0.563195  1
  Nd  Nd10  1  0.693371  0.693380  0.306619  1
  Nd  Nd11  1  0.559952  0.559952  0.940053  1
  Nd  Nd12  1  0.939472  0.560328  0.937004  1
  Nd  Nd13  1  0.308698  0.689337  0.691893  1
  Nd  Nd14  1  0.151698  0.151677  0.147695  1
  Y  Y15  1  0.306653  0.306654  0.693492  1
  Zn  Zn16  1  0.925677  0.232945  0.920691  1
  Zn  Zn17  1  0.922985  0.922986  0.922513  1
  Zn  Zn18  1  0.922989  0.922989  0.231509  1
  Zn  Zn19  1  0.232943  0.925678  0.920691  1
  Co  Co20  1  0.358480  0.358481  0.922970  1
  Co  Co21  1  0.357602  0.923031  0.359675  1
  Co  Co22  1  0.923029  0.357602  0.359675  1
  Co  Co23  1  0.358487  0.358489  0.360100  1
