# generated using pymatgen
data_PrNd11Ir(PtBr4)3
_symmetry_space_group_name_H-M   'P 1'
_cell_length_a   10.60139613
_cell_length_b   10.52056598
_cell_length_c   10.52841339
_cell_angle_alpha   109.33916739
_cell_angle_beta   109.64041728
_cell_angle_gamma   109.62191706
_symmetry_Int_Tables_number   1
_chemical_formula_structural   PrNd11Ir(PtBr4)3
_chemical_formula_sum   'Pr1 Nd11 Ir1 Pt3 Br12'
_cell_volume   901.84001625
_cell_formula_units_Z   1
loop_
 _symmetry_equiv_pos_site_id
 _symmetry_equiv_pos_as_xyz
  1  'x, y, z'
loop_
 _atom_site_type_symbol
 _atom_site_label
 _atom_site_symmetry_multiplicity
 _atom_site_fract_x
 _atom_site_fract_y
 _atom_site_fract_z
 _atom_site_occupancy
  Pr  Pr0  1  0.237692  0.266604  0.754835  1
  Nd  Nd1  1  0.469626  0.487611  0.232982  1
  Nd  Nd2  1  0.750188  0.235658  0.264652  1
  Nd  Nd3  1  0.749732  0.014372  0.485339  1
  Nd  Nd4  1  0.235395  0.470970  0.485192  1
  Nd  Nd5  1  0.262804  0.744851  0.232370  1
  Nd  Nd6  1  0.030412  0.267478  0.012895  1
  Nd  Nd7  1  0.014378  0.029059  0.264212  1
  Nd  Nd8  1  0.482362  0.745531  0.012724  1
  Nd  Nd9  1  0.485399  0.235438  0.470749  1
  Nd  Nd10  1  0.017693  0.487606  0.754821  1
  Nd  Nd11  1  0.264557  0.014560  0.029244  1
  Ir  Ir12  1  0.250048  0.500466  0.000466  1
  Pt  Pt13  1  0.249989  0.249944  0.250058  1
  Pt  Pt14  1  0.499984  0.000170  0.250035  1
  Pt  Pt15  1  0.999469  0.249952  0.499385  1
  Br  Br16  1  0.250023  0.754008  0.746212  1
  Br  Br17  1  0.508605  0.505234  0.752914  1
  Br  Br18  1  0.992486  0.746898  0.996511  1
  Br  Br19  1  0.745606  0.249692  0.753006  1
  Br  Br20  1  0.994209  0.990943  0.746280  1
  Br  Br21  1  0.249772  0.995168  0.501726  1
  Br  Br22  1  0.753327  0.506780  0.503417  1
  Br  Br23  1  0.505548  0.249946  0.998237  1
  Br  Br24  1  0.754308  0.746891  0.250286  1
  Br  Br25  1  0.746668  0.996689  0.993284  1
  Br  Br26  1  0.995817  0.503527  0.250277  1
  Br  Br27  1  0.503902  0.753950  0.507889  1
