# generated using pymatgen
data_Pr16NdSm3Sn16
_symmetry_space_group_name_H-M   'P 1'
_cell_length_a   8.34123100
_cell_length_b   8.50783924
_cell_length_c   16.10115100
_cell_angle_alpha   90.00000000
_cell_angle_beta   90.00000000
_cell_angle_gamma   89.98486190
_symmetry_Int_Tables_number   1
_chemical_formula_structural   Pr16NdSm3Sn16
_chemical_formula_sum   'Pr16 Nd1 Sm3 Sn16'
_cell_volume   1142.63186547
_cell_formula_units_Z   1
loop_
 _symmetry_equiv_pos_site_id
 _symmetry_equiv_pos_as_xyz
  1  'x, y, z'
loop_
 _atom_site_type_symbol
 _atom_site_label
 _atom_site_symmetry_multiplicity
 _atom_site_fract_x
 _atom_site_fract_y
 _atom_site_fract_z
 _atom_site_occupancy
  Pr  Pr0  1  0.367788  0.835492  0.879579  1
  Pr  Pr1  1  0.867467  0.664681  0.620468  1
  Pr  Pr2  1  0.632428  0.164373  0.379369  1
  Pr  Pr3  1  0.132476  0.335525  0.120984  1
  Pr  Pr4  1  0.632428  0.164373  0.120631  1
  Pr  Pr5  1  0.132476  0.335525  0.379016  1
  Pr  Pr6  1  0.367788  0.835492  0.620421  1
  Pr  Pr7  1  0.867467  0.664681  0.879532  1
  Pr  Pr8  1  0.518611  0.319066  0.900786  1
  Pr  Pr9  1  0.018226  0.180455  0.599233  1
  Pr  Pr10  1  0.481519  0.680664  0.400464  1
  Pr  Pr11  1  0.981638  0.819254  0.099373  1
  Pr  Pr12  1  0.481519  0.680664  0.099536  1
  Pr  Pr13  1  0.981638  0.819254  0.400627  1
  Pr  Pr14  1  0.518611  0.319066  0.599214  1
  Pr  Pr15  1  0.018226  0.180455  0.900767  1
  Nd  Nd16  1  0.197518  0.501265  0.750000  1
  Sm  Sm17  1  0.698062  0.998566  0.750000  1
  Sm  Sm18  1  0.801793  0.498807  0.250000  1
  Sm  Sm19  1  0.301649  0.001139  0.250000  1
  Sn  Sn20  1  0.292677  0.034506  0.043117  1
  Sn  Sn21  1  0.792704  0.465543  0.456928  1
  Sn  Sn22  1  0.707215  0.965611  0.542988  1
  Sn  Sn23  1  0.207316  0.535205  0.958099  1
  Sn  Sn24  1  0.707215  0.965611  0.957012  1
  Sn  Sn25  1  0.207316  0.535205  0.541901  1
  Sn  Sn26  1  0.292677  0.034506  0.456883  1
  Sn  Sn27  1  0.792704  0.465543  0.043072  1
  Sn  Sn28  1  0.568004  0.616612  0.750000  1
  Sn  Sn29  1  0.065578  0.885300  0.750000  1
  Sn  Sn30  1  0.434072  0.383979  0.250000  1
  Sn  Sn31  1  0.933823  0.115962  0.250000  1
  Sn  Sn32  1  0.324237  0.142269  0.750000  1
  Sn  Sn33  1  0.822048  0.355087  0.750000  1
  Sn  Sn34  1  0.676622  0.856005  0.250000  1
  Sn  Sn35  1  0.176464  0.644255  0.250000  1
