# generated using pymatgen
data_Ce3HoAs6Ru7
_symmetry_space_group_name_H-M   'P 1'
_cell_length_a   7.26040044
_cell_length_b   7.29228857
_cell_length_c   7.29228771
_cell_angle_alpha   109.55963902
_cell_angle_beta   109.38266827
_cell_angle_gamma   109.38265789
_symmetry_Int_Tables_number   1
_chemical_formula_structural   Ce3HoAs6Ru7
_chemical_formula_sum   'Ce3 Ho1 As6 Ru7'
_cell_volume   297.53617397
_cell_formula_units_Z   1
loop_
 _symmetry_equiv_pos_site_id
 _symmetry_equiv_pos_as_xyz
  1  'x, y, z'
loop_
 _atom_site_type_symbol
 _atom_site_label
 _atom_site_symmetry_multiplicity
 _atom_site_fract_x
 _atom_site_fract_y
 _atom_site_fract_z
 _atom_site_occupancy
  Ce  Ce0  1  0.000000  0.000000  0.500000  1
  Ce  Ce1  1  0.000000  0.500000  0.000000  1
  Ce  Ce2  1  0.500000  0.500000  0.500000  1
  Ho  Ho3  1  0.500000  0.000000  0.000000  1
  As  As4  1  0.319091  0.000000  0.315953  1
  As  As5  1  0.996863  0.315953  0.315953  1
  As  As6  1  0.003137  0.684047  0.684047  1
  As  As7  1  0.319091  0.315953  0.000000  1
  As  As8  1  0.680909  0.684047  0.000000  1
  As  As9  1  0.680909  0.000000  0.684047  1
  Ru  Ru10  1  0.750233  0.500467  0.250233  1
  Ru  Ru11  1  0.500000  0.749767  0.250233  1
  Ru  Ru12  1  0.500000  0.250233  0.749767  1
  Ru  Ru13  1  0.750233  0.250233  0.500467  1
  Ru  Ru14  1  0.249767  0.749767  0.499533  1
  Ru  Ru15  1  0.249767  0.499533  0.749767  1
  Ru  Ru16  1  0.000000  0.000000  0.000000  1
