# generated using pymatgen
data_Dy4Mn2BiO12
_symmetry_space_group_name_H-M   'P 1'
_cell_length_a   6.79217342
_cell_length_b   6.79215699
_cell_length_c   7.21504259
_cell_angle_alpha   74.63222750
_cell_angle_beta   74.63220777
_cell_angle_gamma   51.03745701
_symmetry_Int_Tables_number   1
_chemical_formula_structural   Dy4Mn2BiO12
_chemical_formula_sum   'Dy4 Mn2 Bi1 O12'
_cell_volume   247.40267123
_cell_formula_units_Z   1
loop_
 _symmetry_equiv_pos_site_id
 _symmetry_equiv_pos_as_xyz
  1  'x, y, z'
loop_
 _atom_site_type_symbol
 _atom_site_label
 _atom_site_symmetry_multiplicity
 _atom_site_fract_x
 _atom_site_fract_y
 _atom_site_fract_z
 _atom_site_occupancy
  Dy  Dy0  1  0.307183  0.307185  0.350493  1
  Dy  Dy1  1  0.692817  0.692815  0.649507  1
  Dy  Dy2  1  0.305057  0.305063  0.844428  1
  Dy  Dy3  1  0.694943  0.694937  0.155572  1
  Mn  Mn4  1  0.753484  0.246515  0.000000  1
  Mn  Mn5  1  0.246516  0.753485  0.000000  1
  Bi  Bi6  1  0.000000  0.000000  0.500000  1
  O  O7  1  0.901114  0.425543  0.915004  1
  O  O8  1  0.425547  0.901116  0.915003  1
  O  O9  1  0.098886  0.574457  0.084996  1
  O  O10  1  0.574453  0.098884  0.084997  1
  O  O11  1  0.097544  0.600868  0.572268  1
  O  O12  1  0.600869  0.097544  0.572268  1
  O  O13  1  0.902456  0.399132  0.427732  1
  O  O14  1  0.399131  0.902456  0.427732  1
  O  O15  1  0.998863  0.998864  0.821617  1
  O  O16  1  0.001137  0.001136  0.178383  1
  O  O17  1  0.498963  0.498965  0.820171  1
  O  O18  1  0.501037  0.501035  0.179829  1
