# generated using pymatgen
data_DyErNi10
_symmetry_space_group_name_H-M   'P 1'
_cell_length_a   3.95561200
_cell_length_b   4.87194500
_cell_length_c   8.41813900
_cell_angle_alpha   89.99998824
_cell_angle_beta   90.00000000
_cell_angle_gamma   90.00000000
_symmetry_Int_Tables_number   1
_chemical_formula_structural   DyErNi10
_chemical_formula_sum   'Dy1 Er1 Ni10'
_cell_volume   162.23036866
_cell_formula_units_Z   1
loop_
 _symmetry_equiv_pos_site_id
 _symmetry_equiv_pos_as_xyz
  1  'x, y, z'
loop_
 _atom_site_type_symbol
 _atom_site_label
 _atom_site_symmetry_multiplicity
 _atom_site_fract_x
 _atom_site_fract_y
 _atom_site_fract_z
 _atom_site_occupancy
  Dy  Dy0  1  0.000000  0.499928  0.500000  1
  Er  Er1  1  0.000000  0.999957  0.000000  1
  Ni  Ni2  1  0.000000  0.000114  0.331942  1
  Ni  Ni3  1  0.000000  0.499875  0.834738  1
  Ni  Ni4  1  0.000000  0.499875  0.165262  1
  Ni  Ni5  1  0.000000  0.000114  0.668058  1
  Ni  Ni6  1  0.500000  0.999850  0.500000  1
  Ni  Ni7  1  0.500000  0.500094  0.000000  1
  Ni  Ni8  1  0.500000  0.249479  0.248721  1
  Ni  Ni9  1  0.500000  0.750516  0.751179  1
  Ni  Ni10  1  0.500000  0.750516  0.248821  1
  Ni  Ni11  1  0.500000  0.249479  0.751279  1
