# generated using pymatgen
data_Ho5Er3Al8
_symmetry_space_group_name_H-M   'P 1'
_cell_length_a   5.57671000
_cell_length_b   5.82096409
_cell_length_c   11.34163400
_cell_angle_alpha   90.01021704
_cell_angle_beta   90.00014384
_cell_angle_gamma   89.99979327
_symmetry_Int_Tables_number   1
_chemical_formula_structural   Ho5Er3Al8
_chemical_formula_sum   'Ho5 Er3 Al8'
_cell_volume   368.17017383
_cell_formula_units_Z   1
loop_
 _symmetry_equiv_pos_site_id
 _symmetry_equiv_pos_as_xyz
  1  'x, y, z'
loop_
 _atom_site_type_symbol
 _atom_site_label
 _atom_site_symmetry_multiplicity
 _atom_site_fract_x
 _atom_site_fract_y
 _atom_site_fract_z
 _atom_site_occupancy
  Ho  Ho0  1  0.250030  0.162271  0.016155  1
  Ho  Ho1  1  0.749975  0.837751  0.983732  1
  Ho  Ho2  1  0.750002  0.161636  0.483932  1
  Ho  Ho3  1  0.249981  0.838086  0.516493  1
  Ho  Ho4  1  0.249998  0.399052  0.331298  1
  Er  Er5  1  0.750015  0.602046  0.668689  1
  Er  Er6  1  0.750009  0.397712  0.168925  1
  Er  Er7  1  0.249991  0.602159  0.830964  1
  Al  Al8  1  0.999982  0.930651  0.249845  1
  Al  Al9  1  0.500041  0.068927  0.750020  1
  Al  Al10  1  0.999946  0.068929  0.750035  1
  Al  Al11  1  0.500032  0.930653  0.249861  1
  Al  Al12  1  0.250008  0.659619  0.097376  1
  Al  Al13  1  0.749999  0.340558  0.902218  1
  Al  Al14  1  0.750001  0.659524  0.402412  1
  Al  Al15  1  0.249993  0.340430  0.598043  1
