# generated using pymatgen
data_Li2Si(Ni2As)6
_symmetry_space_group_name_H-M   'P 1'
_cell_length_a   9.29645500
_cell_length_b   9.29645421
_cell_length_c   3.69306800
_cell_angle_alpha   90.00000000
_cell_angle_beta   90.00000000
_cell_angle_gamma   120.00000635
_symmetry_Int_Tables_number   1
_chemical_formula_structural   Li2Si(Ni2As)6
_chemical_formula_sum   'Li2 Si1 Ni12 As6'
_cell_volume   276.40927662
_cell_formula_units_Z   1
loop_
 _symmetry_equiv_pos_site_id
 _symmetry_equiv_pos_as_xyz
  1  'x, y, z'
loop_
 _atom_site_type_symbol
 _atom_site_label
 _atom_site_symmetry_multiplicity
 _atom_site_fract_x
 _atom_site_fract_y
 _atom_site_fract_z
 _atom_site_occupancy
  Li  Li0  1  0.000000  0.000000  0.000000  1
  Li  Li1  1  0.333333  0.666667  0.500000  1
  Si  Si2  1  0.666667  0.333333  0.000000  1
  Ni  Ni3  1  0.824184  0.610246  0.000000  1
  Ni  Ni4  1  0.389754  0.213938  0.000000  1
  Ni  Ni5  1  0.786062  0.175816  0.000000  1
  Ni  Ni6  1  0.045245  0.757060  0.500000  1
  Ni  Ni7  1  0.242940  0.288185  0.500000  1
  Ni  Ni8  1  0.711815  0.954755  0.500000  1
  Ni  Ni9  1  0.103656  0.383406  0.000000  1
  Ni  Ni10  1  0.616594  0.720252  0.000000  1
  Ni  Ni11  1  0.279748  0.896344  0.000000  1
  Ni  Ni12  1  0.860672  0.414579  0.500000  1
  Ni  Ni13  1  0.585421  0.446093  0.500000  1
  Ni  Ni14  1  0.553907  0.139328  0.500000  1
  As  As15  1  0.786699  0.748855  0.500000  1
  As  As16  1  0.251145  0.037843  0.500000  1
  As  As17  1  0.962157  0.213301  0.500000  1
  As  As18  1  0.080314  0.616097  0.000000  1
  As  As19  1  0.383903  0.464217  0.000000  1
  As  As20  1  0.535783  0.919686  0.000000  1
