# generated using pymatgen
data_Lu4Ga20Os5Ru
_symmetry_space_group_name_H-M   'P 1'
_cell_length_a   8.91654701
_cell_length_b   8.91654700
_cell_length_c   6.32133100
_cell_angle_alpha   90.00000000
_cell_angle_beta   90.00000000
_cell_angle_gamma   89.99760318
_symmetry_Int_Tables_number   1
_chemical_formula_structural   Lu4Ga20Os5Ru
_chemical_formula_sum   'Lu4 Ga20 Os5 Ru1'
_cell_volume   502.57622258
_cell_formula_units_Z   1
loop_
 _symmetry_equiv_pos_site_id
 _symmetry_equiv_pos_as_xyz
  1  'x, y, z'
loop_
 _atom_site_type_symbol
 _atom_site_label
 _atom_site_symmetry_multiplicity
 _atom_site_fract_x
 _atom_site_fract_y
 _atom_site_fract_z
 _atom_site_occupancy
  Lu  Lu0  1  0.683720  0.183720  0.000000  1
  Lu  Lu1  1  0.316496  0.816496  0.000000  1
  Lu  Lu2  1  0.815999  0.683609  0.000000  1
  Lu  Lu3  1  0.183609  0.315999  0.000000  1
  Ga  Ga4  1  0.937710  0.207510  0.291560  1
  Ga  Ga5  1  0.707510  0.437710  0.291560  1
  Ga  Ga6  1  0.500706  0.000706  0.279895  1
  Ga  Ga7  1  0.561608  0.707471  0.708807  1
  Ga  Ga8  1  0.292866  0.561207  0.709020  1
  Ga  Ga9  1  0.791932  0.938912  0.291305  1
  Ga  Ga10  1  0.937710  0.207510  0.708440  1
  Ga  Ga11  1  0.292866  0.561207  0.290980  1
  Ga  Ga12  1  0.061207  0.792866  0.290980  1
  Ga  Ga13  1  0.707510  0.437710  0.708440  1
  Ga  Ga14  1  0.438912  0.291932  0.708695  1
  Ga  Ga15  1  0.061207  0.792866  0.709020  1
  Ga  Ga16  1  0.207471  0.061608  0.708807  1
  Ga  Ga17  1  0.791932  0.938912  0.708695  1
  Ga  Ga18  1  0.207471  0.061608  0.291193  1
  Ga  Ga19  1  0.999895  0.499895  0.720197  1
  Ga  Ga20  1  0.999895  0.499895  0.279803  1
  Ga  Ga21  1  0.561608  0.707471  0.291193  1
  Ga  Ga22  1  0.438912  0.291932  0.291305  1
  Ga  Ga23  1  0.500706  0.000706  0.720105  1
  Os  Os24  1  0.822406  0.677832  0.500000  1
  Os  Os25  1  0.177832  0.322406  0.500000  1
  Os  Os26  1  0.000355  0.999965  0.000000  1
  Os  Os27  1  0.322113  0.822113  0.500000  1
  Os  Os28  1  0.499965  0.500355  0.000000  1
  Ru  Ru29  1  0.677869  0.177869  0.500000  1
