# generated using pymatgen
data_Y3Co8MoP6
_symmetry_space_group_name_H-M   'P 1'
_cell_length_a   3.73233500
_cell_length_b   10.59195600
_cell_length_c   12.27020900
_cell_angle_alpha   90.00000000
_cell_angle_beta   90.00000000
_cell_angle_gamma   90.00000000
_symmetry_Int_Tables_number   1
_chemical_formula_structural   Y3Co8MoP6
_chemical_formula_sum   'Y6 Co16 Mo2 P12'
_cell_volume   485.07483609
_cell_formula_units_Z   2
loop_
 _symmetry_equiv_pos_site_id
 _symmetry_equiv_pos_as_xyz
  1  'x, y, z'
loop_
 _atom_site_type_symbol
 _atom_site_label
 _atom_site_symmetry_multiplicity
 _atom_site_fract_x
 _atom_site_fract_y
 _atom_site_fract_z
 _atom_site_occupancy
  Y  Y0  1  0.000000  0.500000  0.524164  1
  Y  Y1  1  0.500000  0.000000  0.475836  1
  Y  Y2  1  0.500000  0.818735  0.204969  1
  Y  Y3  1  0.500000  0.181265  0.204969  1
  Y  Y4  1  0.000000  0.681265  0.795031  1
  Y  Y5  1  0.000000  0.318735  0.795031  1
  Co  Co6  1  0.500000  0.500000  0.701426  1
  Co  Co7  1  0.000000  0.000000  0.298574  1
  Co  Co8  1  0.000000  0.500000  0.986512  1
  Co  Co9  1  0.500000  0.000000  0.013488  1
  Co  Co10  1  0.500000  0.332460  0.990236  1
  Co  Co11  1  0.500000  0.667540  0.990236  1
  Co  Co12  1  0.000000  0.167540  0.009764  1
  Co  Co13  1  0.000000  0.832460  0.009764  1
  Co  Co14  1  0.500000  0.295763  0.431475  1
  Co  Co15  1  0.500000  0.704237  0.431475  1
  Co  Co16  1  0.000000  0.204237  0.568525  1
  Co  Co17  1  0.000000  0.795763  0.568525  1
  Co  Co18  1  0.500000  0.878415  0.706734  1
  Co  Co19  1  0.500000  0.121585  0.706734  1
  Co  Co20  1  0.000000  0.621585  0.293266  1
  Co  Co21  1  0.000000  0.378415  0.293266  1
  Mo  Mo22  1  0.500000  0.500000  0.156060  1
  Mo  Mo23  1  0.000000  0.000000  0.843940  1
  P  P24  1  0.500000  0.500000  0.881313  1
  P  P25  1  0.000000  0.000000  0.118687  1
  P  P26  1  0.500000  0.500000  0.348746  1
  P  P27  1  0.000000  0.000000  0.651254  1
  P  P28  1  0.500000  0.310864  0.615813  1
  P  P29  1  0.500000  0.689136  0.615813  1
  P  P30  1  0.000000  0.189136  0.384187  1
  P  P31  1  0.000000  0.810864  0.384187  1
  P  P32  1  0.500000  0.845096  0.893385  1
  P  P33  1  0.500000  0.154904  0.893385  1
  P  P34  1  0.000000  0.654904  0.106615  1
  P  P35  1  0.000000  0.345096  0.106615  1
