# generated using pymatgen
data_SmCu3AgRh
_symmetry_space_group_name_H-M   'P 1'
_cell_length_a   5.25102292
_cell_length_b   5.25102294
_cell_length_c   5.25102228
_cell_angle_alpha   57.56728967
_cell_angle_beta   57.56728777
_cell_angle_gamma   57.56728485
_symmetry_Int_Tables_number   1
_chemical_formula_structural   SmCu3AgRh
_chemical_formula_sum   'Sm1 Cu3 Ag1 Rh1'
_cell_volume   96.65407237
_cell_formula_units_Z   1
loop_
 _symmetry_equiv_pos_site_id
 _symmetry_equiv_pos_as_xyz
  1  'x, y, z'
loop_
 _atom_site_type_symbol
 _atom_site_label
 _atom_site_symmetry_multiplicity
 _atom_site_fract_x
 _atom_site_fract_y
 _atom_site_fract_z
 _atom_site_occupancy
  Sm  Sm0  1  0.001693  0.001693  0.001693  1
  Cu  Cu1  1  0.870057  0.372863  0.372863  1
  Cu  Cu2  1  0.372863  0.870057  0.372863  1
  Cu  Cu3  1  0.372863  0.372863  0.870057  1
  Ag  Ag4  1  0.759352  0.759352  0.759352  1
  Rh  Rh5  1  0.373172  0.373172  0.373172  1
