# generated using pymatgen
data_Dy2GaSiRh2
_symmetry_space_group_name_H-M   'P 1'
_cell_length_a   4.38946600
_cell_length_b   7.00381893
_cell_length_c   7.30588683
_cell_angle_alpha   90.65226064
_cell_angle_beta   90.00000000
_cell_angle_gamma   90.00000000
_symmetry_Int_Tables_number   1
_chemical_formula_structural   Dy2GaSiRh2
_chemical_formula_sum   'Dy4 Ga2 Si2 Rh4'
_cell_volume   224.59050790
_cell_formula_units_Z   2
loop_
 _symmetry_equiv_pos_site_id
 _symmetry_equiv_pos_as_xyz
  1  'x, y, z'
loop_
 _atom_site_type_symbol
 _atom_site_label
 _atom_site_symmetry_multiplicity
 _atom_site_fract_x
 _atom_site_fract_y
 _atom_site_fract_z
 _atom_site_occupancy
  Dy  Dy0  1  0.250000  0.488118  0.189975  1
  Dy  Dy1  1  0.750000  0.511882  0.810025  1
  Dy  Dy2  1  0.750000  0.013076  0.690143  1
  Dy  Dy3  1  0.250000  0.986924  0.309857  1
  Ga  Ga4  1  0.250000  0.802368  0.895604  1
  Ga  Ga5  1  0.750000  0.197632  0.104396  1
  Si  Si6  1  0.750000  0.698245  0.398149  1
  Si  Si7  1  0.250000  0.301755  0.601851  1
  Rh  Rh8  1  0.250000  0.649551  0.560251  1
  Rh  Rh9  1  0.750000  0.350449  0.439749  1
  Rh  Rh10  1  0.750000  0.826170  0.083266  1
  Rh  Rh11  1  0.250000  0.173830  0.916734  1
