# generated using pymatgen
data_Li2DyHo3As4
_symmetry_space_group_name_H-M   'P 1'
_cell_length_a   4.16269800
_cell_length_b   4.16269695
_cell_length_c   14.06169100
_cell_angle_alpha   90.00000000
_cell_angle_beta   90.00000000
_cell_angle_gamma   120.00000837
_symmetry_Int_Tables_number   1
_chemical_formula_structural   Li2DyHo3As4
_chemical_formula_sum   'Li2 Dy1 Ho3 As4'
_cell_volume   211.01719421
_cell_formula_units_Z   1
loop_
 _symmetry_equiv_pos_site_id
 _symmetry_equiv_pos_as_xyz
  1  'x, y, z'
loop_
 _atom_site_type_symbol
 _atom_site_label
 _atom_site_symmetry_multiplicity
 _atom_site_fract_x
 _atom_site_fract_y
 _atom_site_fract_z
 _atom_site_occupancy
  Li  Li0  1  0.000000  0.000000  0.749948  1
  Li  Li1  1  0.000000  0.000000  0.249803  1
  Dy  Dy2  1  0.666667  0.333333  0.389470  1
  Ho  Ho3  1  0.333333  0.666667  0.889516  1
  Ho  Ho4  1  0.333333  0.666667  0.610551  1
  Ho  Ho5  1  0.666667  0.333333  0.110367  1
  As  As6  1  0.333333  0.666667  0.249499  1
  As  As7  1  0.000000  0.000000  0.999987  1
  As  As8  1  0.000000  0.000000  0.500729  1
  As  As9  1  0.666667  0.333333  0.750129  1
