# generated using pymatgen
data_SrPrPt7
_symmetry_space_group_name_H-M   'P 1'
_cell_length_a   13.89476153
_cell_length_b   13.89476175
_cell_length_c   13.89476197
_cell_angle_alpha   22.67802052
_cell_angle_beta   22.67801771
_cell_angle_gamma   22.67801989
_symmetry_Int_Tables_number   1
_chemical_formula_structural   SrPrPt7
_chemical_formula_sum   'Sr2 Pr2 Pt14'
_cell_volume   349.84897804
_cell_formula_units_Z   2
loop_
 _symmetry_equiv_pos_site_id
 _symmetry_equiv_pos_as_xyz
  1  'x, y, z'
loop_
 _atom_site_type_symbol
 _atom_site_label
 _atom_site_symmetry_multiplicity
 _atom_site_fract_x
 _atom_site_fract_y
 _atom_site_fract_z
 _atom_site_occupancy
  Sr  Sr0  1  0.850508  0.850508  0.850508  1
  Sr  Sr1  1  0.149492  0.149492  0.149492  1
  Pr  Pr2  1  0.948082  0.948082  0.948082  1
  Pr  Pr3  1  0.051918  0.051918  0.051918  1
  Pt  Pt4  1  0.500000  0.500000  0.500000  1
  Pt  Pt5  1  0.722102  0.722102  0.722102  1
  Pt  Pt6  1  0.277898  0.277898  0.277898  1
  Pt  Pt7  1  0.612024  0.612024  0.612024  1
  Pt  Pt8  1  0.387976  0.387976  0.387976  1
  Pt  Pt9  1  0.500000  0.500000  0.000000  1
  Pt  Pt10  1  0.000000  0.500000  0.500000  1
  Pt  Pt11  1  0.500000  0.000000  0.500000  1
  Pt  Pt12  1  0.389341  0.891015  0.389341  1
  Pt  Pt13  1  0.389341  0.389341  0.891015  1
  Pt  Pt14  1  0.891015  0.389341  0.389341  1
  Pt  Pt15  1  0.610659  0.108985  0.610659  1
  Pt  Pt16  1  0.610659  0.610659  0.108985  1
  Pt  Pt17  1  0.108985  0.610659  0.610659  1
