# generated using pymatgen
data_Tb3P6RuRh8
_symmetry_space_group_name_H-M   'P 1'
_cell_length_a   3.95483300
_cell_length_b   11.30566800
_cell_length_c   12.67848500
_cell_angle_alpha   90.00000000
_cell_angle_beta   90.00000000
_cell_angle_gamma   90.00000000
_symmetry_Int_Tables_number   1
_chemical_formula_structural   Tb3P6RuRh8
_chemical_formula_sum   'Tb6 P12 Ru2 Rh16'
_cell_volume   566.88078765
_cell_formula_units_Z   2
loop_
 _symmetry_equiv_pos_site_id
 _symmetry_equiv_pos_as_xyz
  1  'x, y, z'
loop_
 _atom_site_type_symbol
 _atom_site_label
 _atom_site_symmetry_multiplicity
 _atom_site_fract_x
 _atom_site_fract_y
 _atom_site_fract_z
 _atom_site_occupancy
  Tb  Tb0  1  0.000000  0.500000  0.519794  1
  Tb  Tb1  1  0.500000  0.000000  0.480206  1
  Tb  Tb2  1  0.500000  0.819961  0.205253  1
  Tb  Tb3  1  0.500000  0.180039  0.205253  1
  Tb  Tb4  1  0.000000  0.680039  0.794747  1
  Tb  Tb5  1  0.000000  0.319961  0.794747  1
  P  P6  1  0.500000  0.500000  0.884030  1
  P  P7  1  0.000000  0.000000  0.115970  1
  P  P8  1  0.500000  0.500000  0.348714  1
  P  P9  1  0.000000  0.000000  0.651286  1
  P  P10  1  0.500000  0.313961  0.619373  1
  P  P11  1  0.500000  0.686039  0.619373  1
  P  P12  1  0.000000  0.186039  0.380627  1
  P  P13  1  0.000000  0.813961  0.380627  1
  P  P14  1  0.500000  0.844903  0.892537  1
  P  P15  1  0.500000  0.155097  0.892537  1
  P  P16  1  0.000000  0.655097  0.107463  1
  P  P17  1  0.000000  0.344903  0.107463  1
  Ru  Ru18  1  0.000000  0.500000  0.989889  1
  Ru  Ru19  1  0.500000  0.000000  0.010111  1
  Rh  Rh20  1  0.500000  0.500000  0.163224  1
  Rh  Rh21  1  0.000000  0.000000  0.836776  1
  Rh  Rh22  1  0.500000  0.500000  0.701787  1
  Rh  Rh23  1  0.000000  0.000000  0.298213  1
  Rh  Rh24  1  0.500000  0.331872  0.992927  1
  Rh  Rh25  1  0.500000  0.668128  0.992927  1
  Rh  Rh26  1  0.000000  0.168128  0.007073  1
  Rh  Rh27  1  0.000000  0.831872  0.007073  1
  Rh  Rh28  1  0.500000  0.295602  0.431221  1
  Rh  Rh29  1  0.500000  0.704398  0.431221  1
  Rh  Rh30  1  0.000000  0.204398  0.568779  1
  Rh  Rh31  1  0.000000  0.795602  0.568779  1
  Rh  Rh32  1  0.500000  0.872406  0.711470  1
  Rh  Rh33  1  0.500000  0.127594  0.711470  1
  Rh  Rh34  1  0.000000  0.627594  0.288530  1
  Rh  Rh35  1  0.000000  0.372406  0.288530  1
