# generated using pymatgen
data_K2UF8
_symmetry_space_group_name_H-M   'P 1'
_cell_length_a   7.17981366
_cell_length_b   7.17981409
_cell_length_c   7.17981404
_cell_angle_alpha   129.42536349
_cell_angle_beta   129.42536751
_cell_angle_gamma   74.32710281
_symmetry_Int_Tables_number   1
_chemical_formula_structural   K2UF8
_chemical_formula_sum   'K2 U1 F8'
_cell_volume   215.27210435
_cell_formula_units_Z   1
loop_
 _symmetry_equiv_pos_site_id
 _symmetry_equiv_pos_as_xyz
  1  'x, y, z'
loop_
 _atom_site_type_symbol
 _atom_site_label
 _atom_site_symmetry_multiplicity
 _atom_site_fract_x
 _atom_site_fract_y
 _atom_site_fract_z
 _atom_site_occupancy
  K  K0  1  0.750000  0.250000  0.500000  1
  K  K1  1  0.250000  0.750000  0.500000  1
  U  U2  1  0.000000  0.000000  0.000000  1
  F  F3  1  0.093070  0.093070  0.402830  1
  F  F4  1  0.690239  0.690239  0.597170  1
  F  F5  1  0.093070  0.690239  0.000000  1
  F  F6  1  0.690239  0.093070  0.000000  1
  F  F7  1  0.906930  0.906930  0.597170  1
  F  F8  1  0.309761  0.309761  0.402830  1
  F  F9  1  0.906930  0.309761  0.000000  1
  F  F10  1  0.309761  0.906930  0.000000  1
