# generated using pymatgen
data_Nd5SiBi2Cl
_symmetry_space_group_name_H-M   'P 1'
_cell_length_a   9.42721500
_cell_length_b   9.34035141
_cell_length_c   6.58334200
_cell_angle_alpha   90.00000000
_cell_angle_beta   90.00000000
_cell_angle_gamma   120.30811894
_symmetry_Int_Tables_number   1
_chemical_formula_structural   Nd5SiBi2Cl
_chemical_formula_sum   'Nd10 Si2 Bi4 Cl2'
_cell_volume   500.45713312
_cell_formula_units_Z   2
loop_
 _symmetry_equiv_pos_site_id
 _symmetry_equiv_pos_as_xyz
  1  'x, y, z'
loop_
 _atom_site_type_symbol
 _atom_site_label
 _atom_site_symmetry_multiplicity
 _atom_site_fract_x
 _atom_site_fract_y
 _atom_site_fract_z
 _atom_site_occupancy
  Nd  Nd0  1  0.719146  0.000000  0.750000  1
  Nd  Nd1  1  0.987003  0.253453  0.250000  1
  Nd  Nd2  1  0.733550  0.746547  0.250000  1
  Nd  Nd3  1  0.345709  0.691420  0.500000  1
  Nd  Nd4  1  0.345709  0.691420  0.000000  1
  Nd  Nd5  1  0.654291  0.308580  0.500000  1
  Nd  Nd6  1  0.654291  0.308580  0.000000  1
  Nd  Nd7  1  0.280854  0.000000  0.250000  1
  Nd  Nd8  1  0.266450  0.253453  0.750000  1
  Nd  Nd9  1  0.012997  0.746547  0.750000  1
  Si  Si10  1  0.387488  0.000000  0.750000  1
  Si  Si11  1  0.612512  0.000000  0.250000  1
  Bi  Bi12  1  0.995767  0.611147  0.250000  1
  Bi  Bi13  1  0.615378  0.611147  0.750000  1
  Bi  Bi14  1  0.004233  0.388853  0.750000  1
  Bi  Bi15  1  0.384622  0.388853  0.250000  1
  Cl  Cl16  1  0.000000  0.000000  0.500000  1
  Cl  Cl17  1  0.000000  0.000000  0.000000  1
