# generated using pymatgen
data_Er2LuNb3(B2Ru5)2
_symmetry_space_group_name_H-M   'P 1'
_cell_length_a   9.58068260
_cell_length_b   9.58068201
_cell_length_c   3.12164700
_cell_angle_alpha   90.00000000
_cell_angle_beta   90.00000000
_cell_angle_gamma   89.63542489
_symmetry_Int_Tables_number   1
_chemical_formula_structural   Er2LuNb3(B2Ru5)2
_chemical_formula_sum   'Er2 Lu1 Nb3 B4 Ru10'
_cell_volume   286.52853364
_cell_formula_units_Z   1
loop_
 _symmetry_equiv_pos_site_id
 _symmetry_equiv_pos_as_xyz
  1  'x, y, z'
loop_
 _atom_site_type_symbol
 _atom_site_label
 _atom_site_symmetry_multiplicity
 _atom_site_fract_x
 _atom_site_fract_y
 _atom_site_fract_z
 _atom_site_occupancy
  Er  Er0  1  0.325030  0.324364  0.000000  1
  Er  Er1  1  0.675636  0.674970  0.000000  1
  Lu  Lu2  1  0.174394  0.825606  0.000000  1
  Nb  Nb3  1  0.496283  0.997892  0.000000  1
  Nb  Nb4  1  0.002108  0.503717  0.000000  1
  Nb  Nb5  1  0.824667  0.175333  0.000000  1
  B  B6  1  0.623589  0.376411  0.000000  1
  B  B7  1  0.380489  0.619511  0.000000  1
  B  B8  1  0.119462  0.123126  0.000000  1
  B  B9  1  0.876874  0.880538  0.000000  1
  Ru  Ru10  1  0.503699  0.496301  0.500000  1
  Ru  Ru11  1  0.991892  0.008108  0.500000  1
  Ru  Ru12  1  0.583744  0.213719  0.500000  1
  Ru  Ru13  1  0.429168  0.780326  0.500000  1
  Ru  Ru14  1  0.060143  0.280153  0.500000  1
  Ru  Ru15  1  0.929490  0.722471  0.500000  1
  Ru  Ru16  1  0.277529  0.070510  0.500000  1
  Ru  Ru17  1  0.719847  0.939857  0.500000  1
  Ru  Ru18  1  0.219674  0.570832  0.500000  1
  Ru  Ru19  1  0.786281  0.416256  0.500000  1
