# generated using pymatgen
data_HfTa8NbSi6
_symmetry_space_group_name_H-M   'P 1'
_cell_length_a   7.61932597
_cell_length_b   7.57076854
_cell_length_c   7.59575965
_cell_angle_alpha   128.46262142
_cell_angle_beta   128.63905176
_cell_angle_gamma   75.72748855
_symmetry_Int_Tables_number   1
_chemical_formula_structural   HfTa8NbSi6
_chemical_formula_sum   'Hf1 Ta8 Nb1 Si6'
_cell_volume   260.67190212
_cell_formula_units_Z   1
loop_
 _symmetry_equiv_pos_site_id
 _symmetry_equiv_pos_as_xyz
  1  'x, y, z'
loop_
 _atom_site_type_symbol
 _atom_site_label
 _atom_site_symmetry_multiplicity
 _atom_site_fract_x
 _atom_site_fract_y
 _atom_site_fract_z
 _atom_site_occupancy
  Hf  Hf0  1  0.684004  0.511516  0.500000  1
  Ta  Ta1  1  0.516085  0.014664  0.829916  1
  Ta  Ta2  1  0.186170  0.684750  0.170085  1
  Ta  Ta3  1  0.983992  0.815400  0.500000  1
  Ta  Ta4  1  0.310547  0.485348  0.500000  1
  Ta  Ta5  1  0.483366  0.984340  0.168204  1
  Ta  Ta6  1  0.815162  0.316135  0.831794  1
  Ta  Ta7  1  0.001628  0.002614  0.000737  1
  Ta  Ta8  1  0.500892  0.501877  0.999263  1
  Nb  Nb9  1  0.020767  0.183492  0.500000  1
  Si  Si10  1  0.748814  0.750274  0.002899  1
  Si  Si11  1  0.245914  0.247375  0.997101  1
  Si  Si12  1  0.372088  0.129968  0.500000  1
  Si  Si13  1  0.630030  0.871274  0.500000  1
  Si  Si14  1  0.869951  0.370167  0.239360  1
  Si  Si15  1  0.130591  0.630807  0.760640  1
