# generated using pymatgen
data_Nd10Co3Ni
_symmetry_space_group_name_H-M   'P 1'
_cell_length_a   9.00790007
_cell_length_b   9.01389060
_cell_length_c   7.07474604
_cell_angle_alpha   83.86724055
_cell_angle_beta   83.88193639
_cell_angle_gamma   42.18637369
_symmetry_Int_Tables_number   1
_chemical_formula_structural   Nd10Co3Ni
_chemical_formula_sum   'Nd10 Co3 Ni1'
_cell_volume   383.23251822
_cell_formula_units_Z   1
loop_
 _symmetry_equiv_pos_site_id
 _symmetry_equiv_pos_as_xyz
  1  'x, y, z'
loop_
 _atom_site_type_symbol
 _atom_site_label
 _atom_site_symmetry_multiplicity
 _atom_site_fract_x
 _atom_site_fract_y
 _atom_site_fract_z
 _atom_site_occupancy
  Nd  Nd0  1  0.007827  0.801394  0.922625  1
  Nd  Nd1  1  0.200559  0.990237  0.587306  1
  Nd  Nd2  1  0.989781  0.200037  0.086122  1
  Nd  Nd3  1  0.792995  0.017810  0.413676  1
  Nd  Nd4  1  0.357524  0.213095  0.821581  1
  Nd  Nd5  1  0.781467  0.645017  0.677304  1
  Nd  Nd6  1  0.648498  0.779528  0.178423  1
  Nd  Nd7  1  0.217834  0.350883  0.318091  1
  Nd  Nd8  1  0.568670  0.432063  0.751111  1
  Nd  Nd9  1  0.431441  0.571100  0.246707  1
  Co  Co10  1  0.409475  0.812076  0.924490  1
  Co  Co11  1  0.813214  0.402999  0.427119  1
  Co  Co12  1  0.590843  0.189505  0.074038  1
  Ni  Ni13  1  0.189873  0.594254  0.571410  1
