# generated using pymatgen
data_EuHoFe3Co9P7
_symmetry_space_group_name_H-M   'P 1'
_cell_length_a   9.02601000
_cell_length_b   9.02600917
_cell_length_c   3.62762700
_cell_angle_alpha   90.00000000
_cell_angle_beta   90.00000000
_cell_angle_gamma   120.00000303
_symmetry_Int_Tables_number   1
_chemical_formula_structural   EuHoFe3Co9P7
_chemical_formula_sum   'Eu1 Ho1 Fe3 Co9 P7'
_cell_volume   255.94392455
_cell_formula_units_Z   1
loop_
 _symmetry_equiv_pos_site_id
 _symmetry_equiv_pos_as_xyz
  1  'x, y, z'
loop_
 _atom_site_type_symbol
 _atom_site_label
 _atom_site_symmetry_multiplicity
 _atom_site_fract_x
 _atom_site_fract_y
 _atom_site_fract_z
 _atom_site_occupancy
  Eu  Eu0  1  0.000000  0.000000  0.000000  1
  Ho  Ho1  1  0.333333  0.666667  0.500000  1
  Fe  Fe2  1  0.543419  0.116397  0.500000  1
  Fe  Fe3  1  0.572978  0.456581  0.500000  1
  Fe  Fe4  1  0.883603  0.427022  0.500000  1
  Co  Co5  1  0.296400  0.901818  0.000000  1
  Co  Co6  1  0.605418  0.703600  0.000000  1
  Co  Co7  1  0.098182  0.394582  0.000000  1
  Co  Co8  1  0.783784  0.177253  0.000000  1
  Co  Co9  1  0.393467  0.216216  0.000000  1
  Co  Co10  1  0.822747  0.606533  0.000000  1
  Co  Co11  1  0.711618  0.947117  0.500000  1
  Co  Co12  1  0.235500  0.288382  0.500000  1
  Co  Co13  1  0.052883  0.764500  0.500000  1
  P  P14  1  0.554337  0.924040  0.000000  1
  P  P15  1  0.369702  0.445663  0.000000  1
  P  P16  1  0.075960  0.630298  0.000000  1
  P  P17  1  0.956078  0.223139  0.500000  1
  P  P18  1  0.267061  0.043922  0.500000  1
  P  P19  1  0.776861  0.732939  0.500000  1
  P  P20  1  0.666667  0.333333  0.000000  1
