# generated using pymatgen
data_DyHoTm8In8(PdPt)2
_symmetry_space_group_name_H-M   'P 1'
_cell_length_a   3.60007700
_cell_length_b   8.07817836
_cell_length_c   18.10543400
_cell_angle_alpha   89.98280739
_cell_angle_beta   90.00000000
_cell_angle_gamma   90.00000000
_symmetry_Int_Tables_number   1
_chemical_formula_structural   DyHoTm8In8(PdPt)2
_chemical_formula_sum   'Dy1 Ho1 Tm8 In8 Pd2 Pt2'
_cell_volume   526.54336897
_cell_formula_units_Z   1
loop_
 _symmetry_equiv_pos_site_id
 _symmetry_equiv_pos_as_xyz
  1  'x, y, z'
loop_
 _atom_site_type_symbol
 _atom_site_label
 _atom_site_symmetry_multiplicity
 _atom_site_fract_x
 _atom_site_fract_y
 _atom_site_fract_z
 _atom_site_occupancy
  Dy  Dy0  1  0.000000  0.000000  0.000000  1
  Ho  Ho1  1  0.000000  0.500000  0.500000  1
  Tm  Tm2  1  0.000000  0.117548  0.415449  1
  Tm  Tm3  1  0.000000  0.882452  0.584551  1
  Tm  Tm4  1  0.000000  0.382426  0.914913  1
  Tm  Tm5  1  0.000000  0.617574  0.085087  1
  Tm  Tm6  1  0.000000  0.246562  0.219524  1
  Tm  Tm7  1  0.000000  0.753438  0.780476  1
  Tm  Tm8  1  0.000000  0.260619  0.720432  1
  Tm  Tm9  1  0.000000  0.739381  0.279568  1
  In  In10  1  0.500000  0.421202  0.351394  1
  In  In11  1  0.500000  0.578798  0.648606  1
  In  In12  1  0.500000  0.075459  0.850032  1
  In  In13  1  0.500000  0.924541  0.149968  1
  In  In14  1  0.500000  0.293724  0.066301  1
  In  In15  1  0.500000  0.706276  0.933699  1
  In  In16  1  0.500000  0.206159  0.567093  1
  In  In17  1  0.500000  0.793841  0.432907  1
  Pd  Pd18  1  0.500000  0.025414  0.303730  1
  Pd  Pd19  1  0.500000  0.974586  0.696270  1
  Pt  Pt20  1  0.500000  0.474171  0.803494  1
  Pt  Pt21  1  0.500000  0.525829  0.196506  1
