# generated using pymatgen
data_Fe2SbOsO8
_symmetry_space_group_name_H-M   'P 1'
_cell_length_a   4.64651068
_cell_length_b   5.61531087
_cell_length_c   5.61530930
_cell_angle_alpha   67.87671745
_cell_angle_beta   91.13604155
_cell_angle_gamma   91.13603971
_symmetry_Int_Tables_number   1
_chemical_formula_structural   Fe2SbOsO8
_chemical_formula_sum   'Fe2 Sb1 Os1 O8'
_cell_volume   135.68677575
_cell_formula_units_Z   1
loop_
 _symmetry_equiv_pos_site_id
 _symmetry_equiv_pos_as_xyz
  1  'x, y, z'
loop_
 _atom_site_type_symbol
 _atom_site_label
 _atom_site_symmetry_multiplicity
 _atom_site_fract_x
 _atom_site_fract_y
 _atom_site_fract_z
 _atom_site_occupancy
  Fe  Fe0  1  0.500000  0.499998  0.000000  1
  Fe  Fe1  1  0.500000  0.999998  0.500002  1
  Sb  Sb2  1  0.000000  0.500001  0.500000  1
  Os  Os3  1  0.000000  0.000001  0.000000  1
  O  O4  1  0.287705  0.145304  0.145307  1
  O  O5  1  0.311320  0.653875  0.653871  1
  O  O6  1  0.688679  0.346126  0.346128  1
  O  O7  1  0.712295  0.854697  0.854694  1
  O  O8  1  0.808085  0.849731  0.341929  1
  O  O9  1  0.808084  0.341930  0.849730  1
  O  O10  1  0.191915  0.150270  0.658070  1
  O  O11  1  0.191916  0.658071  0.150269  1
