# generated using pymatgen
data_Ba2SrPaO6
_symmetry_space_group_name_H-M   'P 1'
_cell_length_a   6.37202791
_cell_length_b   6.37202797
_cell_length_c   6.40120966
_cell_angle_alpha   60.20245927
_cell_angle_beta   60.20245766
_cell_angle_gamma   59.32941509
_symmetry_Int_Tables_number   1
_chemical_formula_structural   Ba2SrPaO6
_chemical_formula_sum   'Ba2 Sr1 Pa1 O6'
_cell_volume   183.38425621
_cell_formula_units_Z   1
loop_
 _symmetry_equiv_pos_site_id
 _symmetry_equiv_pos_as_xyz
  1  'x, y, z'
loop_
 _atom_site_type_symbol
 _atom_site_label
 _atom_site_symmetry_multiplicity
 _atom_site_fract_x
 _atom_site_fract_y
 _atom_site_fract_z
 _atom_site_occupancy
  Ba  Ba0  1  0.749097  0.749097  0.234258  1
  Ba  Ba1  1  0.250903  0.250903  0.765742  1
  Sr  Sr2  1  0.000000  0.000000  0.500000  1
  Pa  Pa3  1  0.500000  0.500000  0.000000  1
  O  O4  1  0.325290  0.794081  0.171683  1
  O  O5  1  0.205919  0.674710  0.828317  1
  O  O6  1  0.674710  0.205919  0.828317  1
  O  O7  1  0.794081  0.325290  0.171683  1
  O  O8  1  0.272132  0.272132  0.325585  1
  O  O9  1  0.727868  0.727868  0.674415  1
