# generated using pymatgen
data_La4ZnCd2Pd3
_symmetry_space_group_name_H-M   'P 1'
_cell_length_a   8.01407994
_cell_length_b   8.01407994
_cell_length_c   3.98628900
_cell_angle_alpha   90.00000000
_cell_angle_beta   90.00000000
_cell_angle_gamma   89.82885785
_symmetry_Int_Tables_number   1
_chemical_formula_structural   La4ZnCd2Pd3
_chemical_formula_sum   'La4 Zn1 Cd2 Pd3'
_cell_volume   256.02017135
_cell_formula_units_Z   1
loop_
 _symmetry_equiv_pos_site_id
 _symmetry_equiv_pos_as_xyz
  1  'x, y, z'
loop_
 _atom_site_type_symbol
 _atom_site_label
 _atom_site_symmetry_multiplicity
 _atom_site_fract_x
 _atom_site_fract_y
 _atom_site_fract_z
 _atom_site_occupancy
  La  La0  1  0.678325  0.178325  0.500000  1
  La  La1  1  0.335281  0.835281  0.500000  1
  La  La2  1  0.172845  0.312258  0.500000  1
  La  La3  1  0.812258  0.672845  0.500000  1
  Zn  Zn4  1  0.120222  0.620222  0.000000  1
  Cd  Cd5  1  0.999736  0.995866  0.000000  1
  Cd  Cd6  1  0.495866  0.499736  0.000000  1
  Pd  Pd7  1  0.881076  0.381076  0.000000  1
  Pd  Pd8  1  0.628423  0.875969  0.000000  1
  Pd  Pd9  1  0.375969  0.128423  0.000000  1
