# generated using pymatgen
data_Dy3Y(TaOs3)2
_symmetry_space_group_name_H-M   'P 1'
_cell_length_a   5.58337200
_cell_length_b   5.58337251
_cell_length_c   8.44874500
_cell_angle_alpha   90.00000000
_cell_angle_beta   90.00000000
_cell_angle_gamma   120.00000884
_symmetry_Int_Tables_number   1
_chemical_formula_structural   Dy3Y(TaOs3)2
_chemical_formula_sum   'Dy3 Y1 Ta2 Os6'
_cell_volume   228.09510410
_cell_formula_units_Z   1
loop_
 _symmetry_equiv_pos_site_id
 _symmetry_equiv_pos_as_xyz
  1  'x, y, z'
loop_
 _atom_site_type_symbol
 _atom_site_label
 _atom_site_symmetry_multiplicity
 _atom_site_fract_x
 _atom_site_fract_y
 _atom_site_fract_z
 _atom_site_occupancy
  Dy  Dy0  1  0.666667  0.333333  0.565963  1
  Dy  Dy1  1  0.666667  0.333333  0.934097  1
  Dy  Dy2  1  0.333333  0.666667  0.065658  1
  Y  Y3  1  0.333333  0.666667  0.433936  1
  Ta  Ta4  1  0.000000  0.000000  0.500066  1
  Ta  Ta5  1  0.000000  0.000000  0.000113  1
  Os  Os6  1  0.826444  0.173556  0.249849  1
  Os  Os7  1  0.826444  0.652886  0.249849  1
  Os  Os8  1  0.347114  0.173556  0.249849  1
  Os  Os9  1  0.173492  0.826508  0.750207  1
  Os  Os10  1  0.173492  0.346985  0.750207  1
  Os  Os11  1  0.653015  0.826508  0.750207  1
