# generated using pymatgen
data_BaAl2SiN2O3
_symmetry_space_group_name_H-M   'P 1'
_cell_length_a   5.07375800
_cell_length_b   8.20956600
_cell_length_c   11.64674700
_cell_angle_alpha   90.00000000
_cell_angle_beta   90.00000000
_cell_angle_gamma   90.00000000
_symmetry_Int_Tables_number   1
_chemical_formula_structural   BaAl2SiN2O3
_chemical_formula_sum   'Ba4 Al8 Si4 N8 O12'
_cell_volume   485.12604277
_cell_formula_units_Z   4
loop_
 _symmetry_equiv_pos_site_id
 _symmetry_equiv_pos_as_xyz
  1  'x, y, z'
loop_
 _atom_site_type_symbol
 _atom_site_label
 _atom_site_symmetry_multiplicity
 _atom_site_fract_x
 _atom_site_fract_y
 _atom_site_fract_z
 _atom_site_occupancy
  Ba  Ba0  1  0.515894  0.044897  0.162301  1
  Ba  Ba1  1  0.015894  0.455103  0.837699  1
  Ba  Ba2  1  0.984106  0.955103  0.662301  1
  Ba  Ba3  1  0.484106  0.544897  0.337699  1
  Al  Al4  1  0.505611  0.663831  0.657253  1
  Al  Al5  1  0.005611  0.836169  0.342747  1
  Al  Al6  1  0.993534  0.524686  0.542439  1
  Al  Al7  1  0.494389  0.163831  0.842747  1
  Al  Al8  1  0.994389  0.336169  0.157253  1
  Al  Al9  1  0.493534  0.975314  0.457561  1
  Al  Al10  1  0.506466  0.475314  0.042439  1
  Al  Al11  1  0.006466  0.024686  0.957561  1
  Si  Si12  1  0.996081  0.700223  0.074826  1
  Si  Si13  1  0.503919  0.299777  0.574826  1
  Si  Si14  1  0.496081  0.799777  0.925174  1
  Si  Si15  1  0.003919  0.200223  0.425174  1
  N  N16  1  0.302259  0.163596  0.499200  1
  N  N17  1  0.197741  0.836404  0.999200  1
  N  N18  1  0.338150  0.483487  0.591795  1
  N  N19  1  0.697741  0.663596  0.000800  1
  N  N20  1  0.838150  0.016513  0.408205  1
  N  N21  1  0.161850  0.516513  0.091795  1
  N  N22  1  0.802259  0.336404  0.500800  1
  N  N23  1  0.661850  0.983487  0.908205  1
  O  O24  1  0.651157  0.373693  0.161636  1
  O  O25  1  0.151157  0.126307  0.838364  1
  O  O26  1  0.348843  0.873693  0.338364  1
  O  O27  1  0.095992  0.288112  0.300842  1
  O  O28  1  0.904008  0.788112  0.199158  1
  O  O29  1  0.033409  0.153506  0.079252  1
  O  O30  1  0.533409  0.346494  0.920748  1
  O  O31  1  0.404008  0.711888  0.800842  1
  O  O32  1  0.966591  0.653506  0.420748  1
  O  O33  1  0.848843  0.626307  0.661636  1
  O  O34  1  0.466591  0.846494  0.579252  1
  O  O35  1  0.595992  0.211888  0.699158  1
