# generated using pymatgen
data_Ba5(IrN)3
_symmetry_space_group_name_H-M   'P 1'
_cell_length_a   9.24072700
_cell_length_b   9.24072646
_cell_length_c   3.78203700
_cell_angle_alpha   90.00000000
_cell_angle_beta   90.00000000
_cell_angle_gamma   119.99999834
_symmetry_Int_Tables_number   1
_chemical_formula_structural   Ba5(IrN)3
_chemical_formula_sum   'Ba5 Ir3 N3'
_cell_volume   279.68467285
_cell_formula_units_Z   1
loop_
 _symmetry_equiv_pos_site_id
 _symmetry_equiv_pos_as_xyz
  1  'x, y, z'
loop_
 _atom_site_type_symbol
 _atom_site_label
 _atom_site_symmetry_multiplicity
 _atom_site_fract_x
 _atom_site_fract_y
 _atom_site_fract_z
 _atom_site_occupancy
  Ba  Ba0  1  0.752913  0.000000  0.500000  1
  Ba  Ba1  1  0.247088  0.247088  0.500000  1
  Ba  Ba2  1  0.666666  0.333333  0.500000  1
  Ba  Ba3  1  0.333334  0.666667  0.500000  1
  Ba  Ba4  1  0.000000  0.752913  0.500000  1
  Ir  Ir5  1  0.368690  0.000000  0.000000  1
  Ir  Ir6  1  0.000000  0.368690  0.000000  1
  Ir  Ir7  1  0.631310  0.631310  0.000000  1
  N  N8  1  0.368106  0.000000  0.500000  1
  N  N9  1  0.000000  0.368106  0.500000  1
  N  N10  1  0.631895  0.631894  0.500000  1
