# generated using pymatgen
data_TbHo15ZnIn3Rh4
_symmetry_space_group_name_H-M   'P 1'
_cell_length_a   9.57677037
_cell_length_b   9.57677174
_cell_length_c   9.57443619
_cell_angle_alpha   60.10172113
_cell_angle_beta   60.10170727
_cell_angle_gamma   60.09269696
_symmetry_Int_Tables_number   1
_chemical_formula_structural   TbHo15ZnIn3Rh4
_chemical_formula_sum   'Tb1 Ho15 Zn1 In3 Rh4'
_cell_volume   622.30982880
_cell_formula_units_Z   1
loop_
 _symmetry_equiv_pos_site_id
 _symmetry_equiv_pos_as_xyz
  1  'x, y, z'
loop_
 _atom_site_type_symbol
 _atom_site_label
 _atom_site_symmetry_multiplicity
 _atom_site_fract_x
 _atom_site_fract_y
 _atom_site_fract_z
 _atom_site_occupancy
  Tb  Tb0  1  0.187615  0.187615  0.812082  1
  Ho  Ho1  1  0.602837  0.602837  0.196498  1
  Ho  Ho2  1  0.440161  0.059531  0.439515  1
  Ho  Ho3  1  0.439877  0.439877  0.059588  1
  Ho  Ho4  1  0.813484  0.180970  0.814118  1
  Ho  Ho5  1  0.187787  0.811454  0.188261  1
  Ho  Ho6  1  0.438102  0.060840  0.060991  1
  Ho  Ho7  1  0.180970  0.813484  0.814118  1
  Ho  Ho8  1  0.060840  0.438102  0.060991  1
  Ho  Ho9  1  0.814076  0.814076  0.180864  1
  Ho  Ho10  1  0.196320  0.603105  0.602634  1
  Ho  Ho11  1  0.059531  0.440161  0.439515  1
  Ho  Ho12  1  0.060902  0.060902  0.437901  1
  Ho  Ho13  1  0.811454  0.187787  0.188261  1
  Ho  Ho14  1  0.603105  0.196320  0.602634  1
  Ho  Ho15  1  0.598767  0.598767  0.598647  1
  Zn  Zn16  1  0.833752  0.833752  0.833569  1
  In  In17  1  0.832537  0.832537  0.504831  1
  In  In18  1  0.505456  0.831852  0.832564  1
  In  In19  1  0.831852  0.505456  0.832564  1
  Rh  Rh20  1  0.391869  0.822672  0.391839  1
  Rh  Rh21  1  0.393958  0.393958  0.393441  1
  Rh  Rh22  1  0.822672  0.391869  0.391839  1
  Rh  Rh23  1  0.392074  0.392074  0.822734  1
