# generated using pymatgen
data_Sr3Be2Pt7
_symmetry_space_group_name_H-M   'P 1'
_cell_length_a   8.77220238
_cell_length_b   8.77220244
_cell_length_c   8.77220238
_cell_angle_alpha   37.12467751
_cell_angle_beta   37.12467766
_cell_angle_gamma   37.12467191
_symmetry_Int_Tables_number   1
_chemical_formula_structural   Sr3Be2Pt7
_chemical_formula_sum   'Sr3 Be2 Pt7'
_cell_volume   220.37754491
_cell_formula_units_Z   1
loop_
 _symmetry_equiv_pos_site_id
 _symmetry_equiv_pos_as_xyz
  1  'x, y, z'
loop_
 _atom_site_type_symbol
 _atom_site_label
 _atom_site_symmetry_multiplicity
 _atom_site_fract_x
 _atom_site_fract_y
 _atom_site_fract_z
 _atom_site_occupancy
  Sr  Sr0  1  0.358205  0.358205  0.358205  1
  Sr  Sr1  1  0.500000  0.500000  0.500000  1
  Sr  Sr2  1  0.641794  0.641794  0.641794  1
  Be  Be3  1  0.167232  0.167232  0.167232  1
  Be  Be4  1  0.832768  0.832768  0.832768  1
  Pt  Pt5  1  0.000000  0.000000  0.000000  1
  Pt  Pt6  1  0.572094  0.069684  0.069685  1
  Pt  Pt7  1  0.069684  0.572094  0.069685  1
  Pt  Pt8  1  0.930316  0.930316  0.427905  1
  Pt  Pt9  1  0.069684  0.069684  0.572095  1
  Pt  Pt10  1  0.930316  0.427906  0.930315  1
  Pt  Pt11  1  0.427906  0.930316  0.930315  1
