# generated using pymatgen
data_KTi6(AsSe3)2
_symmetry_space_group_name_H-M   'P 1'
_cell_length_a   9.94836300
_cell_length_b   9.94836268
_cell_length_c   3.62715800
_cell_angle_alpha   90.00000000
_cell_angle_beta   90.00000000
_cell_angle_gamma   119.99999775
_symmetry_Int_Tables_number   1
_chemical_formula_structural   KTi6(AsSe3)2
_chemical_formula_sum   'K1 Ti6 As2 Se6'
_cell_volume   310.88541556
_cell_formula_units_Z   1
loop_
 _symmetry_equiv_pos_site_id
 _symmetry_equiv_pos_as_xyz
  1  'x, y, z'
loop_
 _atom_site_type_symbol
 _atom_site_label
 _atom_site_symmetry_multiplicity
 _atom_site_fract_x
 _atom_site_fract_y
 _atom_site_fract_z
 _atom_site_occupancy
  K  K0  1  0.000000  0.000000  0.500000  1
  Ti  Ti1  1  0.134724  0.641190  0.250751  1
  Ti  Ti2  1  0.506466  0.865276  0.250751  1
  Ti  Ti3  1  0.358810  0.493534  0.250751  1
  Ti  Ti4  1  0.865276  0.358810  0.749249  1
  Ti  Ti5  1  0.493534  0.134724  0.749249  1
  Ti  Ti6  1  0.641190  0.506466  0.749249  1
  As  As7  1  0.666667  0.333333  0.249484  1
  As  As8  1  0.333333  0.666667  0.750516  1
  Se  Se9  1  0.302680  0.950629  0.248168  1
  Se  Se10  1  0.647949  0.697320  0.248168  1
  Se  Se11  1  0.049371  0.352051  0.248168  1
  Se  Se12  1  0.697320  0.049371  0.751832  1
  Se  Se13  1  0.352051  0.302680  0.751832  1
  Se  Se14  1  0.950629  0.647949  0.751832  1
