# generated using pymatgen
data_La7Er9(MgSn4)4
_symmetry_space_group_name_H-M   'P 1'
_cell_length_a   7.85718312
_cell_length_b   8.37066009
_cell_length_c   15.50958178
_cell_angle_alpha   89.94504094
_cell_angle_beta   90.00149358
_cell_angle_gamma   90.01965985
_symmetry_Int_Tables_number   1
_chemical_formula_structural   La7Er9(MgSn4)4
_chemical_formula_sum   'La7 Er9 Mg4 Sn16'
_cell_volume   1020.06170355
_cell_formula_units_Z   1
loop_
 _symmetry_equiv_pos_site_id
 _symmetry_equiv_pos_as_xyz
  1  'x, y, z'
loop_
 _atom_site_type_symbol
 _atom_site_label
 _atom_site_symmetry_multiplicity
 _atom_site_fract_x
 _atom_site_fract_y
 _atom_site_fract_z
 _atom_site_occupancy
  La  La0  1  0.999608  0.180921  0.095034  1
  La  La1  1  0.000470  0.818157  0.903042  1
  La  La2  1  0.499178  0.681063  0.905716  1
  La  La3  1  0.000882  0.817753  0.594905  1
  La  La4  1  0.499915  0.319043  0.094901  1
  La  La5  1  0.001329  0.181983  0.406645  1
  La  La6  1  0.499564  0.318711  0.406690  1
  Er  Er7  1  0.501864  0.684445  0.595176  1
  Er  Er8  1  0.335131  0.168704  0.628098  1
  Er  Er9  1  0.663998  0.830110  0.373027  1
  Er  Er10  1  0.164453  0.668764  0.372924  1
  Er  Er11  1  0.665159  0.830919  0.127912  1
  Er  Er12  1  0.834200  0.331810  0.627762  1
  Er  Er13  1  0.335474  0.169139  0.870482  1
  Er  Er14  1  0.834142  0.331188  0.870824  1
  Er  Er15  1  0.164532  0.669495  0.127744  1
  Mg  Mg16  1  0.160378  0.504356  0.749356  1
  Mg  Mg17  1  0.838847  0.496642  0.250119  1
  Mg  Mg18  1  0.338395  0.003482  0.249731  1
  Mg  Mg19  1  0.662404  0.995093  0.750103  1
  Sn  Sn20  1  0.024098  0.105145  0.749330  1
  Sn  Sn21  1  0.976265  0.893529  0.250452  1
  Sn  Sn22  1  0.475897  0.606434  0.250290  1
  Sn  Sn23  1  0.521654  0.398276  0.747985  1
  Sn  Sn24  1  0.182091  0.464015  0.541661  1
  Sn  Sn25  1  0.821396  0.541098  0.462581  1
  Sn  Sn26  1  0.326380  0.956577  0.462429  1
  Sn  Sn27  1  0.824679  0.540338  0.038475  1
  Sn  Sn28  1  0.674010  0.035794  0.540853  1
  Sn  Sn29  1  0.174591  0.459168  0.960829  1
  Sn  Sn30  1  0.675290  0.040120  0.960675  1
  Sn  Sn31  1  0.324561  0.960559  0.038337  1
  Sn  Sn32  1  0.305919  0.855413  0.747033  1
  Sn  Sn33  1  0.698993  0.139717  0.250888  1
  Sn  Sn34  1  0.198451  0.360409  0.250311  1
  Sn  Sn35  1  0.795802  0.641630  0.747679  1
