# generated using pymatgen
data_Ca3La8Y9Si16
_symmetry_space_group_name_H-M   'P 1'
_cell_length_a   7.54624604
_cell_length_b   7.91925604
_cell_length_c   15.08409600
_cell_angle_alpha   90.00000000
_cell_angle_beta   90.00000000
_cell_angle_gamma   89.98802000
_symmetry_Int_Tables_number   1
_chemical_formula_structural   Ca3La8Y9Si16
_chemical_formula_sum   'Ca3 La8 Y9 Si16'
_cell_volume   901.43543080
_cell_formula_units_Z   1
loop_
 _symmetry_equiv_pos_site_id
 _symmetry_equiv_pos_as_xyz
  1  'x, y, z'
loop_
 _atom_site_type_symbol
 _atom_site_label
 _atom_site_symmetry_multiplicity
 _atom_site_fract_x
 _atom_site_fract_y
 _atom_site_fract_z
 _atom_site_occupancy
  Ca  Ca0  1  0.656394  0.989139  0.750000  1
  Ca  Ca1  1  0.844100  0.489934  0.250000  1
  Ca  Ca2  1  0.343670  0.010054  0.250000  1
  La  La3  1  0.020774  0.179403  0.401862  1
  La  La4  1  0.521397  0.321029  0.401701  1
  La  La5  1  0.480147  0.679504  0.901300  1
  La  La6  1  0.480147  0.679504  0.598700  1
  La  La7  1  0.979393  0.822252  0.597958  1
  La  La8  1  0.979393  0.822252  0.902042  1
  La  La9  1  0.521397  0.321029  0.098299  1
  La  La10  1  0.020774  0.179403  0.098138  1
  Y  Y11  1  0.324468  0.179400  0.623374  1
  Y  Y12  1  0.676406  0.819397  0.377601  1
  Y  Y13  1  0.175331  0.680380  0.377845  1
  Y  Y14  1  0.823042  0.318790  0.876884  1
  Y  Y15  1  0.823042  0.318790  0.623116  1
  Y  Y16  1  0.324468  0.179400  0.876626  1
  Y  Y17  1  0.175331  0.680380  0.122155  1
  Y  Y18  1  0.676406  0.819397  0.122399  1
  Y  Y19  1  0.156599  0.510314  0.750000  1
  Si  Si20  1  0.266680  0.882493  0.750000  1
  Si  Si21  1  0.464902  0.609024  0.250000  1
  Si  Si22  1  0.035466  0.115169  0.750000  1
  Si  Si23  1  0.529214  0.393811  0.750000  1
  Si  Si24  1  0.146754  0.469073  0.539034  1
  Si  Si25  1  0.965397  0.889789  0.250000  1
  Si  Si26  1  0.731909  0.109737  0.250000  1
  Si  Si27  1  0.852135  0.531593  0.035026  1
  Si  Si28  1  0.351862  0.966956  0.035010  1
  Si  Si29  1  0.146754  0.469073  0.960966  1
  Si  Si30  1  0.647122  0.033024  0.534868  1
  Si  Si31  1  0.351862  0.966956  0.464990  1
  Si  Si32  1  0.852135  0.531593  0.464974  1
  Si  Si33  1  0.776256  0.609151  0.750000  1
  Si  Si34  1  0.231750  0.389777  0.250000  1
  Si  Si35  1  0.647122  0.033024  0.965132  1
