# generated using pymatgen
data_Nd2Zn5GaSi2
_symmetry_space_group_name_H-M   'P 1'
_cell_length_a   4.16597300
_cell_length_b   4.16597300
_cell_length_c   10.66452300
_cell_angle_alpha   90.00000000
_cell_angle_beta   90.00000000
_cell_angle_gamma   90.00000000
_symmetry_Int_Tables_number   1
_chemical_formula_structural   Nd2Zn5GaSi2
_chemical_formula_sum   'Nd2 Zn5 Ga1 Si2'
_cell_volume   185.08632701
_cell_formula_units_Z   1
loop_
 _symmetry_equiv_pos_site_id
 _symmetry_equiv_pos_as_xyz
  1  'x, y, z'
loop_
 _atom_site_type_symbol
 _atom_site_label
 _atom_site_symmetry_multiplicity
 _atom_site_fract_x
 _atom_site_fract_y
 _atom_site_fract_z
 _atom_site_occupancy
  Nd  Nd0  1  0.000000  0.000000  0.993943  1
  Nd  Nd1  1  0.500000  0.500000  0.496619  1
  Zn  Zn2  1  0.000000  0.500000  0.249602  1
  Zn  Zn3  1  0.500000  0.000000  0.751480  1
  Zn  Zn4  1  0.500000  0.000000  0.249602  1
  Zn  Zn5  1  0.000000  0.500000  0.751480  1
  Zn  Zn6  1  0.500000  0.500000  0.115975  1
  Ga  Ga7  1  0.000000  0.000000  0.614981  1
  Si  Si8  1  0.000000  0.000000  0.385851  1
  Si  Si9  1  0.500000  0.500000  0.890468  1
