# generated using pymatgen
data_Hf4Nb4Si2AsP
_symmetry_space_group_name_H-M   'P 1'
_cell_length_a   3.59288700
_cell_length_b   6.97859002
_cell_length_c   8.47143201
_cell_angle_alpha   89.67779485
_cell_angle_beta   90.00000000
_cell_angle_gamma   90.00000000
_symmetry_Int_Tables_number   1
_chemical_formula_structural   Hf4Nb4Si2AsP
_chemical_formula_sum   'Hf4 Nb4 Si2 As1 P1'
_cell_volume   212.40327385
_cell_formula_units_Z   1
loop_
 _symmetry_equiv_pos_site_id
 _symmetry_equiv_pos_as_xyz
  1  'x, y, z'
loop_
 _atom_site_type_symbol
 _atom_site_label
 _atom_site_symmetry_multiplicity
 _atom_site_fract_x
 _atom_site_fract_y
 _atom_site_fract_z
 _atom_site_occupancy
  Hf  Hf0  1  0.250000  0.040076  0.671235  1
  Hf  Hf1  1  0.250000  0.537553  0.834961  1
  Hf  Hf2  1  0.750000  0.464013  0.163350  1
  Hf  Hf3  1  0.750000  0.952881  0.334251  1
  Nb  Nb4  1  0.750000  0.867540  0.938237  1
  Nb  Nb5  1  0.250000  0.634970  0.440484  1
  Nb  Nb6  1  0.750000  0.364002  0.565009  1
  Nb  Nb7  1  0.250000  0.139513  0.055940  1
  Si  Si8  1  0.250000  0.759397  0.140284  1
  Si  Si9  1  0.750000  0.743303  0.641276  1
  As  As10  1  0.250000  0.253605  0.357769  1
  P  P11  1  0.750000  0.243146  0.857203  1
