# generated using pymatgen
data_Dy3ErGe4(BiO5)4
_symmetry_space_group_name_H-M   'P 1'
_cell_length_a   5.39901409
_cell_length_b   11.13755522
_cell_length_c   15.47022818
_cell_angle_alpha   90.01386779
_cell_angle_beta   90.01040620
_cell_angle_gamma   90.01805879
_symmetry_Int_Tables_number   1
_chemical_formula_structural   Dy3ErGe4(BiO5)4
_chemical_formula_sum   'Dy6 Er2 Ge8 Bi8 O40'
_cell_volume   930.25284943
_cell_formula_units_Z   2
loop_
 _symmetry_equiv_pos_site_id
 _symmetry_equiv_pos_as_xyz
  1  'x, y, z'
loop_
 _atom_site_type_symbol
 _atom_site_label
 _atom_site_symmetry_multiplicity
 _atom_site_fract_x
 _atom_site_fract_y
 _atom_site_fract_z
 _atom_site_occupancy
  Dy  Dy0  1  0.010577  0.859097  0.553344  1
  Dy  Dy1  1  0.510700  0.141241  0.946680  1
  Dy  Dy2  1  0.489415  0.359122  0.446663  1
  Dy  Dy3  1  0.489300  0.858759  0.053320  1
  Dy  Dy4  1  0.989423  0.140903  0.446656  1
  Dy  Dy5  1  0.510585  0.640878  0.553337  1
  Er  Er6  1  0.009897  0.359230  0.946961  1
  Er  Er7  1  0.990103  0.640770  0.053039  1
  Ge  Ge8  1  0.006508  0.402978  0.596110  1
  Ge  Ge9  1  0.993492  0.597022  0.403890  1
  Ge  Ge10  1  0.506645  0.596514  0.904331  1
  Ge  Ge11  1  0.493424  0.902951  0.403879  1
  Ge  Ge12  1  0.993590  0.097364  0.095919  1
  Ge  Ge13  1  0.006410  0.902636  0.904081  1
  Ge  Ge14  1  0.493355  0.403486  0.095669  1
  Ge  Ge15  1  0.506576  0.097049  0.596121  1
  Bi  Bi16  1  0.544309  0.647260  0.236910  1
  Bi  Bi17  1  0.044013  0.352665  0.262706  1
  Bi  Bi18  1  0.544059  0.147340  0.262750  1
  Bi  Bi19  1  0.455941  0.852660  0.737250  1
  Bi  Bi20  1  0.956058  0.147625  0.762991  1
  Bi  Bi21  1  0.455691  0.352740  0.763090  1
  Bi  Bi22  1  0.955987  0.647335  0.737294  1
  Bi  Bi23  1  0.043942  0.852375  0.237009  1
  O  O24  1  0.193303  0.976187  0.126465  1
  O  O25  1  0.248184  0.235865  0.849488  1
  O  O26  1  0.694316  0.524533  0.126112  1
  O  O27  1  0.751816  0.764135  0.150512  1
  O  O28  1  0.200223  0.958617  0.438379  1
  O  O29  1  0.934131  0.670182  0.302309  1
  O  O30  1  0.799777  0.041383  0.561621  1
  O  O31  1  0.934324  0.170148  0.197666  1
  O  O32  1  0.198912  0.458753  0.060912  1
  O  O33  1  0.751160  0.264741  0.349050  1
  O  O34  1  0.801088  0.541247  0.939088  1
  O  O35  1  0.065676  0.829852  0.802334  1
  O  O36  1  0.251161  0.235283  0.349030  1
  O  O37  1  0.857248  0.309046  0.520560  1
  O  O38  1  0.858307  0.808044  0.979814  1
  O  O39  1  0.434358  0.330148  0.197380  1
  O  O40  1  0.806697  0.023813  0.873535  1
  O  O41  1  0.748839  0.764717  0.650970  1
  O  O42  1  0.700253  0.041382  0.061593  1
  O  O43  1  0.642718  0.809078  0.479412  1
  O  O44  1  0.750599  0.265446  0.849657  1
  O  O45  1  0.693242  0.024035  0.373421  1
  O  O46  1  0.357282  0.190922  0.520588  1
  O  O47  1  0.248840  0.735259  0.650950  1
  O  O48  1  0.065869  0.329818  0.697691  1
  O  O49  1  0.299747  0.958618  0.938407  1
  O  O50  1  0.644639  0.309631  0.020400  1
  O  O51  1  0.141693  0.191956  0.020186  1
  O  O52  1  0.565642  0.669852  0.802620  1
  O  O53  1  0.305684  0.475467  0.873888  1
  O  O54  1  0.700184  0.541363  0.438379  1
  O  O55  1  0.306758  0.975965  0.626579  1
  O  O56  1  0.299816  0.458637  0.561621  1
  O  O57  1  0.193254  0.475979  0.373450  1
  O  O58  1  0.565773  0.170205  0.697823  1
  O  O59  1  0.806746  0.524021  0.626550  1
  O  O60  1  0.355361  0.690369  0.979600  1
  O  O61  1  0.142752  0.690954  0.479440  1
  O  O62  1  0.434227  0.829795  0.302177  1
  O  O63  1  0.249401  0.734554  0.150343  1
