# generated using pymatgen
data_Lu2Zr7Nb11Ge16
_symmetry_space_group_name_H-M   'P 1'
_cell_length_a   6.90278835
_cell_length_b   7.03066619
_cell_length_c   13.46966651
_cell_angle_alpha   90.06571263
_cell_angle_beta   90.00212608
_cell_angle_gamma   89.92671385
_symmetry_Int_Tables_number   1
_chemical_formula_structural   Lu2Zr7Nb11Ge16
_chemical_formula_sum   'Lu2 Zr7 Nb11 Ge16'
_cell_volume   653.69812341
_cell_formula_units_Z   1
loop_
 _symmetry_equiv_pos_site_id
 _symmetry_equiv_pos_as_xyz
  1  'x, y, z'
loop_
 _atom_site_type_symbol
 _atom_site_label
 _atom_site_symmetry_multiplicity
 _atom_site_fract_x
 _atom_site_fract_y
 _atom_site_fract_z
 _atom_site_occupancy
  Lu  Lu0  1  0.009471  0.326020  0.908601  1
  Lu  Lu1  1  0.508322  0.175087  0.590836  1
  Zr  Zr2  1  0.489929  0.824835  0.092980  1
  Zr  Zr3  1  0.988177  0.675799  0.407461  1
  Zr  Zr4  1  0.008682  0.325639  0.591473  1
  Zr  Zr5  1  0.506975  0.175901  0.907457  1
  Zr  Zr6  1  0.487748  0.823129  0.407633  1
  Zr  Zr7  1  0.988240  0.676120  0.094921  1
  Zr  Zr8  1  0.841552  0.831054  0.876148  1
  Nb  Nb9  1  0.342147  0.666990  0.623973  1
  Nb  Nb10  1  0.656038  0.334241  0.126774  1
  Nb  Nb11  1  0.157404  0.165772  0.375275  1
  Nb  Nb12  1  0.160689  0.165940  0.126113  1
  Nb  Nb13  1  0.658974  0.334925  0.374530  1
  Nb  Nb14  1  0.344226  0.668386  0.874317  1
  Nb  Nb15  1  0.845043  0.830851  0.623492  1
  Nb  Nb16  1  0.168923  0.991365  0.746835  1
  Nb  Nb17  1  0.666679  0.508473  0.748623  1
  Nb  Nb18  1  0.332927  0.491669  0.250413  1
  Nb  Nb19  1  0.833256  0.009267  0.250935  1
  Ge  Ge20  1  0.677407  0.535342  0.962881  1
  Ge  Ge21  1  0.180237  0.959346  0.538564  1
  Ge  Ge22  1  0.816001  0.039436  0.043885  1
  Ge  Ge23  1  0.316221  0.462354  0.458886  1
  Ge  Ge24  1  0.318929  0.462679  0.040803  1
  Ge  Ge25  1  0.818882  0.038714  0.459212  1
  Ge  Ge26  1  0.189700  0.960358  0.961712  1
  Ge  Ge27  1  0.684007  0.540381  0.538521  1
  Ge  Ge28  1  0.309380  0.351919  0.749694  1
  Ge  Ge29  1  0.809511  0.148927  0.748863  1
  Ge  Ge30  1  0.191481  0.851600  0.250295  1
  Ge  Ge31  1  0.690526  0.649240  0.250520  1
  Ge  Ge32  1  0.043875  0.612840  0.747894  1
  Ge  Ge33  1  0.541053  0.885626  0.748236  1
  Ge  Ge34  1  0.458540  0.113332  0.250984  1
  Ge  Ge35  1  0.958846  0.386443  0.250259  1
