# generated using pymatgen
data_Ho2Er6Re3RuC8
_symmetry_space_group_name_H-M   'P 1'
_cell_length_a   5.06193600
_cell_length_b   6.52667959
_cell_length_c   9.77355600
_cell_angle_alpha   89.88569829
_cell_angle_beta   90.00000000
_cell_angle_gamma   90.00000000
_symmetry_Int_Tables_number   1
_chemical_formula_structural   Ho2Er6Re3RuC8
_chemical_formula_sum   'Ho2 Er6 Re3 Ru1 C8'
_cell_volume   322.89452755
_cell_formula_units_Z   1
loop_
 _symmetry_equiv_pos_site_id
 _symmetry_equiv_pos_as_xyz
  1  'x, y, z'
loop_
 _atom_site_type_symbol
 _atom_site_label
 _atom_site_symmetry_multiplicity
 _atom_site_fract_x
 _atom_site_fract_y
 _atom_site_fract_z
 _atom_site_occupancy
  Ho  Ho0  1  0.750000  0.532094  0.785356  1
  Ho  Ho1  1  0.250000  0.967069  0.282399  1
  Er  Er2  1  0.750000  0.677285  0.442868  1
  Er  Er3  1  0.250000  0.827064  0.944178  1
  Er  Er4  1  0.750000  0.177941  0.057554  1
  Er  Er5  1  0.250000  0.321875  0.557571  1
  Er  Er6  1  0.250000  0.466289  0.216186  1
  Er  Er7  1  0.750000  0.034050  0.716221  1
  Re  Re8  1  0.250000  0.782217  0.632960  1
  Re  Re9  1  0.750000  0.218298  0.368546  1
  Re  Re10  1  0.750000  0.718827  0.132000  1
  Ru  Ru11  1  0.250000  0.281396  0.866928  1
  C  C12  1  0.250000  0.674317  0.448009  1
  C  C13  1  0.250000  0.549474  0.756924  1
  C  C14  1  0.750000  0.451728  0.240896  1
  C  C15  1  0.750000  0.824688  0.946424  1
  C  C16  1  0.250000  0.047380  0.740109  1
  C  C17  1  0.250000  0.172411  0.051315  1
  C  C18  1  0.750000  0.324152  0.553858  1
  C  C19  1  0.750000  0.951441  0.259695  1
