# generated using pymatgen
data_Li8CaPr7Bi8
_symmetry_space_group_name_H-M   'P 1'
_cell_length_a   9.83308400
_cell_length_b   9.83308303
_cell_length_c   7.56936800
_cell_angle_alpha   90.00000000
_cell_angle_beta   90.00000000
_cell_angle_gamma   119.99999653
_symmetry_Int_Tables_number   1
_chemical_formula_structural   Li8CaPr7Bi8
_chemical_formula_sum   'Li8 Ca1 Pr7 Bi8'
_cell_volume   633.82552129
_cell_formula_units_Z   1
loop_
 _symmetry_equiv_pos_site_id
 _symmetry_equiv_pos_as_xyz
  1  'x, y, z'
loop_
 _atom_site_type_symbol
 _atom_site_label
 _atom_site_symmetry_multiplicity
 _atom_site_fract_x
 _atom_site_fract_y
 _atom_site_fract_z
 _atom_site_occupancy
  Li  Li0  1  0.166656  0.833344  0.291011  1
  Li  Li1  1  0.666687  0.833344  0.291011  1
  Li  Li2  1  0.166656  0.333313  0.291011  1
  Li  Li3  1  0.835105  0.164895  0.801998  1
  Li  Li4  1  0.329791  0.164895  0.801998  1
  Li  Li5  1  0.835105  0.670209  0.801998  1
  Li  Li6  1  0.333333  0.666667  0.690024  1
  Li  Li7  1  0.666667  0.333333  0.199968  1
  Ca  Ca8  1  0.000000  0.000000  0.016993  1
  Pr  Pr9  1  0.513150  0.486850  0.509028  1
  Pr  Pr10  1  0.973700  0.486850  0.509028  1
  Pr  Pr11  1  0.513150  0.026300  0.509028  1
  Pr  Pr12  1  0.488706  0.511294  0.008192  1
  Pr  Pr13  1  0.022588  0.511294  0.008192  1
  Pr  Pr14  1  0.488706  0.977412  0.008192  1
  Pr  Pr15  1  0.000000  0.000000  0.516673  1
  Bi  Bi16  1  0.166935  0.833065  0.750907  1
  Bi  Bi17  1  0.666132  0.833065  0.750907  1
  Bi  Bi18  1  0.166935  0.333868  0.750907  1
  Bi  Bi19  1  0.834129  0.165871  0.246694  1
  Bi  Bi20  1  0.331741  0.165871  0.246694  1
  Bi  Bi21  1  0.834129  0.668259  0.246694  1
  Bi  Bi22  1  0.333333  0.666667  0.279741  1
  Bi  Bi23  1  0.666667  0.333333  0.783099  1
