# generated using pymatgen
data_Na4ErOsO6
_symmetry_space_group_name_H-M   'P 1'
_cell_length_a   5.65828044
_cell_length_b   5.65827548
_cell_length_c   5.82708579
_cell_angle_alpha   99.49746171
_cell_angle_beta   99.49709970
_cell_angle_gamma   119.90208691
_symmetry_Int_Tables_number   1
_chemical_formula_structural   Na4ErOsO6
_chemical_formula_sum   'Na4 Er1 Os1 O6'
_cell_volume   152.69314957
_cell_formula_units_Z   1
loop_
 _symmetry_equiv_pos_site_id
 _symmetry_equiv_pos_as_xyz
  1  'x, y, z'
loop_
 _atom_site_type_symbol
 _atom_site_label
 _atom_site_symmetry_multiplicity
 _atom_site_fract_x
 _atom_site_fract_y
 _atom_site_fract_z
 _atom_site_occupancy
  Na  Na0  1  0.499076  0.500923  0.999999  1
  Na  Na1  1  0.009276  0.990738  0.500006  1
  Na  Na2  1  0.657712  0.342280  0.499999  1
  Na  Na3  1  0.337059  0.662937  0.500001  1
  Er  Er4  1  0.833013  0.166989  0.000002  1
  Os  Os5  1  0.166894  0.833092  0.000004  1
  O  O6  1  0.951588  0.600874  0.207214  1
  O  O7  1  0.219588  0.190521  0.212615  1
  O  O8  1  0.539575  0.922389  0.212487  1
  O  O9  1  0.077612  0.460427  0.787508  1
  O  O10  1  0.809480  0.780417  0.787385  1
  O  O11  1  0.399132  0.048417  0.792782  1
