# generated using pymatgen
data_CaPrRh2O7
_symmetry_space_group_name_H-M   'P 1'
_cell_length_a   7.34278603
_cell_length_b   7.34278520
_cell_length_c   7.34278631
_cell_angle_alpha   120.49698744
_cell_angle_beta   119.35047904
_cell_angle_gamma   90.13500504
_symmetry_Int_Tables_number   1
_chemical_formula_structural   CaPrRh2O7
_chemical_formula_sum   'Ca2 Pr2 Rh4 O14'
_cell_volume   280.22860493
_cell_formula_units_Z   2
loop_
 _symmetry_equiv_pos_site_id
 _symmetry_equiv_pos_as_xyz
  1  'x, y, z'
loop_
 _atom_site_type_symbol
 _atom_site_label
 _atom_site_symmetry_multiplicity
 _atom_site_fract_x
 _atom_site_fract_y
 _atom_site_fract_z
 _atom_site_occupancy
  Ca  Ca0  1  0.500000  0.500000  0.500000  1
  Ca  Ca1  1  0.500000  0.000000  0.000000  1
  Pr  Pr2  1  0.500000  0.500000  0.000000  1
  Pr  Pr3  1  0.000000  0.500000  0.500000  1
  Rh  Rh4  1  0.000000  0.000000  0.500000  1
  Rh  Rh5  1  0.000000  0.500000  0.000000  1
  Rh  Rh6  1  0.000000  0.000000  0.000000  1
  Rh  Rh7  1  0.500000  0.000000  0.500000  1
  O  O8  1  0.379161  0.629161  0.750000  1
  O  O9  1  0.620839  0.370839  0.250000  1
  O  O10  1  0.323065  0.073065  0.250000  1
  O  O11  1  0.919747  0.669747  0.250000  1
  O  O12  1  0.326581  0.672808  0.249535  1
  O  O13  1  0.923273  0.077046  0.250465  1
  O  O14  1  0.326581  0.077046  0.653774  1
  O  O15  1  0.923273  0.672808  0.846226  1
  O  O16  1  0.676935  0.926935  0.750000  1
  O  O17  1  0.080253  0.330253  0.750000  1
  O  O18  1  0.673419  0.327192  0.750465  1
  O  O19  1  0.076727  0.922954  0.749535  1
  O  O20  1  0.673419  0.922954  0.346226  1
  O  O21  1  0.076727  0.327192  0.153774  1
