# generated using pymatgen
data_Sc2TaNb3(B2Ru5)2
_symmetry_space_group_name_H-M   'P 1'
_cell_length_a   9.45964317
_cell_length_b   9.45913683
_cell_length_c   3.06582800
_cell_angle_alpha   90.00000000
_cell_angle_beta   90.00000000
_cell_angle_gamma   90.13816131
_symmetry_Int_Tables_number   1
_chemical_formula_structural   Sc2TaNb3(B2Ru5)2
_chemical_formula_sum   'Sc2 Ta1 Nb3 B4 Ru10'
_cell_volume   274.32967291
_cell_formula_units_Z   1
loop_
 _symmetry_equiv_pos_site_id
 _symmetry_equiv_pos_as_xyz
  1  'x, y, z'
loop_
 _atom_site_type_symbol
 _atom_site_label
 _atom_site_symmetry_multiplicity
 _atom_site_fract_x
 _atom_site_fract_y
 _atom_site_fract_z
 _atom_site_occupancy
  Sc  Sc0  1  0.174782  0.174468  0.000000  1
  Sc  Sc1  1  0.825218  0.825532  0.000000  1
  Ta  Ta2  1  0.500000  0.000000  0.000000  1
  Nb  Nb3  1  0.000000  0.500000  0.000000  1
  Nb  Nb4  1  0.676253  0.323491  0.000000  1
  Nb  Nb5  1  0.323747  0.676509  0.000000  1
  B  B6  1  0.376845  0.376864  0.000000  1
  B  B7  1  0.623155  0.623136  0.000000  1
  B  B8  1  0.880568  0.119391  0.000000  1
  B  B9  1  0.119432  0.880609  0.000000  1
  Ru  Ru10  1  0.500000  0.500000  0.500000  1
  Ru  Ru11  1  0.000000  0.000000  0.500000  1
  Ru  Ru12  1  0.434476  0.219936  0.500000  1
  Ru  Ru13  1  0.565524  0.780064  0.500000  1
  Ru  Ru14  1  0.923395  0.283714  0.500000  1
  Ru  Ru15  1  0.076605  0.716286  0.500000  1
  Ru  Ru16  1  0.716000  0.076507  0.500000  1
  Ru  Ru17  1  0.284000  0.923493  0.500000  1
  Ru  Ru18  1  0.779754  0.565482  0.500000  1
  Ru  Ru19  1  0.220246  0.434518  0.500000  1
