# generated using pymatgen
data_Dy5Tm3(P3Rh4)4
_symmetry_space_group_name_H-M   'P 1'
_cell_length_a   12.97286600
_cell_length_b   12.97286642
_cell_length_c   3.95509800
_cell_angle_alpha   90.00000000
_cell_angle_beta   90.00000000
_cell_angle_gamma   119.99999893
_symmetry_Int_Tables_number   1
_chemical_formula_structural   Dy5Tm3(P3Rh4)4
_chemical_formula_sum   'Dy5 Tm3 P12 Rh16'
_cell_volume   576.44750492
_cell_formula_units_Z   1
loop_
 _symmetry_equiv_pos_site_id
 _symmetry_equiv_pos_as_xyz
  1  'x, y, z'
loop_
 _atom_site_type_symbol
 _atom_site_label
 _atom_site_symmetry_multiplicity
 _atom_site_fract_x
 _atom_site_fract_y
 _atom_site_fract_z
 _atom_site_occupancy
  Dy  Dy0  1  0.333333  0.666667  0.500000  1
  Dy  Dy1  1  0.666667  0.333333  0.500000  1
  Dy  Dy2  1  0.000000  0.813409  0.000000  1
  Dy  Dy3  1  0.186591  0.186591  0.000000  1
  Dy  Dy4  1  0.813409  0.000000  0.000000  1
  Tm  Tm5  1  0.000000  0.444165  0.500000  1
  Tm  Tm6  1  0.555835  0.555835  0.500000  1
  Tm  Tm7  1  0.444165  0.000000  0.500000  1
  P  P8  1  0.000000  0.650905  0.500000  1
  P  P9  1  0.349095  0.349095  0.500000  1
  P  P10  1  0.650905  0.000000  0.500000  1
  P  P11  1  0.516951  0.689758  0.000000  1
  P  P12  1  0.310242  0.827193  0.000000  1
  P  P13  1  0.172807  0.483049  0.000000  1
  P  P14  1  0.483049  0.172807  0.000000  1
  P  P15  1  0.689758  0.516951  0.000000  1
  P  P16  1  0.827193  0.310242  0.000000  1
  P  P17  1  0.000000  0.176550  0.500000  1
  P  P18  1  0.823450  0.823450  0.500000  1
  P  P19  1  0.176550  0.000000  0.500000  1
  Rh  Rh20  1  0.513827  0.869765  0.000000  1
  Rh  Rh21  1  0.130235  0.644061  0.000000  1
  Rh  Rh22  1  0.355939  0.486173  0.000000  1
  Rh  Rh23  1  0.486173  0.355939  0.000000  1
  Rh  Rh24  1  0.869765  0.513827  0.000000  1
  Rh  Rh25  1  0.644061  0.130235  0.000000  1
  Rh  Rh26  1  0.000000  0.274955  0.000000  1
  Rh  Rh27  1  0.725045  0.725045  0.000000  1
  Rh  Rh28  1  0.274955  0.000000  0.000000  1
  Rh  Rh29  1  0.628441  0.806584  0.500000  1
  Rh  Rh30  1  0.193416  0.821857  0.500000  1
  Rh  Rh31  1  0.178143  0.371559  0.500000  1
  Rh  Rh32  1  0.371559  0.178143  0.500000  1
  Rh  Rh33  1  0.806584  0.628441  0.500000  1
  Rh  Rh34  1  0.821857  0.193416  0.500000  1
  Rh  Rh35  1  0.000000  0.000000  0.500000  1
