# generated using pymatgen
data_DyErFe4(SiC)2
_symmetry_space_group_name_H-M   'P 1'
_cell_length_a   3.73649000
_cell_length_b   5.53145482
_cell_length_c   6.73032900
_cell_angle_alpha   90.00000000
_cell_angle_beta   90.00000000
_cell_angle_gamma   70.26019147
_symmetry_Int_Tables_number   1
_chemical_formula_structural   DyErFe4(SiC)2
_chemical_formula_sum   'Dy1 Er1 Fe4 Si2 C2'
_cell_volume   130.92966813
_cell_formula_units_Z   1
loop_
 _symmetry_equiv_pos_site_id
 _symmetry_equiv_pos_as_xyz
  1  'x, y, z'
loop_
 _atom_site_type_symbol
 _atom_site_label
 _atom_site_symmetry_multiplicity
 _atom_site_fract_x
 _atom_site_fract_y
 _atom_site_fract_z
 _atom_site_occupancy
  Dy  Dy0  1  0.050434  0.899134  0.749999  1
  Er  Er1  1  0.949528  0.100947  0.249999  1
  Fe  Fe2  1  0.665585  0.668829  0.062787  1
  Fe  Fe3  1  0.665585  0.668829  0.437213  1
  Fe  Fe4  1  0.334438  0.331126  0.561358  1
  Fe  Fe5  1  0.334438  0.331126  0.938642  1
  Si  Si6  1  0.229765  0.540471  0.249999  1
  Si  Si7  1  0.770582  0.458839  0.749999  1
  C  C8  1  0.499826  0.000349  0.001693  1
  C  C9  1  0.499826  0.000349  0.498307  1
