# generated using pymatgen
data_Eu2GaFe3Cl16
_symmetry_space_group_name_H-M   'P 1'
_cell_length_a   7.08308655
_cell_length_b   7.83091174
_cell_length_c   12.86368996
_cell_angle_alpha   85.59004661
_cell_angle_beta   90.04380205
_cell_angle_gamma   89.99316050
_symmetry_Int_Tables_number   1
_chemical_formula_structural   Eu2GaFe3Cl16
_chemical_formula_sum   'Eu2 Ga1 Fe3 Cl16'
_cell_volume   711.39798776
_cell_formula_units_Z   1
loop_
 _symmetry_equiv_pos_site_id
 _symmetry_equiv_pos_as_xyz
  1  'x, y, z'
loop_
 _atom_site_type_symbol
 _atom_site_label
 _atom_site_symmetry_multiplicity
 _atom_site_fract_x
 _atom_site_fract_y
 _atom_site_fract_z
 _atom_site_occupancy
  Eu  Eu0  1  0.842525  0.501305  0.747327  1
  Eu  Eu1  1  0.160461  0.499875  0.252239  1
  Ga  Ga2  1  0.260292  0.326569  0.914346  1
  Fe  Fe3  1  0.260026  0.673161  0.585702  1
  Fe  Fe4  1  0.738907  0.675684  0.074630  1
  Fe  Fe5  1  0.739128  0.324657  0.426547  1
  Cl  Cl6  1  0.824694  0.406494  0.114891  1
  Cl  Cl7  1  0.824727  0.593004  0.385971  1
  Cl  Cl8  1  0.300928  0.731050  0.416066  1
  Cl  Cl9  1  0.301826  0.267933  0.085294  1
  Cl  Cl10  1  0.699911  0.270582  0.593121  1
  Cl  Cl11  1  0.699973  0.729604  0.906317  1
  Cl  Cl12  1  0.022599  0.814235  0.641872  1
  Cl  Cl13  1  0.020982  0.184532  0.856821  1
  Cl  Cl14  1  0.977096  0.180385  0.361715  1
  Cl  Cl15  1  0.977639  0.819726  0.139000  1
  Cl  Cl16  1  0.528976  0.731133  0.656826  1
  Cl  Cl17  1  0.530633  0.267941  0.841828  1
  Cl  Cl18  1  0.471806  0.264717  0.345848  1
  Cl  Cl19  1  0.471290  0.735274  0.154956  1
  Cl  Cl20  1  0.173017  0.410070  0.619570  1
  Cl  Cl21  1  0.172564  0.592071  0.879113  1
