# generated using pymatgen
data_Nb2Ni3(SeS)4
_symmetry_space_group_name_H-M   'P 1'
_cell_length_a   10.33655500
_cell_length_b   14.33866000
_cell_length_c   3.43182100
_cell_angle_alpha   90.00000000
_cell_angle_beta   90.00000000
_cell_angle_gamma   90.00000000
_symmetry_Int_Tables_number   1
_chemical_formula_structural   Nb2Ni3(SeS)4
_chemical_formula_sum   'Nb4 Ni6 Se8 S8'
_cell_volume   508.63824735
_cell_formula_units_Z   2
loop_
 _symmetry_equiv_pos_site_id
 _symmetry_equiv_pos_as_xyz
  1  'x, y, z'
loop_
 _atom_site_type_symbol
 _atom_site_label
 _atom_site_symmetry_multiplicity
 _atom_site_fract_x
 _atom_site_fract_y
 _atom_site_fract_z
 _atom_site_occupancy
  Nb  Nb0  1  0.305120  0.118762  0.000000  1
  Nb  Nb1  1  0.805120  0.381238  0.000000  1
  Nb  Nb2  1  0.194879  0.618762  0.000000  1
  Nb  Nb3  1  0.694880  0.881238  0.000000  1
  Ni  Ni4  1  0.500000  0.000000  0.500000  1
  Ni  Ni5  1  0.129214  0.227531  0.500000  1
  Ni  Ni6  1  0.629213  0.272469  0.500000  1
  Ni  Ni7  1  0.000000  0.500000  0.500000  1
  Ni  Ni8  1  0.370786  0.727531  0.500000  1
  Ni  Ni9  1  0.870787  0.772469  0.500000  1
  Se  Se10  1  0.054836  0.127649  0.000000  1
  Se  Se11  1  0.757469  0.206908  0.000000  1
  Se  Se12  1  0.257469  0.293092  0.000000  1
  Se  Se13  1  0.554836  0.372351  0.000000  1
  Se  Se14  1  0.445164  0.627649  0.000000  1
  Se  Se15  1  0.742531  0.706908  0.000000  1
  Se  Se16  1  0.242531  0.793093  0.000000  1
  Se  Se17  1  0.945164  0.872351  0.000000  1
  S  S18  1  0.713922  0.005223  0.500000  1
  S  S19  1  0.475140  0.154837  0.500000  1
  S  S20  1  0.975139  0.345163  0.500000  1
  S  S21  1  0.213922  0.494777  0.500000  1
  S  S22  1  0.786078  0.505224  0.500000  1
  S  S23  1  0.024861  0.654837  0.500000  1
  S  S24  1  0.524861  0.845163  0.500000  1
  S  S25  1  0.286078  0.994777  0.500000  1
