# generated using pymatgen
data_Sm3Co8P6Ru
_symmetry_space_group_name_H-M   'P 1'
_cell_length_a   3.74476300
_cell_length_b   10.58995200
_cell_length_c   12.36296000
_cell_angle_alpha   90.00000000
_cell_angle_beta   90.00000000
_cell_angle_gamma   90.00000000
_symmetry_Int_Tables_number   1
_chemical_formula_structural   Sm3Co8P6Ru
_chemical_formula_sum   'Sm6 Co16 P12 Ru2'
_cell_volume   490.27617912
_cell_formula_units_Z   2
loop_
 _symmetry_equiv_pos_site_id
 _symmetry_equiv_pos_as_xyz
  1  'x, y, z'
loop_
 _atom_site_type_symbol
 _atom_site_label
 _atom_site_symmetry_multiplicity
 _atom_site_fract_x
 _atom_site_fract_y
 _atom_site_fract_z
 _atom_site_occupancy
  Sm  Sm0  1  0.000000  0.500000  0.522952  1
  Sm  Sm1  1  0.500000  0.000000  0.477048  1
  Sm  Sm2  1  0.500000  0.816763  0.206726  1
  Sm  Sm3  1  0.500000  0.183237  0.206726  1
  Sm  Sm4  1  0.000000  0.683237  0.793274  1
  Sm  Sm5  1  0.000000  0.316763  0.793274  1
  Co  Co6  1  0.500000  0.500000  0.704730  1
  Co  Co7  1  0.000000  0.000000  0.295270  1
  Co  Co8  1  0.000000  0.500000  0.986670  1
  Co  Co9  1  0.500000  0.000000  0.013330  1
  Co  Co10  1  0.500000  0.332574  0.991567  1
  Co  Co11  1  0.500000  0.667426  0.991567  1
  Co  Co12  1  0.000000  0.167426  0.008433  1
  Co  Co13  1  0.000000  0.832574  0.008433  1
  Co  Co14  1  0.500000  0.297402  0.430287  1
  Co  Co15  1  0.500000  0.702598  0.430287  1
  Co  Co16  1  0.000000  0.202598  0.569713  1
  Co  Co17  1  0.000000  0.797402  0.569713  1
  Co  Co18  1  0.500000  0.880596  0.709219  1
  Co  Co19  1  0.500000  0.119404  0.709219  1
  Co  Co20  1  0.000000  0.619404  0.290781  1
  Co  Co21  1  0.000000  0.380596  0.290781  1
  P  P22  1  0.500000  0.500000  0.884208  1
  P  P23  1  0.000000  0.000000  0.115792  1
  P  P24  1  0.500000  0.500000  0.346591  1
  P  P25  1  0.000000  0.000000  0.653409  1
  P  P26  1  0.500000  0.308914  0.614910  1
  P  P27  1  0.500000  0.691086  0.614910  1
  P  P28  1  0.000000  0.191086  0.385090  1
  P  P29  1  0.000000  0.808914  0.385090  1
  P  P30  1  0.500000  0.847363  0.895260  1
  P  P31  1  0.500000  0.152637  0.895260  1
  P  P32  1  0.000000  0.652637  0.104740  1
  P  P33  1  0.000000  0.347363  0.104740  1
  Ru  Ru34  1  0.500000  0.500000  0.157867  1
  Ru  Ru35  1  0.000000  0.000000  0.842133  1
