# generated using pymatgen
data_Ac4PaPd15
_symmetry_space_group_name_H-M   'P 1'
_cell_length_a   4.27666000
_cell_length_b   4.27666000
_cell_length_c   21.32182100
_cell_angle_alpha   90.00000000
_cell_angle_beta   90.00000000
_cell_angle_gamma   90.00000000
_symmetry_Int_Tables_number   1
_chemical_formula_structural   Ac4PaPd15
_chemical_formula_sum   'Ac4 Pa1 Pd15'
_cell_volume   389.97228427
_cell_formula_units_Z   1
loop_
 _symmetry_equiv_pos_site_id
 _symmetry_equiv_pos_as_xyz
  1  'x, y, z'
loop_
 _atom_site_type_symbol
 _atom_site_label
 _atom_site_symmetry_multiplicity
 _atom_site_fract_x
 _atom_site_fract_y
 _atom_site_fract_z
 _atom_site_occupancy
  Ac  Ac0  1  0.000000  0.000000  0.199275  1
  Ac  Ac1  1  0.000000  0.000000  0.400102  1
  Ac  Ac2  1  0.000000  0.000000  0.599898  1
  Ac  Ac3  1  0.000000  0.000000  0.800725  1
  Pa  Pa4  1  0.000000  0.000000  0.000000  1
  Pd  Pd5  1  0.500000  0.500000  0.000000  1
  Pd  Pd6  1  0.500000  0.500000  0.194516  1
  Pd  Pd7  1  0.500000  0.500000  0.399652  1
  Pd  Pd8  1  0.500000  0.500000  0.600348  1
  Pd  Pd9  1  0.500000  0.500000  0.805484  1
  Pd  Pd10  1  0.500000  0.000000  0.090514  1
  Pd  Pd11  1  0.500000  0.000000  0.297925  1
  Pd  Pd12  1  0.500000  0.000000  0.500000  1
  Pd  Pd13  1  0.500000  0.000000  0.702075  1
  Pd  Pd14  1  0.500000  0.000000  0.909486  1
  Pd  Pd15  1  0.000000  0.500000  0.090514  1
  Pd  Pd16  1  0.000000  0.500000  0.297925  1
  Pd  Pd17  1  0.000000  0.500000  0.500000  1
  Pd  Pd18  1  0.000000  0.500000  0.702075  1
  Pd  Pd19  1  0.000000  0.500000  0.909486  1
