# generated using pymatgen
data_Sm2B4Ir3Rh2
_symmetry_space_group_name_H-M   'P 1'
_cell_length_a   7.53082477
_cell_length_b   6.32114219
_cell_length_c   5.63106000
_cell_angle_alpha   77.87553269
_cell_angle_beta   55.14949690
_cell_angle_gamma   46.97495639
_symmetry_Int_Tables_number   1
_chemical_formula_structural   Sm2B4Ir3Rh2
_chemical_formula_sum   'Sm2 B4 Ir3 Rh2'
_cell_volume   153.42024176
_cell_formula_units_Z   1
loop_
 _symmetry_equiv_pos_site_id
 _symmetry_equiv_pos_as_xyz
  1  'x, y, z'
loop_
 _atom_site_type_symbol
 _atom_site_label
 _atom_site_symmetry_multiplicity
 _atom_site_fract_x
 _atom_site_fract_y
 _atom_site_fract_z
 _atom_site_occupancy
  Sm  Sm0  1  0.858678  0.858678  0.141322  1
  Sm  Sm1  1  0.141322  0.141322  0.858678  1
  B  B2  1  0.788205  0.480395  0.519605  1
  B  B3  1  0.211795  0.519605  0.480395  1
  B  B4  1  0.519605  0.211795  0.788205  1
  B  B5  1  0.480395  0.788205  0.211795  1
  Ir  Ir6  1  0.750000  0.750000  0.750000  1
  Ir  Ir7  1  0.500000  0.500000  0.500000  1
  Ir  Ir8  1  0.250000  0.250000  0.250000  1
  Rh  Rh9  1  0.500000  0.500000  0.000000  1
  Rh  Rh10  1  0.000000  0.000000  0.500000  1
