# generated using pymatgen
data_Sr3Mn4(TcAs3)2
_symmetry_space_group_name_H-M   'P 1'
_cell_length_a   8.97629398
_cell_length_b   8.97473147
_cell_length_c   8.97473076
_cell_angle_alpha   154.73050586
_cell_angle_beta   88.49698890
_cell_angle_gamma   97.00193101
_symmetry_Int_Tables_number   1
_chemical_formula_structural   Sr3Mn4(TcAs3)2
_chemical_formula_sum   'Sr3 Mn4 Tc2 As6'
_cell_volume   300.24920694
_cell_formula_units_Z   1
loop_
 _symmetry_equiv_pos_site_id
 _symmetry_equiv_pos_as_xyz
  1  'x, y, z'
loop_
 _atom_site_type_symbol
 _atom_site_label
 _atom_site_symmetry_multiplicity
 _atom_site_fract_x
 _atom_site_fract_y
 _atom_site_fract_z
 _atom_site_occupancy
  Sr  Sr0  1  0.334101  0.334737  0.999364  1
  Sr  Sr1  1  0.666604  0.666753  0.999851  1
  Sr  Sr2  1  0.998048  0.998546  0.999502  1
  Mn  Mn3  1  0.755460  0.505170  0.250291  1
  Mn  Mn4  1  0.078835  0.828016  0.250819  1
  Mn  Mn5  1  0.416478  0.166744  0.249734  1
  Mn  Mn6  1  0.922879  0.166398  0.756483  1
  Tc  Tc7  1  0.581971  0.835906  0.746065  1
  Tc  Tc8  1  0.243882  0.497757  0.746124  1
  As  As9  1  0.299270  0.666765  0.632504  1
  As  As10  1  0.700763  0.336383  0.364380  1
  As  As11  1  0.964605  0.327560  0.637045  1
  As  As12  1  0.361751  0.997304  0.364447  1
  As  As13  1  0.033076  0.666275  0.366801  1
  As  As14  1  0.642274  0.005684  0.636591  1
