# generated using pymatgen
data_Li(HoP)2
_symmetry_space_group_name_H-M   'P 1'
_cell_length_a   4.04978000
_cell_length_b   4.04980530
_cell_length_c   13.69568300
_cell_angle_alpha   90.00000000
_cell_angle_beta   90.00000000
_cell_angle_gamma   119.99980965
_symmetry_Int_Tables_number   1
_chemical_formula_structural   Li(HoP)2
_chemical_formula_sum   'Li2 Ho4 P4'
_cell_volume   194.52737932
_cell_formula_units_Z   2
loop_
 _symmetry_equiv_pos_site_id
 _symmetry_equiv_pos_as_xyz
  1  'x, y, z'
loop_
 _atom_site_type_symbol
 _atom_site_label
 _atom_site_symmetry_multiplicity
 _atom_site_fract_x
 _atom_site_fract_y
 _atom_site_fract_z
 _atom_site_occupancy
  Li  Li0  1  0.000004  0.000008  0.250000  1
  Li  Li1  1  0.999996  0.999992  0.750000  1
  Ho  Ho2  1  0.666673  0.333349  0.109743  1
  Ho  Ho3  1  0.666673  0.333349  0.390257  1
  Ho  Ho4  1  0.333326  0.666651  0.609743  1
  Ho  Ho5  1  0.333326  0.666651  0.890257  1
  P  P6  1  0.000000  0.000000  0.000001  1
  P  P7  1  0.333334  0.666668  0.249999  1
  P  P8  1  0.000000  0.000000  0.500001  1
  P  P9  1  0.666667  0.333335  0.749999  1
