# generated using pymatgen
data_HoPu(ThH5)6
_symmetry_space_group_name_H-M   'P 1'
_cell_length_a   7.83560483
_cell_length_b   7.83298340
_cell_length_c   7.79781200
_cell_angle_alpha   109.44331247
_cell_angle_beta   109.45531212
_cell_angle_gamma   109.67315100
_symmetry_Int_Tables_number   1
_chemical_formula_structural   HoPu(ThH5)6
_chemical_formula_sum   'Ho1 Pu1 Th6 H30'
_cell_volume   367.70419436
_cell_formula_units_Z   1
loop_
 _symmetry_equiv_pos_site_id
 _symmetry_equiv_pos_as_xyz
  1  'x, y, z'
loop_
 _atom_site_type_symbol
 _atom_site_label
 _atom_site_symmetry_multiplicity
 _atom_site_fract_x
 _atom_site_fract_y
 _atom_site_fract_z
 _atom_site_occupancy
  Ho  Ho0  1  0.498850  0.999638  0.085000  1
  Pu  Pu1  1  0.911736  0.912171  0.914145  1
  Th  Th2  1  0.993798  0.078846  0.494446  1
  Th  Th3  1  0.085006  0.505214  0.001380  1
  Th  Th4  1  0.998988  0.583979  0.504479  1
  Th  Th5  1  0.583369  0.503201  0.999124  1
  Th  Th6  1  0.504153  0.998740  0.587849  1
  Th  Th7  1  0.416407  0.410104  0.411164  1
  H  H8  1  0.650232  0.963698  0.368602  1
  H  H9  1  0.217655  0.317261  0.845373  1
  H  H10  1  0.187164  0.403342  0.534565  1
  H  H11  1  0.095388  0.279751  0.125877  1
  H  H12  1  0.281784  0.122812  0.091943  1
  H  H13  1  0.125104  0.091569  0.274462  1
  H  H14  1  0.472391  0.154877  0.875582  1
  H  H15  1  0.718520  0.350134  0.813442  1
  H  H16  1  0.627399  0.380201  0.250796  1
  H  H17  1  0.251166  0.624264  0.376956  1
  H  H18  1  0.751113  0.873043  0.122011  1
  H  H19  1  0.119942  0.750665  0.874525  1
  H  H20  1  0.374292  0.247673  0.623580  1
  H  H21  1  0.875760  0.125444  0.751404  1
  H  H22  1  0.781433  0.595296  0.631838  1
  H  H23  1  0.318808  0.849235  0.221730  1
  H  H24  1  0.372942  0.659605  0.967146  1
  H  H25  1  0.963578  0.368231  0.651506  1
  H  H26  1  0.537258  0.185859  0.405335  1
  H  H27  1  0.405800  0.537888  0.187037  1
  H  H28  1  0.839648  0.216799  0.312375  1
  H  H29  1  0.906001  0.691930  0.033621  1
  H  H30  1  0.812560  0.717089  0.348183  1
  H  H31  1  0.151798  0.868649  0.465777  1
  H  H32  1  0.687984  0.027409  0.907071  1
  H  H33  1  0.347230  0.817589  0.723440  1
  H  H34  1  0.871238  0.470536  0.153618  1
  H  H35  1  0.635604  0.781283  0.597155  1
  H  H36  1  0.599093  0.631098  0.779769  1
  H  H37  1  0.028806  0.904878  0.687699  1
