# generated using pymatgen
data_Ho12InGa(CoNi)2
_symmetry_space_group_name_H-M   'P 1'
_cell_length_a   8.29892532
_cell_length_b   8.29892457
_cell_length_c   8.29892620
_cell_angle_alpha   113.36088074
_cell_angle_beta   109.51559389
_cell_angle_gamma   105.62948405
_symmetry_Int_Tables_number   1
_chemical_formula_structural   Ho12InGa(CoNi)2
_chemical_formula_sum   'Ho12 In1 Ga1 Co2 Ni2'
_cell_volume   437.98907493
_cell_formula_units_Z   1
loop_
 _symmetry_equiv_pos_site_id
 _symmetry_equiv_pos_as_xyz
  1  'x, y, z'
loop_
 _atom_site_type_symbol
 _atom_site_label
 _atom_site_symmetry_multiplicity
 _atom_site_fract_x
 _atom_site_fract_y
 _atom_site_fract_z
 _atom_site_occupancy
  Ho  Ho0  1  0.428707  0.230716  0.197991  1
  Ho  Ho1  1  0.571293  0.769284  0.802009  1
  Ho  Ho2  1  0.032724  0.230716  0.802009  1
  Ho  Ho3  1  0.967276  0.769284  0.197991  1
  Ho  Ho4  1  0.181738  0.282971  0.464708  1
  Ho  Ho5  1  0.818262  0.717029  0.535292  1
  Ho  Ho6  1  0.181738  0.717029  0.898767  1
  Ho  Ho7  1  0.818262  0.282971  0.101233  1
  Ho  Ho8  1  0.329073  0.639833  0.310762  1
  Ho  Ho9  1  0.670927  0.360167  0.689238  1
  Ho  Ho10  1  0.329073  0.018310  0.689238  1
  Ho  Ho11  1  0.670927  0.981690  0.310762  1
  In  In12  1  0.500000  0.500000  0.000000  1
  Ga  Ga13  1  0.000000  0.000000  0.000000  1
  Co  Co14  1  0.342507  0.000000  0.342507  1
  Co  Co15  1  0.657493  0.000000  0.657493  1
  Ni  Ni16  1  0.120215  0.620215  0.500000  1
  Ni  Ni17  1  0.879785  0.379785  0.500000  1
