# generated using pymatgen
data_YbHo(Co3Si2)2
_symmetry_space_group_name_H-M   'P 1'
_cell_length_a   6.24842978
_cell_length_b   6.24843025
_cell_length_c   6.24843001
_cell_angle_alpha   130.31449533
_cell_angle_beta   113.98286654
_cell_angle_gamma   86.93630206
_symmetry_Int_Tables_number   1
_chemical_formula_structural   YbHo(Co3Si2)2
_chemical_formula_sum   'Yb1 Ho1 Co6 Si4'
_cell_volume   162.08977614
_cell_formula_units_Z   1
loop_
 _symmetry_equiv_pos_site_id
 _symmetry_equiv_pos_as_xyz
  1  'x, y, z'
loop_
 _atom_site_type_symbol
 _atom_site_label
 _atom_site_symmetry_multiplicity
 _atom_site_fract_x
 _atom_site_fract_y
 _atom_site_fract_z
 _atom_site_occupancy
  Yb  Yb0  1  0.250000  0.535298  0.285298  1
  Ho  Ho1  1  0.750000  0.461234  0.711234  1
  Co  Co2  1  0.998681  0.000409  0.499090  1
  Co  Co3  1  0.501319  0.000409  0.001728  1
  Co  Co4  1  0.719878  0.001228  0.720056  1
  Co  Co5  1  0.218828  0.500179  0.720056  1
  Co  Co6  1  0.281172  0.001228  0.281351  1
  Co  Co7  1  0.780122  0.500179  0.281351  1
  Si  Si8  1  0.080658  0.879950  0.799291  1
  Si  Si9  1  0.920764  0.121390  0.200627  1
  Si  Si10  1  0.579236  0.779864  0.200627  1
  Si  Si11  1  0.419342  0.218632  0.799291  1
