# generated using pymatgen
data_La8LuZrIr6
_symmetry_space_group_name_H-M   'P 1'
_cell_length_a   11.26065400
_cell_length_b   11.26065400
_cell_length_c   6.48000500
_cell_angle_alpha   90.00000000
_cell_angle_beta   90.00000000
_cell_angle_gamma   90.00000000
_symmetry_Int_Tables_number   1
_chemical_formula_structural   La8LuZrIr6
_chemical_formula_sum   'La16 Lu2 Zr2 Ir12'
_cell_volume   821.67972274
_cell_formula_units_Z   2
loop_
 _symmetry_equiv_pos_site_id
 _symmetry_equiv_pos_as_xyz
  1  'x, y, z'
loop_
 _atom_site_type_symbol
 _atom_site_label
 _atom_site_symmetry_multiplicity
 _atom_site_fract_x
 _atom_site_fract_y
 _atom_site_fract_z
 _atom_site_occupancy
  La  La0  1  0.285542  0.086788  0.379711  1
  La  La1  1  0.285542  0.913212  0.879711  1
  La  La2  1  0.714458  0.086788  0.879711  1
  La  La3  1  0.714458  0.913212  0.379711  1
  La  La4  1  0.586451  0.786999  0.881776  1
  La  La5  1  0.586451  0.213001  0.381776  1
  La  La6  1  0.413549  0.786999  0.381776  1
  La  La7  1  0.413549  0.213001  0.881776  1
  La  La8  1  0.213001  0.413549  0.618224  1
  La  La9  1  0.213001  0.586451  0.118224  1
  La  La10  1  0.786999  0.413549  0.118224  1
  La  La11  1  0.786999  0.586451  0.618224  1
  La  La12  1  0.913212  0.714458  0.120289  1
  La  La13  1  0.913212  0.285542  0.620289  1
  La  La14  1  0.086788  0.714458  0.620289  1
  La  La15  1  0.086788  0.285542  0.120289  1
  Lu  Lu16  1  0.500000  0.500000  0.000000  1
  Lu  Lu17  1  0.500000  0.500000  0.500000  1
  Zr  Zr18  1  0.000000  0.000000  0.500000  1
  Zr  Zr19  1  0.000000  0.000000  0.000000  1
  Ir  Ir20  1  0.862933  0.137067  0.250000  1
  Ir  Ir21  1  0.862933  0.862933  0.750000  1
  Ir  Ir22  1  0.137067  0.137067  0.750000  1
  Ir  Ir23  1  0.137067  0.862933  0.250000  1
  Ir  Ir24  1  0.646885  0.353115  0.750000  1
  Ir  Ir25  1  0.646885  0.646885  0.250000  1
  Ir  Ir26  1  0.353115  0.353115  0.250000  1
  Ir  Ir27  1  0.353115  0.646885  0.750000  1
  Ir  Ir28  1  0.500000  0.000000  0.118040  1
  Ir  Ir29  1  0.500000  0.000000  0.618040  1
  Ir  Ir30  1  0.000000  0.500000  0.881960  1
  Ir  Ir31  1  0.000000  0.500000  0.381960  1
