# generated using pymatgen
data_EuGa2GePt
_symmetry_space_group_name_H-M   'P 1'
_cell_length_a   6.19430955
_cell_length_b   6.19430937
_cell_length_c   6.19430995
_cell_angle_alpha   138.76685213
_cell_angle_beta   138.76685377
_cell_angle_gamma   59.73053339
_symmetry_Int_Tables_number   1
_chemical_formula_structural   EuGa2GePt
_chemical_formula_sum   'Eu1 Ga2 Ge1 Pt1'
_cell_volume   102.21626739
_cell_formula_units_Z   1
loop_
 _symmetry_equiv_pos_site_id
 _symmetry_equiv_pos_as_xyz
  1  'x, y, z'
loop_
 _atom_site_type_symbol
 _atom_site_label
 _atom_site_symmetry_multiplicity
 _atom_site_fract_x
 _atom_site_fract_y
 _atom_site_fract_z
 _atom_site_occupancy
  Eu  Eu0  1  0.995572  0.995572  0.000000  1
  Ga  Ga1  1  0.257963  0.757963  0.500000  1
  Ga  Ga2  1  0.757963  0.257963  0.500000  1
  Ge  Ge3  1  0.413078  0.413078  0.000000  1
  Pt  Pt4  1  0.641193  0.641193  0.000000  1
