# generated using pymatgen
data_CeHoTm6
_symmetry_space_group_name_H-M   'P 1'
_cell_length_a   7.11475341
_cell_length_b   7.11423665
_cell_length_c   5.61441350
_cell_angle_alpha   90.06159959
_cell_angle_beta   90.04552298
_cell_angle_gamma   119.94600777
_symmetry_Int_Tables_number   1
_chemical_formula_structural   CeHoTm6
_chemical_formula_sum   'Ce1 Ho1 Tm6'
_cell_volume   246.23991343
_cell_formula_units_Z   1
loop_
 _symmetry_equiv_pos_site_id
 _symmetry_equiv_pos_as_xyz
  1  'x, y, z'
loop_
 _atom_site_type_symbol
 _atom_site_label
 _atom_site_symmetry_multiplicity
 _atom_site_fract_x
 _atom_site_fract_y
 _atom_site_fract_z
 _atom_site_occupancy
  Ce  Ce0  1  0.333340  0.666657  0.749896  1
  Ho  Ho1  1  0.666688  0.333378  0.249995  1
  Tm  Tm2  1  0.166006  0.332008  0.250118  1
  Tm  Tm3  1  0.668065  0.833972  0.249985  1
  Tm  Tm4  1  0.165930  0.833991  0.250008  1
  Tm  Tm5  1  0.834659  0.669263  0.750015  1
  Tm  Tm6  1  0.330749  0.165343  0.749990  1
  Tm  Tm7  1  0.834564  0.165388  0.749993  1
