# generated using pymatgen
data_Hf18GaRe8Os
_symmetry_space_group_name_H-M   'P 1'
_cell_length_a   8.61802200
_cell_length_b   8.61802202
_cell_length_c   8.62295200
_cell_angle_alpha   90.00000000
_cell_angle_beta   90.00000000
_cell_angle_gamma   119.99999994
_symmetry_Int_Tables_number   1
_chemical_formula_structural   Hf18GaRe8Os
_chemical_formula_sum   'Hf18 Ga1 Re8 Os1'
_cell_volume   554.62800932
_cell_formula_units_Z   1
loop_
 _symmetry_equiv_pos_site_id
 _symmetry_equiv_pos_as_xyz
  1  'x, y, z'
loop_
 _atom_site_type_symbol
 _atom_site_label
 _atom_site_symmetry_multiplicity
 _atom_site_fract_x
 _atom_site_fract_y
 _atom_site_fract_z
 _atom_site_occupancy
  Hf  Hf0  1  0.197406  0.802594  0.447521  1
  Hf  Hf1  1  0.197406  0.394810  0.447521  1
  Hf  Hf2  1  0.605190  0.802594  0.447521  1
  Hf  Hf3  1  0.806961  0.193039  0.547200  1
  Hf  Hf4  1  0.806961  0.613922  0.547200  1
  Hf  Hf5  1  0.386078  0.193039  0.547200  1
  Hf  Hf6  1  0.806961  0.193039  0.952800  1
  Hf  Hf7  1  0.806961  0.613922  0.952800  1
  Hf  Hf8  1  0.386078  0.193039  0.952800  1
  Hf  Hf9  1  0.197406  0.802594  0.052479  1
  Hf  Hf10  1  0.197406  0.394810  0.052479  1
  Hf  Hf11  1  0.605190  0.802594  0.052479  1
  Hf  Hf12  1  0.539973  0.460027  0.250000  1
  Hf  Hf13  1  0.539973  0.079945  0.250000  1
  Hf  Hf14  1  0.920055  0.460027  0.250000  1
  Hf  Hf15  1  0.460605  0.539395  0.750000  1
  Hf  Hf16  1  0.460605  0.921210  0.750000  1
  Hf  Hf17  1  0.078790  0.539395  0.750000  1
  Ga  Ga18  1  0.666667  0.333333  0.750000  1
  Re  Re19  1  0.889382  0.110618  0.250000  1
  Re  Re20  1  0.889382  0.778763  0.250000  1
  Re  Re21  1  0.221237  0.110618  0.250000  1
  Re  Re22  1  0.109797  0.890203  0.750000  1
  Re  Re23  1  0.109797  0.219596  0.750000  1
  Re  Re24  1  0.780404  0.890203  0.750000  1
  Re  Re25  1  0.000000  0.000000  0.498418  1
  Re  Re26  1  0.000000  0.000000  0.001582  1
  Os  Os27  1  0.333333  0.666667  0.250000  1
