# generated using pymatgen
data_Y2TmLu5Au4
_symmetry_space_group_name_H-M   'P 1'
_cell_length_a   4.83718600
_cell_length_b   7.09817888
_cell_length_c   8.79746204
_cell_angle_alpha   89.85891424
_cell_angle_beta   90.00000000
_cell_angle_gamma   90.00000000
_symmetry_Int_Tables_number   1
_chemical_formula_structural   Y2TmLu5Au4
_chemical_formula_sum   'Y2 Tm1 Lu5 Au4'
_cell_volume   302.06180397
_cell_formula_units_Z   1
loop_
 _symmetry_equiv_pos_site_id
 _symmetry_equiv_pos_as_xyz
  1  'x, y, z'
loop_
 _atom_site_type_symbol
 _atom_site_label
 _atom_site_symmetry_multiplicity
 _atom_site_fract_x
 _atom_site_fract_y
 _atom_site_fract_z
 _atom_site_occupancy
  Y  Y0  1  0.250000  0.983980  0.321425  1
  Y  Y1  1  0.750000  0.516046  0.822020  1
  Tm  Tm2  1  0.750000  0.016221  0.675383  1
  Lu  Lu3  1  0.250000  0.851177  0.922668  1
  Lu  Lu4  1  0.250000  0.351725  0.577445  1
  Lu  Lu5  1  0.750000  0.148416  0.077434  1
  Lu  Lu6  1  0.750000  0.648501  0.421817  1
  Lu  Lu7  1  0.250000  0.483288  0.175841  1
  Au  Au8  1  0.250000  0.249970  0.900334  1
  Au  Au9  1  0.250000  0.752997  0.603936  1
  Au  Au10  1  0.750000  0.746832  0.103220  1
  Au  Au11  1  0.750000  0.250847  0.398477  1
