# generated using pymatgen
data_Y4MnOs4Ru3
_symmetry_space_group_name_H-M   'P 1'
_cell_length_a   5.34692378
_cell_length_b   5.29518191
_cell_length_c   8.93706300
_cell_angle_alpha   90.00000000
_cell_angle_beta   90.00000000
_cell_angle_gamma   121.22364355
_symmetry_Int_Tables_number   1
_chemical_formula_structural   Y4MnOs4Ru3
_chemical_formula_sum   'Y4 Mn1 Os4 Ru3'
_cell_volume   216.38253808
_cell_formula_units_Z   1
loop_
 _symmetry_equiv_pos_site_id
 _symmetry_equiv_pos_as_xyz
  1  'x, y, z'
loop_
 _atom_site_type_symbol
 _atom_site_label
 _atom_site_symmetry_multiplicity
 _atom_site_fract_x
 _atom_site_fract_y
 _atom_site_fract_z
 _atom_site_occupancy
  Y  Y0  1  0.331767  0.661988  0.434411  1
  Y  Y1  1  0.665820  0.333504  0.565421  1
  Y  Y2  1  0.665820  0.333504  0.934579  1
  Y  Y3  1  0.331767  0.661988  0.065589  1
  Mn  Mn4  1  0.166436  0.333437  0.750000  1
  Os  Os5  1  0.173197  0.828187  0.750000  1
  Os  Os6  1  0.349323  0.178385  0.250000  1
  Os  Os7  1  0.836629  0.677443  0.250000  1
  Os  Os8  1  0.652548  0.827429  0.750000  1
  Ru  Ru9  1  0.000479  0.994134  0.997863  1
  Ru  Ru10  1  0.825735  0.175871  0.250000  1
  Ru  Ru11  1  0.000479  0.994134  0.502137  1
