# generated using pymatgen
data_Sc4In5GaRu
_symmetry_space_group_name_H-M   'P 1'
_cell_length_a   7.57964155
_cell_length_b   3.36636300
_cell_length_c   9.46780390
_cell_angle_alpha   90.00000000
_cell_angle_beta   94.20002000
_cell_angle_gamma   90.00000000
_symmetry_Int_Tables_number   1
_chemical_formula_structural   Sc4In5GaRu
_chemical_formula_sum   'Sc4 In5 Ga1 Ru1'
_cell_volume   240.93005451
_cell_formula_units_Z   1
loop_
 _symmetry_equiv_pos_site_id
 _symmetry_equiv_pos_as_xyz
  1  'x, y, z'
loop_
 _atom_site_type_symbol
 _atom_site_label
 _atom_site_symmetry_multiplicity
 _atom_site_fract_x
 _atom_site_fract_y
 _atom_site_fract_z
 _atom_site_occupancy
  Sc  Sc0  1  0.310867  0.499999  0.134694  1
  Sc  Sc1  1  0.725387  0.499999  0.451086  1
  Sc  Sc2  1  0.290035  0.499999  0.578975  1
  Sc  Sc3  1  0.682438  0.499999  0.842088  1
  In  In4  1  0.999391  0.000000  0.999800  1
  In  In5  1  0.659586  0.000000  0.142805  1
  In  In6  1  0.042599  0.000000  0.328775  1
  In  In7  1  0.955168  0.000000  0.670643  1
  In  In8  1  0.340284  0.000000  0.857582  1
  Ga  Ga9  1  0.424824  0.000000  0.366143  1
  Ru  Ru10  1  0.569421  0.000000  0.627410  1
