# generated using pymatgen
data_Tb3Pr4Er3Sn8
_symmetry_space_group_name_H-M   'P 1'
_cell_length_a   8.14018900
_cell_length_b   8.30404615
_cell_length_c   15.68063828
_cell_angle_alpha   89.97835870
_cell_angle_beta   90.00000000
_cell_angle_gamma   90.00000000
_symmetry_Int_Tables_number   1
_chemical_formula_structural   Tb3Pr4Er3Sn8
_chemical_formula_sum   'Tb6 Pr8 Er6 Sn16'
_cell_volume   1059.95626999
_cell_formula_units_Z   2
loop_
 _symmetry_equiv_pos_site_id
 _symmetry_equiv_pos_as_xyz
  1  'x, y, z'
loop_
 _atom_site_type_symbol
 _atom_site_label
 _atom_site_symmetry_multiplicity
 _atom_site_fract_x
 _atom_site_fract_y
 _atom_site_fract_z
 _atom_site_occupancy
  Tb  Tb0  1  0.364025  0.836235  0.877735  1
  Tb  Tb1  1  0.864025  0.663765  0.622265  1
  Tb  Tb2  1  0.636192  0.163942  0.377704  1
  Tb  Tb3  1  0.136192  0.336058  0.122296  1
  Tb  Tb4  1  0.636180  0.163822  0.121909  1
  Tb  Tb5  1  0.136180  0.336178  0.378091  1
  Pr  Pr6  1  0.516611  0.320946  0.902387  1
  Pr  Pr7  1  0.016611  0.179054  0.597613  1
  Pr  Pr8  1  0.483471  0.679287  0.402958  1
  Pr  Pr9  1  0.983471  0.820713  0.097042  1
  Pr  Pr10  1  0.483390  0.679334  0.097308  1
  Pr  Pr11  1  0.983390  0.820666  0.402692  1
  Pr  Pr12  1  0.516549  0.320836  0.597486  1
  Pr  Pr13  1  0.016549  0.179164  0.902514  1
  Er  Er14  1  0.363564  0.836430  0.622715  1
  Er  Er15  1  0.863564  0.663570  0.877285  1
  Er  Er16  1  0.197444  0.503790  0.749900  1
  Er  Er17  1  0.697444  0.996210  0.750100  1
  Er  Er18  1  0.802695  0.496861  0.249924  1
  Er  Er19  1  0.302695  0.003139  0.250076  1
  Sn  Sn20  1  0.299944  0.039483  0.042750  1
  Sn  Sn21  1  0.799944  0.460517  0.457250  1
  Sn  Sn22  1  0.698231  0.960045  0.542961  1
  Sn  Sn23  1  0.198231  0.539955  0.957039  1
  Sn  Sn24  1  0.700987  0.959129  0.956930  1
  Sn  Sn25  1  0.200987  0.540871  0.543070  1
  Sn  Sn26  1  0.300334  0.038684  0.458135  1
  Sn  Sn27  1  0.800334  0.461316  0.041865  1
  Sn  Sn28  1  0.562794  0.624291  0.750041  1
  Sn  Sn29  1  0.062794  0.875709  0.749959  1
  Sn  Sn30  1  0.437288  0.376413  0.250000  1
  Sn  Sn31  1  0.937288  0.123587  0.250000  1
  Sn  Sn32  1  0.325133  0.141790  0.749671  1
  Sn  Sn33  1  0.825133  0.358210  0.750329  1
  Sn  Sn34  1  0.675169  0.857540  0.250006  1
  Sn  Sn35  1  0.175169  0.642460  0.249994  1
