# generated using pymatgen
data_YbCe2(RhPb)3
_symmetry_space_group_name_H-M   'P 1'
_cell_length_a   7.78432086
_cell_length_b   7.78432144
_cell_length_c   3.96069700
_cell_angle_alpha   90.00000000
_cell_angle_beta   90.00000000
_cell_angle_gamma   121.26971541
_symmetry_Int_Tables_number   1
_chemical_formula_structural   YbCe2(RhPb)3
_chemical_formula_sum   'Yb1 Ce2 Rh3 Pb3'
_cell_volume   205.13687674
_cell_formula_units_Z   1
loop_
 _symmetry_equiv_pos_site_id
 _symmetry_equiv_pos_as_xyz
  1  'x, y, z'
loop_
 _atom_site_type_symbol
 _atom_site_label
 _atom_site_symmetry_multiplicity
 _atom_site_fract_x
 _atom_site_fract_y
 _atom_site_fract_z
 _atom_site_occupancy
  Yb  Yb0  1  0.403661  0.403661  0.500000  1
  Ce  Ce1  1  0.589039  0.998826  0.500000  1
  Ce  Ce2  1  0.998826  0.589039  0.500000  1
  Rh  Rh3  1  0.990599  0.990599  0.500000  1
  Rh  Rh4  1  0.686569  0.330120  0.000000  1
  Rh  Rh5  1  0.330120  0.686569  0.000000  1
  Pb  Pb6  1  0.726766  0.726766  0.000000  1
  Pb  Pb7  1  0.262612  0.011808  0.000000  1
  Pb  Pb8  1  0.011808  0.262612  0.000000  1
