# generated using pymatgen
data_EuSc(Cu2P)4
_symmetry_space_group_name_H-M   'P 1'
_cell_length_a   7.19786492
_cell_length_b   7.19786511
_cell_length_c   3.77078600
_cell_angle_alpha   90.00000000
_cell_angle_beta   90.00000000
_cell_angle_gamma   88.90732245
_symmetry_Int_Tables_number   1
_chemical_formula_structural   EuSc(Cu2P)4
_chemical_formula_sum   'Eu1 Sc1 Cu8 P4'
_cell_volume   195.32611031
_cell_formula_units_Z   1
loop_
 _symmetry_equiv_pos_site_id
 _symmetry_equiv_pos_as_xyz
  1  'x, y, z'
loop_
 _atom_site_type_symbol
 _atom_site_label
 _atom_site_symmetry_multiplicity
 _atom_site_fract_x
 _atom_site_fract_y
 _atom_site_fract_z
 _atom_site_occupancy
  Eu  Eu0  1  0.500000  0.500000  0.500000  1
  Sc  Sc1  1  0.000000  0.000000  0.000000  1
  Cu  Cu2  1  0.666563  0.916949  0.500000  1
  Cu  Cu3  1  0.158356  0.588282  0.000000  1
  Cu  Cu4  1  0.411718  0.841644  0.000000  1
  Cu  Cu5  1  0.916949  0.666563  0.500000  1
  Cu  Cu6  1  0.841644  0.411718  0.000000  1
  Cu  Cu7  1  0.588282  0.158356  0.000000  1
  Cu  Cu8  1  0.083051  0.333437  0.500000  1
  Cu  Cu9  1  0.333437  0.083051  0.500000  1
  P  P10  1  0.276884  0.276884  0.000000  1
  P  P11  1  0.723116  0.723116  0.000000  1
  P  P12  1  0.793802  0.206198  0.500000  1
  P  P13  1  0.206198  0.793802  0.500000  1
