# generated using pymatgen
data_LaTh3(SbSe)4
_symmetry_space_group_name_H-M   'P 1'
_cell_length_a   17.80454314
_cell_length_b   4.26082875
_cell_length_c   6.04827118
_cell_angle_alpha   45.74290302
_cell_angle_beta   89.97906235
_cell_angle_gamma   90.01069264
_symmetry_Int_Tables_number   1
_chemical_formula_structural   LaTh3(SbSe)4
_chemical_formula_sum   'La1 Th3 Sb4 Se4'
_cell_volume   328.62437713
_cell_formula_units_Z   1
loop_
 _symmetry_equiv_pos_site_id
 _symmetry_equiv_pos_as_xyz
  1  'x, y, z'
loop_
 _atom_site_type_symbol
 _atom_site_label
 _atom_site_symmetry_multiplicity
 _atom_site_fract_x
 _atom_site_fract_y
 _atom_site_fract_z
 _atom_site_occupancy
  La  La0  1  0.356250  0.489025  0.258759  1
  Th  Th1  1  0.145053  0.488415  0.759079  1
  Th  Th2  1  0.644005  0.509287  0.742495  1
  Th  Th3  1  0.855647  0.511176  0.241216  1
  Sb  Sb4  1  0.502844  0.000846  0.749616  1
  Sb  Sb5  1  0.998456  0.001193  0.748721  1
  Sb  Sb6  1  0.503973  0.001960  0.248166  1
  Sb  Sb7  1  0.999657  0.000125  0.250304  1
  Se  Se8  1  0.312703  0.487879  0.759675  1
  Se  Se9  1  0.816782  0.510930  0.741246  1
  Se  Se10  1  0.685482  0.510828  0.241488  1
  Se  Se11  1  0.179149  0.488338  0.259235  1
