# generated using pymatgen
data_Y8NbSi16Mo11
_symmetry_space_group_name_H-M   'P 1'
_cell_length_a   6.79272504
_cell_length_b   6.97569069
_cell_length_c   12.98371500
_cell_angle_alpha   90.00000000
_cell_angle_beta   90.00000000
_cell_angle_gamma   90.13145524
_symmetry_Int_Tables_number   1
_chemical_formula_structural   Y8NbSi16Mo11
_chemical_formula_sum   'Y8 Nb1 Si16 Mo11'
_cell_volume   615.21806802
_cell_formula_units_Z   1
loop_
 _symmetry_equiv_pos_site_id
 _symmetry_equiv_pos_as_xyz
  1  'x, y, z'
loop_
 _atom_site_type_symbol
 _atom_site_label
 _atom_site_symmetry_multiplicity
 _atom_site_fract_x
 _atom_site_fract_y
 _atom_site_fract_z
 _atom_site_occupancy
  Y  Y0  1  0.498258  0.332212  0.094076  1
  Y  Y1  1  0.995825  0.168584  0.405972  1
  Y  Y2  1  0.503940  0.667281  0.594463  1
  Y  Y3  1  0.004280  0.833475  0.905884  1
  Y  Y4  1  0.503940  0.667281  0.905537  1
  Y  Y5  1  0.004280  0.833475  0.594116  1
  Y  Y6  1  0.498258  0.332212  0.405924  1
  Y  Y7  1  0.995825  0.168584  0.094028  1
  Nb  Nb8  1  0.836092  0.505563  0.250000  1
  Si  Si9  1  0.806026  0.629733  0.750000  1
  Si  Si10  1  0.305142  0.871530  0.750000  1
  Si  Si11  1  0.201110  0.368376  0.250000  1
  Si  Si12  1  0.694567  0.124429  0.250000  1
  Si  Si13  1  0.534631  0.364831  0.750000  1
  Si  Si14  1  0.036548  0.135826  0.750000  1
  Si  Si15  1  0.459677  0.635511  0.250000  1
  Si  Si16  1  0.965650  0.871127  0.250000  1
  Si  Si17  1  0.659300  0.042525  0.547802  1
  Si  Si18  1  0.160083  0.456196  0.952517  1
  Si  Si19  1  0.339288  0.956818  0.047639  1
  Si  Si20  1  0.839318  0.543657  0.456405  1
  Si  Si21  1  0.339288  0.956818  0.452361  1
  Si  Si22  1  0.839318  0.543657  0.043595  1
  Si  Si23  1  0.659300  0.042525  0.952198  1
  Si  Si24  1  0.160083  0.456196  0.547483  1
  Mo  Mo25  1  0.668052  0.999257  0.750000  1
  Mo  Mo26  1  0.166220  0.499592  0.750000  1
  Mo  Mo27  1  0.331375  0.998988  0.250000  1
  Mo  Mo28  1  0.830220  0.336942  0.626539  1
  Mo  Mo29  1  0.331896  0.163848  0.874437  1
  Mo  Mo30  1  0.167771  0.662387  0.124881  1
  Mo  Mo31  1  0.667273  0.833693  0.375306  1
  Mo  Mo32  1  0.167771  0.662387  0.375119  1
  Mo  Mo33  1  0.667273  0.833693  0.124694  1
  Mo  Mo34  1  0.830220  0.336942  0.873461  1
  Mo  Mo35  1  0.331896  0.163848  0.625563  1
