# generated using pymatgen
data_TbGdCrSiO8
_symmetry_space_group_name_H-M   'P 1'
_cell_length_a   5.95323679
_cell_length_b   5.95323743
_cell_length_c   5.95323665
_cell_angle_alpha   105.92687941
_cell_angle_beta   105.92688330
_cell_angle_gamma   116.81936711
_symmetry_Int_Tables_number   1
_chemical_formula_structural   TbGdCrSiO8
_chemical_formula_sum   'Tb1 Gd1 Cr1 Si1 O8'
_cell_volume   160.39130506
_cell_formula_units_Z   1
loop_
 _symmetry_equiv_pos_site_id
 _symmetry_equiv_pos_as_xyz
  1  'x, y, z'
loop_
 _atom_site_type_symbol
 _atom_site_label
 _atom_site_symmetry_multiplicity
 _atom_site_fract_x
 _atom_site_fract_y
 _atom_site_fract_z
 _atom_site_occupancy
  Tb  Tb0  1  0.250000  0.750000  0.500000  1
  Gd  Gd1  1  0.000000  0.000000  0.000000  1
  Cr  Cr2  1  0.500000  0.500000  0.000000  1
  Si  Si3  1  0.750000  0.250000  0.500000  1
  O  O4  1  0.336593  0.518559  0.181967  1
  O  O5  1  0.400170  0.078142  0.322028  1
  O  O6  1  0.756113  0.078142  0.677972  1
  O  O7  1  0.336593  0.154626  0.818033  1
  O  O8  1  0.845374  0.663407  0.181967  1
  O  O9  1  0.921858  0.243887  0.322028  1
  O  O10  1  0.921858  0.599830  0.677972  1
  O  O11  1  0.481441  0.663407  0.818033  1
