# generated using pymatgen
data_Tb16Al4NiRu3
_symmetry_space_group_name_H-M   'P 1'
_cell_length_a   9.51646891
_cell_length_b   9.53960465
_cell_length_c   9.54989800
_cell_angle_alpha   59.96461872
_cell_angle_beta   59.88397547
_cell_angle_gamma   59.83554923
_symmetry_Int_Tables_number   1
_chemical_formula_structural   Tb16Al4NiRu3
_chemical_formula_sum   'Tb16 Al4 Ni1 Ru3'
_cell_volume   611.57565948
_cell_formula_units_Z   1
loop_
 _symmetry_equiv_pos_site_id
 _symmetry_equiv_pos_as_xyz
  1  'x, y, z'
loop_
 _atom_site_type_symbol
 _atom_site_label
 _atom_site_symmetry_multiplicity
 _atom_site_fract_x
 _atom_site_fract_y
 _atom_site_fract_z
 _atom_site_occupancy
  Tb  Tb0  1  0.188620  0.810988  0.810534  1
  Tb  Tb1  1  0.810197  0.186801  0.186396  1
  Tb  Tb2  1  0.810201  0.186796  0.816610  1
  Tb  Tb3  1  0.188617  0.810995  0.189856  1
  Tb  Tb4  1  0.810553  0.816559  0.186444  1
  Tb  Tb5  1  0.190781  0.190849  0.809189  1
  Tb  Tb6  1  0.056948  0.441520  0.444219  1
  Tb  Tb7  1  0.441485  0.055859  0.057092  1
  Tb  Tb8  1  0.441488  0.055857  0.445565  1
  Tb  Tb9  1  0.056951  0.441517  0.057314  1
  Tb  Tb10  1  0.442682  0.443879  0.056719  1
  Tb  Tb11  1  0.056503  0.055845  0.443824  1
  Tb  Tb12  1  0.602457  0.599148  0.598117  1
  Tb  Tb13  1  0.602454  0.599153  0.200274  1
  Tb  Tb14  1  0.603570  0.200095  0.598169  1
  Tb  Tb15  1  0.195086  0.602186  0.601360  1
  Al  Al16  1  0.824993  0.826516  0.827395  1
  Al  Al17  1  0.824993  0.826518  0.521096  1
  Al  Al18  1  0.824653  0.520719  0.827315  1
  Al  Al19  1  0.520015  0.826638  0.826675  1
  Ni  Ni20  1  0.829317  0.391690  0.389495  1
  Ru  Ru21  1  0.392649  0.390601  0.387984  1
  Ru  Ru22  1  0.392638  0.390609  0.828762  1
  Ru  Ru23  1  0.392149  0.828663  0.389595  1
