# generated using pymatgen
data_La16Cd4Ir3Rh
_symmetry_space_group_name_H-M   'P 1'
_cell_length_a   10.11318773
_cell_length_b   10.11318801
_cell_length_c   10.11318840
_cell_angle_alpha   60.16324178
_cell_angle_beta   60.16324306
_cell_angle_gamma   60.16323858
_symmetry_Int_Tables_number   1
_chemical_formula_structural   La16Cd4Ir3Rh
_chemical_formula_sum   'La16 Cd4 Ir3 Rh1'
_cell_volume   734.09452896
_cell_formula_units_Z   1
loop_
 _symmetry_equiv_pos_site_id
 _symmetry_equiv_pos_as_xyz
  1  'x, y, z'
loop_
 _atom_site_type_symbol
 _atom_site_label
 _atom_site_symmetry_multiplicity
 _atom_site_fract_x
 _atom_site_fract_y
 _atom_site_fract_z
 _atom_site_occupancy
  La  La0  1  0.596764  0.596764  0.596764  1
  La  La1  1  0.598269  0.598269  0.205833  1
  La  La2  1  0.598269  0.205833  0.598269  1
  La  La3  1  0.205833  0.598269  0.598269  1
  La  La4  1  0.059761  0.439926  0.439926  1
  La  La5  1  0.439998  0.059295  0.059295  1
  La  La6  1  0.439926  0.059761  0.439926  1
  La  La7  1  0.059295  0.439998  0.059295  1
  La  La8  1  0.439926  0.439926  0.059761  1
  La  La9  1  0.059295  0.059295  0.439998  1
  La  La10  1  0.190817  0.810747  0.810747  1
  La  La11  1  0.809986  0.189720  0.189720  1
  La  La12  1  0.810747  0.190817  0.810747  1
  La  La13  1  0.189720  0.809986  0.189720  1
  La  La14  1  0.810747  0.810747  0.190817  1
  La  La15  1  0.189720  0.189720  0.809986  1
  Cd  Cd16  1  0.829327  0.829327  0.829327  1
  Cd  Cd17  1  0.829906  0.829906  0.510422  1
  Cd  Cd18  1  0.829906  0.510422  0.829906  1
  Cd  Cd19  1  0.510422  0.829906  0.829906  1
  Ir  Ir20  1  0.391687  0.391687  0.826862  1
  Ir  Ir21  1  0.391687  0.826862  0.391687  1
  Ir  Ir22  1  0.826862  0.391687  0.391687  1
  Rh  Rh23  1  0.391128  0.391128  0.391128  1
