# generated using pymatgen
data_Gd(S8Cl)3
_symmetry_space_group_name_H-M   'P 1'
_cell_length_a   4.10563335
_cell_length_b   15.08083345
_cell_length_c   15.08083377
_cell_angle_alpha   119.18606405
_cell_angle_beta   95.20659168
_cell_angle_gamma   95.20659657
_symmetry_Int_Tables_number   1
_chemical_formula_structural   Gd(S8Cl)3
_chemical_formula_sum   'Gd1 S24 Cl3'
_cell_volume   801.99243767
_cell_formula_units_Z   1
loop_
 _symmetry_equiv_pos_site_id
 _symmetry_equiv_pos_as_xyz
  1  'x, y, z'
loop_
 _atom_site_type_symbol
 _atom_site_label
 _atom_site_symmetry_multiplicity
 _atom_site_fract_x
 _atom_site_fract_y
 _atom_site_fract_z
 _atom_site_occupancy
  Gd  Gd0  1  0.551853  0.000000  0.000000  1
  S  S1  1  0.400966  0.403983  0.000000  1
  S  S2  1  0.554170  0.725558  0.000000  1
  S  S3  1  0.258268  0.519750  0.128337  1
  S  S4  1  0.368096  0.745493  0.130341  1
  S  S5  1  0.575436  0.655397  0.180830  1
  S  S6  1  0.622602  0.384848  0.254507  1
  S  S7  1  0.828611  0.274442  0.274442  1
  S  S8  1  0.920038  0.525432  0.344602  1
  S  S9  1  0.129931  0.871664  0.391413  1
  S  S10  1  0.622602  0.254507  0.384848  1
  S  S11  1  0.400966  0.000000  0.403983  1
  S  S12  1  0.394605  0.819171  0.474568  1
  S  S13  1  0.738519  0.608587  0.480251  1
  S  S14  1  0.258268  0.128337  0.519750  1
  S  S15  1  0.920038  0.344602  0.525432  1
  S  S16  1  0.996985  0.596017  0.596017  1
  S  S17  1  0.237754  0.869659  0.615152  1
  S  S18  1  0.738519  0.480251  0.608587  1
  S  S19  1  0.575436  0.180830  0.655397  1
  S  S20  1  0.554170  0.000000  0.725558  1
  S  S21  1  0.368096  0.130341  0.745493  1
  S  S22  1  0.394605  0.474568  0.819171  1
  S  S23  1  0.237754  0.615152  0.869659  1
  S  S24  1  0.129931  0.391413  0.871664  1
  Cl  Cl25  1  0.100660  0.127286  0.000000  1
  Cl  Cl26  1  0.100660  0.000000  0.127286  1
  Cl  Cl27  1  0.973375  0.872714  0.872714  1
