# generated using pymatgen
data_Ho10Ga3B16Au
_symmetry_space_group_name_H-M   'P 1'
_cell_length_a   7.20519600
_cell_length_b   7.20519600
_cell_length_c   8.30064800
_cell_angle_alpha   90.00000000
_cell_angle_beta   90.00000000
_cell_angle_gamma   89.99669196
_symmetry_Int_Tables_number   1
_chemical_formula_structural   Ho10Ga3B16Au
_chemical_formula_sum   'Ho10 Ga3 B16 Au1'
_cell_volume   430.92689047
_cell_formula_units_Z   1
loop_
 _symmetry_equiv_pos_site_id
 _symmetry_equiv_pos_as_xyz
  1  'x, y, z'
loop_
 _atom_site_type_symbol
 _atom_site_label
 _atom_site_symmetry_multiplicity
 _atom_site_fract_x
 _atom_site_fract_y
 _atom_site_fract_z
 _atom_site_occupancy
  Ho  Ho0  1  0.682332  0.182332  0.214601  1
  Ho  Ho1  1  0.318766  0.818766  0.786612  1
  Ho  Ho2  1  0.318766  0.818766  0.213388  1
  Ho  Ho3  1  0.816094  0.682446  0.213952  1
  Ho  Ho4  1  0.816094  0.682446  0.786048  1
  Ho  Ho5  1  0.682332  0.182332  0.785399  1
  Ho  Ho6  1  0.182446  0.316094  0.786048  1
  Ho  Ho7  1  0.182446  0.316094  0.213952  1
  Ho  Ho8  1  0.002283  0.996592  0.500000  1
  Ho  Ho9  1  0.496592  0.502283  0.500000  1
  Ga  Ga10  1  0.878800  0.378800  0.500000  1
  Ga  Ga11  1  0.379768  0.120357  0.500000  1
  Ga  Ga12  1  0.620357  0.879768  0.500000  1
  B  B13  1  0.171352  0.039990  0.000000  1
  B  B14  1  0.828376  0.960025  0.000000  1
  B  B15  1  0.959383  0.172062  0.000000  1
  B  B16  1  0.327811  0.540376  0.000000  1
  B  B17  1  0.040376  0.827811  0.000000  1
  B  B18  1  0.672062  0.459383  0.000000  1
  B  B19  1  0.539990  0.671352  0.000000  1
  B  B20  1  0.460025  0.328376  0.000000  1
  B  B21  1  0.090621  0.590621  0.000000  1
  B  B22  1  0.909407  0.409407  0.000000  1
  B  B23  1  0.409192  0.090835  0.000000  1
  B  B24  1  0.590835  0.909192  0.000000  1
  B  B25  1  0.000009  0.999782  0.160178  1
  B  B26  1  0.000009  0.999782  0.839822  1
  B  B27  1  0.499782  0.500009  0.839822  1
  B  B28  1  0.499782  0.500009  0.160178  1
  Au  Au29  1  0.123913  0.623913  0.500000  1
