# generated using pymatgen
data_Mg2Si2OsRu
_symmetry_space_group_name_H-M   'P 1'
_cell_length_a   6.73585900
_cell_length_b   4.00750100
_cell_length_c   6.98692700
_cell_angle_alpha   90.00000000
_cell_angle_beta   90.00000000
_cell_angle_gamma   90.00000000
_symmetry_Int_Tables_number   1
_chemical_formula_structural   Mg2Si2OsRu
_chemical_formula_sum   'Mg4 Si4 Os2 Ru2'
_cell_volume   188.60483969
_cell_formula_units_Z   2
loop_
 _symmetry_equiv_pos_site_id
 _symmetry_equiv_pos_as_xyz
  1  'x, y, z'
loop_
 _atom_site_type_symbol
 _atom_site_label
 _atom_site_symmetry_multiplicity
 _atom_site_fract_x
 _atom_site_fract_y
 _atom_site_fract_z
 _atom_site_occupancy
  Mg  Mg0  1  0.490525  0.749999  0.166948  1
  Mg  Mg1  1  0.990525  0.749999  0.333052  1
  Mg  Mg2  1  0.009651  0.250000  0.666930  1
  Mg  Mg3  1  0.509651  0.250000  0.833071  1
  Si  Si4  1  0.799688  0.250000  0.129687  1
  Si  Si5  1  0.299688  0.250000  0.370313  1
  Si  Si6  1  0.701031  0.749999  0.627503  1
  Si  Si7  1  0.201032  0.749999  0.872498  1
  Os  Os8  1  0.154720  0.250000  0.054103  1
  Os  Os9  1  0.654720  0.250000  0.445897  1
  Ru  Ru10  1  0.344383  0.749999  0.554430  1
  Ru  Ru11  1  0.844383  0.749999  0.945570  1
