# generated using pymatgen
data_Er6Al24Ir2Os5Pt
_symmetry_space_group_name_H-M   'P 1'
_cell_length_a   8.79161360
_cell_length_b   8.82055995
_cell_length_c   9.54708389
_cell_angle_alpha   90.03874329
_cell_angle_beta   89.71787764
_cell_angle_gamma   119.78874548
_symmetry_Int_Tables_number   1
_chemical_formula_structural   Er6Al24Ir2Os5Pt
_chemical_formula_sum   'Er6 Al24 Ir2 Os5 Pt1'
_cell_volume   642.51093061
_cell_formula_units_Z   1
loop_
 _symmetry_equiv_pos_site_id
 _symmetry_equiv_pos_as_xyz
  1  'x, y, z'
loop_
 _atom_site_type_symbol
 _atom_site_label
 _atom_site_symmetry_multiplicity
 _atom_site_fract_x
 _atom_site_fract_y
 _atom_site_fract_z
 _atom_site_occupancy
  Er  Er0  1  0.191378  0.385878  0.251572  1
  Er  Er1  1  0.808622  0.614122  0.748428  1
  Er  Er2  1  0.610929  0.810533  0.250672  1
  Er  Er3  1  0.389071  0.189467  0.749328  1
  Er  Er4  1  0.198037  0.810296  0.251349  1
  Er  Er5  1  0.801963  0.189704  0.748651  1
  Al  Al6  1  0.336930  0.669136  0.026909  1
  Al  Al7  1  0.663070  0.330864  0.973091  1
  Al  Al8  1  0.667851  0.333041  0.524630  1
  Al  Al9  1  0.332149  0.666959  0.475370  1
  Al  Al10  1  0.161970  0.326070  0.576698  1
  Al  Al11  1  0.838030  0.673930  0.423302  1
  Al  Al12  1  0.673305  0.836960  0.575792  1
  Al  Al13  1  0.833753  0.674881  0.077438  1
  Al  Al14  1  0.326695  0.163040  0.424208  1
  Al  Al15  1  0.166247  0.325119  0.922562  1
  Al  Al16  1  0.163528  0.835648  0.575878  1
  Al  Al17  1  0.326676  0.163254  0.076330  1
  Al  Al18  1  0.836472  0.164352  0.424122  1
  Al  Al19  1  0.673324  0.836746  0.923670  1
  Al  Al20  1  0.832691  0.159546  0.076496  1
  Al  Al21  1  0.167309  0.840454  0.923504  1
  Al  Al22  1  0.561840  0.125554  0.249216  1
  Al  Al23  1  0.438160  0.874446  0.750784  1
  Al  Al24  1  0.873604  0.438087  0.252113  1
  Al  Al25  1  0.126396  0.561913  0.747887  1
  Al  Al26  1  0.560860  0.439160  0.249040  1
  Al  Al27  1  0.439140  0.560840  0.750960  1
  Al  Al28  1  0.999994  0.001906  0.250088  1
  Al  Al29  1  0.000006  0.998094  0.749912  1
  Ir  Ir30  1  0.500000  0.500000  0.000000  1
  Ir  Ir31  1  0.500000  0.500000  0.500000  1
  Os  Os32  1  0.500000  0.000000  0.000000  1
  Os  Os33  1  0.500000  0.000000  0.500000  1
  Os  Os34  1  0.000000  0.500000  0.500000  1
  Os  Os35  1  0.000000  0.000000  0.000000  1
  Os  Os36  1  0.000000  0.000000  0.500000  1
  Pt  Pt37  1  0.000000  0.500000  0.000000  1
