# generated using pymatgen
data_CaYb(SiTc2)4
_symmetry_space_group_name_H-M   'P 1'
_cell_length_a   7.30993300
_cell_length_b   7.30993368
_cell_length_c   4.17989300
_cell_angle_alpha   90.00000000
_cell_angle_beta   90.00000000
_cell_angle_gamma   89.68045586
_symmetry_Int_Tables_number   1
_chemical_formula_structural   CaYb(SiTc2)4
_chemical_formula_sum   'Ca1 Yb1 Si4 Tc8'
_cell_volume   223.34963330
_cell_formula_units_Z   1
loop_
 _symmetry_equiv_pos_site_id
 _symmetry_equiv_pos_as_xyz
  1  'x, y, z'
loop_
 _atom_site_type_symbol
 _atom_site_label
 _atom_site_symmetry_multiplicity
 _atom_site_fract_x
 _atom_site_fract_y
 _atom_site_fract_z
 _atom_site_occupancy
  Ca  Ca0  1  0.500000  0.500000  0.500000  1
  Yb  Yb1  1  0.000000  0.000000  0.000000  1
  Si  Si2  1  0.793259  0.206741  0.500000  1
  Si  Si3  1  0.206741  0.793259  0.500000  1
  Si  Si4  1  0.291956  0.291956  0.000000  1
  Si  Si5  1  0.708044  0.708044  0.000000  1
  Tc  Tc6  1  0.656672  0.903387  0.500000  1
  Tc  Tc7  1  0.343328  0.096613  0.500000  1
  Tc  Tc8  1  0.154227  0.598769  0.000000  1
  Tc  Tc9  1  0.845773  0.401231  0.000000  1
  Tc  Tc10  1  0.903387  0.656672  0.500000  1
  Tc  Tc11  1  0.096613  0.343328  0.500000  1
  Tc  Tc12  1  0.598769  0.154227  0.000000  1
  Tc  Tc13  1  0.401231  0.845773  0.000000  1
