# generated using pymatgen
data_NaSmCoH6
_symmetry_space_group_name_H-M   'P 1'
_cell_length_a   4.90560514
_cell_length_b   4.90560412
_cell_length_c   4.90560500
_cell_angle_alpha   60.00000079
_cell_angle_beta   60.00000768
_cell_angle_gamma   60.00000212
_symmetry_Int_Tables_number   1
_chemical_formula_structural   NaSmCoH6
_chemical_formula_sum   'Na1 Sm1 Co1 H6'
_cell_volume   83.47620532
_cell_formula_units_Z   1
loop_
 _symmetry_equiv_pos_site_id
 _symmetry_equiv_pos_as_xyz
  1  'x, y, z'
loop_
 _atom_site_type_symbol
 _atom_site_label
 _atom_site_symmetry_multiplicity
 _atom_site_fract_x
 _atom_site_fract_y
 _atom_site_fract_z
 _atom_site_occupancy
  Na  Na0  1  0.250000  0.250000  0.250000  1
  Sm  Sm1  1  0.750000  0.750000  0.750000  1
  Co  Co2  1  0.000000  0.000000  0.000000  1
  H  H3  1  0.771141  0.228859  0.228859  1
  H  H4  1  0.228859  0.771141  0.228859  1
  H  H5  1  0.771141  0.771141  0.228859  1
  H  H6  1  0.228859  0.771141  0.771141  1
  H  H7  1  0.771141  0.228859  0.771141  1
  H  H8  1  0.228859  0.228859  0.771141  1
