# generated using pymatgen
data_Dy2ScBe2Pd5
_symmetry_space_group_name_H-M   'P 1'
_cell_length_a   9.95841900
_cell_length_b   9.95841900
_cell_length_c   3.38846400
_cell_angle_alpha   90.00000000
_cell_angle_beta   90.00000000
_cell_angle_gamma   90.00000000
_symmetry_Int_Tables_number   1
_chemical_formula_structural   Dy2ScBe2Pd5
_chemical_formula_sum   'Dy4 Sc2 Be4 Pd10'
_cell_volume   336.03434415
_cell_formula_units_Z   2
loop_
 _symmetry_equiv_pos_site_id
 _symmetry_equiv_pos_as_xyz
  1  'x, y, z'
loop_
 _atom_site_type_symbol
 _atom_site_label
 _atom_site_symmetry_multiplicity
 _atom_site_fract_x
 _atom_site_fract_y
 _atom_site_fract_z
 _atom_site_occupancy
  Dy  Dy0  1  0.823631  0.323631  0.000000  1
  Dy  Dy1  1  0.323631  0.176369  0.000000  1
  Dy  Dy2  1  0.676369  0.823631  0.000000  1
  Dy  Dy3  1  0.176369  0.676369  0.000000  1
  Sc  Sc4  1  0.000000  0.000000  0.000000  1
  Sc  Sc5  1  0.500000  0.500000  0.000000  1
  Be  Be6  1  0.619371  0.119371  0.000000  1
  Be  Be7  1  0.119371  0.380629  0.000000  1
  Be  Be8  1  0.880629  0.619371  0.000000  1
  Be  Be9  1  0.380629  0.880629  0.000000  1
  Pd  Pd10  1  0.069268  0.219297  0.500000  1
  Pd  Pd11  1  0.219297  0.930732  0.500000  1
  Pd  Pd12  1  0.780703  0.069268  0.500000  1
  Pd  Pd13  1  0.930732  0.780703  0.500000  1
  Pd  Pd14  1  0.430732  0.719297  0.500000  1
  Pd  Pd15  1  0.569268  0.280703  0.500000  1
  Pd  Pd16  1  0.719297  0.569268  0.500000  1
  Pd  Pd17  1  0.280703  0.430732  0.500000  1
  Pd  Pd18  1  0.500000  0.000000  0.500000  1
  Pd  Pd19  1  0.000000  0.500000  0.500000  1
