# generated using pymatgen
data_LaSm3(Rh2O7)2
_symmetry_space_group_name_H-M   'P 1'
_cell_length_a   7.36579822
_cell_length_b   7.36579822
_cell_length_c   7.36579916
_cell_angle_alpha   59.79308788
_cell_angle_beta   59.79308757
_cell_angle_gamma   59.79308036
_symmetry_Int_Tables_number   1
_chemical_formula_structural   LaSm3(Rh2O7)2
_chemical_formula_sum   'La1 Sm3 Rh4 O14'
_cell_volume   281.25462537
_cell_formula_units_Z   1
loop_
 _symmetry_equiv_pos_site_id
 _symmetry_equiv_pos_as_xyz
  1  'x, y, z'
loop_
 _atom_site_type_symbol
 _atom_site_label
 _atom_site_symmetry_multiplicity
 _atom_site_fract_x
 _atom_site_fract_y
 _atom_site_fract_z
 _atom_site_occupancy
  La  La0  1  0.125000  0.125000  0.125000  1
  Sm  Sm1  1  0.125000  0.625000  0.125000  1
  Sm  Sm2  1  0.625000  0.125000  0.125000  1
  Sm  Sm3  1  0.125000  0.125000  0.625000  1
  Rh  Rh4  1  0.625000  0.625000  0.625000  1
  Rh  Rh5  1  0.625000  0.625000  0.125000  1
  Rh  Rh6  1  0.125000  0.625000  0.625000  1
  Rh  Rh7  1  0.625000  0.125000  0.625000  1
  O  O8  1  0.251816  0.251816  0.251816  1
  O  O9  1  0.293059  0.702881  0.293059  1
  O  O10  1  0.956941  0.956941  0.547119  1
  O  O11  1  0.541054  0.958858  0.541054  1
  O  O12  1  0.708946  0.708946  0.291142  1
  O  O13  1  0.958858  0.541054  0.541054  1
  O  O14  1  0.708946  0.291142  0.708946  1
  O  O15  1  0.293059  0.293059  0.702881  1
  O  O16  1  0.702881  0.293059  0.293059  1
  O  O17  1  0.291142  0.708946  0.708946  1
  O  O18  1  0.956941  0.547119  0.956941  1
  O  O19  1  0.541054  0.541054  0.958858  1
  O  O20  1  0.998184  0.998184  0.998184  1
  O  O21  1  0.547119  0.956941  0.956941  1
