# generated using pymatgen
data_FeNi(AuO2)2
_symmetry_space_group_name_H-M   'P 1'
_cell_length_a   5.30405032
_cell_length_b   6.11603966
_cell_length_c   7.09345853
_cell_angle_alpha   64.42858169
_cell_angle_beta   75.69575486
_cell_angle_gamma   89.78922028
_symmetry_Int_Tables_number   1
_chemical_formula_structural   FeNi(AuO2)2
_chemical_formula_sum   'Fe2 Ni2 Au4 O8'
_cell_volume   199.73485431
_cell_formula_units_Z   2
loop_
 _symmetry_equiv_pos_site_id
 _symmetry_equiv_pos_as_xyz
  1  'x, y, z'
loop_
 _atom_site_type_symbol
 _atom_site_label
 _atom_site_symmetry_multiplicity
 _atom_site_fract_x
 _atom_site_fract_y
 _atom_site_fract_z
 _atom_site_occupancy
  Fe  Fe0  1  0.499992  0.253594  0.000137  1
  Fe  Fe1  1  0.000014  0.996408  0.999859  1
  Ni  Ni2  1  0.500043  0.749562  0.999933  1
  Ni  Ni3  1  0.999955  0.500434  0.000069  1
  Au  Au4  1  0.003697  0.999025  0.500859  1
  Au  Au5  1  0.996233  0.500047  0.499074  1
  Au  Au6  1  0.503766  0.749952  0.500932  1
  Au  Au7  1  0.496303  0.250975  0.499136  1
  O  O8  1  0.893187  0.838556  0.830506  1
  O  O9  1  0.887095  0.329798  0.831062  1
  O  O10  1  0.393128  0.581035  0.830553  1
  O  O11  1  0.387115  0.089329  0.831023  1
  O  O12  1  0.112910  0.160691  0.168937  1
  O  O13  1  0.106893  0.668990  0.169399  1
  O  O14  1  0.612881  0.920185  0.168977  1
  O  O15  1  0.606789  0.411419  0.169542  1
