# generated using pymatgen
data_ScInPPt8
_symmetry_space_group_name_H-M   'P 1'
_cell_length_a   3.99741000
_cell_length_b   3.99741000
_cell_length_c   11.14782600
_cell_angle_alpha   90.00000000
_cell_angle_beta   90.00000000
_cell_angle_gamma   90.00000000
_symmetry_Int_Tables_number   1
_chemical_formula_structural   ScInPPt8
_chemical_formula_sum   'Sc1 In1 P1 Pt8'
_cell_volume   178.13430783
_cell_formula_units_Z   1
loop_
 _symmetry_equiv_pos_site_id
 _symmetry_equiv_pos_as_xyz
  1  'x, y, z'
loop_
 _atom_site_type_symbol
 _atom_site_label
 _atom_site_symmetry_multiplicity
 _atom_site_fract_x
 _atom_site_fract_y
 _atom_site_fract_z
 _atom_site_occupancy
  Sc  Sc0  1  0.500000  0.500000  0.183502  1
  In  In1  1  0.500000  0.500000  0.816214  1
  P  P2  1  0.000000  0.000000  0.499135  1
  Pt  Pt3  1  0.500000  0.000000  0.004243  1
  Pt  Pt4  1  0.000000  0.500000  0.004243  1
  Pt  Pt5  1  0.500000  0.000000  0.627709  1
  Pt  Pt6  1  0.000000  0.500000  0.627709  1
  Pt  Pt7  1  0.500000  0.000000  0.367930  1
  Pt  Pt8  1  0.000000  0.500000  0.367930  1
  Pt  Pt9  1  0.000000  0.000000  0.817849  1
  Pt  Pt10  1  0.000000  0.000000  0.183534  1
