# generated using pymatgen
data_ErTmPa(InPt)3
_symmetry_space_group_name_H-M   'P 1'
_cell_length_a   7.59899944
_cell_length_b   7.57796524
_cell_length_c   3.93465800
_cell_angle_alpha   90.00000000
_cell_angle_beta   90.00000000
_cell_angle_gamma   120.02130159
_symmetry_Int_Tables_number   1
_chemical_formula_structural   ErTmPa(InPt)3
_chemical_formula_sum   'Er1 Tm1 Pa1 In3 Pt3'
_cell_volume   196.17939073
_cell_formula_units_Z   1
loop_
 _symmetry_equiv_pos_site_id
 _symmetry_equiv_pos_as_xyz
  1  'x, y, z'
loop_
 _atom_site_type_symbol
 _atom_site_label
 _atom_site_symmetry_multiplicity
 _atom_site_fract_x
 _atom_site_fract_y
 _atom_site_fract_z
 _atom_site_occupancy
  Er  Er0  1  0.002119  0.595364  0.500000  1
  Tm  Tm1  1  0.406501  0.404370  0.500000  1
  Pa  Pa2  1  0.590271  0.000032  0.500000  1
  In  In3  1  0.741372  0.729218  0.000000  1
  In  In4  1  0.012513  0.270725  0.000000  1
  In  In5  1  0.247379  0.000358  0.000000  1
  Pt  Pt6  1  0.348477  0.683193  0.000000  1
  Pt  Pt7  1  0.663902  0.316319  0.000000  1
  Pt  Pt8  1  0.987465  0.000420  0.500000  1
