# generated using pymatgen
data_LiLa(AsO3)4
_symmetry_space_group_name_H-M   'P 1'
_cell_length_a   9.55680896
_cell_length_b   9.55680875
_cell_length_c   10.47860942
_cell_angle_alpha   56.84014674
_cell_angle_beta   56.84015030
_cell_angle_gamma   46.10855385
_symmetry_Int_Tables_number   1
_chemical_formula_structural   LiLa(AsO3)4
_chemical_formula_sum   'Li2 La2 As8 O24'
_cell_volume   554.60402818
_cell_formula_units_Z   2
loop_
 _symmetry_equiv_pos_site_id
 _symmetry_equiv_pos_as_xyz
  1  'x, y, z'
loop_
 _atom_site_type_symbol
 _atom_site_label
 _atom_site_symmetry_multiplicity
 _atom_site_fract_x
 _atom_site_fract_y
 _atom_site_fract_z
 _atom_site_occupancy
  Li  Li0  1  0.207023  0.792977  0.250000  1
  Li  Li1  1  0.792977  0.207023  0.750000  1
  La  La2  1  0.705244  0.294756  0.250000  1
  La  La3  1  0.294756  0.705244  0.750000  1
  As  As4  1  0.208613  0.502150  0.593627  1
  As  As5  1  0.924025  0.807608  0.156939  1
  As  As6  1  0.075975  0.192392  0.843061  1
  As  As7  1  0.791387  0.497850  0.406373  1
  As  As8  1  0.192392  0.075975  0.343061  1
  As  As9  1  0.502150  0.208613  0.093627  1
  As  As10  1  0.497850  0.791387  0.906373  1
  As  As11  1  0.807608  0.924025  0.656939  1
  O  O12  1  0.935331  0.952131  0.695817  1
  O  O13  1  0.684534  0.828055  0.851401  1
  O  O14  1  0.477167  0.651045  0.096093  1
  O  O15  1  0.171945  0.315466  0.648599  1
  O  O16  1  0.522833  0.348955  0.903907  1
  O  O17  1  0.064669  0.047869  0.304183  1
  O  O18  1  0.724628  0.962865  0.070532  1
  O  O19  1  0.047869  0.064669  0.804183  1
  O  O20  1  0.745273  0.510302  0.266815  1
  O  O21  1  0.489698  0.254727  0.233185  1
  O  O22  1  0.123000  0.652029  0.042482  1
  O  O23  1  0.275372  0.037135  0.929468  1
  O  O24  1  0.347971  0.877000  0.457518  1
  O  O25  1  0.962865  0.724628  0.570532  1
  O  O26  1  0.510302  0.745273  0.766815  1
  O  O27  1  0.315466  0.171945  0.148599  1
  O  O28  1  0.952131  0.935331  0.195817  1
  O  O29  1  0.037135  0.275372  0.429468  1
  O  O30  1  0.348955  0.522833  0.403907  1
  O  O31  1  0.652029  0.123000  0.542482  1
  O  O32  1  0.254727  0.489698  0.733185  1
  O  O33  1  0.877000  0.347971  0.957518  1
  O  O34  1  0.828055  0.684534  0.351401  1
  O  O35  1  0.651045  0.477167  0.596093  1
