# generated using pymatgen
data_Gd4ThSn3C
_symmetry_space_group_name_H-M   'P 1'
_cell_length_a   9.11805300
_cell_length_b   9.11805134
_cell_length_c   6.60712800
_cell_angle_alpha   90.00000000
_cell_angle_beta   90.00000000
_cell_angle_gamma   120.11563422
_symmetry_Int_Tables_number   1
_chemical_formula_structural   Gd4ThSn3C
_chemical_formula_sum   'Gd8 Th2 Sn6 C2'
_cell_volume   475.16043837
_cell_formula_units_Z   2
loop_
 _symmetry_equiv_pos_site_id
 _symmetry_equiv_pos_as_xyz
  1  'x, y, z'
loop_
 _atom_site_type_symbol
 _atom_site_label
 _atom_site_symmetry_multiplicity
 _atom_site_fract_x
 _atom_site_fract_y
 _atom_site_fract_z
 _atom_site_occupancy
  Gd  Gd0  1  0.334371  0.665629  0.500000  1
  Gd  Gd1  1  0.665629  0.334371  0.500000  1
  Gd  Gd2  1  0.665629  0.334371  0.000000  1
  Gd  Gd3  1  0.334371  0.665629  0.000000  1
  Gd  Gd4  1  0.216702  0.999677  0.750000  1
  Gd  Gd5  1  0.783298  0.000323  0.250000  1
  Gd  Gd6  1  0.999677  0.216702  0.750000  1
  Gd  Gd7  1  0.000323  0.783298  0.250000  1
  Th  Th8  1  0.783846  0.783846  0.750000  1
  Th  Th9  1  0.216154  0.216154  0.250000  1
  Sn  Sn10  1  0.590291  0.001881  0.750000  1
  Sn  Sn11  1  0.409709  0.998119  0.250000  1
  Sn  Sn12  1  0.001881  0.590291  0.750000  1
  Sn  Sn13  1  0.998119  0.409709  0.250000  1
  Sn  Sn14  1  0.401624  0.401624  0.750000  1
  Sn  Sn15  1  0.598376  0.598376  0.250000  1
  C  C16  1  0.000000  0.000000  0.500000  1
  C  C17  1  0.000000  0.000000  0.000000  1
