# generated using pymatgen
data_Ho9Er11AlBi11
_symmetry_space_group_name_H-M   'P 1'
_cell_length_a   8.17423870
_cell_length_b   9.43706601
_cell_length_c   11.96432000
_cell_angle_alpha   90.00193069
_cell_angle_beta   90.29548582
_cell_angle_gamma   89.99823544
_symmetry_Int_Tables_number   1
_chemical_formula_structural   Ho9Er11AlBi11
_chemical_formula_sum   'Ho9 Er11 Al1 Bi11'
_cell_volume   922.92530341
_cell_formula_units_Z   1
loop_
 _symmetry_equiv_pos_site_id
 _symmetry_equiv_pos_as_xyz
  1  'x, y, z'
loop_
 _atom_site_type_symbol
 _atom_site_label
 _atom_site_symmetry_multiplicity
 _atom_site_fract_x
 _atom_site_fract_y
 _atom_site_fract_z
 _atom_site_occupancy
  Ho  Ho0  1  0.649295  0.250060  0.784285  1
  Ho  Ho1  1  0.149087  0.250067  0.716646  1
  Ho  Ho2  1  0.193290  0.564547  0.439639  1
  Ho  Ho3  1  0.475521  0.249989  0.488573  1
  Ho  Ho4  1  0.978954  0.250045  0.010554  1
  Ho  Ho5  1  0.313785  0.250005  0.219484  1
  Ho  Ho6  1  0.811483  0.250035  0.281327  1
  Ho  Ho7  1  0.674654  0.750005  0.787995  1
  Ho  Ho8  1  0.190655  0.750088  0.722461  1
  Er  Er9  1  0.355337  0.750081  0.206738  1
  Er  Er10  1  0.852353  0.750086  0.284331  1
  Er  Er11  1  0.684783  0.570570  0.055126  1
  Er  Er12  1  0.193310  0.935137  0.439618  1
  Er  Er13  1  0.308683  0.050948  0.941108  1
  Er  Er14  1  0.806944  0.435719  0.559078  1
  Er  Er15  1  0.308710  0.449058  0.941132  1
  Er  Er16  1  0.806781  0.064259  0.559083  1
  Er  Er17  1  0.684835  0.929386  0.055134  1
  Er  Er18  1  0.525671  0.750051  0.511531  1
  Er  Er19  1  0.035016  0.749983  0.989858  1
  Al  Al20  1  0.407445  0.750008  0.960046  1
  Bi  Bi21  1  0.908106  0.750174  0.544166  1
  Bi  Bi22  1  0.593304  0.249990  0.042467  1
  Bi  Bi23  1  0.092947  0.249459  0.457665  1
  Bi  Bi24  1  0.564895  0.995069  0.325602  1
  Bi  Bi25  1  0.063872  0.503660  0.175283  1
  Bi  Bi26  1  0.435537  0.496199  0.674938  1
  Bi  Bi27  1  0.935189  0.002568  0.825138  1
  Bi  Bi28  1  0.435557  0.003890  0.674906  1
  Bi  Bi29  1  0.935140  0.497473  0.825157  1
  Bi  Bi30  1  0.564987  0.504989  0.325573  1
  Bi  Bi31  1  0.063880  0.996403  0.175353  1
