# generated using pymatgen
data_Th3InSn2Rh3
_symmetry_space_group_name_H-M   'P 1'
_cell_length_a   7.59333230
_cell_length_b   7.59333316
_cell_length_c   4.12228200
_cell_angle_alpha   90.00000000
_cell_angle_beta   90.00000000
_cell_angle_gamma   120.03229729
_symmetry_Int_Tables_number   1
_chemical_formula_structural   Th3InSn2Rh3
_chemical_formula_sum   'Th3 In1 Sn2 Rh3'
_cell_volume   205.77459630
_cell_formula_units_Z   1
loop_
 _symmetry_equiv_pos_site_id
 _symmetry_equiv_pos_as_xyz
  1  'x, y, z'
loop_
 _atom_site_type_symbol
 _atom_site_label
 _atom_site_symmetry_multiplicity
 _atom_site_fract_x
 _atom_site_fract_y
 _atom_site_fract_z
 _atom_site_occupancy
  Th  Th0  1  0.413608  0.413608  0.500000  1
  Th  Th1  1  0.586576  0.998909  0.500000  1
  Th  Th2  1  0.998909  0.586576  0.500000  1
  In  In3  1  0.750388  0.750388  0.000000  1
  Sn  Sn4  1  0.247947  0.997570  0.000000  1
  Sn  Sn5  1  0.997570  0.247947  0.000000  1
  Rh  Rh6  1  0.666089  0.330272  0.000000  1
  Rh  Rh7  1  0.330272  0.666089  0.000000  1
  Rh  Rh8  1  0.008642  0.008642  0.500000  1
