# generated using pymatgen
data_Lu4Zr2Sn5
_symmetry_space_group_name_H-M   'P 1'
_cell_length_a   6.14836391
_cell_length_b   9.16493789
_cell_length_c   11.24788577
_cell_angle_alpha   114.04206351
_cell_angle_beta   105.86144423
_cell_angle_gamma   90.00000160
_symmetry_Int_Tables_number   1
_chemical_formula_structural   Lu4Zr2Sn5
_chemical_formula_sum   'Lu8 Zr4 Sn10'
_cell_volume   552.29661978
_cell_formula_units_Z   2
loop_
 _symmetry_equiv_pos_site_id
 _symmetry_equiv_pos_as_xyz
  1  'x, y, z'
loop_
 _atom_site_type_symbol
 _atom_site_label
 _atom_site_symmetry_multiplicity
 _atom_site_fract_x
 _atom_site_fract_y
 _atom_site_fract_z
 _atom_site_occupancy
  Lu  Lu0  1  0.438516  0.674894  0.877032  1
  Lu  Lu1  1  0.561484  0.325106  0.122968  1
  Lu  Lu2  1  0.938516  0.202137  0.877032  1
  Lu  Lu3  1  0.061484  0.797863  0.122968  1
  Lu  Lu4  1  0.144528  0.259085  0.289056  1
  Lu  Lu5  1  0.855472  0.740915  0.710944  1
  Lu  Lu6  1  0.644528  0.029971  0.289056  1
  Lu  Lu7  1  0.355472  0.970029  0.710944  1
  Zr  Zr8  1  0.556308  0.306308  0.612615  1
  Zr  Zr9  1  0.443692  0.693692  0.387385  1
  Zr  Zr10  1  0.943692  0.693692  0.387385  1
  Zr  Zr11  1  0.056308  0.306308  0.612615  1
  Sn  Sn12  1  0.289867  0.590556  0.579734  1
  Sn  Sn13  1  0.710133  0.409444  0.420266  1
  Sn  Sn14  1  0.789867  0.989178  0.579734  1
  Sn  Sn15  1  0.210133  0.010822  0.420266  1
  Sn  Sn16  1  0.250000  0.000000  0.000000  1
  Sn  Sn17  1  0.750000  0.000000  0.000000  1
  Sn  Sn18  1  0.074012  0.476691  0.148023  1
  Sn  Sn19  1  0.925988  0.523309  0.851977  1
  Sn  Sn20  1  0.574012  0.671332  0.148023  1
  Sn  Sn21  1  0.425988  0.328668  0.851977  1
