# generated using pymatgen
data_Zr2BeGaBr2
_symmetry_space_group_name_H-M   'P 1'
_cell_length_a   3.75475700
_cell_length_b   3.75475730
_cell_length_c   10.89939700
_cell_angle_alpha   90.00000000
_cell_angle_beta   90.00000000
_cell_angle_gamma   120.00000620
_symmetry_Int_Tables_number   1
_chemical_formula_structural   Zr2BeGaBr2
_chemical_formula_sum   'Zr2 Be1 Ga1 Br2'
_cell_volume   133.07509401
_cell_formula_units_Z   1
loop_
 _symmetry_equiv_pos_site_id
 _symmetry_equiv_pos_as_xyz
  1  'x, y, z'
loop_
 _atom_site_type_symbol
 _atom_site_label
 _atom_site_symmetry_multiplicity
 _atom_site_fract_x
 _atom_site_fract_y
 _atom_site_fract_z
 _atom_site_occupancy
  Zr  Zr0  1  0.000000  0.000000  0.164080  1
  Zr  Zr1  1  0.000000  0.000000  0.833801  1
  Be  Be2  1  0.333333  0.666667  0.009622  1
  Ga  Ga3  1  0.666667  0.333333  0.993964  1
  Br  Br4  1  0.333333  0.666667  0.667188  1
  Br  Br5  1  0.666667  0.333333  0.331345  1
