# generated using pymatgen
data_Sm2DySc(Co4P3)2
_symmetry_space_group_name_H-M   'P 1'
_cell_length_a   3.74534700
_cell_length_b   10.71240400
_cell_length_c   12.43479300
_cell_angle_alpha   90.00000000
_cell_angle_beta   90.00000000
_cell_angle_gamma   90.00000000
_symmetry_Int_Tables_number   1
_chemical_formula_structural   Sm2DySc(Co4P3)2
_chemical_formula_sum   'Sm4 Dy2 Sc2 Co16 P12'
_cell_volume   498.90466355
_cell_formula_units_Z   2
loop_
 _symmetry_equiv_pos_site_id
 _symmetry_equiv_pos_as_xyz
  1  'x, y, z'
loop_
 _atom_site_type_symbol
 _atom_site_label
 _atom_site_symmetry_multiplicity
 _atom_site_fract_x
 _atom_site_fract_y
 _atom_site_fract_z
 _atom_site_occupancy
  Sm  Sm0  1  0.000000  0.500000  0.528698  1
  Sm  Sm1  1  0.500000  0.000000  0.472743  1
  Sm  Sm2  1  0.500000  0.822050  0.205913  1
  Sm  Sm3  1  0.500000  0.177950  0.205913  1
  Dy  Dy4  1  0.000000  0.677547  0.794440  1
  Dy  Dy5  1  0.000000  0.322453  0.794440  1
  Sc  Sc6  1  0.500000  0.500000  0.155691  1
  Sc  Sc7  1  0.000000  0.000000  0.844029  1
  Co  Co8  1  0.500000  0.500000  0.707332  1
  Co  Co9  1  0.000000  0.000000  0.293722  1
  Co  Co10  1  0.000000  0.500000  0.986355  1
  Co  Co11  1  0.500000  0.000000  0.010317  1
  Co  Co12  1  0.500000  0.331768  0.993298  1
  Co  Co13  1  0.500000  0.668232  0.993298  1
  Co  Co14  1  0.000000  0.169397  0.003387  1
  Co  Co15  1  0.000000  0.830603  0.003387  1
  Co  Co16  1  0.500000  0.296169  0.434070  1
  Co  Co17  1  0.500000  0.703831  0.434070  1
  Co  Co18  1  0.000000  0.204649  0.569031  1
  Co  Co19  1  0.000000  0.795351  0.569031  1
  Co  Co20  1  0.500000  0.878158  0.704344  1
  Co  Co21  1  0.500000  0.121842  0.704344  1
  Co  Co22  1  0.000000  0.620727  0.297260  1
  Co  Co23  1  0.000000  0.379273  0.297260  1
  P  P24  1  0.500000  0.500000  0.885315  1
  P  P25  1  0.000000  0.000000  0.111204  1
  P  P26  1  0.500000  0.500000  0.357786  1
  P  P27  1  0.000000  0.000000  0.642631  1
  P  P28  1  0.500000  0.307814  0.616995  1
  P  P29  1  0.500000  0.692186  0.616995  1
  P  P30  1  0.000000  0.193570  0.386487  1
  P  P31  1  0.000000  0.806430  0.386487  1
  P  P32  1  0.500000  0.839243  0.892222  1
  P  P33  1  0.500000  0.160757  0.892222  1
  P  P34  1  0.000000  0.659237  0.104642  1
  P  P35  1  0.000000  0.340763  0.104642  1
