# generated using pymatgen
data_Ti6Nb6CdSn9
_symmetry_space_group_name_H-M   'P 1'
_cell_length_a   9.40287100
_cell_length_b   9.40287198
_cell_length_c   5.72694900
_cell_angle_alpha   90.00000000
_cell_angle_beta   90.00000000
_cell_angle_gamma   120.00000006
_symmetry_Int_Tables_number   1
_chemical_formula_structural   Ti6Nb6CdSn9
_chemical_formula_sum   'Ti6 Nb6 Cd1 Sn9'
_cell_volume   438.50540250
_cell_formula_units_Z   1
loop_
 _symmetry_equiv_pos_site_id
 _symmetry_equiv_pos_as_xyz
  1  'x, y, z'
loop_
 _atom_site_type_symbol
 _atom_site_label
 _atom_site_symmetry_multiplicity
 _atom_site_fract_x
 _atom_site_fract_y
 _atom_site_fract_z
 _atom_site_occupancy
  Ti  Ti0  1  0.842316  0.684631  0.754703  1
  Ti  Ti1  1  0.157684  0.842316  0.245297  1
  Ti  Ti2  1  0.684631  0.842316  0.245297  1
  Ti  Ti3  1  0.315369  0.157684  0.754703  1
  Ti  Ti4  1  0.842316  0.157684  0.754703  1
  Ti  Ti5  1  0.157684  0.315369  0.245297  1
  Nb  Nb6  1  0.500000  0.000000  0.500000  1
  Nb  Nb7  1  0.500000  0.500000  0.000000  1
  Nb  Nb8  1  0.000000  0.500000  0.000000  1
  Nb  Nb9  1  0.000000  0.500000  0.500000  1
  Nb  Nb10  1  0.500000  0.000000  0.000000  1
  Nb  Nb11  1  0.500000  0.500000  0.500000  1
  Cd  Cd12  1  0.000000  0.000000  0.500000  1
  Sn  Sn13  1  0.200181  0.400363  0.746524  1
  Sn  Sn14  1  0.799819  0.200181  0.253476  1
  Sn  Sn15  1  0.400363  0.200181  0.253476  1
  Sn  Sn16  1  0.599637  0.799819  0.746524  1
  Sn  Sn17  1  0.200181  0.799819  0.746524  1
  Sn  Sn18  1  0.799819  0.599637  0.253476  1
  Sn  Sn19  1  0.666667  0.333333  0.750593  1
  Sn  Sn20  1  0.333333  0.666667  0.249407  1
  Sn  Sn21  1  0.000000  0.000000  0.000000  1
