# generated using pymatgen
data_TbDy3(Er2Os)4
_symmetry_space_group_name_H-M   'P 1'
_cell_length_a   6.28506983
_cell_length_b   7.36959113
_cell_length_c   8.99164600
_cell_angle_alpha   90.00000000
_cell_angle_beta   90.00000000
_cell_angle_gamma   89.99769502
_symmetry_Int_Tables_number   1
_chemical_formula_structural   TbDy3(Er2Os)4
_chemical_formula_sum   'Tb1 Dy3 Er8 Os4'
_cell_volume   416.47860978
_cell_formula_units_Z   1
loop_
 _symmetry_equiv_pos_site_id
 _symmetry_equiv_pos_as_xyz
  1  'x, y, z'
loop_
 _atom_site_type_symbol
 _atom_site_label
 _atom_site_symmetry_multiplicity
 _atom_site_fract_x
 _atom_site_fract_y
 _atom_site_fract_z
 _atom_site_occupancy
  Tb  Tb0  1  0.369844  0.961204  0.750000  1
  Dy  Dy1  1  0.870126  0.538653  0.250000  1
  Dy  Dy2  1  0.630011  0.038799  0.250000  1
  Dy  Dy3  1  0.130157  0.461290  0.750000  1
  Er  Er4  1  0.332560  0.675105  0.062835  1
  Er  Er5  1  0.167539  0.174963  0.437101  1
  Er  Er6  1  0.667381  0.324873  0.562840  1
  Er  Er7  1  0.832427  0.825089  0.937101  1
  Er  Er8  1  0.667381  0.324873  0.937160  1
  Er  Er9  1  0.832427  0.825089  0.562899  1
  Er  Er10  1  0.332560  0.675105  0.437165  1
  Er  Er11  1  0.167539  0.174963  0.062899  1
  Os  Os12  1  0.041599  0.882998  0.250000  1
  Os  Os13  1  0.458414  0.383046  0.250000  1
  Os  Os14  1  0.958527  0.117169  0.750000  1
  Os  Os15  1  0.541509  0.616783  0.750000  1
