# generated using pymatgen
data_Lu16In6CuTc
_symmetry_space_group_name_H-M   'P 1'
_cell_length_a   10.25694900
_cell_length_b   10.25694977
_cell_length_c   6.83823700
_cell_angle_alpha   90.00000000
_cell_angle_beta   90.00000000
_cell_angle_gamma   120.00000074
_symmetry_Int_Tables_number   1
_chemical_formula_structural   Lu16In6CuTc
_chemical_formula_sum   'Lu16 In6 Cu1 Tc1'
_cell_volume   623.03321718
_cell_formula_units_Z   1
loop_
 _symmetry_equiv_pos_site_id
 _symmetry_equiv_pos_as_xyz
  1  'x, y, z'
loop_
 _atom_site_type_symbol
 _atom_site_label
 _atom_site_symmetry_multiplicity
 _atom_site_fract_x
 _atom_site_fract_y
 _atom_site_fract_z
 _atom_site_occupancy
  Lu  Lu0  1  0.527772  0.055544  0.528000  1
  Lu  Lu1  1  0.944456  0.472228  0.528000  1
  Lu  Lu2  1  0.527772  0.472228  0.528000  1
  Lu  Lu3  1  0.466784  0.933569  0.025551  1
  Lu  Lu4  1  0.066431  0.533216  0.025551  1
  Lu  Lu5  1  0.466784  0.533216  0.025551  1
  Lu  Lu6  1  0.177425  0.354850  0.730506  1
  Lu  Lu7  1  0.645150  0.822575  0.730506  1
  Lu  Lu8  1  0.177425  0.822575  0.730506  1
  Lu  Lu9  1  0.823974  0.647948  0.230446  1
  Lu  Lu10  1  0.352052  0.176026  0.230446  1
  Lu  Lu11  1  0.823974  0.176026  0.230446  1
  Lu  Lu12  1  0.666667  0.333333  0.899835  1
  Lu  Lu13  1  0.333333  0.666667  0.403279  1
  Lu  Lu14  1  0.000000  0.000000  0.504592  1
  Lu  Lu15  1  0.000000  0.000000  0.009180  1
  In  In16  1  0.836179  0.672357  0.764717  1
  In  In17  1  0.327643  0.163821  0.764717  1
  In  In18  1  0.836179  0.163821  0.764717  1
  In  In19  1  0.161977  0.323954  0.267321  1
  In  In20  1  0.676046  0.838023  0.267321  1
  In  In21  1  0.161977  0.838023  0.267321  1
  Cu  Cu22  1  0.666667  0.333333  0.299400  1
  Tc  Tc23  1  0.333333  0.666667  0.799777  1
