# generated using pymatgen
data_NpScO5
_symmetry_space_group_name_H-M   'P 1'
_cell_length_a   5.52206062
_cell_length_b   5.52206021
_cell_length_c   7.50401014
_cell_angle_alpha   70.43778058
_cell_angle_beta   70.43777852
_cell_angle_gamma   72.66323438
_symmetry_Int_Tables_number   1
_chemical_formula_structural   NpScO5
_chemical_formula_sum   'Np2 Sc2 O10'
_cell_volume   198.66562531
_cell_formula_units_Z   2
loop_
 _symmetry_equiv_pos_site_id
 _symmetry_equiv_pos_as_xyz
  1  'x, y, z'
loop_
 _atom_site_type_symbol
 _atom_site_label
 _atom_site_symmetry_multiplicity
 _atom_site_fract_x
 _atom_site_fract_y
 _atom_site_fract_z
 _atom_site_occupancy
  Np  Np0  1  0.956540  0.043460  0.250000  1
  Np  Np1  1  0.043460  0.956540  0.750000  1
  Sc  Sc2  1  0.500000  0.500000  0.000000  1
  Sc  Sc3  1  0.500000  0.500000  0.500000  1
  O  O4  1  0.379593  0.620407  0.750000  1
  O  O5  1  0.269042  0.190246  0.639561  1
  O  O6  1  0.730958  0.809754  0.360439  1
  O  O7  1  0.190246  0.269042  0.139561  1
  O  O8  1  0.620407  0.379593  0.250000  1
  O  O9  1  0.809754  0.730958  0.860439  1
  O  O10  1  0.194918  0.822814  0.048768  1
  O  O11  1  0.822814  0.194918  0.548768  1
  O  O12  1  0.805082  0.177186  0.951232  1
  O  O13  1  0.177186  0.805082  0.451232  1
