# generated using pymatgen
data_U4Ga6Tc2Ru5
_symmetry_space_group_name_H-M   'P 1'
_cell_length_a   7.20851925
_cell_length_b   7.21008277
_cell_length_c   7.21008262
_cell_angle_alpha   109.74615745
_cell_angle_beta   109.33829223
_cell_angle_gamma   109.33829034
_symmetry_Int_Tables_number   1
_chemical_formula_structural   U4Ga6Tc2Ru5
_chemical_formula_sum   'U4 Ga6 Tc2 Ru5'
_cell_volume   288.43668055
_cell_formula_units_Z   1
loop_
 _symmetry_equiv_pos_site_id
 _symmetry_equiv_pos_as_xyz
  1  'x, y, z'
loop_
 _atom_site_type_symbol
 _atom_site_label
 _atom_site_symmetry_multiplicity
 _atom_site_fract_x
 _atom_site_fract_y
 _atom_site_fract_z
 _atom_site_occupancy
  U  U0  1  0.500000  0.502677  0.497323  1
  U  U1  1  0.000000  0.991720  0.497321  1
  U  U2  1  0.500000  0.002677  0.997323  1
  U  U3  1  0.000000  0.502679  0.008280  1
  Ga  Ga4  1  0.302748  0.305760  0.996989  1
  Ga  Ga5  1  0.000000  0.302545  0.308375  1
  Ga  Ga6  1  0.000000  0.691625  0.697455  1
  Ga  Ga7  1  0.697252  0.003011  0.694240  1
  Ga  Ga8  1  0.308343  0.002750  0.305592  1
  Ga  Ga9  1  0.691657  0.694408  0.997250  1
  Tc  Tc10  1  0.749333  0.499481  0.249853  1
  Tc  Tc11  1  0.250667  0.750147  0.500519  1
  Ru  Ru12  1  0.750217  0.249711  0.500506  1
  Ru  Ru13  1  0.500000  0.250614  0.749386  1
  Ru  Ru14  1  0.500000  0.750614  0.249386  1
  Ru  Ru15  1  0.249783  0.499494  0.750289  1
  Ru  Ru16  1  0.000000  0.000087  0.999913  1
