# generated using pymatgen
data_YbHo(CoC2)2
_symmetry_space_group_name_H-M   'P 1'
_cell_length_a   3.65619125
_cell_length_b   3.66967538
_cell_length_c   7.28615223
_cell_angle_alpha   82.31113277
_cell_angle_beta   82.49218272
_cell_angle_gamma   90.03632659
_symmetry_Int_Tables_number   1
_chemical_formula_structural   YbHo(CoC2)2
_chemical_formula_sum   'Yb1 Ho1 Co2 C4'
_cell_volume   96.03276054
_cell_formula_units_Z   1
loop_
 _symmetry_equiv_pos_site_id
 _symmetry_equiv_pos_as_xyz
  1  'x, y, z'
loop_
 _atom_site_type_symbol
 _atom_site_label
 _atom_site_symmetry_multiplicity
 _atom_site_fract_x
 _atom_site_fract_y
 _atom_site_fract_z
 _atom_site_occupancy
  Yb  Yb0  1  0.069461  0.930197  0.999180  1
  Ho  Ho1  1  0.931195  0.069790  0.500112  1
  Co  Co2  1  0.374812  0.510094  0.692627  1
  Co  Co3  1  0.509746  0.373559  0.193073  1
  C  C4  1  0.443839  0.591842  0.428624  1
  C  C5  1  0.592511  0.444590  0.929535  1
  C  C6  1  0.488771  0.858895  0.274618  1
  C  C7  1  0.856664  0.488030  0.776032  1
