# generated using pymatgen
data_Dy2AlRuRh
_symmetry_space_group_name_H-M   'P 1'
_cell_length_a   5.54969179
_cell_length_b   5.54969146
_cell_length_c   5.54969100
_cell_angle_alpha   137.57742424
_cell_angle_beta   115.37281798
_cell_angle_gamma   80.40423077
_symmetry_Int_Tables_number   1
_chemical_formula_structural   Dy2AlRuRh
_chemical_formula_sum   'Dy2 Al1 Ru1 Rh1'
_cell_volume   100.99489850
_cell_formula_units_Z   1
loop_
 _symmetry_equiv_pos_site_id
 _symmetry_equiv_pos_as_xyz
  1  'x, y, z'
loop_
 _atom_site_type_symbol
 _atom_site_label
 _atom_site_symmetry_multiplicity
 _atom_site_fract_x
 _atom_site_fract_y
 _atom_site_fract_z
 _atom_site_occupancy
  Dy  Dy0  1  0.295469  0.798809  0.496659  1
  Dy  Dy1  1  0.697850  0.201191  0.496659  1
  Al  Al2  1  0.003946  0.000000  0.003946  1
  Ru  Ru3  1  0.260720  0.500000  0.760720  1
  Rh  Rh4  1  0.742015  0.500000  0.242015  1
