# generated using pymatgen
data_Dy2B(PdPt)3
_symmetry_space_group_name_H-M   'P 1'
_cell_length_a   6.06374793
_cell_length_b   6.06374774
_cell_length_c   5.77750700
_cell_angle_alpha   58.34710463
_cell_angle_beta   58.34710575
_cell_angle_gamma   60.00000121
_symmetry_Int_Tables_number   1
_chemical_formula_structural   Dy2B(PdPt)3
_chemical_formula_sum   'Dy2 B1 Pd3 Pt3'
_cell_volume   146.35015503
_cell_formula_units_Z   1
loop_
 _symmetry_equiv_pos_site_id
 _symmetry_equiv_pos_as_xyz
  1  'x, y, z'
loop_
 _atom_site_type_symbol
 _atom_site_label
 _atom_site_symmetry_multiplicity
 _atom_site_fract_x
 _atom_site_fract_y
 _atom_site_fract_z
 _atom_site_occupancy
  Dy  Dy0  1  0.250053  0.250053  0.249840  1
  Dy  Dy1  1  0.741465  0.741465  0.775605  1
  B  B2  1  0.513864  0.513864  0.458410  1
  Pd  Pd3  1  0.246767  0.246767  0.751894  1
  Pd  Pd4  1  0.754573  0.246767  0.751894  1
  Pd  Pd5  1  0.246767  0.754573  0.751894  1
  Pt  Pt6  1  0.760586  0.225339  0.253488  1
  Pt  Pt7  1  0.225339  0.760586  0.253488  1
  Pt  Pt8  1  0.760586  0.760586  0.253488  1
