# generated using pymatgen
data_Ce4SiB4Ir8Rh
_symmetry_space_group_name_H-M   'P 1'
_cell_length_a   10.68992098
_cell_length_b   10.68992035
_cell_length_c   10.68870851
_cell_angle_alpha   30.10212184
_cell_angle_beta   30.10213039
_cell_angle_gamma   30.12557419
_symmetry_Int_Tables_number   1
_chemical_formula_structural   Ce4SiB4Ir8Rh
_chemical_formula_sum   'Ce4 Si1 B4 Ir8 Rh1'
_cell_volume   272.32792686
_cell_formula_units_Z   1
loop_
 _symmetry_equiv_pos_site_id
 _symmetry_equiv_pos_as_xyz
  1  'x, y, z'
loop_
 _atom_site_type_symbol
 _atom_site_label
 _atom_site_symmetry_multiplicity
 _atom_site_fract_x
 _atom_site_fract_y
 _atom_site_fract_z
 _atom_site_occupancy
  Ce  Ce0  1  0.148792  0.148792  0.149094  1
  Ce  Ce1  1  0.947344  0.947344  0.947320  1
  Ce  Ce2  1  0.851208  0.851208  0.850906  1
  Ce  Ce3  1  0.052656  0.052656  0.052680  1
  Si  Si4  1  0.500000  0.500000  0.500000  1
  B  B5  1  0.616345  0.616345  0.615008  1
  B  B6  1  0.718673  0.718673  0.717333  1
  B  B7  1  0.383655  0.383655  0.384992  1
  B  B8  1  0.281327  0.281327  0.282667  1
  Ir  Ir9  1  0.401467  0.899301  0.401386  1
  Ir  Ir10  1  0.899301  0.401467  0.401386  1
  Ir  Ir11  1  0.500000  0.000000  0.500000  1
  Ir  Ir12  1  0.000000  0.500000  0.500000  1
  Ir  Ir13  1  0.598533  0.100699  0.598614  1
  Ir  Ir14  1  0.598519  0.598519  0.100403  1
  Ir  Ir15  1  0.100699  0.598533  0.598614  1
  Ir  Ir16  1  0.401481  0.401481  0.899597  1
  Rh  Rh17  1  0.500000  0.500000  0.000000  1
