# generated using pymatgen
data_CaHo3Ni13C4
_symmetry_space_group_name_H-M   'P 1'
_cell_length_a   3.85840700
_cell_length_b   8.36363819
_cell_length_c   8.36363912
_cell_angle_alpha   89.25918896
_cell_angle_beta   90.00000000
_cell_angle_gamma   90.00000000
_symmetry_Int_Tables_number   1
_chemical_formula_structural   CaHo3Ni13C4
_chemical_formula_sum   'Ca1 Ho3 Ni13 C4'
_cell_volume   269.87475216
_cell_formula_units_Z   1
loop_
 _symmetry_equiv_pos_site_id
 _symmetry_equiv_pos_as_xyz
  1  'x, y, z'
loop_
 _atom_site_type_symbol
 _atom_site_label
 _atom_site_symmetry_multiplicity
 _atom_site_fract_x
 _atom_site_fract_y
 _atom_site_fract_z
 _atom_site_occupancy
  Ca  Ca0  1  0.500001  0.649083  0.350917  1
  Ho  Ho1  1  0.500001  0.186652  0.187154  1
  Ho  Ho2  1  0.500001  0.349972  0.650028  1
  Ho  Ho3  1  0.500001  0.812845  0.813347  1
  Ni  Ni4  1  0.000000  0.002252  0.997748  1
  Ni  Ni5  1  0.500001  0.494957  0.992956  1
  Ni  Ni6  1  0.000000  0.711714  0.070451  1
  Ni  Ni7  1  0.500001  0.877603  0.122396  1
  Ni  Ni8  1  0.000000  0.425412  0.216655  1
  Ni  Ni9  1  0.000000  0.929550  0.288286  1
  Ni  Ni10  1  0.000000  0.213498  0.430749  1
  Ni  Ni11  1  0.500001  0.007044  0.505045  1
  Ni  Ni12  1  0.000000  0.783345  0.574587  1
  Ni  Ni13  1  0.000000  0.075980  0.707650  1
  Ni  Ni14  1  0.000000  0.569250  0.786502  1
  Ni  Ni15  1  0.500001  0.125244  0.874755  1
  Ni  Ni16  1  0.000000  0.292350  0.924021  1
  C  C17  1  0.000000  0.501012  0.003895  1
  C  C18  1  0.000000  0.441191  0.445059  1
  C  C19  1  0.000000  0.996105  0.498990  1
  C  C20  1  0.000000  0.554941  0.558809  1
