# generated using pymatgen
data_YErCCl
_symmetry_space_group_name_H-M   'P 1'
_cell_length_a   3.63734200
_cell_length_b   3.63734250
_cell_length_c   13.53109300
_cell_angle_alpha   90.00000000
_cell_angle_beta   90.00000000
_cell_angle_gamma   120.00003181
_symmetry_Int_Tables_number   1
_chemical_formula_structural   YErCCl
_chemical_formula_sum   'Y2 Er2 C2 Cl2'
_cell_volume   155.03569707
_cell_formula_units_Z   2
loop_
 _symmetry_equiv_pos_site_id
 _symmetry_equiv_pos_as_xyz
  1  'x, y, z'
loop_
 _atom_site_type_symbol
 _atom_site_label
 _atom_site_symmetry_multiplicity
 _atom_site_fract_x
 _atom_site_fract_y
 _atom_site_fract_z
 _atom_site_occupancy
  Y  Y0  1  0.666667  0.333333  0.905755  1
  Y  Y1  1  0.333333  0.666667  0.405755  1
  Er  Er2  1  0.333333  0.666667  0.093054  1
  Er  Er3  1  0.666667  0.333333  0.593054  1
  C  C4  1  0.000000  0.000000  0.002786  1
  C  C5  1  0.000000  0.000000  0.502786  1
  Cl  Cl6  1  0.666667  0.333333  0.248406  1
  Cl  Cl7  1  0.333333  0.666667  0.748406  1
