# generated using pymatgen
data_La2Cu2Br
_symmetry_space_group_name_H-M   'P 1'
_cell_length_a   4.22617900
_cell_length_b   4.22617893
_cell_length_c   16.91358300
_cell_angle_alpha   90.00000000
_cell_angle_beta   90.00000000
_cell_angle_gamma   120.00000841
_symmetry_Int_Tables_number   1
_chemical_formula_structural   La2Cu2Br
_chemical_formula_sum   'La4 Cu4 Br2'
_cell_volume   261.61460264
_cell_formula_units_Z   2
loop_
 _symmetry_equiv_pos_site_id
 _symmetry_equiv_pos_as_xyz
  1  'x, y, z'
loop_
 _atom_site_type_symbol
 _atom_site_label
 _atom_site_symmetry_multiplicity
 _atom_site_fract_x
 _atom_site_fract_y
 _atom_site_fract_z
 _atom_site_occupancy
  La  La0  1  0.000000  0.000000  0.110362  1
  La  La1  1  0.000000  0.000000  0.889638  1
  La  La2  1  0.000000  0.000000  0.610362  1
  La  La3  1  0.000000  0.000000  0.389638  1
  Cu  Cu4  1  0.333333  0.666667  0.500318  1
  Cu  Cu5  1  0.666667  0.333333  0.499682  1
  Cu  Cu6  1  0.666667  0.333333  0.000318  1
  Cu  Cu7  1  0.333333  0.666667  0.999682  1
  Br  Br8  1  0.333333  0.666667  0.250000  1
  Br  Br9  1  0.666667  0.333333  0.750000  1
