# generated using pymatgen
data_Eu3Dy(Co5P3)4
_symmetry_space_group_name_H-M   'P 1'
_cell_length_a   3.65253800
_cell_length_b   10.34157913
_cell_length_c   11.80561429
_cell_angle_alpha   90.05356366
_cell_angle_beta   90.00000000
_cell_angle_gamma   90.00000000
_symmetry_Int_Tables_number   1
_chemical_formula_structural   Eu3Dy(Co5P3)4
_chemical_formula_sum   'Eu3 Dy1 Co20 P12'
_cell_volume   445.93340063
_cell_formula_units_Z   1
loop_
 _symmetry_equiv_pos_site_id
 _symmetry_equiv_pos_as_xyz
  1  'x, y, z'
loop_
 _atom_site_type_symbol
 _atom_site_label
 _atom_site_symmetry_multiplicity
 _atom_site_fract_x
 _atom_site_fract_y
 _atom_site_fract_z
 _atom_site_occupancy
  Eu  Eu0  1  0.250000  0.584071  0.703672  1
  Eu  Eu1  1  0.250000  0.916233  0.203223  1
  Eu  Eu2  1  0.750000  0.415864  0.296475  1
  Dy  Dy3  1  0.750000  0.083312  0.797125  1
  Co  Co4  1  0.250000  0.714274  0.988761  1
  Co  Co5  1  0.250000  0.785794  0.490135  1
  Co  Co6  1  0.750000  0.285336  0.009947  1
  Co  Co7  1  0.750000  0.214292  0.510689  1
  Co  Co8  1  0.250000  0.405830  0.490591  1
  Co  Co9  1  0.250000  0.094581  0.985946  1
  Co  Co10  1  0.750000  0.594075  0.509986  1
  Co  Co11  1  0.750000  0.907503  0.008976  1
  Co  Co12  1  0.250000  0.218789  0.174566  1
  Co  Co13  1  0.250000  0.277608  0.676465  1
  Co  Co14  1  0.750000  0.781367  0.824011  1
  Co  Co15  1  0.750000  0.719766  0.325111  1
  Co  Co16  1  0.250000  0.884197  0.698491  1
  Co  Co17  1  0.250000  0.619016  0.197166  1
  Co  Co18  1  0.750000  0.118729  0.303128  1
  Co  Co19  1  0.750000  0.379165  0.802687  1
  Co  Co20  1  0.250000  0.466190  0.932986  1
  Co  Co21  1  0.250000  0.033010  0.434180  1
  Co  Co22  1  0.750000  0.532998  0.066445  1
  Co  Co23  1  0.750000  0.967928  0.568655  1
  P  P24  1  0.250000  0.418571  0.111425  1
  P  P25  1  0.250000  0.081311  0.612641  1
  P  P26  1  0.750000  0.581313  0.888304  1
  P  P27  1  0.750000  0.918909  0.389330  1
  P  P28  1  0.250000  0.271045  0.869485  1
  P  P29  1  0.250000  0.227367  0.369966  1
  P  P30  1  0.750000  0.727822  0.129781  1
  P  P31  1  0.750000  0.772448  0.629763  1
  P  P32  1  0.250000  0.603359  0.392036  1
  P  P33  1  0.250000  0.897901  0.891642  1
  P  P34  1  0.750000  0.396662  0.608207  1
  P  P35  1  0.750000  0.103364  0.108001  1
