# generated using pymatgen
data_YbU3(ReB6)2
_symmetry_space_group_name_H-M   'P 1'
_cell_length_a   3.64116700
_cell_length_b   9.27873897
_cell_length_c   11.38115510
_cell_angle_alpha   89.88137353
_cell_angle_beta   90.00000000
_cell_angle_gamma   90.00000000
_symmetry_Int_Tables_number   1
_chemical_formula_structural   YbU3(ReB6)2
_chemical_formula_sum   'Yb2 U6 Re4 B24'
_cell_volume   384.51648746
_cell_formula_units_Z   2
loop_
 _symmetry_equiv_pos_site_id
 _symmetry_equiv_pos_as_xyz
  1  'x, y, z'
loop_
 _atom_site_type_symbol
 _atom_site_label
 _atom_site_symmetry_multiplicity
 _atom_site_fract_x
 _atom_site_fract_y
 _atom_site_fract_z
 _atom_site_occupancy
  Yb  Yb0  1  0.000000  0.337597  0.408962  1
  Yb  Yb1  1  0.000000  0.662403  0.591038  1
  U  U2  1  0.000000  0.835963  0.093058  1
  U  U3  1  0.000000  0.164037  0.906942  1
  U  U4  1  0.000000  0.955880  0.396744  1
  U  U5  1  0.000000  0.044120  0.603256  1
  U  U6  1  0.000000  0.457365  0.104358  1
  U  U7  1  0.000000  0.542635  0.895642  1
  Re  Re8  1  0.000000  0.648485  0.314652  1
  Re  Re9  1  0.000000  0.351515  0.685348  1
  Re  Re10  1  0.000000  0.142779  0.177032  1
  Re  Re11  1  0.000000  0.857221  0.822968  1
  B  B12  1  0.500000  0.552416  0.430615  1
  B  B13  1  0.500000  0.447584  0.569385  1
  B  B14  1  0.500000  0.049776  0.067463  1
  B  B15  1  0.500000  0.950224  0.932537  1
  B  B16  1  0.500000  0.742457  0.422837  1
  B  B17  1  0.500000  0.257543  0.577163  1
  B  B18  1  0.500000  0.242601  0.076557  1
  B  B19  1  0.500000  0.757399  0.923443  1
  B  B20  1  0.500000  0.803567  0.273541  1
  B  B21  1  0.500000  0.196433  0.726459  1
  B  B22  1  0.500000  0.301423  0.225341  1
  B  B23  1  0.500000  0.698577  0.774659  1
  B  B24  1  0.500000  0.645182  0.187768  1
  B  B25  1  0.500000  0.354818  0.812232  1
  B  B26  1  0.500000  0.144080  0.311356  1
  B  B27  1  0.500000  0.855920  0.688644  1
  B  B28  1  0.500000  0.987284  0.219105  1
  B  B29  1  0.500000  0.012716  0.780895  1
  B  B30  1  0.500000  0.489033  0.281440  1
  B  B31  1  0.500000  0.510967  0.718560  1
  B  B32  1  0.500000  0.643055  0.039089  1
  B  B33  1  0.500000  0.356945  0.960911  1
  B  B34  1  0.500000  0.138252  0.461396  1
  B  B35  1  0.500000  0.861748  0.538604  1
