# generated using pymatgen
data_Lu3Zn3Cu2Ir
_symmetry_space_group_name_H-M   'P 1'
_cell_length_a   7.16943200
_cell_length_b   7.16943129
_cell_length_c   3.68781200
_cell_angle_alpha   90.00000000
_cell_angle_beta   90.00000000
_cell_angle_gamma   119.99999405
_symmetry_Int_Tables_number   1
_chemical_formula_structural   Lu3Zn3Cu2Ir
_chemical_formula_sum   'Lu3 Zn3 Cu2 Ir1'
_cell_volume   164.16058375
_cell_formula_units_Z   1
loop_
 _symmetry_equiv_pos_site_id
 _symmetry_equiv_pos_as_xyz
  1  'x, y, z'
loop_
 _atom_site_type_symbol
 _atom_site_label
 _atom_site_symmetry_multiplicity
 _atom_site_fract_x
 _atom_site_fract_y
 _atom_site_fract_z
 _atom_site_occupancy
  Lu  Lu0  1  0.596969  0.587185  0.000000  1
  Lu  Lu1  1  0.412815  0.009784  0.000000  1
  Lu  Lu2  1  0.990216  0.403031  0.000000  1
  Zn  Zn3  1  0.251434  0.252658  0.500000  1
  Zn  Zn4  1  0.747342  0.998776  0.500000  1
  Zn  Zn5  1  0.001224  0.748566  0.500000  1
  Cu  Cu6  1  0.000000  0.000000  0.000000  1
  Cu  Cu7  1  0.333333  0.666667  0.500000  1
  Ir  Ir8  1  0.666667  0.333333  0.500000  1
