# generated using pymatgen
data_CaTb3ReTc3B16
_symmetry_space_group_name_H-M   'P 1'
_cell_length_a   3.60756500
_cell_length_b   5.98809233
_cell_length_c   11.59159967
_cell_angle_alpha   90.01174204
_cell_angle_beta   90.00000000
_cell_angle_gamma   90.00000000
_symmetry_Int_Tables_number   1
_chemical_formula_structural   CaTb3ReTc3B16
_chemical_formula_sum   'Ca1 Tb3 Re1 Tc3 B16'
_cell_volume   250.40674188
_cell_formula_units_Z   1
loop_
 _symmetry_equiv_pos_site_id
 _symmetry_equiv_pos_as_xyz
  1  'x, y, z'
loop_
 _atom_site_type_symbol
 _atom_site_label
 _atom_site_symmetry_multiplicity
 _atom_site_fract_x
 _atom_site_fract_y
 _atom_site_fract_z
 _atom_site_occupancy
  Ca  Ca0  1  0.000000  0.626534  0.349230  1
  Tb  Tb1  1  0.000000  0.372870  0.650548  1
  Tb  Tb2  1  0.000000  0.128080  0.150339  1
  Tb  Tb3  1  0.000000  0.872668  0.850301  1
  Re  Re4  1  0.000000  0.869698  0.585827  1
  Tc  Tc5  1  0.000000  0.634011  0.086609  1
  Tc  Tc6  1  0.000000  0.367373  0.912542  1
  Tc  Tc7  1  0.000000  0.131498  0.415711  1
  B  B8  1  0.500000  0.785400  0.184904  1
  B  B9  1  0.500000  0.214030  0.815196  1
  B  B10  1  0.500000  0.285564  0.315372  1
  B  B11  1  0.500000  0.713563  0.684409  1
  B  B12  1  0.500000  0.863483  0.031307  1
  B  B13  1  0.500000  0.136646  0.968667  1
  B  B14  1  0.500000  0.363832  0.468031  1
  B  B15  1  0.500000  0.636171  0.531843  1
  B  B16  1  0.500000  0.885628  0.452244  1
  B  B17  1  0.500000  0.113054  0.546597  1
  B  B18  1  0.500000  0.387150  0.047251  1
  B  B19  1  0.500000  0.612725  0.953000  1
  B  B20  1  0.500000  0.978112  0.307920  1
  B  B21  1  0.500000  0.022722  0.691989  1
  B  B22  1  0.500000  0.475973  0.192121  1
  B  B23  1  0.500000  0.523213  0.808043  1
