# generated using pymatgen
data_YLu3(Zn4Ru)2
_symmetry_space_group_name_H-M   'P 1'
_cell_length_a   6.92061400
_cell_length_b   6.92061400
_cell_length_c   5.22578000
_cell_angle_alpha   90.00000000
_cell_angle_beta   90.00000000
_cell_angle_gamma   90.00000000
_symmetry_Int_Tables_number   1
_chemical_formula_structural   YLu3(Zn4Ru)2
_chemical_formula_sum   'Y1 Lu3 Zn8 Ru2'
_cell_volume   250.28820079
_cell_formula_units_Z   1
loop_
 _symmetry_equiv_pos_site_id
 _symmetry_equiv_pos_as_xyz
  1  'x, y, z'
loop_
 _atom_site_type_symbol
 _atom_site_label
 _atom_site_symmetry_multiplicity
 _atom_site_fract_x
 _atom_site_fract_y
 _atom_site_fract_z
 _atom_site_occupancy
  Y  Y0  1  0.000000  0.500000  0.767811  1
  Lu  Lu1  1  0.000000  0.000000  0.000583  1
  Lu  Lu2  1  0.500000  0.000000  0.236505  1
  Lu  Lu3  1  0.500000  0.500000  0.000583  1
  Zn  Zn4  1  0.189581  0.689581  0.284630  1
  Zn  Zn5  1  0.810419  0.689581  0.284630  1
  Zn  Zn6  1  0.810419  0.310419  0.284630  1
  Zn  Zn7  1  0.312657  0.187343  0.713788  1
  Zn  Zn8  1  0.189581  0.310419  0.284630  1
  Zn  Zn9  1  0.687343  0.187343  0.713788  1
  Zn  Zn10  1  0.687343  0.812657  0.713788  1
  Zn  Zn11  1  0.312657  0.812657  0.713788  1
  Ru  Ru12  1  0.500000  0.500000  0.500424  1
  Ru  Ru13  1  0.000000  0.000000  0.500424  1
