# generated using pymatgen
data_LuPuZr2(Al3Ir)6
_symmetry_space_group_name_H-M   'P 1'
_cell_length_a   7.51268813
_cell_length_b   7.50343548
_cell_length_c   9.34053000
_cell_angle_alpha   90.00000000
_cell_angle_beta   90.00000000
_cell_angle_gamma   119.70300378
_symmetry_Int_Tables_number   1
_chemical_formula_structural   LuPuZr2(Al3Ir)6
_chemical_formula_sum   'Lu1 Pu1 Zr2 Al18 Ir6'
_cell_volume   457.35099354
_cell_formula_units_Z   1
loop_
 _symmetry_equiv_pos_site_id
 _symmetry_equiv_pos_as_xyz
  1  'x, y, z'
loop_
 _atom_site_type_symbol
 _atom_site_label
 _atom_site_symmetry_multiplicity
 _atom_site_fract_x
 _atom_site_fract_y
 _atom_site_fract_z
 _atom_site_occupancy
  Lu  Lu0  1  0.328919  0.005993  0.750000  1
  Pu  Pu1  1  0.671668  0.993975  0.250000  1
  Zr  Zr2  1  0.995373  0.671396  0.250000  1
  Zr  Zr3  1  0.005338  0.329068  0.750000  1
  Al  Al4  1  0.127376  0.126046  0.250000  1
  Al  Al5  1  0.875293  0.876100  0.750000  1
  Al  Al6  1  0.999647  0.337107  0.074046  1
  Al  Al7  1  0.000498  0.663499  0.924228  1
  Al  Al8  1  0.000498  0.663499  0.575772  1
  Al  Al9  1  0.333323  0.998764  0.423379  1
  Al  Al10  1  0.999647  0.337107  0.425954  1
  Al  Al11  1  0.666649  0.001372  0.578388  1
  Al  Al12  1  0.666649  0.001372  0.921612  1
  Al  Al13  1  0.333323  0.998764  0.076621  1
  Al  Al14  1  0.331406  0.332977  0.557968  1
  Al  Al15  1  0.668390  0.665749  0.444276  1
  Al  Al16  1  0.668390  0.665749  0.055724  1
  Al  Al17  1  0.331406  0.332977  0.942032  1
  Al  Al18  1  0.335316  0.548788  0.250000  1
  Al  Al19  1  0.664858  0.451259  0.750000  1
  Al  Al20  1  0.552536  0.343043  0.250000  1
  Al  Al21  1  0.445037  0.656968  0.750000  1
  Ir  Ir22  1  0.671282  0.327790  0.998499  1
  Ir  Ir23  1  0.326417  0.671251  0.999304  1
  Ir  Ir24  1  0.326417  0.671251  0.500696  1
  Ir  Ir25  1  0.671282  0.327790  0.501501  1
  Ir  Ir26  1  0.001532  0.000171  0.999035  1
  Ir  Ir27  1  0.001532  0.000171  0.500965  1
