# generated using pymatgen
data_K4AcUS6
_symmetry_space_group_name_H-M   'P 1'
_cell_length_a   7.28236713
_cell_length_b   7.28236594
_cell_length_c   7.66166700
_cell_angle_alpha   80.72663652
_cell_angle_beta   80.72663805
_cell_angle_gamma   119.96172825
_symmetry_Int_Tables_number   1
_chemical_formula_structural   K4AcUS6
_chemical_formula_sum   'K4 Ac1 U1 S6'
_cell_volume   333.25810529
_cell_formula_units_Z   1
loop_
 _symmetry_equiv_pos_site_id
 _symmetry_equiv_pos_as_xyz
  1  'x, y, z'
loop_
 _atom_site_type_symbol
 _atom_site_label
 _atom_site_symmetry_multiplicity
 _atom_site_fract_x
 _atom_site_fract_y
 _atom_site_fract_z
 _atom_site_occupancy
  K  K0  1  0.343007  0.656993  0.500000  1
  K  K1  1  0.655582  0.344418  0.500000  1
  K  K2  1  0.000475  0.999525  0.500000  1
  K  K3  1  0.500000  0.500000  0.000000  1
  Ac  Ac4  1  0.167706  0.832294  0.000000  1
  U  U5  1  0.832594  0.167406  0.000000  1
  S  S6  1  0.778389  0.808899  0.212586  1
  S  S7  1  0.458552  0.076323  0.216309  1
  S  S8  1  0.043212  0.394293  0.214284  1
  S  S9  1  0.605707  0.956788  0.785716  1
  S  S10  1  0.923677  0.541448  0.783691  1
  S  S11  1  0.191101  0.221611  0.787414  1
