# generated using pymatgen
data_Ti8Al15Ir3(PtRh)2
_symmetry_space_group_name_H-M   'P 1'
_cell_length_a   8.67641489
_cell_length_b   8.65935530
_cell_length_c   8.67633658
_cell_angle_alpha   119.96067251
_cell_angle_beta   119.86681589
_cell_angle_gamma   90.20531173
_symmetry_Int_Tables_number   1
_chemical_formula_structural   Ti8Al15Ir3(PtRh)2
_chemical_formula_sum   'Ti8 Al15 Ir3 Pt2 Rh2'
_cell_volume   461.31597330
_cell_formula_units_Z   1
loop_
 _symmetry_equiv_pos_site_id
 _symmetry_equiv_pos_as_xyz
  1  'x, y, z'
loop_
 _atom_site_type_symbol
 _atom_site_label
 _atom_site_symmetry_multiplicity
 _atom_site_fract_x
 _atom_site_fract_y
 _atom_site_fract_z
 _atom_site_occupancy
  Ti  Ti0  1  0.790684  0.292370  0.075503  1
  Ti  Ti1  1  0.216875  0.292371  0.501692  1
  Ti  Ti2  1  0.208744  0.707341  0.498595  1
  Ti  Ti3  1  0.213801  0.713017  0.922774  1
  Ti  Ti4  1  0.790241  0.713014  0.499209  1
  Ti  Ti5  1  0.784381  0.286385  0.502005  1
  Ti  Ti6  1  0.382391  0.127024  0.744637  1
  Ti  Ti7  1  0.378192  0.634078  0.255884  1
  Al  Al8  1  0.997040  0.496426  0.499406  1
  Al  Al9  1  0.152953  0.342374  0.189436  1
  Al  Al10  1  0.152854  0.964307  0.811465  1
  Al  Al11  1  0.150695  0.347682  0.805188  1
  Al  Al12  1  0.542501  0.347662  0.196973  1
  Al  Al13  1  0.845757  0.654653  0.808884  1
  Al  Al14  1  0.847969  0.039225  0.191239  1
  Al  Al15  1  0.841916  0.653021  0.185343  1
  Al  Al16  1  0.467675  0.653027  0.811109  1
  Al  Al17  1  0.377216  0.122893  0.260728  1
  Al  Al18  1  0.862195  0.122900  0.745722  1
  Al  Al19  1  0.618978  0.875454  0.256465  1
  Al  Al20  1  0.621904  0.365415  0.743503  1
  Al  Al21  1  0.622541  0.876803  0.739979  1
  Al  Al22  1  0.136787  0.876798  0.254225  1
  Ir  Ir23  1  0.497161  0.498003  0.000849  1
  Ir  Ir24  1  0.497811  0.499667  0.497736  1
  Ir  Ir25  1  0.001929  0.499662  0.001852  1
  Pt  Pt26  1  0.000151  0.999351  0.500222  1
  Pt  Pt27  1  0.499126  0.999349  0.999191  1
  Rh  Rh28  1  0.000060  0.999971  0.999907  1
  Rh  Rh29  1  0.499472  0.999750  0.500276  1
