# generated using pymatgen
data_Dy4TmZn2Bi
_symmetry_space_group_name_H-M   'P 1'
_cell_length_a   8.60463761
_cell_length_b   8.60463699
_cell_length_c   8.60463721
_cell_angle_alpha   123.37693424
_cell_angle_beta   123.37693075
_cell_angle_gamma   84.24417539
_symmetry_Int_Tables_number   1
_chemical_formula_structural   Dy4TmZn2Bi
_chemical_formula_sum   'Dy8 Tm2 Zn4 Bi2'
_cell_volume   425.14696314
_cell_formula_units_Z   2
loop_
 _symmetry_equiv_pos_site_id
 _symmetry_equiv_pos_as_xyz
  1  'x, y, z'
loop_
 _atom_site_type_symbol
 _atom_site_label
 _atom_site_symmetry_multiplicity
 _atom_site_fract_x
 _atom_site_fract_y
 _atom_site_fract_z
 _atom_site_occupancy
  Dy  Dy0  1  0.511141  0.011141  0.805487  1
  Dy  Dy1  1  0.205655  0.705655  0.194513  1
  Dy  Dy2  1  0.011141  0.205655  0.500000  1
  Dy  Dy3  1  0.705655  0.511141  0.500000  1
  Dy  Dy4  1  0.488859  0.988859  0.194513  1
  Dy  Dy5  1  0.794345  0.294345  0.805487  1
  Dy  Dy6  1  0.988859  0.794345  0.500000  1
  Dy  Dy7  1  0.294345  0.488859  0.500000  1
  Tm  Tm8  1  0.500000  0.500000  0.000000  1
  Tm  Tm9  1  0.000000  0.000000  0.000000  1
  Zn  Zn10  1  0.140073  0.640073  0.780146  1
  Zn  Zn11  1  0.859927  0.359927  0.219854  1
  Zn  Zn12  1  0.640073  0.859927  0.500000  1
  Zn  Zn13  1  0.359927  0.140073  0.500000  1
  Bi  Bi14  1  0.250000  0.250000  0.000000  1
  Bi  Bi15  1  0.750000  0.750000  0.000000  1
