# generated using pymatgen
data_Dy5Hf3Mn6(Co5P6)2
_symmetry_space_group_name_H-M   'P 1'
_cell_length_a   12.41857300
_cell_length_b   12.41857201
_cell_length_c   3.72627000
_cell_angle_alpha   90.00000000
_cell_angle_beta   90.00000000
_cell_angle_gamma   119.99998931
_symmetry_Int_Tables_number   1
_chemical_formula_structural   Dy5Hf3Mn6(Co5P6)2
_chemical_formula_sum   'Dy5 Hf3 Mn6 Co10 P12'
_cell_volume   497.67789693
_cell_formula_units_Z   1
loop_
 _symmetry_equiv_pos_site_id
 _symmetry_equiv_pos_as_xyz
  1  'x, y, z'
loop_
 _atom_site_type_symbol
 _atom_site_label
 _atom_site_symmetry_multiplicity
 _atom_site_fract_x
 _atom_site_fract_y
 _atom_site_fract_z
 _atom_site_occupancy
  Dy  Dy0  1  0.666667  0.333333  0.000000  1
  Dy  Dy1  1  0.333333  0.666667  0.000000  1
  Dy  Dy2  1  0.176752  0.176752  0.500000  1
  Dy  Dy3  1  0.823248  0.000000  0.500000  1
  Dy  Dy4  1  0.000000  0.823248  0.500000  1
  Hf  Hf5  1  0.557891  0.557891  0.000000  1
  Hf  Hf6  1  0.442109  0.000000  0.000000  1
  Hf  Hf7  1  0.000000  0.442109  0.000000  1
  Mn  Mn8  1  0.647300  0.120194  0.500000  1
  Mn  Mn9  1  0.879806  0.527106  0.500000  1
  Mn  Mn10  1  0.472894  0.352700  0.500000  1
  Mn  Mn11  1  0.120194  0.647300  0.500000  1
  Mn  Mn12  1  0.527106  0.879806  0.500000  1
  Mn  Mn13  1  0.352700  0.472894  0.500000  1
  Co  Co14  1  0.822715  0.195058  0.000000  1
  Co  Co15  1  0.804942  0.627657  0.000000  1
  Co  Co16  1  0.372343  0.177285  0.000000  1
  Co  Co17  1  0.195058  0.822715  0.000000  1
  Co  Co18  1  0.627657  0.804942  0.000000  1
  Co  Co19  1  0.177285  0.372343  0.000000  1
  Co  Co20  1  0.721874  0.721874  0.500000  1
  Co  Co21  1  0.278126  0.000000  0.500000  1
  Co  Co22  1  0.000000  0.278126  0.500000  1
  Co  Co23  1  0.000000  0.000000  0.000000  1
  P  P24  1  0.346991  0.346991  0.000000  1
  P  P25  1  0.653009  0.000000  0.000000  1
  P  P26  1  0.000000  0.653009  0.000000  1
  P  P27  1  0.831618  0.310542  0.500000  1
  P  P28  1  0.689458  0.521076  0.500000  1
  P  P29  1  0.478924  0.168382  0.500000  1
  P  P30  1  0.310542  0.831618  0.500000  1
  P  P31  1  0.521076  0.689458  0.500000  1
  P  P32  1  0.168382  0.478924  0.500000  1
  P  P33  1  0.820464  0.820464  0.000000  1
  P  P34  1  0.179536  0.000000  0.000000  1
  P  P35  1  0.000000  0.179536  0.000000  1
