# generated using pymatgen
data_Dy4Y4Re(TcB8)3
_symmetry_space_group_name_H-M   'P 1'
_cell_length_a   3.69211600
_cell_length_b   9.18153505
_cell_length_c   11.56837203
_cell_angle_alpha   90.03166236
_cell_angle_beta   90.00000000
_cell_angle_gamma   90.00000000
_symmetry_Int_Tables_number   1
_chemical_formula_structural   Dy4Y4Re(TcB8)3
_chemical_formula_sum   'Dy4 Y4 Re1 Tc3 B24'
_cell_volume   392.15956711
_cell_formula_units_Z   1
loop_
 _symmetry_equiv_pos_site_id
 _symmetry_equiv_pos_as_xyz
  1  'x, y, z'
loop_
 _atom_site_type_symbol
 _atom_site_label
 _atom_site_symmetry_multiplicity
 _atom_site_fract_x
 _atom_site_fract_y
 _atom_site_fract_z
 _atom_site_occupancy
  Dy  Dy0  1  0.000000  0.942472  0.369019  1
  Dy  Dy1  1  0.000000  0.058086  0.630014  1
  Dy  Dy2  1  0.000000  0.442466  0.130946  1
  Dy  Dy3  1  0.000000  0.556438  0.869614  1
  Y  Y4  1  0.000000  0.323971  0.414251  1
  Y  Y5  1  0.000000  0.676377  0.585737  1
  Y  Y6  1  0.000000  0.823607  0.085899  1
  Y  Y7  1  0.000000  0.176535  0.914402  1
  Re  Re8  1  0.000000  0.861408  0.820657  1
  Tc  Tc9  1  0.000000  0.638724  0.320590  1
  Tc  Tc10  1  0.000000  0.361309  0.679369  1
  Tc  Tc11  1  0.000000  0.138769  0.179540  1
  B  B12  1  0.500000  0.553588  0.432809  1
  B  B13  1  0.500000  0.446697  0.567256  1
  B  B14  1  0.500000  0.053498  0.067327  1
  B  B15  1  0.500000  0.946684  0.932941  1
  B  B16  1  0.500000  0.748822  0.418263  1
  B  B17  1  0.500000  0.251528  0.581589  1
  B  B18  1  0.500000  0.248660  0.081761  1
  B  B19  1  0.500000  0.750880  0.918402  1
  B  B20  1  0.500000  0.791490  0.265302  1
  B  B21  1  0.500000  0.208465  0.734496  1
  B  B22  1  0.500000  0.291521  0.234778  1
  B  B23  1  0.500000  0.708140  0.765440  1
  B  B24  1  0.500000  0.630656  0.185890  1
  B  B25  1  0.500000  0.369048  0.814153  1
  B  B26  1  0.500000  0.130743  0.314218  1
  B  B27  1  0.500000  0.869498  0.685654  1
  B  B28  1  0.500000  0.982531  0.211631  1
  B  B29  1  0.500000  0.017738  0.788090  1
  B  B30  1  0.500000  0.482573  0.288368  1
  B  B31  1  0.500000  0.517386  0.711811  1
  B  B32  1  0.500000  0.600028  0.028119  1
  B  B33  1  0.500000  0.399328  0.972129  1
  B  B34  1  0.500000  0.100270  0.471693  1
  B  B35  1  0.500000  0.900068  0.527838  1
