# generated using pymatgen
data_Er2B8MoIr
_symmetry_space_group_name_H-M   'P 1'
_cell_length_a   3.57794500
_cell_length_b   5.98122134
_cell_length_c   11.58443089
_cell_angle_alpha   89.65364018
_cell_angle_beta   90.00000000
_cell_angle_gamma   90.00000000
_symmetry_Int_Tables_number   1
_chemical_formula_structural   Er2B8MoIr
_chemical_formula_sum   'Er4 B16 Mo2 Ir2'
_cell_volume   247.90786306
_cell_formula_units_Z   2
loop_
 _symmetry_equiv_pos_site_id
 _symmetry_equiv_pos_as_xyz
  1  'x, y, z'
loop_
 _atom_site_type_symbol
 _atom_site_label
 _atom_site_symmetry_multiplicity
 _atom_site_fract_x
 _atom_site_fract_y
 _atom_site_fract_z
 _atom_site_occupancy
  Er  Er0  1  0.000000  0.626940  0.349966  1
  Er  Er1  1  0.000000  0.373060  0.650034  1
  Er  Er2  1  0.000000  0.129124  0.148878  1
  Er  Er3  1  0.000000  0.870876  0.851122  1
  B  B4  1  0.500000  0.788924  0.186323  1
  B  B5  1  0.500000  0.211076  0.813677  1
  B  B6  1  0.500000  0.290301  0.312033  1
  B  B7  1  0.500000  0.709699  0.687967  1
  B  B8  1  0.500000  0.864604  0.030440  1
  B  B9  1  0.500000  0.135396  0.969560  1
  B  B10  1  0.500000  0.367755  0.467802  1
  B  B11  1  0.500000  0.632245  0.532198  1
  B  B12  1  0.500000  0.884927  0.453071  1
  B  B13  1  0.500000  0.115073  0.546929  1
  B  B14  1  0.500000  0.386565  0.047243  1
  B  B15  1  0.500000  0.613435  0.952757  1
  B  B16  1  0.500000  0.975482  0.305526  1
  B  B17  1  0.500000  0.024518  0.694474  1
  B  B18  1  0.500000  0.474220  0.191724  1
  B  B19  1  0.500000  0.525780  0.808276  1
  Mo  Mo20  1  0.000000  0.128461  0.413957  1
  Mo  Mo21  1  0.000000  0.871539  0.586043  1
  Ir  Ir22  1  0.000000  0.645086  0.095001  1
  Ir  Ir23  1  0.000000  0.354914  0.904999  1
