# generated using pymatgen
data_Ba2Pr3Si3O12F
_symmetry_space_group_name_H-M   'P 1'
_cell_length_a   9.97103400
_cell_length_b   9.97103422
_cell_length_c   7.40948000
_cell_angle_alpha   90.00000000
_cell_angle_beta   90.00000000
_cell_angle_gamma   119.99999927
_symmetry_Int_Tables_number   1
_chemical_formula_structural   Ba2Pr3Si3O12F
_chemical_formula_sum   'Ba4 Pr6 Si6 O24 F2'
_cell_volume   637.96781416
_cell_formula_units_Z   2
loop_
 _symmetry_equiv_pos_site_id
 _symmetry_equiv_pos_as_xyz
  1  'x, y, z'
loop_
 _atom_site_type_symbol
 _atom_site_label
 _atom_site_symmetry_multiplicity
 _atom_site_fract_x
 _atom_site_fract_y
 _atom_site_fract_z
 _atom_site_occupancy
  Ba  Ba0  1  0.333333  0.666667  0.506043  1
  Ba  Ba1  1  0.333333  0.666667  0.000531  1
  Ba  Ba2  1  0.666667  0.333333  0.006043  1
  Ba  Ba3  1  0.666667  0.333333  0.500531  1
  Pr  Pr4  1  0.250920  0.995501  0.253498  1
  Pr  Pr5  1  0.004499  0.255419  0.253498  1
  Pr  Pr6  1  0.255419  0.250920  0.753498  1
  Pr  Pr7  1  0.744581  0.749080  0.253498  1
  Pr  Pr8  1  0.995501  0.744581  0.753498  1
  Pr  Pr9  1  0.749080  0.004499  0.753498  1
  Si  Si10  1  0.018162  0.378532  0.753406  1
  Si  Si11  1  0.360370  0.981838  0.753406  1
  Si  Si12  1  0.378532  0.360370  0.253406  1
  Si  Si13  1  0.621468  0.639630  0.753406  1
  Si  Si14  1  0.639630  0.018162  0.253406  1
  Si  Si15  1  0.981838  0.621468  0.253406  1
  O  O16  1  0.242219  0.911199  0.929650  1
  O  O17  1  0.241428  0.912522  0.577552  1
  O  O18  1  0.171006  0.718405  0.253875  1
  O  O19  1  0.086402  0.567433  0.752375  1
  O  O20  1  0.087478  0.328905  0.577552  1
  O  O21  1  0.088801  0.331021  0.929650  1
  O  O22  1  0.481032  0.913598  0.752375  1
  O  O23  1  0.547399  0.828994  0.253875  1
  O  O24  1  0.281595  0.452601  0.253875  1
  O  O25  1  0.432567  0.518968  0.752375  1
  O  O26  1  0.331021  0.242219  0.429650  1
  O  O27  1  0.328905  0.241428  0.077552  1
  O  O28  1  0.671095  0.758572  0.577552  1
  O  O29  1  0.668979  0.757781  0.929650  1
  O  O30  1  0.567433  0.481032  0.252375  1
  O  O31  1  0.718405  0.547399  0.753875  1
  O  O32  1  0.452601  0.171006  0.753875  1
  O  O33  1  0.518968  0.086402  0.252375  1
  O  O34  1  0.912522  0.671095  0.077552  1
  O  O35  1  0.911199  0.668979  0.429650  1
  O  O36  1  0.913598  0.432567  0.252375  1
  O  O37  1  0.828994  0.281595  0.753875  1
  O  O38  1  0.757781  0.088801  0.429650  1
  O  O39  1  0.758572  0.087478  0.077552  1
  F  F40  1  0.000000  0.000000  0.760358  1
  F  F41  1  0.000000  0.000000  0.260358  1
