# generated using pymatgen
data_La6Pr2Sc11Si16Hg
_symmetry_space_group_name_H-M   'P 1'
_cell_length_a   7.25611158
_cell_length_b   7.61626913
_cell_length_c   14.34999274
_cell_angle_alpha   90.03023369
_cell_angle_beta   89.97890809
_cell_angle_gamma   90.33261799
_symmetry_Int_Tables_number   1
_chemical_formula_structural   La6Pr2Sc11Si16Hg
_chemical_formula_sum   'La6 Pr2 Sc11 Si16 Hg1'
_cell_volume   793.03162775
_cell_formula_units_Z   1
loop_
 _symmetry_equiv_pos_site_id
 _symmetry_equiv_pos_as_xyz
  1  'x, y, z'
loop_
 _atom_site_type_symbol
 _atom_site_label
 _atom_site_symmetry_multiplicity
 _atom_site_fract_x
 _atom_site_fract_y
 _atom_site_fract_z
 _atom_site_occupancy
  La  La0  1  0.012186  0.172557  0.400853  1
  La  La1  1  0.509466  0.333155  0.400835  1
  La  La2  1  0.492746  0.679469  0.900324  1
  La  La3  1  0.493376  0.679452  0.600582  1
  La  La4  1  0.979634  0.828455  0.601634  1
  La  La5  1  0.979329  0.828762  0.899385  1
  Pr  Pr6  1  0.509835  0.331756  0.099573  1
  Pr  Pr7  1  0.011937  0.173387  0.099168  1
  Sc  Sc8  1  0.336932  0.173625  0.623890  1
  Sc  Sc9  1  0.671616  0.821980  0.371994  1
  Sc  Sc10  1  0.170704  0.676408  0.374602  1
  Sc  Sc11  1  0.827815  0.313536  0.876560  1
  Sc  Sc12  1  0.827769  0.313579  0.624247  1
  Sc  Sc13  1  0.840497  0.503255  0.249002  1
  Sc  Sc14  1  0.339866  0.996081  0.249309  1
  Sc  Sc15  1  0.337667  0.174459  0.876604  1
  Sc  Sc16  1  0.170958  0.676960  0.123920  1
  Sc  Sc17  1  0.671156  0.821223  0.126664  1
  Sc  Sc18  1  0.158412  0.492217  0.750220  1
  Si  Si19  1  0.272124  0.884912  0.750496  1
  Si  Si20  1  0.465376  0.626297  0.249140  1
  Si  Si21  1  0.051539  0.130594  0.750326  1
  Si  Si22  1  0.531320  0.387090  0.750394  1
  Si  Si23  1  0.152258  0.466022  0.541541  1
  Si  Si24  1  0.968235  0.872580  0.249102  1
  Si  Si25  1  0.708370  0.115964  0.248983  1
  Si  Si26  1  0.849582  0.534396  0.039437  1
  Si  Si27  1  0.348619  0.965178  0.040850  1
  Si  Si28  1  0.152253  0.464553  0.959353  1
  Si  Si29  1  0.651797  0.041845  0.527211  1
  Si  Si30  1  0.349578  0.963068  0.459678  1
  Si  Si31  1  0.850399  0.536404  0.461148  1
  Si  Si32  1  0.795228  0.584750  0.750465  1
  Si  Si33  1  0.207812  0.387809  0.248830  1
  Si  Si34  1  0.652711  0.043392  0.973319  1
  Hg  Hg35  1  0.650895  0.004829  0.750361  1
