# generated using pymatgen
data_Gd2Ho2TmIr2
_symmetry_space_group_name_H-M   'P 1'
_cell_length_a   6.43935044
_cell_length_b   7.20698913
_cell_length_c   8.50157900
_cell_angle_alpha   96.74043553
_cell_angle_beta   112.25410371
_cell_angle_gamma   90.00000796
_symmetry_Int_Tables_number   1
_chemical_formula_structural   Gd2Ho2TmIr2
_chemical_formula_sum   'Gd4 Ho4 Tm2 Ir4'
_cell_volume   362.20755527
_cell_formula_units_Z   2
loop_
 _symmetry_equiv_pos_site_id
 _symmetry_equiv_pos_as_xyz
  1  'x, y, z'
loop_
 _atom_site_type_symbol
 _atom_site_label
 _atom_site_symmetry_multiplicity
 _atom_site_fract_x
 _atom_site_fract_y
 _atom_site_fract_z
 _atom_site_occupancy
  Gd  Gd0  1  0.972593  0.920145  0.185171  1
  Gd  Gd1  1  0.787420  0.579855  0.814829  1
  Gd  Gd2  1  0.027407  0.079855  0.814829  1
  Gd  Gd3  1  0.212580  0.420145  0.185171  1
  Ho  Ho4  1  0.648544  0.816402  0.438990  1
  Ho  Ho5  1  0.209553  0.683598  0.561010  1
  Ho  Ho6  1  0.351456  0.183598  0.561010  1
  Ho  Ho7  1  0.790447  0.316402  0.438990  1
  Tm  Tm8  1  0.427171  0.750000  0.000000  1
  Tm  Tm9  1  0.572829  0.250000  0.000000  1
  Ir  Ir10  1  0.817940  0.573939  0.220636  1
  Ir  Ir11  1  0.597303  0.926061  0.779364  1
  Ir  Ir12  1  0.182061  0.426061  0.779364  1
  Ir  Ir13  1  0.402697  0.073939  0.220636  1
