# generated using pymatgen
data_K4Cr4Cl10O
_symmetry_space_group_name_H-M   'P 1'
_cell_length_a   10.94868068
_cell_length_b   10.94868124
_cell_length_c   9.20905005
_cell_angle_alpha   79.82128155
_cell_angle_beta   79.82128295
_cell_angle_gamma   90.40820804
_symmetry_Int_Tables_number   1
_chemical_formula_structural   K4Cr4Cl10O
_chemical_formula_sum   'K8 Cr8 Cl20 O2'
_cell_volume   1068.60854447
_cell_formula_units_Z   2
loop_
 _symmetry_equiv_pos_site_id
 _symmetry_equiv_pos_as_xyz
  1  'x, y, z'
loop_
 _atom_site_type_symbol
 _atom_site_label
 _atom_site_symmetry_multiplicity
 _atom_site_fract_x
 _atom_site_fract_y
 _atom_site_fract_z
 _atom_site_occupancy
  K  K0  1  0.293609  0.440132  0.138317  1
  K  K1  1  0.713708  0.964028  0.874225  1
  K  K2  1  0.964028  0.713708  0.374225  1
  K  K3  1  0.559868  0.706391  0.361683  1
  K  K4  1  0.440132  0.293609  0.638317  1
  K  K5  1  0.035972  0.286292  0.625775  1
  K  K6  1  0.706391  0.559868  0.861683  1
  K  K7  1  0.286292  0.035972  0.125775  1
  Cr  Cr8  1  0.952895  0.234508  0.114875  1
  Cr  Cr9  1  0.047105  0.765492  0.885125  1
  Cr  Cr10  1  0.645752  0.230941  0.129558  1
  Cr  Cr11  1  0.769059  0.354248  0.370442  1
  Cr  Cr12  1  0.230941  0.645752  0.629558  1
  Cr  Cr13  1  0.354248  0.769059  0.870442  1
  Cr  Cr14  1  0.765492  0.047105  0.385125  1
  Cr  Cr15  1  0.234508  0.952895  0.614875  1
  Cl  Cl16  1  0.153932  0.265410  0.954315  1
  Cl  Cl17  1  0.983539  0.016461  0.250000  1
  Cl  Cl18  1  0.734590  0.846068  0.545685  1
  Cl  Cl19  1  0.396637  0.995476  0.778911  1
  Cl  Cl20  1  0.261933  0.487171  0.478093  1
  Cl  Cl21  1  0.004524  0.603363  0.721089  1
  Cl  Cl22  1  0.827172  0.280828  0.909243  1
  Cl  Cl23  1  0.416456  0.583544  0.750000  1
  Cl  Cl24  1  0.487171  0.261933  0.978093  1
  Cl  Cl25  1  0.016461  0.983539  0.750000  1
  Cl  Cl26  1  0.280828  0.827172  0.409243  1
  Cl  Cl27  1  0.995476  0.396637  0.278911  1
  Cl  Cl28  1  0.846068  0.734590  0.045685  1
  Cl  Cl29  1  0.738067  0.512829  0.521907  1
  Cl  Cl30  1  0.603363  0.004524  0.221089  1
  Cl  Cl31  1  0.719172  0.172828  0.590757  1
  Cl  Cl32  1  0.172828  0.719172  0.090757  1
  Cl  Cl33  1  0.583544  0.416456  0.250000  1
  Cl  Cl34  1  0.265410  0.153932  0.454315  1
  Cl  Cl35  1  0.512829  0.738067  0.021907  1
  O  O36  1  0.216083  0.783917  0.750000  1
  O  O37  1  0.783917  0.216083  0.250000  1
