# generated using pymatgen
data_Tb10Ga3TcBi2
_symmetry_space_group_name_H-M   'P 1'
_cell_length_a   8.74340454
_cell_length_b   8.74340467
_cell_length_c   8.87346470
_cell_angle_alpha   125.47224894
_cell_angle_beta   125.47224780
_cell_angle_gamma   79.75360164
_symmetry_Int_Tables_number   1
_chemical_formula_structural   Tb10Ga3TcBi2
_chemical_formula_sum   'Tb10 Ga3 Tc1 Bi2'
_cell_volume   436.81171733
_cell_formula_units_Z   1
loop_
 _symmetry_equiv_pos_site_id
 _symmetry_equiv_pos_as_xyz
  1  'x, y, z'
loop_
 _atom_site_type_symbol
 _atom_site_label
 _atom_site_symmetry_multiplicity
 _atom_site_fract_x
 _atom_site_fract_y
 _atom_site_fract_z
 _atom_site_occupancy
  Tb  Tb0  1  0.004945  0.003872  0.008818  1
  Tb  Tb1  1  0.496128  0.495055  0.991182  1
  Tb  Tb2  1  0.784955  0.300260  0.799982  1
  Tb  Tb3  1  0.199740  0.715045  0.200018  1
  Tb  Tb4  1  0.484972  0.000278  0.200018  1
  Tb  Tb5  1  0.308463  0.459914  0.500000  1
  Tb  Tb6  1  0.040086  0.191537  0.500000  1
  Tb  Tb7  1  0.499722  0.015028  0.799982  1
  Tb  Tb8  1  0.707478  0.519094  0.500000  1
  Tb  Tb9  1  0.980906  0.792522  0.500000  1
  Ga  Ga10  1  0.141732  0.646439  0.788170  1
  Ga  Ga11  1  0.853561  0.358268  0.211830  1
  Ga  Ga12  1  0.631918  0.868082  0.500000  1
  Tc  Tc13  1  0.376248  0.123752  0.500000  1
  Bi  Bi14  1  0.244571  0.255429  0.000000  1
  Bi  Bi15  1  0.744571  0.755429  0.000000  1
