# generated using pymatgen
data_La2NdNi6(As2Pd)3
_symmetry_space_group_name_H-M   'P 1'
_cell_length_a   3.97182500
_cell_length_b   8.23040659
_cell_length_c   9.99720348
_cell_angle_alpha   105.36952131
_cell_angle_beta   90.00000000
_cell_angle_gamma   103.96266241
_symmetry_Int_Tables_number   1
_chemical_formula_structural   La2NdNi6(As2Pd)3
_chemical_formula_sum   'La2 Nd1 Ni6 As6 Pd3'
_cell_volume   305.09244838
_cell_formula_units_Z   1
loop_
 _symmetry_equiv_pos_site_id
 _symmetry_equiv_pos_as_xyz
  1  'x, y, z'
loop_
 _atom_site_type_symbol
 _atom_site_label
 _atom_site_symmetry_multiplicity
 _atom_site_fract_x
 _atom_site_fract_y
 _atom_site_fract_z
 _atom_site_occupancy
  La  La0  1  0.847540  0.695079  0.306562  1
  La  La1  1  0.152460  0.304921  0.693438  1
  Nd  Nd2  1  0.000000  0.000000  0.000000  1
  Ni  Ni3  1  0.947957  0.895914  0.670013  1
  Ni  Ni4  1  0.052043  0.104086  0.329987  1
  Ni  Ni5  1  0.784567  0.569134  0.609918  1
  Ni  Ni6  1  0.215433  0.430866  0.390082  1
  Ni  Ni7  1  0.371639  0.743278  0.791415  1
  Ni  Ni8  1  0.628361  0.256722  0.208585  1
  As  As9  1  0.802585  0.605171  0.855082  1
  As  As10  1  0.197415  0.394829  0.144918  1
  As  As11  1  0.524057  0.048115  0.779683  1
  As  As12  1  0.475943  0.951885  0.220317  1
  As  As13  1  0.647402  0.294804  0.448453  1
  As  As14  1  0.352598  0.705196  0.551547  1
  Pd  Pd15  1  0.500000  0.000000  0.500000  1
  Pd  Pd16  1  0.672340  0.344680  0.965397  1
  Pd  Pd17  1  0.327660  0.655320  0.034603  1
