# generated using pymatgen
data_Yb3ErAl23SiPt9
_symmetry_space_group_name_H-M   'P 1'
_cell_length_a   7.53143955
_cell_length_b   7.52274581
_cell_length_c   13.21314954
_cell_angle_alpha   84.59913689
_cell_angle_beta   100.89485622
_cell_angle_gamma   119.96808784
_symmetry_Int_Tables_number   1
_chemical_formula_structural   Yb3ErAl23SiPt9
_chemical_formula_sum   'Yb3 Er1 Al23 Si1 Pt9'
_cell_volume   636.84191347
_cell_formula_units_Z   1
loop_
 _symmetry_equiv_pos_site_id
 _symmetry_equiv_pos_as_xyz
  1  'x, y, z'
loop_
 _atom_site_type_symbol
 _atom_site_label
 _atom_site_symmetry_multiplicity
 _atom_site_fract_x
 _atom_site_fract_y
 _atom_site_fract_z
 _atom_site_occupancy
  Yb  Yb0  1  0.731950  0.000254  0.192761  1
  Yb  Yb1  1  0.261776  0.001341  0.807894  1
  Yb  Yb2  1  0.063405  0.667469  0.192671  1
  Er  Er3  1  0.937840  0.326958  0.807714  1
  Al  Al4  1  0.190130  0.129221  0.182740  1
  Al  Al5  1  0.982849  0.665791  0.943997  1
  Al  Al6  1  0.019139  0.334228  0.054243  1
  Al  Al7  1  0.398976  0.667076  0.816275  1
  Al  Al8  1  0.600467  0.334250  0.182881  1
  Al  Al9  1  0.884144  0.663536  0.671591  1
  Al  Al10  1  0.117455  0.334242  0.330051  1
  Al  Al11  1  0.610432  0.460988  0.815689  1
  Al  Al12  1  0.395528  0.540587  0.183090  1
  Al  Al13  1  0.232027  0.341152  0.669413  1
  Al  Al14  1  0.770239  0.660133  0.331309  1
  Al  Al15  1  0.853163  0.332433  0.559480  1
  Al  Al16  1  0.184502  0.998927  0.559570  1
  Al  Al17  1  0.814667  0.000365  0.442962  1
  Al  Al18  1  0.351683  0.000949  0.053420  1
  Al  Al19  1  0.647029  0.001044  0.944281  1
  Al  Al20  1  0.553514  0.993676  0.671235  1
  Al  Al21  1  0.443175  0.005986  0.329730  1
  Al  Al22  1  0.520406  0.667497  0.561005  1
  Al  Al23  1  0.479287  0.331926  0.438814  1
  Al  Al24  1  0.684550  0.668522  0.047761  1
  Al  Al25  1  0.320620  0.336093  0.954119  1
  Al  Al26  1  0.146361  0.666399  0.441101  1
  Si  Si27  1  0.802073  0.866759  0.815939  1
  Pt  Pt28  1  0.330390  0.673063  0.998419  1
  Pt  Pt29  1  0.546032  0.326159  0.637241  1
  Pt  Pt30  1  0.455084  0.674408  0.363685  1
  Pt  Pt31  1  0.886573  0.005806  0.642759  1
  Pt  Pt32  1  0.112926  0.992485  0.362528  1
  Pt  Pt33  1  0.672953  0.331123  0.998122  1
  Pt  Pt34  1  0.205283  0.666203  0.638644  1
  Pt  Pt35  1  0.795021  0.332600  0.362657  1
  Pt  Pt36  1  0.998349  0.000353  0.994211  1
