# generated using pymatgen
data_DyTm11Pb10
_symmetry_space_group_name_H-M   'P 1'
_cell_length_a   6.54732182
_cell_length_b   9.37203553
_cell_length_c   11.63226700
_cell_angle_alpha   113.76619599
_cell_angle_beta   106.34552654
_cell_angle_gamma   90.00000548
_symmetry_Int_Tables_number   1
_chemical_formula_structural   DyTm11Pb10
_chemical_formula_sum   'Dy1 Tm11 Pb10'
_cell_volume   621.59370931
_cell_formula_units_Z   1
loop_
 _symmetry_equiv_pos_site_id
 _symmetry_equiv_pos_as_xyz
  1  'x, y, z'
loop_
 _atom_site_type_symbol
 _atom_site_label
 _atom_site_symmetry_multiplicity
 _atom_site_fract_x
 _atom_site_fract_y
 _atom_site_fract_z
 _atom_site_occupancy
  Dy  Dy0  1  0.359674  0.973286  0.719360  1
  Tm  Tm1  1  0.555118  0.305215  0.610172  1
  Tm  Tm2  1  0.444873  0.694617  0.389606  1
  Tm  Tm3  1  0.944886  0.694530  0.389620  1
  Tm  Tm4  1  0.054881  0.305274  0.610164  1
  Tm  Tm5  1  0.439741  0.676247  0.879434  1
  Tm  Tm6  1  0.560255  0.323828  0.120494  1
  Tm  Tm7  1  0.939674  0.204022  0.879389  1
  Tm  Tm8  1  0.060394  0.796122  0.120769  1
  Tm  Tm9  1  0.140695  0.254039  0.281353  1
  Tm  Tm10  1  0.859260  0.745702  0.718565  1
  Tm  Tm11  1  0.640518  0.026810  0.281031  1
  Pb  Pb12  1  0.292465  0.595588  0.585154  1
  Pb  Pb13  1  0.707387  0.403496  0.414508  1
  Pb  Pb14  1  0.792558  0.989113  0.585382  1
  Pb  Pb15  1  0.207395  0.011062  0.414524  1
  Pb  Pb16  1  0.249404  0.999855  0.000186  1
  Pb  Pb17  1  0.750781  0.000073  0.000209  1
  Pb  Pb18  1  0.073977  0.475372  0.148134  1
  Pb  Pb19  1  0.925992  0.524564  0.851788  1
  Pb  Pb20  1  0.573878  0.671891  0.147885  1
  Pb  Pb21  1  0.426193  0.329294  0.852275  1
