# generated using pymatgen
data_Hf6Ga7Co5
_symmetry_space_group_name_H-M   'P 1'
_cell_length_a   7.02646700
_cell_length_b   7.02646645
_cell_length_c   6.68205800
_cell_angle_alpha   90.00000000
_cell_angle_beta   90.00000000
_cell_angle_gamma   120.00000729
_symmetry_Int_Tables_number   1
_chemical_formula_structural   Hf6Ga7Co5
_chemical_formula_sum   'Hf6 Ga7 Co5'
_cell_volume   285.70301850
_cell_formula_units_Z   1
loop_
 _symmetry_equiv_pos_site_id
 _symmetry_equiv_pos_as_xyz
  1  'x, y, z'
loop_
 _atom_site_type_symbol
 _atom_site_label
 _atom_site_symmetry_multiplicity
 _atom_site_fract_x
 _atom_site_fract_y
 _atom_site_fract_z
 _atom_site_occupancy
  Hf  Hf0  1  0.400322  0.382086  0.240125  1
  Hf  Hf1  1  0.611186  0.009504  0.759068  1
  Hf  Hf2  1  0.398318  0.388814  0.759068  1
  Hf  Hf3  1  0.990496  0.601682  0.759068  1
  Hf  Hf4  1  0.981764  0.599678  0.240125  1
  Hf  Hf5  1  0.617914  0.018236  0.240125  1
  Ga  Ga6  1  0.271014  0.990528  0.000206  1
  Ga  Ga7  1  0.250635  0.005533  0.501187  1
  Ga  Ga8  1  0.994467  0.245102  0.501187  1
  Ga  Ga9  1  0.009472  0.280486  0.000206  1
  Ga  Ga10  1  0.719514  0.728986  0.000206  1
  Ga  Ga11  1  0.754898  0.749365  0.501187  1
  Ga  Ga12  1  0.333333  0.666667  0.486888  1
  Co  Co13  1  0.666667  0.333333  0.504413  1
  Co  Co14  1  0.000000  0.000000  0.776246  1
  Co  Co15  1  0.666667  0.333333  0.995072  1
  Co  Co16  1  0.333333  0.666667  0.010242  1
  Co  Co17  1  0.000000  0.000000  0.225381  1
