# generated using pymatgen
data_Y5TmAl24IrRu7
_symmetry_space_group_name_H-M   'P 1'
_cell_length_a   8.79506700
_cell_length_b   8.79814896
_cell_length_c   9.60504059
_cell_angle_alpha   89.93473220
_cell_angle_beta   90.07027473
_cell_angle_gamma   119.98577278
_symmetry_Int_Tables_number   1
_chemical_formula_structural   Y5TmAl24IrRu7
_chemical_formula_sum   'Y5 Tm1 Al24 Ir1 Ru7'
_cell_volume   643.75725477
_cell_formula_units_Z   1
loop_
 _symmetry_equiv_pos_site_id
 _symmetry_equiv_pos_as_xyz
  1  'x, y, z'
loop_
 _atom_site_type_symbol
 _atom_site_label
 _atom_site_symmetry_multiplicity
 _atom_site_fract_x
 _atom_site_fract_y
 _atom_site_fract_z
 _atom_site_occupancy
  Y  Y0  1  0.806793  0.193088  0.749762  1
  Y  Y1  1  0.193079  0.806630  0.250244  1
  Y  Y2  1  0.385530  0.192450  0.749342  1
  Y  Y3  1  0.614485  0.807497  0.250646  1
  Y  Y4  1  0.807427  0.614390  0.749346  1
  Tm  Tm5  1  0.193019  0.386979  0.250749  1
  Al  Al6  1  0.667468  0.332414  0.980921  1
  Al  Al7  1  0.332302  0.667020  0.019616  1
  Al  Al8  1  0.333149  0.666091  0.480735  1
  Al  Al9  1  0.666596  0.333365  0.518699  1
  Al  Al10  1  0.837292  0.163416  0.422379  1
  Al  Al11  1  0.163247  0.836819  0.577170  1
  Al  Al12  1  0.325621  0.163552  0.422097  1
  Al  Al13  1  0.162779  0.837316  0.922346  1
  Al  Al14  1  0.674039  0.836701  0.577403  1
  Al  Al15  1  0.837784  0.162927  0.078124  1
  Al  Al16  1  0.836684  0.674062  0.422314  1
  Al  Al17  1  0.674372  0.838209  0.922920  1
  Al  Al18  1  0.163313  0.325933  0.576932  1
  Al  Al19  1  0.325377  0.162020  0.077554  1
  Al  Al20  1  0.161822  0.325601  0.923370  1
  Al  Al21  1  0.838188  0.674402  0.077383  1
  Al  Al22  1  0.437722  0.562223  0.748808  1
  Al  Al23  1  0.561403  0.437597  0.251158  1
  Al  Al24  1  0.123926  0.561488  0.750124  1
  Al  Al25  1  0.876769  0.438302  0.249893  1
  Al  Al26  1  0.438476  0.876068  0.750142  1
  Al  Al27  1  0.561557  0.123972  0.249865  1
  Al  Al28  1  0.000123  0.999835  0.750072  1
  Al  Al29  1  0.000600  0.001409  0.249932  1
  Ir  Ir30  1  0.499423  0.499705  0.000338  1
  Ru  Ru31  1  0.000328  0.499706  0.000451  1
  Ru  Ru32  1  0.499406  0.499717  0.499600  1
  Ru  Ru33  1  0.499885  0.999783  0.000061  1
  Ru  Ru34  1  0.000295  0.499695  0.499567  1
  Ru  Ru35  1  0.499887  0.999782  0.499928  1
  Ru  Ru36  1  0.999938  0.999929  0.999848  1
  Ru  Ru37  1  0.999896  0.999906  0.500162  1
