# generated using pymatgen
data_ZrSc(Al2Ni)2
_symmetry_space_group_name_H-M   'P 1'
_cell_length_a   5.20635283
_cell_length_b   5.20635263
_cell_length_c   6.56634300
_cell_angle_alpha   90.00000000
_cell_angle_beta   90.00000000
_cell_angle_gamma   134.13637581
_symmetry_Int_Tables_number   1
_chemical_formula_structural   ZrSc(Al2Ni)2
_chemical_formula_sum   'Zr1 Sc1 Al4 Ni2'
_cell_volume   127.73920448
_cell_formula_units_Z   1
loop_
 _symmetry_equiv_pos_site_id
 _symmetry_equiv_pos_as_xyz
  1  'x, y, z'
loop_
 _atom_site_type_symbol
 _atom_site_label
 _atom_site_symmetry_multiplicity
 _atom_site_fract_x
 _atom_site_fract_y
 _atom_site_fract_z
 _atom_site_occupancy
  Zr  Zr0  1  0.567994  0.432006  0.750000  1
  Sc  Sc1  1  0.431844  0.568156  0.250000  1
  Al  Al2  1  0.856886  0.143114  0.949527  1
  Al  Al3  1  0.143686  0.856314  0.049578  1
  Al  Al4  1  0.143686  0.856314  0.450422  1
  Al  Al5  1  0.856886  0.143114  0.550473  1
  Ni  Ni6  1  0.290299  0.709701  0.750000  1
  Ni  Ni7  1  0.708719  0.291281  0.250000  1
