# generated using pymatgen
data_Yb2MgReO6
_symmetry_space_group_name_H-M   'P 1'
_cell_length_a   5.57734400
_cell_length_b   5.35575832
_cell_length_c   9.34089937
_cell_angle_alpha   55.22280521
_cell_angle_beta   90.00000000
_cell_angle_gamma   90.00000000
_symmetry_Int_Tables_number   1
_chemical_formula_structural   Yb2MgReO6
_chemical_formula_sum   'Yb4 Mg2 Re2 O12'
_cell_volume   229.18134567
_cell_formula_units_Z   2
loop_
 _symmetry_equiv_pos_site_id
 _symmetry_equiv_pos_as_xyz
  1  'x, y, z'
loop_
 _atom_site_type_symbol
 _atom_site_label
 _atom_site_symmetry_multiplicity
 _atom_site_fract_x
 _atom_site_fract_y
 _atom_site_fract_z
 _atom_site_occupancy
  Yb  Yb0  1  0.060995  0.768428  0.247545  1
  Yb  Yb1  1  0.439005  0.768428  0.747545  1
  Yb  Yb2  1  0.939005  0.231572  0.752455  1
  Yb  Yb3  1  0.560995  0.231572  0.252455  1
  Mg  Mg4  1  0.500000  0.000000  0.000000  1
  Mg  Mg5  1  0.000000  0.000000  0.500000  1
  Re  Re6  1  0.500000  0.500000  0.500000  1
  Re  Re7  1  0.000000  0.500000  0.000000  1
  O  O8  1  0.212871  0.257694  0.553173  1
  O  O9  1  0.287129  0.257694  0.053173  1
  O  O10  1  0.787129  0.742306  0.446827  1
  O  O11  1  0.712871  0.742306  0.946827  1
  O  O12  1  0.693826  0.160625  0.547023  1
  O  O13  1  0.806174  0.160625  0.047023  1
  O  O14  1  0.306174  0.839375  0.452977  1
  O  O15  1  0.193826  0.839375  0.952977  1
  O  O16  1  0.469629  0.646379  0.257601  1
  O  O17  1  0.030371  0.646379  0.757601  1
  O  O18  1  0.530371  0.353621  0.742399  1
  O  O19  1  0.969629  0.353621  0.242399  1
