# generated using pymatgen
data_CaSb12Ru3Rh
_symmetry_space_group_name_H-M   'P 1'
_cell_length_a   8.12453708
_cell_length_b   8.14468286
_cell_length_c   8.12279000
_cell_angle_alpha   109.53349681
_cell_angle_beta   109.40560040
_cell_angle_gamma   109.47120457
_symmetry_Int_Tables_number   1
_chemical_formula_structural   CaSb12Ru3Rh
_chemical_formula_sum   'Ca1 Sb12 Ru3 Rh1'
_cell_volume   413.78404468
_cell_formula_units_Z   1
loop_
 _symmetry_equiv_pos_site_id
 _symmetry_equiv_pos_as_xyz
  1  'x, y, z'
loop_
 _atom_site_type_symbol
 _atom_site_label
 _atom_site_symmetry_multiplicity
 _atom_site_fract_x
 _atom_site_fract_y
 _atom_site_fract_z
 _atom_site_occupancy
  Ca  Ca0  1  0.000005  0.000007  0.999999  1
  Sb  Sb1  1  0.339579  0.181932  0.842105  1
  Sb  Sb2  1  0.660425  0.818065  0.157895  1
  Sb  Sb3  1  0.657966  0.502705  0.842354  1
  Sb  Sb4  1  0.342035  0.497295  0.157647  1
  Sb  Sb5  1  0.184142  0.844783  0.341669  1
  Sb  Sb6  1  0.815858  0.155217  0.658331  1
  Sb  Sb7  1  0.503032  0.842384  0.660653  1
  Sb  Sb8  1  0.496967  0.157616  0.339350  1
  Sb  Sb9  1  0.842280  0.339299  0.184401  1
  Sb  Sb10  1  0.157718  0.660702  0.815600  1
  Sb  Sb11  1  0.842363  0.660777  0.502877  1
  Sb  Sb12  1  0.157633  0.339225  0.497121  1
  Ru  Ru13  1  0.000001  0.000000  0.500000  1
  Ru  Ru14  1  0.500000  0.000000  0.000000  1
  Ru  Ru15  1  0.499997  0.499999  0.500004  1
  Rh  Rh16  1  0.999998  0.499993  0.999995  1
