# generated using pymatgen
data_DyTm3Co12(P3Rh2)4
_symmetry_space_group_name_H-M   'P 1'
_cell_length_a   3.71742700
_cell_length_b   10.44971145
_cell_length_c   12.06281952
_cell_angle_alpha   90.03352352
_cell_angle_beta   90.00000000
_cell_angle_gamma   90.00000000
_symmetry_Int_Tables_number   1
_chemical_formula_structural   DyTm3Co12(P3Rh2)4
_chemical_formula_sum   'Dy1 Tm3 Co12 P12 Rh8'
_cell_volume   468.59268291
_cell_formula_units_Z   1
loop_
 _symmetry_equiv_pos_site_id
 _symmetry_equiv_pos_as_xyz
  1  'x, y, z'
loop_
 _atom_site_type_symbol
 _atom_site_label
 _atom_site_symmetry_multiplicity
 _atom_site_fract_x
 _atom_site_fract_y
 _atom_site_fract_z
 _atom_site_occupancy
  Dy  Dy0  1  0.250000  0.584218  0.711454  1
  Tm  Tm1  1  0.250000  0.916321  0.211092  1
  Tm  Tm2  1  0.750000  0.415756  0.288975  1
  Tm  Tm3  1  0.750000  0.083720  0.788875  1
  Co  Co4  1  0.250000  0.220827  0.178508  1
  Co  Co5  1  0.250000  0.278648  0.678381  1
  Co  Co6  1  0.750000  0.779977  0.821643  1
  Co  Co7  1  0.750000  0.721500  0.321354  1
  Co  Co8  1  0.250000  0.883468  0.697185  1
  Co  Co9  1  0.250000  0.617452  0.197515  1
  Co  Co10  1  0.750000  0.117271  0.302468  1
  Co  Co11  1  0.750000  0.381748  0.803095  1
  Co  Co12  1  0.250000  0.462159  0.931978  1
  Co  Co13  1  0.250000  0.037097  0.430573  1
  Co  Co14  1  0.750000  0.536795  0.070139  1
  Co  Co15  1  0.750000  0.963675  0.568876  1
  P  P16  1  0.250000  0.421425  0.111859  1
  P  P17  1  0.250000  0.078655  0.611051  1
  P  P18  1  0.750000  0.578156  0.890178  1
  P  P19  1  0.750000  0.921907  0.388567  1
  P  P20  1  0.250000  0.273294  0.861495  1
  P  P21  1  0.250000  0.226305  0.361527  1
  P  P22  1  0.750000  0.726623  0.138425  1
  P  P23  1  0.750000  0.774630  0.637626  1
  P  P24  1  0.250000  0.603679  0.378983  1
  P  P25  1  0.250000  0.896334  0.878778  1
  P  P26  1  0.750000  0.395637  0.620761  1
  P  P27  1  0.750000  0.103501  0.121088  1
  Rh  Rh28  1  0.250000  0.711831  0.986556  1
  Rh  Rh29  1  0.250000  0.788118  0.486946  1
  Rh  Rh30  1  0.750000  0.287742  0.013489  1
  Rh  Rh31  1  0.750000  0.212065  0.512561  1
  Rh  Rh32  1  0.250000  0.406545  0.477552  1
  Rh  Rh33  1  0.250000  0.093082  0.977578  1
  Rh  Rh34  1  0.750000  0.593150  0.520335  1
  Rh  Rh35  1  0.750000  0.906689  0.022534  1
