# generated using pymatgen
data_Ba4SmNbO8
_symmetry_space_group_name_H-M   'P 1'
_cell_length_a   7.48183667
_cell_length_b   7.48183511
_cell_length_c   6.12516300
_cell_angle_alpha   90.00000000
_cell_angle_beta   90.00000000
_cell_angle_gamma   132.02093383
_symmetry_Int_Tables_number   1
_chemical_formula_structural   Ba4SmNbO8
_chemical_formula_sum   'Ba4 Sm1 Nb1 O8'
_cell_volume   254.72087620
_cell_formula_units_Z   1
loop_
 _symmetry_equiv_pos_site_id
 _symmetry_equiv_pos_as_xyz
  1  'x, y, z'
loop_
 _atom_site_type_symbol
 _atom_site_label
 _atom_site_symmetry_multiplicity
 _atom_site_fract_x
 _atom_site_fract_y
 _atom_site_fract_z
 _atom_site_occupancy
  Ba  Ba0  1  0.353874  0.646126  0.000000  1
  Ba  Ba1  1  0.852281  0.147719  0.500000  1
  Ba  Ba2  1  0.147719  0.852281  0.500000  1
  Ba  Ba3  1  0.646126  0.353874  0.000000  1
  Sm  Sm4  1  0.000000  0.000000  0.000000  1
  Nb  Nb5  1  0.500000  0.500000  0.500000  1
  O  O6  1  0.263829  0.263829  0.730712  1
  O  O7  1  0.736171  0.736171  0.269288  1
  O  O8  1  0.736171  0.736171  0.730712  1
  O  O9  1  0.263829  0.263829  0.269288  1
  O  O10  1  0.169091  0.830909  0.000000  1
  O  O11  1  0.651550  0.348450  0.500000  1
  O  O12  1  0.348450  0.651550  0.500000  1
  O  O13  1  0.830909  0.169091  0.000000  1
