# generated using pymatgen
data_TbTmAs4O9
_symmetry_space_group_name_H-M   'P 1'
_cell_length_a   6.72183327
_cell_length_b   7.51307142
_cell_length_c   9.81310175
_cell_angle_alpha   94.49517605
_cell_angle_beta   103.96611498
_cell_angle_gamma   104.97278265
_symmetry_Int_Tables_number   1
_chemical_formula_structural   TbTmAs4O9
_chemical_formula_sum   'Tb2 Tm2 As8 O18'
_cell_volume   459.33492142
_cell_formula_units_Z   2
loop_
 _symmetry_equiv_pos_site_id
 _symmetry_equiv_pos_as_xyz
  1  'x, y, z'
loop_
 _atom_site_type_symbol
 _atom_site_label
 _atom_site_symmetry_multiplicity
 _atom_site_fract_x
 _atom_site_fract_y
 _atom_site_fract_z
 _atom_site_occupancy
  Tb  Tb0  1  0.242493  0.938930  0.614750  1
  Tb  Tb1  1  0.757507  0.061070  0.385250  1
  Tm  Tm2  1  0.720305  0.528219  0.409984  1
  Tm  Tm3  1  0.279695  0.471781  0.590016  1
  As  As4  1  0.682890  0.773012  0.079528  1
  As  As5  1  0.317110  0.226988  0.920472  1
  As  As6  1  0.170427  0.751051  0.912837  1
  As  As7  1  0.829573  0.248949  0.087163  1
  As  As8  1  0.742792  0.913477  0.710050  1
  As  As9  1  0.257208  0.086523  0.289950  1
  As  As10  1  0.809755  0.352844  0.701065  1
  As  As11  1  0.190245  0.647156  0.298935  1
  O  O12  1  0.720929  0.744752  0.259726  1
  O  O13  1  0.279071  0.255248  0.740274  1
  O  O14  1  0.316004  0.979113  0.869687  1
  O  O15  1  0.683996  0.020887  0.130313  1
  O  O16  1  0.608059  0.325848  0.985232  1
  O  O17  1  0.391941  0.674152  0.014768  1
  O  O18  1  0.127986  0.644147  0.738562  1
  O  O19  1  0.872014  0.355853  0.261438  1
  O  O20  1  0.846258  0.872509  0.560233  1
  O  O21  1  0.153742  0.127491  0.439767  1
  O  O22  1  0.481582  0.764762  0.666344  1
  O  O23  1  0.518418  0.235238  0.333656  1
  O  O24  1  0.374257  0.533694  0.382488  1
  O  O25  1  0.625743  0.466306  0.617512  1
  O  O26  1  0.086682  0.666057  0.453423  1
  O  O27  1  0.913318  0.333943  0.546577  1
  O  O28  1  0.376495  0.899793  0.359263  1
  O  O29  1  0.623505  0.100207  0.640737  1
