# generated using pymatgen
data_Ti8V11Si16W
_symmetry_space_group_name_H-M   'P 1'
_cell_length_a   6.33469431
_cell_length_b   6.46687573
_cell_length_c   12.29621600
_cell_angle_alpha   90.00000000
_cell_angle_beta   90.00000000
_cell_angle_gamma   90.02409684
_symmetry_Int_Tables_number   1
_chemical_formula_structural   Ti8V11Si16W
_chemical_formula_sum   'Ti8 V11 Si16 W1'
_cell_volume   503.72281651
_cell_formula_units_Z   1
loop_
 _symmetry_equiv_pos_site_id
 _symmetry_equiv_pos_as_xyz
  1  'x, y, z'
loop_
 _atom_site_type_symbol
 _atom_site_label
 _atom_site_symmetry_multiplicity
 _atom_site_fract_x
 _atom_site_fract_y
 _atom_site_fract_z
 _atom_site_occupancy
  Ti  Ti0  1  0.492497  0.671782  0.592868  1
  Ti  Ti1  1  0.993485  0.827165  0.906926  1
  Ti  Ti2  1  0.507320  0.327693  0.091337  1
  Ti  Ti3  1  0.007202  0.171684  0.408673  1
  Ti  Ti4  1  0.507320  0.327693  0.408663  1
  Ti  Ti5  1  0.007202  0.171684  0.091327  1
  Ti  Ti6  1  0.492497  0.671782  0.907132  1
  Ti  Ti7  1  0.993485  0.827165  0.593074  1
  V  V8  1  0.662328  0.168615  0.625416  1
  V  V9  1  0.162626  0.332083  0.874816  1
  V  V10  1  0.336045  0.832167  0.124026  1
  V  V11  1  0.837565  0.667391  0.375530  1
  V  V12  1  0.336045  0.832167  0.375974  1
  V  V13  1  0.837565  0.667391  0.124470  1
  V  V14  1  0.662328  0.168615  0.874584  1
  V  V15  1  0.162626  0.332083  0.625184  1
  V  V16  1  0.838001  0.492654  0.750000  1
  V  V17  1  0.338205  0.007450  0.750000  1
  V  V18  1  0.162381  0.506980  0.250000  1
  Si  Si19  1  0.674083  0.959923  0.462766  1
  Si  Si20  1  0.173857  0.538123  0.039088  1
  Si  Si21  1  0.325698  0.038950  0.959853  1
  Si  Si22  1  0.825932  0.460803  0.539983  1
  Si  Si23  1  0.325698  0.038950  0.540147  1
  Si  Si24  1  0.825932  0.460803  0.960017  1
  Si  Si25  1  0.674083  0.959923  0.037234  1
  Si  Si26  1  0.173857  0.538123  0.460912  1
  Si  Si27  1  0.464188  0.385356  0.750000  1
  Si  Si28  1  0.963883  0.115112  0.750000  1
  Si  Si29  1  0.533844  0.612614  0.250000  1
  Si  Si30  1  0.040530  0.881919  0.250000  1
  Si  Si31  1  0.698471  0.854193  0.750000  1
  Si  Si32  1  0.198284  0.645384  0.750000  1
  Si  Si33  1  0.296569  0.149554  0.250000  1
  Si  Si34  1  0.805419  0.359481  0.250000  1
  W  W35  1  0.662946  0.996546  0.250000  1
