# generated using pymatgen
data_Zr10Sn6As
_symmetry_space_group_name_H-M   'P 1'
_cell_length_a   5.90434003
_cell_length_b   8.62574631
_cell_length_c   8.62578903
_cell_angle_alpha   119.99984570
_cell_angle_beta   90.00002289
_cell_angle_gamma   89.99995185
_symmetry_Int_Tables_number   1
_chemical_formula_structural   Zr10Sn6As
_chemical_formula_sum   'Zr10 Sn6 As1'
_cell_volume   380.45051904
_cell_formula_units_Z   1
loop_
 _symmetry_equiv_pos_site_id
 _symmetry_equiv_pos_as_xyz
  1  'x, y, z'
loop_
 _atom_site_type_symbol
 _atom_site_label
 _atom_site_symmetry_multiplicity
 _atom_site_fract_x
 _atom_site_fract_y
 _atom_site_fract_z
 _atom_site_occupancy
  Zr  Zr0  1  0.500001  0.333335  0.666674  1
  Zr  Zr1  1  0.500001  0.666661  0.333326  1
  Zr  Zr2  1  0.000000  0.666661  0.333327  1
  Zr  Zr3  1  0.000000  0.333334  0.666673  1
  Zr  Zr4  1  0.760039  0.256272  0.000000  1
  Zr  Zr5  1  0.760036  0.743726  0.743721  1
  Zr  Zr6  1  0.760036  0.000005  0.256279  1
  Zr  Zr7  1  0.239957  0.743728  0.000000  1
  Zr  Zr8  1  0.239964  0.256275  0.256277  1
  Zr  Zr9  1  0.239964  0.999998  0.743723  1
  Sn  Sn10  1  0.747976  0.608146  0.000000  1
  Sn  Sn11  1  0.747970  0.391868  0.391872  1
  Sn  Sn12  1  0.747970  0.999997  0.608128  1
  Sn  Sn13  1  0.252030  0.391865  0.000000  1
  Sn  Sn14  1  0.252029  0.608132  0.608132  1
  Sn  Sn15  1  0.252029  0.000001  0.391868  1
  As  As16  1  0.500000  0.999998  0.000000  1
