# generated using pymatgen
data_Hf9VTc3Ni
_symmetry_space_group_name_H-M   'P 1'
_cell_length_a   8.61127700
_cell_length_b   8.61127619
_cell_length_c   8.35924500
_cell_angle_alpha   90.00000000
_cell_angle_beta   90.00000000
_cell_angle_gamma   119.99999925
_symmetry_Int_Tables_number   1
_chemical_formula_structural   Hf9VTc3Ni
_chemical_formula_sum   'Hf18 V2 Tc6 Ni2'
_cell_volume   536.82504278
_cell_formula_units_Z   2
loop_
 _symmetry_equiv_pos_site_id
 _symmetry_equiv_pos_as_xyz
  1  'x, y, z'
loop_
 _atom_site_type_symbol
 _atom_site_label
 _atom_site_symmetry_multiplicity
 _atom_site_fract_x
 _atom_site_fract_y
 _atom_site_fract_z
 _atom_site_occupancy
  Hf  Hf0  1  0.197870  0.802130  0.443969  1
  Hf  Hf1  1  0.197870  0.395739  0.443969  1
  Hf  Hf2  1  0.604261  0.802130  0.443969  1
  Hf  Hf3  1  0.802130  0.197870  0.556031  1
  Hf  Hf4  1  0.802130  0.604261  0.556031  1
  Hf  Hf5  1  0.395739  0.197870  0.556031  1
  Hf  Hf6  1  0.802130  0.197870  0.943969  1
  Hf  Hf7  1  0.802130  0.604261  0.943969  1
  Hf  Hf8  1  0.395739  0.197870  0.943969  1
  Hf  Hf9  1  0.197870  0.802130  0.056031  1
  Hf  Hf10  1  0.197870  0.395739  0.056031  1
  Hf  Hf11  1  0.604261  0.802130  0.056031  1
  Hf  Hf12  1  0.541987  0.458013  0.250000  1
  Hf  Hf13  1  0.541987  0.083974  0.250000  1
  Hf  Hf14  1  0.916026  0.458013  0.250000  1
  Hf  Hf15  1  0.458013  0.541987  0.750000  1
  Hf  Hf16  1  0.458013  0.916026  0.750000  1
  Hf  Hf17  1  0.083974  0.541987  0.750000  1
  V  V18  1  0.000000  0.000000  0.500000  1
  V  V19  1  0.000000  0.000000  0.000000  1
  Tc  Tc20  1  0.889551  0.110449  0.250000  1
  Tc  Tc21  1  0.889551  0.779101  0.250000  1
  Tc  Tc22  1  0.220899  0.110449  0.250000  1
  Tc  Tc23  1  0.110449  0.889551  0.750000  1
  Tc  Tc24  1  0.110449  0.220899  0.750000  1
  Tc  Tc25  1  0.779101  0.889551  0.750000  1
  Ni  Ni26  1  0.333333  0.666667  0.250000  1
  Ni  Ni27  1  0.666667  0.333333  0.750000  1
