# generated using pymatgen
data_V3FeP8(PdO14)2
_symmetry_space_group_name_H-M   'P 1'
_cell_length_a   5.27421828
_cell_length_b   6.71955902
_cell_length_c   17.06612700
_cell_angle_alpha   68.78843616
_cell_angle_beta   89.91890492
_cell_angle_gamma   89.95554092
_symmetry_Int_Tables_number   1
_chemical_formula_structural   V3FeP8(PdO14)2
_chemical_formula_sum   'V3 Fe1 P8 Pd2 O28'
_cell_volume   563.85333923
_cell_formula_units_Z   1
loop_
 _symmetry_equiv_pos_site_id
 _symmetry_equiv_pos_as_xyz
  1  'x, y, z'
loop_
 _atom_site_type_symbol
 _atom_site_label
 _atom_site_symmetry_multiplicity
 _atom_site_fract_x
 _atom_site_fract_y
 _atom_site_fract_z
 _atom_site_occupancy
  V  V0  1  0.753437  0.786646  0.882800  1
  V  V1  1  0.253501  0.214622  0.616860  1
  V  V2  1  0.245964  0.214389  0.117575  1
  Fe  Fe3  1  0.749832  0.783429  0.380794  1
  P  P4  1  0.745123  0.883172  0.170254  1
  P  P5  1  0.245929  0.114953  0.330532  1
  P  P6  1  0.254689  0.116909  0.829785  1
  P  P7  1  0.754283  0.883470  0.669921  1
  P  P8  1  0.728990  0.547680  0.096627  1
  P  P9  1  0.229873  0.453206  0.403885  1
  P  P10  1  0.270690  0.452612  0.903867  1
  P  P11  1  0.769977  0.548438  0.595406  1
  Pd  Pd12  1  0.000502  0.999847  0.000329  1
  Pd  Pd13  1  0.500775  0.999986  0.499690  1
  O  O14  1  0.465045  0.467769  0.091302  1
  O  O15  1  0.963511  0.531682  0.409365  1
  O  O16  1  0.534642  0.533170  0.908886  1
  O  O17  1  0.034045  0.467791  0.590203  1
  O  O18  1  0.935301  0.381973  0.118311  1
  O  O19  1  0.434013  0.620913  0.381174  1
  O  O20  1  0.064098  0.618016  0.882259  1
  O  O21  1  0.564001  0.382360  0.617881  1
  O  O22  1  0.772701  0.868000  0.259390  1
  O  O23  1  0.274124  0.132992  0.241278  1
  O  O24  1  0.226476  0.132241  0.741124  1
  O  O25  1  0.725946  0.866908  0.758913  1
  O  O26  1  0.524040  0.010800  0.120621  1
  O  O27  1  0.024559  0.986494  0.379727  1
  O  O28  1  0.712236  0.738110  0.510905  1
  O  O29  1  0.213281  0.261972  0.988118  1
  O  O30  1  0.288629  0.263010  0.487994  1
  O  O31  1  0.786945  0.738373  0.012692  1
  O  O32  1  0.775686  0.645374  0.669047  1
  O  O33  1  0.274515  0.355237  0.830465  1
  O  O34  1  0.224908  0.354416  0.330894  1
  O  O35  1  0.724797  0.644456  0.170387  1
  O  O36  1  0.495978  0.964335  0.622766  1
  O  O37  1  0.996853  0.034883  0.877543  1
  O  O38  1  0.505529  0.034162  0.377109  1
  O  O39  1  0.003653  0.964061  0.123360  1
  O  O40  1  0.975121  0.011658  0.619985  1
  O  O41  1  0.475802  0.989489  0.879979  1
