# generated using pymatgen
data_Cs3K9(VTe4)4
_symmetry_space_group_name_H-M   'P 1'
_cell_length_a   10.63316897
_cell_length_b   10.59407550
_cell_length_c   11.62057900
_cell_angle_alpha   90.00000000
_cell_angle_beta   90.00000000
_cell_angle_gamma   90.68338169
_symmetry_Int_Tables_number   1
_chemical_formula_structural   Cs3K9(VTe4)4
_chemical_formula_sum   'Cs3 K9 V4 Te16'
_cell_volume   1308.94878525
_cell_formula_units_Z   1
loop_
 _symmetry_equiv_pos_site_id
 _symmetry_equiv_pos_as_xyz
  1  'x, y, z'
loop_
 _atom_site_type_symbol
 _atom_site_label
 _atom_site_symmetry_multiplicity
 _atom_site_fract_x
 _atom_site_fract_y
 _atom_site_fract_z
 _atom_site_occupancy
  Cs  Cs0  1  0.141608  0.402414  0.750000  1
  Cs  Cs1  1  0.353303  0.901811  0.250000  1
  Cs  Cs2  1  0.643133  0.099591  0.750000  1
  K  K3  1  0.047810  0.199822  0.048600  1
  K  K4  1  0.872857  0.579082  0.250000  1
  K  K5  1  0.949024  0.795925  0.548037  1
  K  K6  1  0.550734  0.298154  0.447511  1
  K  K7  1  0.452227  0.701842  0.950477  1
  K  K8  1  0.550734  0.298154  0.052489  1
  K  K9  1  0.047810  0.199822  0.451400  1
  K  K10  1  0.452227  0.701842  0.549523  1
  K  K11  1  0.949024  0.795925  0.951963  1
  V  V12  1  0.781929  0.016318  0.250000  1
  V  V13  1  0.716339  0.516958  0.750000  1
  V  V14  1  0.285696  0.487250  0.250000  1
  V  V15  1  0.215729  0.985307  0.750000  1
  Te  Te16  1  0.328800  0.056703  0.927965  1
  Te  Te17  1  0.202093  0.748836  0.750000  1
  Te  Te18  1  0.295119  0.250496  0.250000  1
  Te  Te19  1  0.702493  0.753022  0.750000  1
  Te  Te20  1  0.804759  0.253470  0.250000  1
  Te  Te21  1  0.994769  0.069674  0.750000  1
  Te  Te22  1  0.508984  0.573026  0.250000  1
  Te  Te23  1  0.495373  0.428179  0.750000  1
  Te  Te24  1  0.996477  0.916074  0.250000  1
  Te  Te25  1  0.666997  0.950367  0.428151  1
  Te  Te26  1  0.829223  0.448636  0.570938  1
  Te  Te27  1  0.169854  0.557798  0.073752  1
  Te  Te28  1  0.666997  0.950367  0.071849  1
  Te  Te29  1  0.328800  0.056703  0.572035  1
  Te  Te30  1  0.169854  0.557798  0.426248  1
  Te  Te31  1  0.829223  0.448636  0.929062  1
