# generated using pymatgen
data_Tb6Dy2Sc11Si16Os
_symmetry_space_group_name_H-M   'P 1'
_cell_length_a   7.02473201
_cell_length_b   7.36270652
_cell_length_c   13.90006720
_cell_angle_alpha   89.98128943
_cell_angle_beta   90.00560022
_cell_angle_gamma   90.07928142
_symmetry_Int_Tables_number   1
_chemical_formula_structural   Tb6Dy2Sc11Si16Os
_chemical_formula_sum   'Tb6 Dy2 Sc11 Si16 Os1'
_cell_volume   718.92520413
_cell_formula_units_Z   1
loop_
 _symmetry_equiv_pos_site_id
 _symmetry_equiv_pos_as_xyz
  1  'x, y, z'
loop_
 _atom_site_type_symbol
 _atom_site_label
 _atom_site_symmetry_multiplicity
 _atom_site_fract_x
 _atom_site_fract_y
 _atom_site_fract_z
 _atom_site_occupancy
  Tb  Tb0  1  0.011585  0.177374  0.093049  1
  Tb  Tb1  1  0.993871  0.819892  0.900456  1
  Tb  Tb2  1  0.489513  0.672066  0.901923  1
  Tb  Tb3  1  0.993855  0.819861  0.599475  1
  Tb  Tb4  1  0.511371  0.324251  0.094745  1
  Tb  Tb5  1  0.011629  0.177387  0.406983  1
  Dy  Dy6  1  0.511442  0.324158  0.405184  1
  Dy  Dy7  1  0.489411  0.672145  0.598158  1
  Sc  Sc8  1  0.841803  0.496490  0.249999  1
  Sc  Sc9  1  0.341669  0.002926  0.250043  1
  Sc  Sc10  1  0.658106  0.996283  0.749955  1
  Sc  Sc11  1  0.325948  0.176617  0.627256  1
  Sc  Sc12  1  0.671820  0.824499  0.374723  1
  Sc  Sc13  1  0.171810  0.674201  0.377010  1
  Sc  Sc14  1  0.671824  0.824608  0.125368  1
  Sc  Sc15  1  0.825851  0.331614  0.628172  1
  Sc  Sc16  1  0.325914  0.176549  0.872691  1
  Sc  Sc17  1  0.825973  0.331582  0.871746  1
  Sc  Sc18  1  0.171724  0.674263  0.123107  1
  Si  Si19  1  0.029167  0.121851  0.749979  1
  Si  Si20  1  0.971592  0.884692  0.250023  1
  Si  Si21  1  0.468256  0.616266  0.250087  1
  Si  Si22  1  0.515529  0.393186  0.749895  1
  Si  Si23  1  0.287433  0.863471  0.749881  1
  Si  Si24  1  0.716268  0.128282  0.250104  1
  Si  Si25  1  0.215002  0.372630  0.250111  1
  Si  Si26  1  0.796203  0.629000  0.749914  1
  Si  Si27  1  0.156413  0.465509  0.548994  1
  Si  Si28  1  0.842743  0.536360  0.463588  1
  Si  Si29  1  0.345919  0.964524  0.463019  1
  Si  Si30  1  0.843179  0.536484  0.036390  1
  Si  Si31  1  0.658056  0.034260  0.540032  1
  Si  Si32  1  0.155994  0.465352  0.951055  1
  Si  Si33  1  0.658187  0.034305  0.959946  1
  Si  Si34  1  0.345766  0.964501  0.036989  1
  Os  Os35  1  0.149173  0.492565  0.749948  1
