# generated using pymatgen
data_Ho2Er18Si15Pd
_symmetry_space_group_name_H-M   'P 1'
_cell_length_a   7.39166590
_cell_length_b   7.62248535
_cell_length_c   14.47480804
_cell_angle_alpha   90.25541915
_cell_angle_beta   90.48342947
_cell_angle_gamma   90.16944044
_symmetry_Int_Tables_number   1
_chemical_formula_structural   Ho2Er18Si15Pd
_chemical_formula_sum   'Ho2 Er18 Si15 Pd1'
_cell_volume   815.51136447
_cell_formula_units_Z   1
loop_
 _symmetry_equiv_pos_site_id
 _symmetry_equiv_pos_as_xyz
  1  'x, y, z'
loop_
 _atom_site_type_symbol
 _atom_site_label
 _atom_site_symmetry_multiplicity
 _atom_site_fract_x
 _atom_site_fract_y
 _atom_site_fract_z
 _atom_site_occupancy
  Ho  Ho0  1  0.026155  0.817496  0.600199  1
  Ho  Ho1  1  0.525289  0.679806  0.599182  1
  Er  Er2  1  0.319373  0.820271  0.121774  1
  Er  Er3  1  0.816500  0.679099  0.122507  1
  Er  Er4  1  0.852925  0.506304  0.749538  1
  Er  Er5  1  0.470459  0.317456  0.099035  1
  Er  Er6  1  0.029289  0.817005  0.901282  1
  Er  Er7  1  0.471062  0.320043  0.400760  1
  Er  Er8  1  0.651707  0.011607  0.254181  1
  Er  Er9  1  0.531080  0.682766  0.900109  1
  Er  Er10  1  0.681474  0.178842  0.877490  1
  Er  Er11  1  0.178587  0.321334  0.623789  1
  Er  Er12  1  0.184170  0.322950  0.876514  1
  Er  Er13  1  0.819907  0.682795  0.379537  1
  Er  Er14  1  0.320260  0.825368  0.377417  1
  Er  Er15  1  0.351921  0.990030  0.747855  1
  Er  Er16  1  0.682268  0.168940  0.620852  1
  Er  Er17  1  0.147888  0.490350  0.250840  1
  Er  Er18  1  0.970091  0.182637  0.098502  1
  Er  Er19  1  0.974063  0.180069  0.400078  1
  Si  Si20  1  0.233656  0.628599  0.751121  1
  Si  Si21  1  0.342253  0.028922  0.541551  1
  Si  Si22  1  0.024582  0.894174  0.247217  1
  Si  Si23  1  0.734113  0.868925  0.752243  1
  Si  Si24  1  0.267788  0.128805  0.246715  1
  Si  Si25  1  0.850249  0.470542  0.541679  1
  Si  Si26  1  0.481403  0.392662  0.749552  1
  Si  Si27  1  0.148238  0.530458  0.460712  1
  Si  Si28  1  0.145969  0.528153  0.040751  1
  Si  Si29  1  0.978423  0.104463  0.752267  1
  Si  Si30  1  0.767170  0.374681  0.249144  1
  Si  Si31  1  0.352259  0.029761  0.959438  1
  Si  Si32  1  0.855150  0.471362  0.958752  1
  Si  Si33  1  0.645455  0.971284  0.039847  1
  Si  Si34  1  0.521147  0.606218  0.248548  1
  Pd  Pd35  1  0.647677  0.975824  0.459018  1
