# generated using pymatgen
data_Th3Mg2AlPd2Ru
_symmetry_space_group_name_H-M   'P 1'
_cell_length_a   7.57013870
_cell_length_b   7.53634817
_cell_length_c   4.05876700
_cell_angle_alpha   90.00000000
_cell_angle_beta   90.00000000
_cell_angle_gamma   119.57517320
_symmetry_Int_Tables_number   1
_chemical_formula_structural   Th3Mg2AlPd2Ru
_chemical_formula_sum   'Th3 Mg2 Al1 Pd2 Ru1'
_cell_volume   201.38764110
_cell_formula_units_Z   1
loop_
 _symmetry_equiv_pos_site_id
 _symmetry_equiv_pos_as_xyz
  1  'x, y, z'
loop_
 _atom_site_type_symbol
 _atom_site_label
 _atom_site_symmetry_multiplicity
 _atom_site_fract_x
 _atom_site_fract_y
 _atom_site_fract_z
 _atom_site_occupancy
  Th  Th0  1  0.417653  0.410915  0.500000  1
  Th  Th1  1  0.594630  0.017245  0.500000  1
  Th  Th2  1  0.985275  0.564157  0.500000  1
  Mg  Mg3  1  0.760971  0.763981  0.000000  1
  Mg  Mg4  1  0.236824  0.999641  0.000000  1
  Al  Al5  1  0.998472  0.238009  0.000000  1
  Pd  Pd6  1  0.323458  0.656040  0.000000  1
  Pd  Pd7  1  0.001108  0.019465  0.500000  1
  Ru  Ru8  1  0.681608  0.330547  0.000000  1
