# generated using pymatgen
data_NaIr(OF)2
_symmetry_space_group_name_H-M   'P 1'
_cell_length_a   8.10865785
_cell_length_b   5.32775800
_cell_length_c   7.24378078
_cell_angle_alpha   90.00000000
_cell_angle_beta   100.19775472
_cell_angle_gamma   90.00000000
_symmetry_Int_Tables_number   1
_chemical_formula_structural   NaIr(OF)2
_chemical_formula_sum   'Na4 Ir4 O8 F8'
_cell_volume   307.99470374
_cell_formula_units_Z   4
loop_
 _symmetry_equiv_pos_site_id
 _symmetry_equiv_pos_as_xyz
  1  'x, y, z'
loop_
 _atom_site_type_symbol
 _atom_site_label
 _atom_site_symmetry_multiplicity
 _atom_site_fract_x
 _atom_site_fract_y
 _atom_site_fract_z
 _atom_site_occupancy
  Na  Na0  1  0.362652  0.790356  0.119265  1
  Na  Na1  1  0.637347  0.290357  0.380735  1
  Na  Na2  1  0.362653  0.709642  0.619265  1
  Na  Na3  1  0.637347  0.209643  0.880734  1
  Ir  Ir4  1  0.853013  0.765276  0.205160  1
  Ir  Ir5  1  0.146987  0.265277  0.294842  1
  Ir  Ir6  1  0.853013  0.734724  0.705159  1
  Ir  Ir7  1  0.146986  0.234725  0.794841  1
  O  O8  1  0.163667  0.128335  0.051742  1
  O  O9  1  0.048392  0.570423  0.187650  1
  O  O10  1  0.951608  0.070423  0.312350  1
  O  O11  1  0.836333  0.628334  0.448258  1
  O  O12  1  0.163668  0.371667  0.551743  1
  O  O13  1  0.048392  0.929578  0.687650  1
  O  O14  1  0.951607  0.429576  0.812349  1
  O  O15  1  0.836332  0.871666  0.948257  1
  F  F16  1  0.704203  0.472572  0.114400  1
  F  F17  1  0.628276  0.953587  0.184651  1
  F  F18  1  0.371725  0.453585  0.315349  1
  F  F19  1  0.295797  0.972574  0.385599  1
  F  F20  1  0.704203  0.027427  0.614400  1
  F  F21  1  0.628276  0.546414  0.684650  1
  F  F22  1  0.371724  0.046414  0.815350  1
  F  F23  1  0.295796  0.527427  0.885600  1
