# generated using pymatgen
data_Lu15Th(CdNi)4
_symmetry_space_group_name_H-M   'P 1'
_cell_length_a   9.37853815
_cell_length_b   9.37853860
_cell_length_c   9.37853874
_cell_angle_alpha   59.96279359
_cell_angle_beta   59.96279120
_cell_angle_gamma   59.96279418
_symmetry_Int_Tables_number   1
_chemical_formula_structural   Lu15Th(CdNi)4
_chemical_formula_sum   'Lu15 Th1 Cd4 Ni4'
_cell_volume   582.80584350
_cell_formula_units_Z   1
loop_
 _symmetry_equiv_pos_site_id
 _symmetry_equiv_pos_as_xyz
  1  'x, y, z'
loop_
 _atom_site_type_symbol
 _atom_site_label
 _atom_site_symmetry_multiplicity
 _atom_site_fract_x
 _atom_site_fract_y
 _atom_site_fract_z
 _atom_site_occupancy
  Lu  Lu0  1  0.348807  0.348807  0.952183  1
  Lu  Lu1  1  0.348807  0.952183  0.348807  1
  Lu  Lu2  1  0.952183  0.348807  0.348807  1
  Lu  Lu3  1  0.813090  0.187496  0.187496  1
  Lu  Lu4  1  0.188892  0.811401  0.811401  1
  Lu  Lu5  1  0.187496  0.813090  0.187496  1
  Lu  Lu6  1  0.811401  0.188892  0.811401  1
  Lu  Lu7  1  0.187496  0.187496  0.813090  1
  Lu  Lu8  1  0.811401  0.811401  0.188892  1
  Lu  Lu9  1  0.935650  0.564686  0.564686  1
  Lu  Lu10  1  0.564070  0.936445  0.936445  1
  Lu  Lu11  1  0.564686  0.935650  0.564686  1
  Lu  Lu12  1  0.936445  0.564070  0.936445  1
  Lu  Lu13  1  0.564686  0.564686  0.935650  1
  Lu  Lu14  1  0.936445  0.936445  0.564070  1
  Th  Th15  1  0.347291  0.347291  0.347291  1
  Cd  Cd16  1  0.581835  0.581835  0.581835  1
  Cd  Cd17  1  0.583334  0.583334  0.253162  1
  Cd  Cd18  1  0.583334  0.253162  0.583334  1
  Cd  Cd19  1  0.253162  0.583334  0.583334  1
  Ni  Ni20  1  0.142341  0.142341  0.142341  1
  Ni  Ni21  1  0.142213  0.142213  0.572724  1
  Ni  Ni22  1  0.142213  0.572724  0.142213  1
  Ni  Ni23  1  0.572724  0.142213  0.142213  1
