# generated using pymatgen
data_Y2Ni10Mo2As7
_symmetry_space_group_name_H-M   'P 1'
_cell_length_a   9.47012494
_cell_length_b   9.49786027
_cell_length_c   3.85877300
_cell_angle_alpha   90.00000000
_cell_angle_beta   90.00000000
_cell_angle_gamma   119.77893804
_symmetry_Int_Tables_number   1
_chemical_formula_structural   Y2Ni10Mo2As7
_chemical_formula_sum   'Y2 Ni10 Mo2 As7'
_cell_volume   301.24820263
_cell_formula_units_Z   1
loop_
 _symmetry_equiv_pos_site_id
 _symmetry_equiv_pos_as_xyz
  1  'x, y, z'
loop_
 _atom_site_type_symbol
 _atom_site_label
 _atom_site_symmetry_multiplicity
 _atom_site_fract_x
 _atom_site_fract_y
 _atom_site_fract_z
 _atom_site_occupancy
  Y  Y0  1  0.337854  0.667194  0.000000  1
  Y  Y1  1  0.667247  0.334098  0.499999  1
  Ni  Ni2  1  0.430766  0.060314  0.000000  1
  Ni  Ni3  1  0.154454  0.282089  0.000000  1
  Ni  Ni4  1  0.940363  0.370871  0.000000  1
  Ni  Ni5  1  0.624581  0.564804  0.000000  1
  Ni  Ni6  1  0.127176  0.842387  0.000000  1
  Ni  Ni7  1  0.715483  0.871550  0.000000  1
  Ni  Ni8  1  0.380452  0.435659  0.499999  1
  Ni  Ni9  1  0.047563  0.623149  0.499999  1
  Ni  Ni10  1  0.888025  0.790373  0.499999  1
  Ni  Ni11  1  0.565539  0.944567  0.499999  1
  Mo  Mo12  1  0.215159  0.101103  0.499999  1
  Mo  Mo13  1  0.903502  0.113245  0.499999  1
  As  As14  1  0.996509  0.992176  0.000000  1
  As  As15  1  0.703477  0.115269  0.000000  1
  As  As16  1  0.410157  0.297403  0.000000  1
  As  As17  1  0.884868  0.590621  0.000000  1
  As  As18  1  0.113827  0.411902  0.499999  1
  As  As19  1  0.598625  0.707914  0.499999  1
  As  As20  1  0.294373  0.883312  0.499999  1
