# generated using pymatgen
data_Tb2YbHo(AlPt)4
_symmetry_space_group_name_H-M   'P 1'
_cell_length_a   4.42560900
_cell_length_b   6.89736263
_cell_length_c   7.78940439
_cell_angle_alpha   90.24818269
_cell_angle_beta   90.00000000
_cell_angle_gamma   90.00000000
_symmetry_Int_Tables_number   1
_chemical_formula_structural   Tb2YbHo(AlPt)4
_chemical_formula_sum   'Tb2 Yb1 Ho1 Al4 Pt4'
_cell_volume   237.76957306
_cell_formula_units_Z   1
loop_
 _symmetry_equiv_pos_site_id
 _symmetry_equiv_pos_as_xyz
  1  'x, y, z'
loop_
 _atom_site_type_symbol
 _atom_site_label
 _atom_site_symmetry_multiplicity
 _atom_site_fract_x
 _atom_site_fract_y
 _atom_site_fract_z
 _atom_site_occupancy
  Tb  Tb0  1  0.250000  0.531762  0.176752  1
  Tb  Tb1  1  0.750000  0.967141  0.678874  1
  Yb  Yb2  1  0.750000  0.470308  0.821844  1
  Ho  Ho3  1  0.250000  0.030836  0.320438  1
  Al  Al4  1  0.250000  0.143834  0.939218  1
  Al  Al5  1  0.250000  0.641554  0.561651  1
  Al  Al6  1  0.750000  0.857597  0.062444  1
  Al  Al7  1  0.750000  0.358606  0.438385  1
  Pt  Pt8  1  0.250000  0.270411  0.619350  1
  Pt  Pt9  1  0.250000  0.777316  0.879410  1
  Pt  Pt10  1  0.750000  0.726772  0.378209  1
  Pt  Pt11  1  0.750000  0.223864  0.123428  1
