# generated using pymatgen
data_Tb5Ho7CoTc3
_symmetry_space_group_name_H-M   'P 1'
_cell_length_a   6.28426039
_cell_length_b   7.31162502
_cell_length_c   9.18077226
_cell_angle_alpha   89.97550505
_cell_angle_beta   89.94518501
_cell_angle_gamma   90.09285052
_symmetry_Int_Tables_number   1
_chemical_formula_structural   Tb5Ho7CoTc3
_chemical_formula_sum   'Tb5 Ho7 Co1 Tc3'
_cell_volume   421.83876567
_cell_formula_units_Z   1
loop_
 _symmetry_equiv_pos_site_id
 _symmetry_equiv_pos_as_xyz
  1  'x, y, z'
loop_
 _atom_site_type_symbol
 _atom_site_label
 _atom_site_symmetry_multiplicity
 _atom_site_fract_x
 _atom_site_fract_y
 _atom_site_fract_z
 _atom_site_occupancy
  Tb  Tb0  1  0.663556  0.176278  0.061896  1
  Tb  Tb1  1  0.371857  0.541471  0.250224  1
  Tb  Tb2  1  0.127099  0.041270  0.250305  1
  Tb  Tb3  1  0.873904  0.951062  0.749734  1
  Tb  Tb4  1  0.641723  0.457510  0.749795  1
  Ho  Ho5  1  0.830628  0.677561  0.435058  1
  Ho  Ho6  1  0.331935  0.821433  0.935971  1
  Ho  Ho7  1  0.165201  0.327003  0.565076  1
  Ho  Ho8  1  0.663509  0.175968  0.438423  1
  Ho  Ho9  1  0.165296  0.327189  0.934719  1
  Ho  Ho10  1  0.332373  0.821857  0.563887  1
  Ho  Ho11  1  0.830883  0.677422  0.065008  1
  Co  Co12  1  0.040300  0.615595  0.750045  1
  Tc  Tc13  1  0.959624  0.389155  0.250335  1
  Tc  Tc14  1  0.462662  0.112859  0.749411  1
  Tc  Tc15  1  0.539451  0.886367  0.250113  1
