# generated using pymatgen
data_Ta(TiRe6)4
_symmetry_space_group_name_H-M   'P 1'
_cell_length_a   8.37285124
_cell_length_b   8.37285080
_cell_length_c   8.37285100
_cell_angle_alpha   109.47121869
_cell_angle_beta   109.47121763
_cell_angle_gamma   109.47122470
_symmetry_Int_Tables_number   1
_chemical_formula_structural   Ta(TiRe6)4
_chemical_formula_sum   'Ta1 Ti4 Re24'
_cell_volume   451.85407618
_cell_formula_units_Z   1
loop_
 _symmetry_equiv_pos_site_id
 _symmetry_equiv_pos_as_xyz
  1  'x, y, z'
loop_
 _atom_site_type_symbol
 _atom_site_label
 _atom_site_symmetry_multiplicity
 _atom_site_fract_x
 _atom_site_fract_y
 _atom_site_fract_z
 _atom_site_occupancy
  Ta  Ta0  1  0.000000  0.000000  0.000000  1
  Ti  Ti1  1  0.631858  0.000000  0.000000  1
  Ti  Ti2  1  0.000000  0.631858  0.000000  1
  Ti  Ti3  1  0.000000  0.000000  0.631858  1
  Ti  Ti4  1  0.368142  0.368142  0.368142  1
  Re  Re5  1  0.399200  0.681909  0.000000  1
  Re  Re6  1  0.717291  0.318091  0.318091  1
  Re  Re7  1  0.399200  0.000000  0.681909  1
  Re  Re8  1  0.681909  0.399200  0.000000  1
  Re  Re9  1  0.000000  0.399200  0.681909  1
  Re  Re10  1  0.318091  0.717291  0.318091  1
  Re  Re11  1  0.318091  0.318091  0.717291  1
  Re  Re12  1  0.000000  0.681909  0.399200  1
  Re  Re13  1  0.681909  0.000000  0.399200  1
  Re  Re14  1  0.600800  0.600800  0.282709  1
  Re  Re15  1  0.282709  0.600800  0.600800  1
  Re  Re16  1  0.600800  0.282709  0.600800  1
  Re  Re17  1  0.375217  0.193213  0.000000  1
  Re  Re18  1  0.182005  0.806787  0.806787  1
  Re  Re19  1  0.375217  0.000000  0.193213  1
  Re  Re20  1  0.193213  0.375217  0.000000  1
  Re  Re21  1  0.000000  0.375217  0.193213  1
  Re  Re22  1  0.806787  0.182005  0.806787  1
  Re  Re23  1  0.806787  0.806787  0.182005  1
  Re  Re24  1  0.000000  0.193213  0.375217  1
  Re  Re25  1  0.193213  0.000000  0.375217  1
  Re  Re26  1  0.624783  0.624783  0.817995  1
  Re  Re27  1  0.817995  0.624783  0.624783  1
  Re  Re28  1  0.624783  0.817995  0.624783  1
