# generated using pymatgen
data_Sc4AlVOs6
_symmetry_space_group_name_H-M   'P 1'
_cell_length_a   5.25210067
_cell_length_b   5.16622873
_cell_length_c   8.61977200
_cell_angle_alpha   90.00000000
_cell_angle_beta   90.00000000
_cell_angle_gamma   121.23217515
_symmetry_Int_Tables_number   1
_chemical_formula_structural   Sc4AlVOs6
_chemical_formula_sum   'Sc4 Al1 V1 Os6'
_cell_volume   199.98883785
_cell_formula_units_Z   1
loop_
 _symmetry_equiv_pos_site_id
 _symmetry_equiv_pos_as_xyz
  1  'x, y, z'
loop_
 _atom_site_type_symbol
 _atom_site_label
 _atom_site_symmetry_multiplicity
 _atom_site_fract_x
 _atom_site_fract_y
 _atom_site_fract_z
 _atom_site_occupancy
  Sc  Sc0  1  0.331974  0.661642  0.439031  1
  Sc  Sc1  1  0.665573  0.335892  0.564830  1
  Sc  Sc2  1  0.665573  0.335892  0.935170  1
  Sc  Sc3  1  0.331974  0.661642  0.060969  1
  Al  Al4  1  0.342606  0.170009  0.250000  1
  V  V5  1  0.171956  0.340856  0.750000  1
  Os  Os6  1  0.174613  0.826437  0.750000  1
  Os  Os7  1  0.833284  0.658395  0.250000  1
  Os  Os8  1  0.657548  0.829817  0.750000  1
  Os  Os9  1  0.995949  0.000704  0.999417  1
  Os  Os10  1  0.832999  0.178013  0.250000  1
  Os  Os11  1  0.995949  0.000704  0.500583  1
