# generated using pymatgen
data_Ba7Yb5(HoSn2)8
_symmetry_space_group_name_H-M   'P 1'
_cell_length_a   8.18242319
_cell_length_b   8.67954569
_cell_length_c   16.52302238
_cell_angle_alpha   90.16249336
_cell_angle_beta   89.89547438
_cell_angle_gamma   89.94892622
_symmetry_Int_Tables_number   1
_chemical_formula_structural   Ba7Yb5(HoSn2)8
_chemical_formula_sum   'Ba7 Yb5 Ho8 Sn16'
_cell_volume   1173.45321203
_cell_formula_units_Z   1
loop_
 _symmetry_equiv_pos_site_id
 _symmetry_equiv_pos_as_xyz
  1  'x, y, z'
loop_
 _atom_site_type_symbol
 _atom_site_label
 _atom_site_symmetry_multiplicity
 _atom_site_fract_x
 _atom_site_fract_y
 _atom_site_fract_z
 _atom_site_occupancy
  Ba  Ba0  1  0.502041  0.678550  0.595683  1
  Ba  Ba1  1  0.002794  0.823594  0.904720  1
  Ba  Ba2  1  0.497532  0.323534  0.095350  1
  Ba  Ba3  1  0.997269  0.177072  0.407302  1
  Ba  Ba4  1  0.495451  0.323081  0.406281  1
  Ba  Ba5  1  0.997563  0.176489  0.095258  1
  Ba  Ba6  1  0.502677  0.676520  0.903771  1
  Yb  Yb7  1  0.001510  0.810736  0.595042  1
  Yb  Yb8  1  0.832319  0.505144  0.748391  1
  Yb  Yb9  1  0.330907  0.994857  0.747861  1
  Yb  Yb10  1  0.167515  0.497665  0.250291  1
  Yb  Yb11  1  0.668283  0.002693  0.250279  1
  Ho  Ho12  1  0.670560  0.167359  0.622522  1
  Ho  Ho13  1  0.167403  0.330963  0.875467  1
  Ho  Ho14  1  0.333057  0.829870  0.123192  1
  Ho  Ho15  1  0.833876  0.672148  0.378571  1
  Ho  Ho16  1  0.330663  0.830361  0.378165  1
  Ho  Ho17  1  0.832526  0.669636  0.123341  1
  Ho  Ho18  1  0.668527  0.168800  0.875071  1
  Ho  Ho19  1  0.166779  0.331583  0.623230  1
  Sn  Sn20  1  0.661905  0.957202  0.461929  1
  Sn  Sn21  1  0.159148  0.542397  0.040275  1
  Sn  Sn22  1  0.341716  0.043052  0.958506  1
  Sn  Sn23  1  0.841698  0.465605  0.542597  1
  Sn  Sn24  1  0.332430  0.036992  0.542555  1
  Sn  Sn25  1  0.840767  0.456736  0.958782  1
  Sn  Sn26  1  0.659286  0.957188  0.040351  1
  Sn  Sn27  1  0.158167  0.548744  0.461977  1
  Sn  Sn28  1  0.463725  0.367042  0.749072  1
  Sn  Sn29  1  0.965686  0.133082  0.748247  1
  Sn  Sn30  1  0.536053  0.634614  0.250705  1
  Sn  Sn31  1  0.036176  0.865732  0.250281  1
  Sn  Sn32  1  0.716554  0.888911  0.746139  1
  Sn  Sn33  1  0.205818  0.611523  0.747705  1
  Sn  Sn34  1  0.290848  0.107222  0.250486  1
  Sn  Sn35  1  0.790770  0.393304  0.250605  1
