# generated using pymatgen
data_Th2Al20Ru3Rh
_symmetry_space_group_name_H-M   'P 1'
_cell_length_a   6.88584780
_cell_length_b   6.89059992
_cell_length_c   9.20816025
_cell_angle_alpha   90.12271304
_cell_angle_beta   90.10143199
_cell_angle_gamma   97.53789087
_symmetry_Int_Tables_number   1
_chemical_formula_structural   Th2Al20Ru3Rh
_chemical_formula_sum   'Th2 Al20 Ru3 Rh1'
_cell_volume   433.12779496
_cell_formula_units_Z   1
loop_
 _symmetry_equiv_pos_site_id
 _symmetry_equiv_pos_as_xyz
  1  'x, y, z'
loop_
 _atom_site_type_symbol
 _atom_site_label
 _atom_site_symmetry_multiplicity
 _atom_site_fract_x
 _atom_site_fract_y
 _atom_site_fract_z
 _atom_site_occupancy
  Th  Th0  1  0.872582  0.124441  0.750259  1
  Th  Th1  1  0.127418  0.875559  0.249741  1
  Al  Al2  1  0.620452  0.376932  0.550219  1
  Al  Al3  1  0.379548  0.623068  0.449781  1
  Al  Al4  1  0.377972  0.622700  0.048364  1
  Al  Al5  1  0.622028  0.377300  0.951636  1
  Al  Al6  1  0.225348  0.224317  0.499517  1
  Al  Al7  1  0.774652  0.775683  0.500483  1
  Al  Al8  1  0.775896  0.776386  0.999378  1
  Al  Al9  1  0.224104  0.223614  0.000622  1
  Al  Al10  1  0.841376  0.158934  0.102658  1
  Al  Al11  1  0.158624  0.841066  0.897342  1
  Al  Al12  1  0.160046  0.841144  0.603877  1
  Al  Al13  1  0.839954  0.158856  0.396123  1
  Al  Al14  1  0.858393  0.593042  0.750815  1
  Al  Al15  1  0.141607  0.406958  0.249185  1
  Al  Al16  1  0.405968  0.140841  0.750515  1
  Al  Al17  1  0.594032  0.859159  0.249485  1
  Al  Al18  1  0.224718  0.482517  0.752888  1
  Al  Al19  1  0.775282  0.517483  0.247112  1
  Al  Al20  1  0.516655  0.776982  0.749979  1
  Al  Al21  1  0.483345  0.223018  0.250021  1
  Ru  Ru22  1  0.000000  0.500000  0.000000  1
  Ru  Ru23  1  0.500000  0.000000  0.000000  1
  Ru  Ru24  1  0.500000  0.000000  0.500000  1
  Rh  Rh25  1  0.000000  0.500000  0.500000  1
