# generated using pymatgen
data_HoTm11In2GaFe2
_symmetry_space_group_name_H-M   'P 1'
_cell_length_a   8.30257726
_cell_length_b   8.30257810
_cell_length_c   8.29926085
_cell_angle_alpha   109.71126639
_cell_angle_beta   109.71126426
_cell_angle_gamma   109.00851880
_symmetry_Int_Tables_number   1
_chemical_formula_structural   HoTm11In2GaFe2
_chemical_formula_sum   'Ho1 Tm11 In2 Ga1 Fe2'
_cell_volume   440.28500033
_cell_formula_units_Z   1
loop_
 _symmetry_equiv_pos_site_id
 _symmetry_equiv_pos_as_xyz
  1  'x, y, z'
loop_
 _atom_site_type_symbol
 _atom_site_label
 _atom_site_symmetry_multiplicity
 _atom_site_fract_x
 _atom_site_fract_y
 _atom_site_fract_z
 _atom_site_occupancy
  Ho  Ho0  1  0.694833  0.305167  0.000000  1
  Tm  Tm1  1  0.446185  0.202670  0.244056  1
  Tm  Tm2  1  0.553250  0.796604  0.756096  1
  Tm  Tm3  1  0.959491  0.202845  0.756096  1
  Tm  Tm4  1  0.202129  0.958613  0.755944  1
  Tm  Tm5  1  0.041387  0.797871  0.244056  1
  Tm  Tm6  1  0.797155  0.040509  0.243904  1
  Tm  Tm7  1  0.203396  0.446750  0.243904  1
  Tm  Tm8  1  0.797330  0.553815  0.755944  1
  Tm  Tm9  1  0.305655  0.306048  0.611704  1
  Tm  Tm10  1  0.693952  0.694345  0.388296  1
  Tm  Tm11  1  0.305830  0.694170  0.000000  1
  In  In12  1  0.499961  0.000087  0.500048  1
  In  In13  1  0.999913  0.500039  0.499952  1
  Ga  Ga14  1  0.999923  0.000077  0.000000  1
  Fe  Fe15  1  0.386268  0.386657  0.000000  1
  Fe  Fe16  1  0.613343  0.613732  0.000000  1
