# generated using pymatgen
data_Sr2Tb3DySe8
_symmetry_space_group_name_H-M   'P 1'
_cell_length_a   4.16275500
_cell_length_b   12.66780400
_cell_length_c   15.05585000
_cell_angle_alpha   90.00000000
_cell_angle_beta   90.00000000
_cell_angle_gamma   90.00000000
_symmetry_Int_Tables_number   1
_chemical_formula_structural   Sr2Tb3DySe8
_chemical_formula_sum   'Sr4 Tb6 Dy2 Se16'
_cell_volume   793.93960266
_cell_formula_units_Z   2
loop_
 _symmetry_equiv_pos_site_id
 _symmetry_equiv_pos_as_xyz
  1  'x, y, z'
loop_
 _atom_site_type_symbol
 _atom_site_label
 _atom_site_symmetry_multiplicity
 _atom_site_fract_x
 _atom_site_fract_y
 _atom_site_fract_z
 _atom_site_occupancy
  Sr  Sr0  1  0.250000  0.758540  0.664456  1
  Sr  Sr1  1  0.750000  0.741460  0.164456  1
  Sr  Sr2  1  0.250000  0.258610  0.835563  1
  Sr  Sr3  1  0.750000  0.241390  0.335563  1
  Tb  Tb4  1  0.250000  0.433722  0.609881  1
  Tb  Tb5  1  0.750000  0.066278  0.109881  1
  Tb  Tb6  1  0.250000  0.933546  0.890224  1
  Tb  Tb7  1  0.750000  0.566454  0.390224  1
  Tb  Tb8  1  0.250000  0.419735  0.098872  1
  Tb  Tb9  1  0.750000  0.080265  0.598872  1
  Dy  Dy10  1  0.250000  0.919774  0.400998  1
  Dy  Dy11  1  0.750000  0.580226  0.900998  1
  Se  Se12  1  0.250000  0.411924  0.421095  1
  Se  Se13  1  0.750000  0.088076  0.921095  1
  Se  Se14  1  0.250000  0.911972  0.078971  1
  Se  Se15  1  0.750000  0.588028  0.578971  1
  Se  Se16  1  0.250000  0.024138  0.716274  1
  Se  Se17  1  0.750000  0.475862  0.216274  1
  Se  Se18  1  0.250000  0.524502  0.784335  1
  Se  Se19  1  0.750000  0.975498  0.284335  1
  Se  Se20  1  0.250000  0.131130  0.471714  1
  Se  Se21  1  0.750000  0.368870  0.971714  1
  Se  Se22  1  0.250000  0.631460  0.027403  1
  Se  Se23  1  0.750000  0.868540  0.527403  1
  Se  Se24  1  0.250000  0.207542  0.174503  1
  Se  Se25  1  0.750000  0.292458  0.674503  1
  Se  Se26  1  0.250000  0.708089  0.325712  1
  Se  Se27  1  0.750000  0.791911  0.825712  1
