# generated using pymatgen
data_Tb3Tm13Tl2(In2Ir)2
_symmetry_space_group_name_H-M   'P 1'
_cell_length_a   10.29203908
_cell_length_b   10.29202791
_cell_length_c   7.06094200
_cell_angle_alpha   89.99519048
_cell_angle_beta   90.00481137
_cell_angle_gamma   119.96116610
_symmetry_Int_Tables_number   1
_chemical_formula_structural   Tb3Tm13Tl2(In2Ir)2
_chemical_formula_sum   'Tb3 Tm13 Tl2 In4 Ir2'
_cell_volume   647.98577092
_cell_formula_units_Z   1
loop_
 _symmetry_equiv_pos_site_id
 _symmetry_equiv_pos_as_xyz
  1  'x, y, z'
loop_
 _atom_site_type_symbol
 _atom_site_label
 _atom_site_symmetry_multiplicity
 _atom_site_fract_x
 _atom_site_fract_y
 _atom_site_fract_z
 _atom_site_occupancy
  Tb  Tb0  1  0.532319  0.064890  0.513917  1
  Tb  Tb1  1  0.935109  0.467680  0.513918  1
  Tb  Tb2  1  0.532613  0.467388  0.513415  1
  Tm  Tm3  1  0.466126  0.930356  0.015927  1
  Tm  Tm4  1  0.069643  0.533874  0.015928  1
  Tm  Tm5  1  0.464684  0.535316  0.017200  1
  Tm  Tm6  1  0.176808  0.352674  0.721683  1
  Tm  Tm7  1  0.647326  0.823192  0.721685  1
  Tm  Tm8  1  0.176100  0.823899  0.722094  1
  Tm  Tm9  1  0.823559  0.646517  0.215652  1
  Tm  Tm10  1  0.353483  0.176441  0.215652  1
  Tm  Tm11  1  0.823262  0.176737  0.217883  1
  Tm  Tm12  1  0.666863  0.333136  0.897063  1
  Tm  Tm13  1  0.333190  0.666810  0.397671  1
  Tm  Tm14  1  0.999291  0.000710  0.497236  1
  Tm  Tm15  1  0.999169  0.000832  0.000984  1
  Tl  Tl16  1  0.837202  0.674172  0.765534  1
  Tl  Tl17  1  0.325827  0.162797  0.765533  1
  In  In18  1  0.837403  0.162597  0.763481  1
  In  In19  1  0.163057  0.325916  0.264319  1
  In  In20  1  0.674085  0.836943  0.264319  1
  In  In21  1  0.163014  0.836986  0.264057  1
  Ir  Ir22  1  0.666576  0.333424  0.284942  1
  Ir  Ir23  1  0.333290  0.666710  0.787914  1
