# generated using pymatgen
data_SmY5(SiRh2)6
_symmetry_space_group_name_H-M   'P 1'
_cell_length_a   5.58950000
_cell_length_b   5.58949950
_cell_length_c   15.08815900
_cell_angle_alpha   90.00000000
_cell_angle_beta   90.00000000
_cell_angle_gamma   119.99999109
_symmetry_Int_Tables_number   1
_chemical_formula_structural   SmY5(SiRh2)6
_chemical_formula_sum   'Sm1 Y5 Si6 Rh12'
_cell_volume   408.23741488
_cell_formula_units_Z   1
loop_
 _symmetry_equiv_pos_site_id
 _symmetry_equiv_pos_as_xyz
  1  'x, y, z'
loop_
 _atom_site_type_symbol
 _atom_site_label
 _atom_site_symmetry_multiplicity
 _atom_site_fract_x
 _atom_site_fract_y
 _atom_site_fract_z
 _atom_site_occupancy
  Sm  Sm0  1  0.666667  0.333333  0.750000  1
  Y  Y1  1  0.666667  0.333333  0.963146  1
  Y  Y2  1  0.666667  0.333333  0.536854  1
  Y  Y3  1  0.333333  0.666667  0.036952  1
  Y  Y4  1  0.333333  0.666667  0.463048  1
  Y  Y5  1  0.333333  0.666667  0.250000  1
  Si  Si6  1  0.666667  0.333333  0.250000  1
  Si  Si7  1  0.000000  0.000000  0.499980  1
  Si  Si8  1  0.000000  0.000000  0.250000  1
  Si  Si9  1  0.000000  0.000000  0.750000  1
  Si  Si10  1  0.333333  0.666667  0.750000  1
  Si  Si11  1  0.000000  0.000000  0.000020  1
  Rh  Rh12  1  0.166624  0.333249  0.869211  1
  Rh  Rh13  1  0.166624  0.333249  0.630789  1
  Rh  Rh14  1  0.666751  0.833376  0.869211  1
  Rh  Rh15  1  0.333320  0.166660  0.369007  1
  Rh  Rh16  1  0.833340  0.666680  0.369007  1
  Rh  Rh17  1  0.833340  0.166660  0.369007  1
  Rh  Rh18  1  0.833340  0.166660  0.130993  1
  Rh  Rh19  1  0.333320  0.166660  0.130993  1
  Rh  Rh20  1  0.666751  0.833376  0.630789  1
  Rh  Rh21  1  0.166624  0.833376  0.630789  1
  Rh  Rh22  1  0.833340  0.666680  0.130993  1
  Rh  Rh23  1  0.166624  0.833376  0.869211  1
