# generated using pymatgen
data_DyMn(NbS2)8
_symmetry_space_group_name_H-M   'P 1'
_cell_length_a   6.72690700
_cell_length_b   6.72690695
_cell_length_c   13.15907100
_cell_angle_alpha   90.00000000
_cell_angle_beta   90.00000000
_cell_angle_gamma   120.00000518
_symmetry_Int_Tables_number   1
_chemical_formula_structural   DyMn(NbS2)8
_chemical_formula_sum   'Dy1 Mn1 Nb8 S16'
_cell_volume   515.68759308
_cell_formula_units_Z   1
loop_
 _symmetry_equiv_pos_site_id
 _symmetry_equiv_pos_as_xyz
  1  'x, y, z'
loop_
 _atom_site_type_symbol
 _atom_site_label
 _atom_site_symmetry_multiplicity
 _atom_site_fract_x
 _atom_site_fract_y
 _atom_site_fract_z
 _atom_site_occupancy
  Dy  Dy0  1  0.000000  0.000000  0.500000  1
  Mn  Mn1  1  0.000000  0.000000  0.000000  1
  Nb  Nb2  1  0.505076  0.494924  0.762935  1
  Nb  Nb3  1  0.010150  0.505076  0.237065  1
  Nb  Nb4  1  0.494924  0.989850  0.237065  1
  Nb  Nb5  1  0.505076  0.010150  0.762935  1
  Nb  Nb6  1  0.989850  0.494924  0.762935  1
  Nb  Nb7  1  0.494924  0.505076  0.237065  1
  Nb  Nb8  1  0.000000  0.000000  0.761880  1
  Nb  Nb9  1  0.000000  0.000000  0.238120  1
  S  S10  1  0.831574  0.168426  0.356788  1
  S  S11  1  0.831574  0.663148  0.356788  1
  S  S12  1  0.336852  0.168426  0.356788  1
  S  S13  1  0.665333  0.832667  0.880928  1
  S  S14  1  0.168426  0.336852  0.643212  1
  S  S15  1  0.167333  0.832667  0.880928  1
  S  S16  1  0.167333  0.334667  0.880928  1
  S  S17  1  0.832667  0.167333  0.119072  1
  S  S18  1  0.334667  0.167333  0.119072  1
  S  S19  1  0.663148  0.831574  0.643212  1
  S  S20  1  0.333333  0.666667  0.116886  1
  S  S21  1  0.666667  0.333333  0.640476  1
  S  S22  1  0.666667  0.333333  0.883114  1
  S  S23  1  0.333333  0.666667  0.359524  1
  S  S24  1  0.832667  0.665333  0.119072  1
  S  S25  1  0.168426  0.831574  0.643212  1
