# generated using pymatgen
data_Th(CuPd2)4
_symmetry_space_group_name_H-M   'P 1'
_cell_length_a   6.80368773
_cell_length_b   6.80368731
_cell_length_c   6.80368722
_cell_angle_alpha   97.93453775
_cell_angle_beta   97.93454094
_cell_angle_gamma   136.37880131
_symmetry_Int_Tables_number   1
_chemical_formula_structural   Th(CuPd2)4
_chemical_formula_sum   'Th1 Cu4 Pd8'
_cell_volume   201.72254941
_cell_formula_units_Z   1
loop_
 _symmetry_equiv_pos_site_id
 _symmetry_equiv_pos_as_xyz
  1  'x, y, z'
loop_
 _atom_site_type_symbol
 _atom_site_label
 _atom_site_symmetry_multiplicity
 _atom_site_fract_x
 _atom_site_fract_y
 _atom_site_fract_z
 _atom_site_occupancy
  Th  Th0  1  0.000000  0.000000  0.000000  1
  Cu  Cu1  1  0.000000  0.000000  0.500000  1
  Cu  Cu2  1  0.500000  0.500000  0.500000  1
  Cu  Cu3  1  0.500000  0.000000  0.000000  1
  Cu  Cu4  1  0.000000  0.500000  0.000000  1
  Pd  Pd5  1  0.000000  0.345226  0.345226  1
  Pd  Pd6  1  0.000000  0.654774  0.654774  1
  Pd  Pd7  1  0.654774  0.000000  0.654774  1
  Pd  Pd8  1  0.345226  0.000000  0.345226  1
  Pd  Pd9  1  0.500000  0.281502  0.781502  1
  Pd  Pd10  1  0.500000  0.718498  0.218498  1
  Pd  Pd11  1  0.718498  0.500000  0.218498  1
  Pd  Pd12  1  0.281502  0.500000  0.781502  1
