# generated using pymatgen
data_Tb7Er6Th3(CdIr)4
_symmetry_space_group_name_H-M   'P 1'
_cell_length_a   9.70803255
_cell_length_b   9.70765483
_cell_length_c   9.70041700
_cell_angle_alpha   60.02465712
_cell_angle_beta   60.02594290
_cell_angle_gamma   60.05907293
_symmetry_Int_Tables_number   1
_chemical_formula_structural   Tb7Er6Th3(CdIr)4
_chemical_formula_sum   'Tb7 Er6 Th3 Cd4 Ir4'
_cell_volume   646.96470720
_cell_formula_units_Z   1
loop_
 _symmetry_equiv_pos_site_id
 _symmetry_equiv_pos_as_xyz
  1  'x, y, z'
loop_
 _atom_site_type_symbol
 _atom_site_label
 _atom_site_symmetry_multiplicity
 _atom_site_fract_x
 _atom_site_fract_y
 _atom_site_fract_z
 _atom_site_occupancy
  Tb  Tb0  1  0.062854  0.062323  0.437412  1
  Tb  Tb1  1  0.189245  0.811953  0.812838  1
  Tb  Tb2  1  0.813446  0.187295  0.184912  1
  Tb  Tb3  1  0.813446  0.187295  0.814346  1
  Tb  Tb4  1  0.189245  0.811953  0.185964  1
  Tb  Tb5  1  0.815098  0.814803  0.185049  1
  Tb  Tb6  1  0.188448  0.188233  0.811660  1
  Er  Er7  1  0.199104  0.599942  0.600478  1
  Er  Er8  1  0.062068  0.438963  0.438466  1
  Er  Er9  1  0.436563  0.063825  0.063468  1
  Er  Er10  1  0.436563  0.063825  0.436142  1
  Er  Er11  1  0.062068  0.438963  0.060502  1
  Er  Er12  1  0.435949  0.436833  0.063609  1
  Th  Th13  1  0.597571  0.599927  0.599434  1
  Th  Th14  1  0.597571  0.599927  0.203070  1
  Th  Th15  1  0.597421  0.201211  0.600685  1
  Cd  Cd16  1  0.833685  0.829142  0.831032  1
  Cd  Cd17  1  0.833685  0.829142  0.506143  1
  Cd  Cd18  1  0.833905  0.504610  0.830744  1
  Cd  Cd19  1  0.503320  0.830927  0.832877  1
  Ir  Ir20  1  0.392313  0.391612  0.393072  1
  Ir  Ir21  1  0.392313  0.391612  0.823004  1
  Ir  Ir22  1  0.393442  0.821804  0.392377  1
  Ir  Ir23  1  0.820677  0.393886  0.392719  1
