# generated using pymatgen
data_YbDy6PtBr12
_symmetry_space_group_name_H-M   'P 1'
_cell_length_a   9.26704684
_cell_length_b   9.26704543
_cell_length_c   9.26704729
_cell_angle_alpha   106.93581333
_cell_angle_beta   106.93582783
_cell_angle_gamma   106.93582458
_symmetry_Int_Tables_number   1
_chemical_formula_structural   YbDy6PtBr12
_chemical_formula_sum   'Yb1 Dy6 Pt1 Br12'
_cell_volume   663.93743849
_cell_formula_units_Z   1
loop_
 _symmetry_equiv_pos_site_id
 _symmetry_equiv_pos_as_xyz
  1  'x, y, z'
loop_
 _atom_site_type_symbol
 _atom_site_label
 _atom_site_symmetry_multiplicity
 _atom_site_fract_x
 _atom_site_fract_y
 _atom_site_fract_z
 _atom_site_occupancy
  Yb  Yb0  1  0.500000  0.500000  0.500000  1
  Dy  Dy1  1  0.104234  0.027975  0.316325  1
  Dy  Dy2  1  0.316325  0.104234  0.027975  1
  Dy  Dy3  1  0.027975  0.316325  0.104234  1
  Dy  Dy4  1  0.895766  0.972025  0.683675  1
  Dy  Dy5  1  0.683675  0.895766  0.972025  1
  Dy  Dy6  1  0.972025  0.683675  0.895766  1
  Pt  Pt7  1  0.000000  0.000000  0.000000  1
  Br  Br8  1  0.072337  0.679527  0.220964  1
  Br  Br9  1  0.220964  0.072337  0.679527  1
  Br  Br10  1  0.679527  0.220964  0.072337  1
  Br  Br11  1  0.927663  0.320473  0.779036  1
  Br  Br12  1  0.779036  0.927663  0.320473  1
  Br  Br13  1  0.320473  0.779036  0.927663  1
  Br  Br14  1  0.456652  0.159668  0.381393  1
  Br  Br15  1  0.381393  0.456652  0.159668  1
  Br  Br16  1  0.159668  0.381393  0.456652  1
  Br  Br17  1  0.543348  0.840332  0.618607  1
  Br  Br18  1  0.618607  0.543348  0.840332  1
  Br  Br19  1  0.840332  0.618607  0.543348  1
