# generated using pymatgen
data_OsPtI18
_symmetry_space_group_name_H-M   'P 1'
_cell_length_a   10.08971945
_cell_length_b   10.08971940
_cell_length_c   10.08972141
_cell_angle_alpha   94.39691478
_cell_angle_beta   94.39691916
_cell_angle_gamma   94.39693142
_symmetry_Int_Tables_number   1
_chemical_formula_structural   OsPtI18
_chemical_formula_sum   'Os1 Pt1 I18'
_cell_volume   1017.59504720
_cell_formula_units_Z   1
loop_
 _symmetry_equiv_pos_site_id
 _symmetry_equiv_pos_as_xyz
  1  'x, y, z'
loop_
 _atom_site_type_symbol
 _atom_site_label
 _atom_site_symmetry_multiplicity
 _atom_site_fract_x
 _atom_site_fract_y
 _atom_site_fract_z
 _atom_site_occupancy
  Os  Os0  1  0.500000  0.500000  0.500000  1
  Pt  Pt1  1  0.000000  0.000000  0.000000  1
  I  I2  1  0.729352  0.138753  0.615356  1
  I  I3  1  0.968815  0.010750  0.730519  1
  I  I4  1  0.615356  0.729352  0.138753  1
  I  I5  1  0.989250  0.269481  0.031185  1
  I  I6  1  0.730519  0.968815  0.010750  1
  I  I7  1  0.010750  0.730519  0.968815  1
  I  I8  1  0.031185  0.989250  0.269481  1
  I  I9  1  0.861247  0.384644  0.270648  1
  I  I10  1  0.269481  0.031185  0.989250  1
  I  I11  1  0.270648  0.861247  0.384644  1
  I  I12  1  0.138753  0.615356  0.729352  1
  I  I13  1  0.384644  0.270648  0.861247  1
  I  I14  1  0.766274  0.534520  0.496716  1
  I  I15  1  0.534520  0.496716  0.766274  1
  I  I16  1  0.233726  0.465480  0.503284  1
  I  I17  1  0.465480  0.503284  0.233726  1
  I  I18  1  0.496716  0.766274  0.534520  1
  I  I19  1  0.503284  0.233726  0.465480  1
