# generated using pymatgen
data_Zr10BeSi(BiPb2)2
_symmetry_space_group_name_H-M   'P 1'
_cell_length_a   8.79735211
_cell_length_b   8.80318697
_cell_length_c   5.92961906
_cell_angle_alpha   89.99271691
_cell_angle_beta   90.00391698
_cell_angle_gamma   120.02372143
_symmetry_Int_Tables_number   1
_chemical_formula_structural   Zr10BeSi(BiPb2)2
_chemical_formula_sum   'Zr10 Be1 Si1 Bi2 Pb4'
_cell_volume   397.59916352
_cell_formula_units_Z   1
loop_
 _symmetry_equiv_pos_site_id
 _symmetry_equiv_pos_as_xyz
  1  'x, y, z'
loop_
 _atom_site_type_symbol
 _atom_site_label
 _atom_site_symmetry_multiplicity
 _atom_site_fract_x
 _atom_site_fract_y
 _atom_site_fract_z
 _atom_site_occupancy
  Zr  Zr0  1  0.666623  0.333066  0.501725  1
  Zr  Zr1  1  0.333446  0.666462  0.501711  1
  Zr  Zr2  1  0.333608  0.666848  0.998479  1
  Zr  Zr3  1  0.666469  0.333290  0.998455  1
  Zr  Zr4  1  0.751592  0.750913  0.256685  1
  Zr  Zr5  1  0.248310  0.999134  0.256684  1
  Zr  Zr6  1  0.000083  0.249068  0.256631  1
  Zr  Zr7  1  0.252989  0.253103  0.743001  1
  Zr  Zr8  1  0.746922  0.999929  0.743007  1
  Zr  Zr9  1  0.000045  0.746800  0.743328  1
  Be  Be10  1  0.999991  0.999657  0.505939  1
  Si  Si11  1  0.999994  0.999733  0.995021  1
  Bi  Bi12  1  0.394805  0.394679  0.249140  1
  Bi  Bi13  1  0.605120  0.999692  0.249127  1
  Pb  Pb14  1  0.000182  0.606739  0.249907  1
  Pb  Pb15  1  0.609019  0.608946  0.750287  1
  Pb  Pb16  1  0.390495  0.999615  0.750211  1
  Pb  Pb17  1  0.000306  0.392324  0.750665  1
