# generated using pymatgen
data_Eu2Er18Si15Rh
_symmetry_space_group_name_H-M   'P 1'
_cell_length_a   7.41466447
_cell_length_b   7.64892556
_cell_length_c   14.51184300
_cell_angle_alpha   90.26534389
_cell_angle_beta   90.75894165
_cell_angle_gamma   90.18754911
_symmetry_Int_Tables_number   1
_chemical_formula_structural   Eu2Er18Si15Rh
_chemical_formula_sum   'Eu2 Er18 Si15 Rh1'
_cell_volume   822.94220322
_cell_formula_units_Z   1
loop_
 _symmetry_equiv_pos_site_id
 _symmetry_equiv_pos_as_xyz
  1  'x, y, z'
loop_
 _atom_site_type_symbol
 _atom_site_label
 _atom_site_symmetry_multiplicity
 _atom_site_fract_x
 _atom_site_fract_y
 _atom_site_fract_z
 _atom_site_occupancy
  Eu  Eu0  1  0.021431  0.822379  0.596406  1
  Eu  Eu1  1  0.520697  0.677699  0.593470  1
  Er  Er2  1  0.320808  0.819652  0.122470  1
  Er  Er3  1  0.815082  0.678390  0.122672  1
  Er  Er4  1  0.849598  0.508624  0.748323  1
  Er  Er5  1  0.469432  0.316211  0.100818  1
  Er  Er6  1  0.030435  0.816615  0.903294  1
  Er  Er7  1  0.474174  0.315960  0.399076  1
  Er  Er8  1  0.651925  0.010789  0.256528  1
  Er  Er9  1  0.532044  0.683105  0.902782  1
  Er  Er10  1  0.681845  0.180150  0.880513  1
  Er  Er11  1  0.178776  0.323080  0.624879  1
  Er  Er12  1  0.185021  0.322448  0.879363  1
  Er  Er13  1  0.818593  0.688004  0.379295  1
  Er  Er14  1  0.322690  0.825840  0.376856  1
  Er  Er15  1  0.350096  0.987082  0.747220  1
  Er  Er16  1  0.680735  0.165343  0.618708  1
  Er  Er17  1  0.148380  0.491045  0.251522  1
  Er  Er18  1  0.969071  0.183147  0.099870  1
  Er  Er19  1  0.975310  0.176044  0.398251  1
  Si  Si20  1  0.234567  0.622888  0.757665  1
  Si  Si21  1  0.344971  0.042720  0.536379  1
  Si  Si22  1  0.026141  0.893022  0.245275  1
  Si  Si23  1  0.735049  0.876927  0.758008  1
  Si  Si24  1  0.266530  0.128573  0.245430  1
  Si  Si25  1  0.856977  0.459264  0.535614  1
  Si  Si26  1  0.479167  0.387617  0.753203  1
  Si  Si27  1  0.148243  0.523611  0.457023  1
  Si  Si28  1  0.145643  0.527427  0.041912  1
  Si  Si29  1  0.975577  0.109037  0.756120  1
  Si  Si30  1  0.769815  0.374669  0.247681  1
  Si  Si31  1  0.354384  0.028677  0.960363  1
  Si  Si32  1  0.857833  0.472440  0.959815  1
  Si  Si33  1  0.645009  0.972258  0.041810  1
  Si  Si34  1  0.521194  0.603410  0.248990  1
  Rh  Rh35  1  0.642762  0.985854  0.452396  1
