# generated using pymatgen
data_Tb7Gd5(SiPd)12
_symmetry_space_group_name_H-M   'P 1'
_cell_length_a   4.40597000
_cell_length_b   7.48802654
_cell_length_c   21.44899600
_cell_angle_alpha   90.02179956
_cell_angle_beta   90.00000000
_cell_angle_gamma   90.00000000
_symmetry_Int_Tables_number   1
_chemical_formula_structural   Tb7Gd5(SiPd)12
_chemical_formula_sum   'Tb7 Gd5 Si12 Pd12'
_cell_volume   707.64566030
_cell_formula_units_Z   1
loop_
 _symmetry_equiv_pos_site_id
 _symmetry_equiv_pos_as_xyz
  1  'x, y, z'
loop_
 _atom_site_type_symbol
 _atom_site_label
 _atom_site_symmetry_multiplicity
 _atom_site_fract_x
 _atom_site_fract_y
 _atom_site_fract_z
 _atom_site_occupancy
  Tb  Tb0  1  0.750000  0.207148  0.833424  1
  Tb  Tb1  1  0.750000  0.292842  0.334635  1
  Tb  Tb2  1  0.250000  0.706802  0.665882  1
  Tb  Tb3  1  0.250000  0.711225  0.000620  1
  Tb  Tb4  1  0.750000  0.289054  0.998416  1
  Tb  Tb5  1  0.750000  0.211327  0.499411  1
  Tb  Tb6  1  0.250000  0.788703  0.501481  1
  Gd  Gd7  1  0.250000  0.705937  0.333534  1
  Gd  Gd8  1  0.750000  0.293348  0.666799  1
  Gd  Gd9  1  0.750000  0.207193  0.167128  1
  Gd  Gd10  1  0.250000  0.793554  0.832154  1
  Gd  Gd11  1  0.250000  0.793584  0.166209  1
  Si  Si12  1  0.250000  0.088797  0.070119  1
  Si  Si13  1  0.750000  0.911558  0.928398  1
  Si  Si14  1  0.750000  0.588450  0.429594  1
  Si  Si15  1  0.250000  0.411385  0.571048  1
  Si  Si16  1  0.250000  0.085624  0.273337  1
  Si  Si17  1  0.750000  0.914086  0.727310  1
  Si  Si18  1  0.750000  0.585517  0.228413  1
  Si  Si19  1  0.250000  0.413772  0.771598  1
  Si  Si20  1  0.250000  0.087466  0.396343  1
  Si  Si21  1  0.750000  0.912471  0.604459  1
  Si  Si22  1  0.750000  0.587184  0.104430  1
  Si  Si23  1  0.250000  0.413020  0.894808  1
  Pd  Pd24  1  0.250000  0.416954  0.238004  1
  Pd  Pd25  1  0.750000  0.581654  0.761975  1
  Pd  Pd26  1  0.750000  0.918743  0.263692  1
  Pd  Pd27  1  0.250000  0.081889  0.736775  1
  Pd  Pd28  1  0.250000  0.417102  0.438980  1
  Pd  Pd29  1  0.750000  0.583185  0.562477  1
  Pd  Pd30  1  0.750000  0.917409  0.061233  1
  Pd  Pd31  1  0.250000  0.083248  0.937470  1
  Pd  Pd32  1  0.250000  0.420154  0.092578  1
  Pd  Pd33  1  0.750000  0.579629  0.906326  1
  Pd  Pd34  1  0.750000  0.920685  0.407875  1
  Pd  Pd35  1  0.250000  0.079299  0.593062  1
