# generated using pymatgen
data_Ba2SrGa2(SbAs)2
_symmetry_space_group_name_H-M   'P 1'
_cell_length_a   9.16237152
_cell_length_b   9.16237187
_cell_length_c   7.22550533
_cell_angle_alpha   91.26470584
_cell_angle_beta   91.26469699
_cell_angle_gamma   76.01915864
_symmetry_Int_Tables_number   1
_chemical_formula_structural   Ba2SrGa2(SbAs)2
_chemical_formula_sum   'Ba4 Sr2 Ga4 Sb4 As4'
_cell_volume   588.37454242
_cell_formula_units_Z   2
loop_
 _symmetry_equiv_pos_site_id
 _symmetry_equiv_pos_as_xyz
  1  'x, y, z'
loop_
 _atom_site_type_symbol
 _atom_site_label
 _atom_site_symmetry_multiplicity
 _atom_site_fract_x
 _atom_site_fract_y
 _atom_site_fract_z
 _atom_site_occupancy
  Ba  Ba0  1  0.738926  0.001929  0.970507  1
  Ba  Ba1  1  0.998071  0.261074  0.529493  1
  Ba  Ba2  1  0.261074  0.998071  0.029493  1
  Ba  Ba3  1  0.001929  0.738926  0.470507  1
  Sr  Sr4  1  0.587435  0.412565  0.250000  1
  Sr  Sr5  1  0.412565  0.587435  0.750000  1
  Ga  Ga6  1  0.588739  0.810828  0.409038  1
  Ga  Ga7  1  0.189172  0.411261  0.090962  1
  Ga  Ga8  1  0.411261  0.189172  0.590962  1
  Ga  Ga9  1  0.810828  0.588739  0.909038  1
  Sb  Sb10  1  0.699578  0.063714  0.474308  1
  Sb  Sb11  1  0.936286  0.300422  0.025692  1
  Sb  Sb12  1  0.300422  0.936286  0.525692  1
  Sb  Sb13  1  0.063714  0.699578  0.974308  1
  As  As14  1  0.573134  0.730241  0.071579  1
  As  As15  1  0.269759  0.426866  0.428421  1
  As  As16  1  0.426866  0.269759  0.928421  1
  As  As17  1  0.730241  0.573134  0.571579  1
