# generated using pymatgen
data_TbCe3Sm4(ZnRh)8
_symmetry_space_group_name_H-M   'P 1'
_cell_length_a   3.93736600
_cell_length_b   7.32897471
_cell_length_c   16.41584141
_cell_angle_alpha   89.24568745
_cell_angle_beta   90.00000000
_cell_angle_gamma   90.00000000
_symmetry_Int_Tables_number   1
_chemical_formula_structural   TbCe3Sm4(ZnRh)8
_chemical_formula_sum   'Tb1 Ce3 Sm4 Zn8 Rh8'
_cell_volume   473.66851752
_cell_formula_units_Z   1
loop_
 _symmetry_equiv_pos_site_id
 _symmetry_equiv_pos_as_xyz
  1  'x, y, z'
loop_
 _atom_site_type_symbol
 _atom_site_label
 _atom_site_symmetry_multiplicity
 _atom_site_fract_x
 _atom_site_fract_y
 _atom_site_fract_z
 _atom_site_occupancy
  Tb  Tb0  1  0.250000  0.173963  0.940595  1
  Ce  Ce1  1  0.250000  0.556240  0.784948  1
  Ce  Ce2  1  0.750000  0.446707  0.214689  1
  Ce  Ce3  1  0.750000  0.326375  0.440435  1
  Sm  Sm4  1  0.250000  0.669428  0.561110  1
  Sm  Sm5  1  0.750000  0.829450  0.058710  1
  Sm  Sm6  1  0.250000  0.057220  0.715827  1
  Sm  Sm7  1  0.750000  0.944278  0.284543  1
  Zn  Zn8  1  0.250000  0.109202  0.153452  1
  Zn  Zn9  1  0.750000  0.500513  0.942068  1
  Zn  Zn10  1  0.750000  0.995452  0.561449  1
  Zn  Zn11  1  0.750000  0.381043  0.650264  1
  Zn  Zn12  1  0.750000  0.894266  0.848069  1
  Zn  Zn13  1  0.250000  0.498521  0.057107  1
  Zn  Zn14  1  0.250000  0.618075  0.348268  1
  Zn  Zn15  1  0.250000  0.992586  0.438052  1
  Rh  Rh16  1  0.750000  0.747318  0.435540  1
  Rh  Rh17  1  0.750000  0.275842  0.813930  1
  Rh  Rh18  1  0.750000  0.750122  0.693360  1
  Rh  Rh19  1  0.250000  0.726145  0.185873  1
  Rh  Rh20  1  0.250000  0.750084  0.930521  1
  Rh  Rh21  1  0.250000  0.249935  0.557432  1
  Rh  Rh22  1  0.750000  0.253309  0.069552  1
  Rh  Rh23  1  0.250000  0.253927  0.314204  1
