# generated using pymatgen
data_Zr6Ti4Al12Pt6Rh
_symmetry_space_group_name_H-M   'P 1'
_cell_length_a   8.83255884
_cell_length_b   8.83255902
_cell_length_c   8.83255800
_cell_angle_alpha   59.99999633
_cell_angle_beta   59.99999565
_cell_angle_gamma   59.99999778
_symmetry_Int_Tables_number   1
_chemical_formula_structural   Zr6Ti4Al12Pt6Rh
_chemical_formula_sum   'Zr6 Ti4 Al12 Pt6 Rh1'
_cell_volume   487.24181685
_cell_formula_units_Z   1
loop_
 _symmetry_equiv_pos_site_id
 _symmetry_equiv_pos_as_xyz
  1  'x, y, z'
loop_
 _atom_site_type_symbol
 _atom_site_label
 _atom_site_symmetry_multiplicity
 _atom_site_fract_x
 _atom_site_fract_y
 _atom_site_fract_z
 _atom_site_occupancy
  Zr  Zr0  1  0.689221  0.689221  0.310779  1
  Zr  Zr1  1  0.310779  0.689221  0.310779  1
  Zr  Zr2  1  0.689221  0.310779  0.310779  1
  Zr  Zr3  1  0.310779  0.310779  0.689221  1
  Zr  Zr4  1  0.689221  0.310779  0.689221  1
  Zr  Zr5  1  0.310779  0.689221  0.689221  1
  Ti  Ti6  1  0.881624  0.881624  0.355127  1
  Ti  Ti7  1  0.881624  0.355127  0.881624  1
  Ti  Ti8  1  0.355127  0.881624  0.881624  1
  Ti  Ti9  1  0.881624  0.881624  0.881624  1
  Al  Al10  1  0.119433  0.119433  0.641704  1
  Al  Al11  1  0.119433  0.641704  0.119433  1
  Al  Al12  1  0.641704  0.119433  0.119433  1
  Al  Al13  1  0.119433  0.119433  0.119433  1
  Al  Al14  1  0.665141  0.665141  0.004577  1
  Al  Al15  1  0.665141  0.004577  0.665141  1
  Al  Al16  1  0.004577  0.665141  0.665141  1
  Al  Al17  1  0.665141  0.665141  0.665141  1
  Al  Al18  1  0.334383  0.334383  0.996851  1
  Al  Al19  1  0.334383  0.996851  0.334383  1
  Al  Al20  1  0.996851  0.334383  0.334383  1
  Al  Al21  1  0.334383  0.334383  0.334383  1
  Pt  Pt22  1  0.998946  0.998946  0.501054  1
  Pt  Pt23  1  0.501054  0.998946  0.501054  1
  Pt  Pt24  1  0.998946  0.501054  0.501054  1
  Pt  Pt25  1  0.501054  0.501054  0.998946  1
  Pt  Pt26  1  0.998946  0.501054  0.998946  1
  Pt  Pt27  1  0.501054  0.998946  0.998946  1
  Rh  Rh28  1  0.000000  0.000000  0.000000  1
