# generated using pymatgen
data_Pm4V(FeO4)3
_symmetry_space_group_name_H-M   'P 1'
_cell_length_a   5.45891880
_cell_length_b   5.70226755
_cell_length_c   7.82286133
_cell_angle_alpha   89.96695604
_cell_angle_beta   90.00545332
_cell_angle_gamma   89.66712190
_symmetry_Int_Tables_number   1
_chemical_formula_structural   Pm4V(FeO4)3
_chemical_formula_sum   'Pm4 V1 Fe3 O12'
_cell_volume   243.50756217
_cell_formula_units_Z   1
loop_
 _symmetry_equiv_pos_site_id
 _symmetry_equiv_pos_as_xyz
  1  'x, y, z'
loop_
 _atom_site_type_symbol
 _atom_site_label
 _atom_site_symmetry_multiplicity
 _atom_site_fract_x
 _atom_site_fract_y
 _atom_site_fract_z
 _atom_site_occupancy
  Pm  Pm0  1  0.983236  0.062224  0.249955  1
  Pm  Pm1  1  0.515452  0.561243  0.250180  1
  Pm  Pm2  1  0.484547  0.438757  0.749820  1
  Pm  Pm3  1  0.016763  0.937776  0.750045  1
  V  V4  1  0.000000  0.500000  0.499999  1
  Fe  Fe5  1  0.500001  0.000000  0.000000  1
  Fe  Fe6  1  0.000000  0.500000  0.000000  1
  Fe  Fe7  1  0.500001  0.000000  0.499999  1
  O  O8  1  0.699640  0.300498  0.052121  1
  O  O9  1  0.800776  0.800702  0.052882  1
  O  O10  1  0.099372  0.468508  0.248857  1
  O  O11  1  0.399919  0.968531  0.249886  1
  O  O12  1  0.695681  0.296346  0.447723  1
  O  O13  1  0.802026  0.797581  0.448441  1
  O  O14  1  0.197974  0.202418  0.551559  1
  O  O15  1  0.304320  0.703654  0.552277  1
  O  O16  1  0.600080  0.031467  0.750114  1
  O  O17  1  0.900629  0.531492  0.751143  1
  O  O18  1  0.199224  0.199297  0.947118  1
  O  O19  1  0.300361  0.699502  0.947879  1
