# generated using pymatgen
data_TbHo2Er3(SbO7)2
_symmetry_space_group_name_H-M   'P 1'
_cell_length_a   6.44168128
_cell_length_b   6.43926196
_cell_length_c   7.49301400
_cell_angle_alpha   90.01465061
_cell_angle_beta   89.98486024
_cell_angle_gamma   109.35153891
_symmetry_Int_Tables_number   1
_chemical_formula_structural   TbHo2Er3(SbO7)2
_chemical_formula_sum   'Tb1 Ho2 Er3 Sb2 O14'
_cell_volume   293.24813289
_cell_formula_units_Z   1
loop_
 _symmetry_equiv_pos_site_id
 _symmetry_equiv_pos_as_xyz
  1  'x, y, z'
loop_
 _atom_site_type_symbol
 _atom_site_label
 _atom_site_symmetry_multiplicity
 _atom_site_fract_x
 _atom_site_fract_y
 _atom_site_fract_z
 _atom_site_occupancy
  Tb  Tb0  1  0.499959  0.499848  0.000164  1
  Ho  Ho1  1  0.499963  0.499794  0.499810  1
  Ho  Ho2  1  0.531593  0.000524  0.749318  1
  Er  Er3  1  0.001097  0.531695  0.250716  1
  Er  Er4  1  0.468213  0.998985  0.250703  1
  Er  Er5  1  0.998966  0.468361  0.749307  1
  Sb  Sb6  1  0.999902  0.000009  0.499708  1
  Sb  Sb7  1  0.999900  0.000009  0.000298  1
  O  O8  1  0.676801  0.927156  0.469113  1
  O  O9  1  0.927503  0.676763  0.530203  1
  O  O10  1  0.676563  0.927676  0.030928  1
  O  O11  1  0.928018  0.676543  0.969738  1
  O  O12  1  0.323306  0.073082  0.529523  1
  O  O13  1  0.072503  0.323418  0.469768  1
  O  O14  1  0.323518  0.072558  0.970422  1
  O  O15  1  0.072002  0.323658  0.030299  1
  O  O16  1  0.929291  0.071598  0.750079  1
  O  O17  1  0.071374  0.928424  0.249938  1
  O  O18  1  0.367585  0.630243  0.747670  1
  O  O19  1  0.631776  0.368198  0.252310  1
  O  O20  1  0.638987  0.362543  0.747891  1
  O  O21  1  0.361178  0.638913  0.252095  1
