# generated using pymatgen
data_Tb8SnAsI12
_symmetry_space_group_name_H-M   'P 1'
_cell_length_a   4.29581000
_cell_length_b   14.13537158
_cell_length_c   14.94232148
_cell_angle_alpha   90.04817017
_cell_angle_beta   90.00000000
_cell_angle_gamma   90.00000000
_symmetry_Int_Tables_number   1
_chemical_formula_structural   Tb8SnAsI12
_chemical_formula_sum   'Tb8 Sn1 As1 I12'
_cell_volume   907.34033267
_cell_formula_units_Z   1
loop_
 _symmetry_equiv_pos_site_id
 _symmetry_equiv_pos_as_xyz
  1  'x, y, z'
loop_
 _atom_site_type_symbol
 _atom_site_label
 _atom_site_symmetry_multiplicity
 _atom_site_fract_x
 _atom_site_fract_y
 _atom_site_fract_z
 _atom_site_occupancy
  Tb  Tb0  1  0.500000  0.112848  0.349242  1
  Tb  Tb1  1  0.500000  0.887152  0.650758  1
  Tb  Tb2  1  0.500000  0.620563  0.160714  1
  Tb  Tb3  1  0.500000  0.379437  0.839286  1
  Tb  Tb4  1  0.000000  0.107829  0.571728  1
  Tb  Tb5  1  0.000000  0.892171  0.428272  1
  Tb  Tb6  1  0.000000  0.620001  0.919783  1
  Tb  Tb7  1  0.000000  0.379999  0.080217  1
  Sn  Sn8  1  0.500000  0.500000  0.000000  1
  As  As9  1  0.500000  0.000000  0.500000  1
  I  I10  1  0.500000  0.240861  0.164861  1
  I  I11  1  0.500000  0.759139  0.835139  1
  I  I12  1  0.500000  0.749121  0.342077  1
  I  I13  1  0.500000  0.250879  0.657923  1
  I  I14  1  0.000000  0.254938  0.414514  1
  I  I15  1  0.000000  0.745062  0.585486  1
  I  I16  1  0.000000  0.759743  0.086813  1
  I  I17  1  0.000000  0.240257  0.913187  1
  I  I18  1  0.000000  0.999600  0.244376  1
  I  I19  1  0.000000  0.000400  0.755624  1
  I  I20  1  0.000000  0.500162  0.260684  1
  I  I21  1  0.000000  0.499838  0.739316  1
