# generated using pymatgen
data_Tb3Nd16CdIr12
_symmetry_space_group_name_H-M   'P 1'
_cell_length_a   11.21938500
_cell_length_b   11.21938500
_cell_length_c   6.42855500
_cell_angle_alpha   90.00000000
_cell_angle_beta   90.00000000
_cell_angle_gamma   90.00000000
_symmetry_Int_Tables_number   1
_chemical_formula_structural   Tb3Nd16CdIr12
_chemical_formula_sum   'Tb3 Nd16 Cd1 Ir12'
_cell_volume   809.19178778
_cell_formula_units_Z   1
loop_
 _symmetry_equiv_pos_site_id
 _symmetry_equiv_pos_as_xyz
  1  'x, y, z'
loop_
 _atom_site_type_symbol
 _atom_site_label
 _atom_site_symmetry_multiplicity
 _atom_site_fract_x
 _atom_site_fract_y
 _atom_site_fract_z
 _atom_site_occupancy
  Tb  Tb0  1  0.000000  0.000000  0.000000  1
  Tb  Tb1  1  0.500000  0.500000  0.000000  1
  Tb  Tb2  1  0.500000  0.500000  0.500000  1
  Nd  Nd3  1  0.280239  0.084724  0.381895  1
  Nd  Nd4  1  0.289762  0.911681  0.880911  1
  Nd  Nd5  1  0.710238  0.088319  0.880911  1
  Nd  Nd6  1  0.719761  0.915276  0.381895  1
  Nd  Nd7  1  0.589050  0.790148  0.883198  1
  Nd  Nd8  1  0.587066  0.209681  0.379655  1
  Nd  Nd9  1  0.412934  0.790319  0.379655  1
  Nd  Nd10  1  0.410950  0.209852  0.883198  1
  Nd  Nd11  1  0.209681  0.412934  0.620345  1
  Nd  Nd12  1  0.209852  0.589050  0.116802  1
  Nd  Nd13  1  0.790148  0.410950  0.116802  1
  Nd  Nd14  1  0.790319  0.587066  0.620345  1
  Nd  Nd15  1  0.911681  0.710238  0.119089  1
  Nd  Nd16  1  0.915276  0.280239  0.618105  1
  Nd  Nd17  1  0.084724  0.719761  0.618105  1
  Nd  Nd18  1  0.088319  0.289762  0.119089  1
  Cd  Cd19  1  0.000000  0.000000  0.500000  1
  Ir  Ir20  1  0.847280  0.154621  0.240901  1
  Ir  Ir21  1  0.845379  0.847280  0.759099  1
  Ir  Ir22  1  0.154621  0.152720  0.759099  1
  Ir  Ir23  1  0.152720  0.845379  0.240901  1
  Ir  Ir24  1  0.651212  0.350015  0.746824  1
  Ir  Ir25  1  0.649985  0.651212  0.253176  1
  Ir  Ir26  1  0.350015  0.348788  0.253176  1
  Ir  Ir27  1  0.348788  0.649985  0.746824  1
  Ir  Ir28  1  0.500000  0.000000  0.122446  1
  Ir  Ir29  1  0.500000  0.000000  0.616237  1
  Ir  Ir30  1  0.000000  0.500000  0.877554  1
  Ir  Ir31  1  0.000000  0.500000  0.383763  1
