# generated using pymatgen
data_SrCaPu2Cl12
_symmetry_space_group_name_H-M   'P 1'
_cell_length_a   6.78025500
_cell_length_b   6.78025382
_cell_length_c   12.78022600
_cell_angle_alpha   90.00000000
_cell_angle_beta   90.00000000
_cell_angle_gamma   120.00000088
_symmetry_Int_Tables_number   1
_chemical_formula_structural   SrCaPu2Cl12
_chemical_formula_sum   'Sr1 Ca1 Pu2 Cl12'
_cell_volume   508.81644734
_cell_formula_units_Z   1
loop_
 _symmetry_equiv_pos_site_id
 _symmetry_equiv_pos_as_xyz
  1  'x, y, z'
loop_
 _atom_site_type_symbol
 _atom_site_label
 _atom_site_symmetry_multiplicity
 _atom_site_fract_x
 _atom_site_fract_y
 _atom_site_fract_z
 _atom_site_occupancy
  Sr  Sr0  1  0.666667  0.333333  0.750000  1
  Ca  Ca1  1  0.333333  0.666667  0.250000  1
  Pu  Pu2  1  0.000000  0.000000  0.494002  1
  Pu  Pu3  1  0.000000  0.000000  0.005998  1
  Cl  Cl4  1  0.685918  0.989574  0.615360  1
  Cl  Cl5  1  0.312096  0.991706  0.376905  1
  Cl  Cl6  1  0.010426  0.696344  0.615360  1
  Cl  Cl7  1  0.685918  0.696344  0.884640  1
  Cl  Cl8  1  0.008294  0.320390  0.376905  1
  Cl  Cl9  1  0.312096  0.320390  0.123095  1
  Cl  Cl10  1  0.303656  0.314082  0.615360  1
  Cl  Cl11  1  0.010426  0.314082  0.884640  1
  Cl  Cl12  1  0.679610  0.687904  0.376905  1
  Cl  Cl13  1  0.008294  0.687904  0.123095  1
  Cl  Cl14  1  0.303656  0.989574  0.884640  1
  Cl  Cl15  1  0.679610  0.991706  0.123095  1
