# generated using pymatgen
data_Ho20IrRu11
_symmetry_space_group_name_H-M   'P 1'
_cell_length_a   10.76794243
_cell_length_b   10.76794243
_cell_length_c   6.34213149
_cell_angle_alpha   89.96828857
_cell_angle_beta   89.96828857
_cell_angle_gamma   90.00689160
_symmetry_Int_Tables_number   1
_chemical_formula_structural   Ho20IrRu11
_chemical_formula_sum   'Ho20 Ir1 Ru11'
_cell_volume   735.36093607
_cell_formula_units_Z   1
loop_
 _symmetry_equiv_pos_site_id
 _symmetry_equiv_pos_as_xyz
  1  'x, y, z'
loop_
 _atom_site_type_symbol
 _atom_site_label
 _atom_site_symmetry_multiplicity
 _atom_site_fract_x
 _atom_site_fract_y
 _atom_site_fract_z
 _atom_site_occupancy
  Ho  Ho0  1  0.292210  0.086259  0.376576  1
  Ho  Ho1  1  0.292227  0.914622  0.876769  1
  Ho  Ho2  1  0.707951  0.086476  0.876635  1
  Ho  Ho3  1  0.707982  0.913570  0.376545  1
  Ho  Ho4  1  0.586511  0.792642  0.876723  1
  Ho  Ho5  1  0.586319  0.207279  0.376484  1
  Ho  Ho6  1  0.414048  0.792954  0.376485  1
  Ho  Ho7  1  0.413621  0.208082  0.876612  1
  Ho  Ho8  1  0.207358  0.413489  0.623277  1
  Ho  Ho9  1  0.207046  0.585952  0.123515  1
  Ho  Ho10  1  0.792721  0.413681  0.123516  1
  Ho  Ho11  1  0.791918  0.586379  0.623388  1
  Ho  Ho12  1  0.913741  0.707790  0.123424  1
  Ho  Ho13  1  0.913524  0.292049  0.623365  1
  Ho  Ho14  1  0.085378  0.707773  0.623231  1
  Ho  Ho15  1  0.086430  0.292018  0.123455  1
  Ho  Ho16  1  0.000113  0.000201  0.500009  1
  Ho  Ho17  1  0.999799  0.999887  0.999991  1
  Ho  Ho18  1  0.501229  0.499478  0.000878  1
  Ho  Ho19  1  0.500522  0.498771  0.499122  1
  Ir  Ir20  1  0.346187  0.653813  0.750000  1
  Ru  Ru21  1  0.847035  0.152965  0.250000  1
  Ru  Ru22  1  0.846940  0.846716  0.749729  1
  Ru  Ru23  1  0.153284  0.153060  0.750271  1
  Ru  Ru24  1  0.154097  0.845903  0.250000  1
  Ru  Ru25  1  0.652697  0.347303  0.750000  1
  Ru  Ru26  1  0.652066  0.653277  0.250271  1
  Ru  Ru27  1  0.346723  0.347934  0.249729  1
  Ru  Ru28  1  0.499998  0.999523  0.124131  1
  Ru  Ru29  1  0.499989  0.000142  0.624712  1
  Ru  Ru30  1  0.999858  0.500011  0.875288  1
  Ru  Ru31  1  0.000477  0.500002  0.375869  1
