# generated using pymatgen
data_TaBrF8
_symmetry_space_group_name_H-M   'P 1'
_cell_length_a   5.99039100
_cell_length_b   10.24253200
_cell_length_c   11.23724100
_cell_angle_alpha   90.00000000
_cell_angle_beta   90.00000000
_cell_angle_gamma   90.00000000
_symmetry_Int_Tables_number   1
_chemical_formula_structural   TaBrF8
_chemical_formula_sum   'Ta4 Br4 F32'
_cell_volume   689.48082844
_cell_formula_units_Z   4
loop_
 _symmetry_equiv_pos_site_id
 _symmetry_equiv_pos_as_xyz
  1  'x, y, z'
loop_
 _atom_site_type_symbol
 _atom_site_label
 _atom_site_symmetry_multiplicity
 _atom_site_fract_x
 _atom_site_fract_y
 _atom_site_fract_z
 _atom_site_occupancy
  Ta  Ta0  1  0.885636  0.000000  0.250000  1
  Ta  Ta1  1  0.114364  0.500000  0.250000  1
  Ta  Ta2  1  0.114364  0.000000  0.750000  1
  Ta  Ta3  1  0.885636  0.500000  0.750000  1
  Br  Br4  1  0.500000  0.750000  0.051840  1
  Br  Br5  1  0.500000  0.250000  0.448160  1
  Br  Br6  1  0.500000  0.250000  0.948160  1
  Br  Br7  1  0.500000  0.750000  0.551840  1
  F  F8  1  0.099655  0.386237  0.814613  1
  F  F9  1  0.099655  0.613763  0.685387  1
  F  F10  1  0.900345  0.886237  0.685387  1
  F  F11  1  0.900345  0.113763  0.814613  1
  F  F12  1  0.900345  0.613763  0.185387  1
  F  F13  1  0.900345  0.386237  0.314613  1
  F  F14  1  0.099655  0.113763  0.314613  1
  F  F15  1  0.099655  0.886237  0.185387  1
  F  F16  1  0.637953  0.884809  0.186109  1
  F  F17  1  0.637953  0.115191  0.313891  1
  F  F18  1  0.362047  0.384809  0.313891  1
  F  F19  1  0.362047  0.615191  0.186109  1
  F  F20  1  0.362047  0.115191  0.813891  1
  F  F21  1  0.362047  0.884809  0.686109  1
  F  F22  1  0.637953  0.615191  0.686109  1
  F  F23  1  0.637953  0.384809  0.813891  1
  F  F24  1  0.615836  0.856321  0.943186  1
  F  F25  1  0.615836  0.143679  0.556814  1
  F  F26  1  0.384164  0.356321  0.556814  1
  F  F27  1  0.384164  0.643679  0.943186  1
  F  F28  1  0.384164  0.143679  0.056814  1
  F  F29  1  0.384164  0.856321  0.443186  1
  F  F30  1  0.615836  0.643679  0.443186  1
  F  F31  1  0.615836  0.356321  0.056814  1
  F  F32  1  0.856115  0.902517  0.392945  1
  F  F33  1  0.856115  0.097483  0.107055  1
  F  F34  1  0.143885  0.402517  0.107055  1
  F  F35  1  0.143885  0.597483  0.392945  1
  F  F36  1  0.143885  0.097483  0.607055  1
  F  F37  1  0.143885  0.902517  0.892945  1
  F  F38  1  0.856115  0.597483  0.892945  1
  F  F39  1  0.856115  0.402517  0.607055  1
