# generated using pymatgen
data_Dy4Tm8Ni4SnAu
_symmetry_space_group_name_H-M   'P 1'
_cell_length_a   8.29325190
_cell_length_b   8.29325186
_cell_length_c   8.29325234
_cell_angle_alpha   112.44569329
_cell_angle_beta   108.99863662
_cell_angle_gamma   107.01648508
_symmetry_Int_Tables_number   1
_chemical_formula_structural   Dy4Tm8Ni4SnAu
_chemical_formula_sum   'Dy4 Tm8 Ni4 Sn1 Au1'
_cell_volume   438.07236293
_cell_formula_units_Z   1
loop_
 _symmetry_equiv_pos_site_id
 _symmetry_equiv_pos_as_xyz
  1  'x, y, z'
loop_
 _atom_site_type_symbol
 _atom_site_label
 _atom_site_symmetry_multiplicity
 _atom_site_fract_x
 _atom_site_fract_y
 _atom_site_fract_z
 _atom_site_occupancy
  Dy  Dy0  1  0.181293  0.204392  0.385686  1
  Dy  Dy1  1  0.818707  0.204392  0.023098  1
  Dy  Dy2  1  0.181293  0.795608  0.976902  1
  Dy  Dy3  1  0.818707  0.795608  0.614314  1
  Tm  Tm4  1  0.019847  0.719426  0.300420  1
  Tm  Tm5  1  0.980153  0.280574  0.699580  1
  Tm  Tm6  1  0.580994  0.280574  0.300420  1
  Tm  Tm7  1  0.419006  0.719426  0.699580  1
  Tm  Tm8  1  0.675444  0.869041  0.193597  1
  Tm  Tm9  1  0.324556  0.518152  0.193597  1
  Tm  Tm10  1  0.324556  0.130959  0.806403  1
  Tm  Tm11  1  0.675444  0.481848  0.806403  1
  Ni  Ni12  1  0.634783  0.500000  0.134783  1
  Ni  Ni13  1  0.365217  0.500000  0.865217  1
  Ni  Ni14  1  0.871640  0.871640  0.000000  1
  Ni  Ni15  1  0.128360  0.128360  0.000000  1
  Sn  Sn16  1  0.500000  0.000000  0.500000  1
  Au  Au17  1  0.000000  0.500000  0.500000  1
