# generated using pymatgen
data_Rb2Cu(S4O13)2
_symmetry_space_group_name_H-M   'P 1'
_cell_length_a   7.70912762
_cell_length_b   8.83570665
_cell_length_c   9.50785934
_cell_angle_alpha   107.93558470
_cell_angle_beta   89.10761264
_cell_angle_gamma   107.05958053
_symmetry_Int_Tables_number   1
_chemical_formula_structural   Rb2Cu(S4O13)2
_chemical_formula_sum   'Rb2 Cu1 S8 O26'
_cell_volume   587.05611743
_cell_formula_units_Z   1
loop_
 _symmetry_equiv_pos_site_id
 _symmetry_equiv_pos_as_xyz
  1  'x, y, z'
loop_
 _atom_site_type_symbol
 _atom_site_label
 _atom_site_symmetry_multiplicity
 _atom_site_fract_x
 _atom_site_fract_y
 _atom_site_fract_z
 _atom_site_occupancy
  Rb  Rb0  1  0.130664  0.265395  0.882448  1
  Rb  Rb1  1  0.869336  0.734605  0.117552  1
  Cu  Cu2  1  0.500000  0.500000  0.500000  1
  S  S3  1  0.665953  0.361439  0.706645  1
  S  S4  1  0.334047  0.638561  0.293355  1
  S  S5  1  0.875230  0.190481  0.483272  1
  S  S6  1  0.124770  0.809519  0.516728  1
  S  S7  1  0.388819  0.157179  0.227381  1
  S  S8  1  0.611181  0.842821  0.772619  1
  S  S9  1  0.787020  0.223442  0.196251  1
  S  S10  1  0.212980  0.776558  0.803749  1
  O  O11  1  0.698543  0.185718  0.570251  1
  O  O12  1  0.301457  0.814282  0.429749  1
  O  O13  1  0.687984  0.481917  0.622474  1
  O  O14  1  0.312016  0.518083  0.377526  1
  O  O15  1  0.811538  0.415362  0.820692  1
  O  O16  1  0.188462  0.584638  0.179308  1
  O  O17  1  0.851946  0.301177  0.376107  1
  O  O18  1  0.148054  0.698823  0.623893  1
  O  O19  1  0.035798  0.293123  0.577913  1
  O  O20  1  0.964202  0.706877  0.422087  1
  O  O21  1  0.482996  0.289037  0.736745  1
  O  O22  1  0.517004  0.710963  0.263255  1
  O  O23  1  0.854480  0.022958  0.393769  1
  O  O24  1  0.145520  0.977042  0.606231  1
  O  O25  1  0.433181  0.259635  0.385781  1
  O  O26  1  0.566819  0.740365  0.614219  1
  O  O27  1  0.593852  0.096536  0.187629  1
  O  O28  1  0.406148  0.903464  0.812371  1
  O  O29  1  0.780082  0.367655  0.161498  1
  O  O30  1  0.219918  0.632345  0.838502  1
  O  O31  1  0.903258  0.127677  0.125123  1
  O  O32  1  0.096742  0.872323  0.874877  1
  O  O33  1  0.377471  0.244982  0.125195  1
  O  O34  1  0.622529  0.755018  0.874805  1
  O  O35  1  0.264301  0.994190  0.205899  1
  O  O36  1  0.735699  0.005810  0.794101  1
