# generated using pymatgen
data_NaSrLiPt3
_symmetry_space_group_name_H-M   'P 1'
_cell_length_a   5.53310687
_cell_length_b   5.53310718
_cell_length_c   5.35552156
_cell_angle_alpha   58.89689357
_cell_angle_beta   58.89690849
_cell_angle_gamma   59.99999166
_symmetry_Int_Tables_number   1
_chemical_formula_structural   NaSrLiPt3
_chemical_formula_sum   'Na1 Sr1 Li1 Pt3'
_cell_volume   113.96692870
_cell_formula_units_Z   1
loop_
 _symmetry_equiv_pos_site_id
 _symmetry_equiv_pos_as_xyz
  1  'x, y, z'
loop_
 _atom_site_type_symbol
 _atom_site_label
 _atom_site_symmetry_multiplicity
 _atom_site_fract_x
 _atom_site_fract_y
 _atom_site_fract_z
 _atom_site_occupancy
  Na  Na0  1  0.251050  0.251050  0.246848  1
  Sr  Sr1  1  0.004635  0.004635  0.986094  1
  Li  Li2  1  0.621925  0.621925  0.134225  1
  Pt  Pt3  1  0.624103  0.124182  0.627611  1
  Pt  Pt4  1  0.124182  0.624103  0.627611  1
  Pt  Pt5  1  0.624103  0.624103  0.627611  1
