# generated using pymatgen
data_Li4La3NdAs8
_symmetry_space_group_name_H-M   'P 1'
_cell_length_a   4.01067300
_cell_length_b   4.06811250
_cell_length_c   21.62500331
_cell_angle_alpha   89.98132205
_cell_angle_beta   90.00000000
_cell_angle_gamma   90.00000000
_symmetry_Int_Tables_number   1
_chemical_formula_structural   Li4La3NdAs8
_chemical_formula_sum   'Li4 La3 Nd1 As8'
_cell_volume   352.83070142
_cell_formula_units_Z   1
loop_
 _symmetry_equiv_pos_site_id
 _symmetry_equiv_pos_as_xyz
  1  'x, y, z'
loop_
 _atom_site_type_symbol
 _atom_site_label
 _atom_site_symmetry_multiplicity
 _atom_site_fract_x
 _atom_site_fract_y
 _atom_site_fract_z
 _atom_site_occupancy
  Li  Li0  1  0.750000  0.725746  0.249477  1
  Li  Li1  1  0.250000  0.225771  0.249559  1
  Li  Li2  1  0.750000  0.774205  0.751448  1
  Li  Li3  1  0.250000  0.274313  0.751537  1
  La  La4  1  0.250000  0.729121  0.116815  1
  La  La5  1  0.750000  0.227946  0.381888  1
  La  La6  1  0.250000  0.772032  0.618530  1
  Nd  Nd7  1  0.750000  0.271348  0.882585  1
  As  As8  1  0.750000  0.226698  0.171890  1
  As  As9  1  0.250000  0.726125  0.326973  1
  As  As10  1  0.750000  0.274116  0.673354  1
  As  As11  1  0.250000  0.773913  0.829592  1
  As  As12  1  0.250000  0.202882  0.000222  1
  As  As13  1  0.750000  0.702110  0.497888  1
  As  As14  1  0.250000  0.297647  0.502323  1
  As  As15  1  0.750000  0.796026  0.995917  1
