# generated using pymatgen
data_Tb15Dy(InRu)4
_symmetry_space_group_name_H-M   'P 1'
_cell_length_a   9.69666947
_cell_length_b   9.69666936
_cell_length_c   9.69666910
_cell_angle_alpha   59.76295947
_cell_angle_beta   59.76296038
_cell_angle_gamma   59.76296207
_symmetry_Int_Tables_number   1
_chemical_formula_structural   Tb15Dy(InRu)4
_chemical_formula_sum   'Tb15 Dy1 In4 Ru4'
_cell_volume   641.22282042
_cell_formula_units_Z   1
loop_
 _symmetry_equiv_pos_site_id
 _symmetry_equiv_pos_as_xyz
  1  'x, y, z'
loop_
 _atom_site_type_symbol
 _atom_site_label
 _atom_site_symmetry_multiplicity
 _atom_site_fract_x
 _atom_site_fract_y
 _atom_site_fract_z
 _atom_site_occupancy
  Tb  Tb0  1  0.441177  0.441177  0.060266  1
  Tb  Tb1  1  0.057627  0.442990  0.057627  1
  Tb  Tb2  1  0.442990  0.057627  0.057627  1
  Tb  Tb3  1  0.057627  0.057627  0.442990  1
  Tb  Tb4  1  0.441177  0.060266  0.441177  1
  Tb  Tb5  1  0.060266  0.441177  0.441177  1
  Tb  Tb6  1  0.808056  0.808056  0.192007  1
  Tb  Tb7  1  0.192415  0.810223  0.192415  1
  Tb  Tb8  1  0.810223  0.192415  0.192415  1
  Tb  Tb9  1  0.192415  0.192415  0.810223  1
  Tb  Tb10  1  0.808056  0.192007  0.808056  1
  Tb  Tb11  1  0.192007  0.808056  0.808056  1
  Tb  Tb12  1  0.652043  0.652043  0.042055  1
  Tb  Tb13  1  0.652043  0.042055  0.652043  1
  Tb  Tb14  1  0.042055  0.652043  0.652043  1
  Dy  Dy15  1  0.651688  0.651688  0.651688  1
  In  In16  1  0.417827  0.417827  0.747457  1
  In  In17  1  0.417827  0.747457  0.417827  1
  In  In18  1  0.747457  0.417827  0.417827  1
  In  In19  1  0.418668  0.418668  0.418668  1
  Ru  Ru20  1  0.859221  0.859221  0.416302  1
  Ru  Ru21  1  0.859221  0.416302  0.859221  1
  Ru  Ru22  1  0.416302  0.859221  0.859221  1
  Ru  Ru23  1  0.861615  0.861615  0.861615  1
