# generated using pymatgen
data_Ba2SiPt8
_symmetry_space_group_name_H-M   'P 1'
_cell_length_a   4.28209600
_cell_length_b   9.62063460
_cell_length_c   9.62063523
_cell_angle_alpha   146.03648177
_cell_angle_beta   90.00000000
_cell_angle_gamma   90.00000000
_symmetry_Int_Tables_number   1
_chemical_formula_structural   Ba2SiPt8
_chemical_formula_sum   'Ba2 Si1 Pt8'
_cell_volume   221.41919614
_cell_formula_units_Z   1
loop_
 _symmetry_equiv_pos_site_id
 _symmetry_equiv_pos_as_xyz
  1  'x, y, z'
loop_
 _atom_site_type_symbol
 _atom_site_label
 _atom_site_symmetry_multiplicity
 _atom_site_fract_x
 _atom_site_fract_y
 _atom_site_fract_z
 _atom_site_occupancy
  Ba  Ba0  1  0.500000  0.615653  0.374750  1
  Ba  Ba1  1  0.500000  0.374750  0.615653  1
  Si  Si2  1  0.000000  0.216657  0.216657  1
  Pt  Pt3  1  0.000000  0.887497  0.108541  1
  Pt  Pt4  1  0.500000  0.792102  0.194292  1
  Pt  Pt5  1  0.000000  0.992501  0.491898  1
  Pt  Pt6  1  0.000000  0.637033  0.637033  1
  Pt  Pt7  1  0.500000  0.194292  0.792102  1
  Pt  Pt8  1  0.000000  0.108541  0.887497  1
  Pt  Pt9  1  0.000000  0.491898  0.992501  1
  Pt  Pt10  1  0.500000  0.002660  0.002660  1
