# generated using pymatgen
data_Zr10AlGa3Bi4
_symmetry_space_group_name_H-M   'P 1'
_cell_length_a   8.71392306
_cell_length_b   8.73140637
_cell_length_c   5.91858400
_cell_angle_alpha   90.00000000
_cell_angle_beta   90.00000000
_cell_angle_gamma   119.80892054
_symmetry_Int_Tables_number   1
_chemical_formula_structural   Zr10AlGa3Bi4
_chemical_formula_sum   'Zr10 Al1 Ga3 Bi4'
_cell_volume   390.73234436
_cell_formula_units_Z   1
loop_
 _symmetry_equiv_pos_site_id
 _symmetry_equiv_pos_as_xyz
  1  'x, y, z'
loop_
 _atom_site_type_symbol
 _atom_site_label
 _atom_site_symmetry_multiplicity
 _atom_site_fract_x
 _atom_site_fract_y
 _atom_site_fract_z
 _atom_site_occupancy
  Zr  Zr0  1  0.668818  0.328591  0.008731  1
  Zr  Zr1  1  0.327334  0.667506  0.008909  1
  Zr  Zr2  1  0.327334  0.667506  0.491091  1
  Zr  Zr3  1  0.668818  0.328591  0.491269  1
  Zr  Zr4  1  0.740533  0.740387  0.750000  1
  Zr  Zr5  1  0.256445  0.997651  0.750000  1
  Zr  Zr6  1  0.997525  0.256565  0.750000  1
  Zr  Zr7  1  0.265542  0.267996  0.250000  1
  Zr  Zr8  1  0.733940  0.019484  0.250000  1
  Zr  Zr9  1  0.016282  0.729518  0.250000  1
  Al  Al10  1  0.387019  0.002427  0.250000  1
  Ga  Ga11  1  0.998619  0.997544  0.017474  1
  Ga  Ga12  1  0.998619  0.997544  0.482526  1
  Ga  Ga13  1  0.002845  0.386366  0.250000  1
  Bi  Bi14  1  0.390563  0.390870  0.750000  1
  Bi  Bi15  1  0.602260  0.997840  0.750000  1
  Bi  Bi16  1  0.997498  0.603417  0.750000  1
  Bi  Bi17  1  0.620004  0.620200  0.250000  1
