# generated using pymatgen
data_La8MgZn7(PtRh3)2
_symmetry_space_group_name_H-M   'P 1'
_cell_length_a   4.05772600
_cell_length_b   7.59767330
_cell_length_c   16.81077441
_cell_angle_alpha   89.89285224
_cell_angle_beta   90.00000000
_cell_angle_gamma   90.00000000
_symmetry_Int_Tables_number   1
_chemical_formula_structural   La8MgZn7(PtRh3)2
_chemical_formula_sum   'La8 Mg1 Zn7 Pt2 Rh6'
_cell_volume   518.26310562
_cell_formula_units_Z   1
loop_
 _symmetry_equiv_pos_site_id
 _symmetry_equiv_pos_as_xyz
  1  'x, y, z'
loop_
 _atom_site_type_symbol
 _atom_site_label
 _atom_site_symmetry_multiplicity
 _atom_site_fract_x
 _atom_site_fract_y
 _atom_site_fract_z
 _atom_site_occupancy
  La  La0  1  0.750000  0.323735  0.444417  1
  La  La1  1  0.250000  0.050426  0.714867  1
  La  La2  1  0.250000  0.559871  0.781417  1
  La  La3  1  0.250000  0.674780  0.560295  1
  La  La4  1  0.750000  0.818525  0.056908  1
  La  La5  1  0.250000  0.173403  0.941105  1
  La  La6  1  0.750000  0.460546  0.216754  1
  La  La7  1  0.750000  0.935811  0.289526  1
  Mg  Mg8  1  0.250000  0.124555  0.149933  1
  Zn  Zn9  1  0.250000  0.995930  0.443779  1
  Zn  Zn10  1  0.750000  0.874924  0.849380  1
  Zn  Zn11  1  0.750000  0.999877  0.559718  1
  Zn  Zn12  1  0.250000  0.496860  0.058546  1
  Zn  Zn13  1  0.750000  0.380009  0.648218  1
  Zn  Zn14  1  0.750000  0.504946  0.938239  1
  Zn  Zn15  1  0.250000  0.620106  0.353810  1
  Pt  Pt16  1  0.750000  0.261575  0.812183  1
  Pt  Pt17  1  0.250000  0.241621  0.313445  1
  Rh  Rh18  1  0.250000  0.742361  0.933164  1
  Rh  Rh19  1  0.250000  0.240832  0.566531  1
  Rh  Rh20  1  0.250000  0.744810  0.185132  1
  Rh  Rh21  1  0.750000  0.756255  0.436159  1
  Rh  Rh22  1  0.750000  0.262924  0.061078  1
  Rh  Rh23  1  0.750000  0.755320  0.685396  1
