# generated using pymatgen
data_NdAl3Au
_symmetry_space_group_name_H-M   'P 1'
_cell_length_a   4.31310077
_cell_length_b   4.31310152
_cell_length_c   6.30021709
_cell_angle_alpha   69.98306270
_cell_angle_beta   69.98305970
_cell_angle_gamma   89.99998816
_symmetry_Int_Tables_number   1
_chemical_formula_structural   NdAl3Au
_chemical_formula_sum   'Nd1 Al3 Au1'
_cell_volume   102.55432885
_cell_formula_units_Z   1
loop_
 _symmetry_equiv_pos_site_id
 _symmetry_equiv_pos_as_xyz
  1  'x, y, z'
loop_
 _atom_site_type_symbol
 _atom_site_label
 _atom_site_symmetry_multiplicity
 _atom_site_fract_x
 _atom_site_fract_y
 _atom_site_fract_z
 _atom_site_occupancy
  Nd  Nd0  1  0.986432  0.986432  0.027136  1
  Al  Al1  1  0.747915  0.247915  0.504169  1
  Al  Al2  1  0.247915  0.747915  0.504169  1
  Al  Al3  1  0.395774  0.395774  0.208454  1
  Au  Au4  1  0.621964  0.621964  0.756070  1
