# generated using pymatgen
data_Tb2Bi5SbO14
_symmetry_space_group_name_H-M   'P 1'
_cell_length_a   6.59106174
_cell_length_b   6.83353783
_cell_length_c   7.77545502
_cell_angle_alpha   106.10688583
_cell_angle_beta   89.93699579
_cell_angle_gamma   99.18389023
_symmetry_Int_Tables_number   1
_chemical_formula_structural   Tb2Bi5SbO14
_chemical_formula_sum   'Tb2 Bi5 Sb1 O14'
_cell_volume   331.80399876
_cell_formula_units_Z   1
loop_
 _symmetry_equiv_pos_site_id
 _symmetry_equiv_pos_as_xyz
  1  'x, y, z'
loop_
 _atom_site_type_symbol
 _atom_site_label
 _atom_site_symmetry_multiplicity
 _atom_site_fract_x
 _atom_site_fract_y
 _atom_site_fract_z
 _atom_site_occupancy
  Tb  Tb0  1  0.458605  0.002414  0.243865  1
  Tb  Tb1  1  0.541395  0.997586  0.756135  1
  Bi  Bi2  1  0.000000  0.000000  0.500000  1
  Bi  Bi3  1  0.257310  0.513340  0.880679  1
  Bi  Bi4  1  0.742690  0.486660  0.119321  1
  Bi  Bi5  1  0.725467  0.466299  0.609092  1
  Bi  Bi6  1  0.274533  0.533701  0.390908  1
  Sb  Sb7  1  0.000000  0.000000  0.000000  1
  O  O8  1  0.462755  0.655507  0.179810  1
  O  O9  1  0.537245  0.344493  0.820190  1
  O  O10  1  0.289495  0.950434  0.951287  1
  O  O11  1  0.710505  0.049566  0.048713  1
  O  O12  1  0.299238  0.918797  0.506838  1
  O  O13  1  0.700762  0.081203  0.493162  1
  O  O14  1  0.531461  0.349915  0.351393  1
  O  O15  1  0.468539  0.650085  0.648607  1
  O  O16  1  0.919454  0.693173  0.969160  1
  O  O17  1  0.080546  0.306827  0.030840  1
  O  O18  1  0.100681  0.325024  0.616842  1
  O  O19  1  0.899319  0.674976  0.383158  1
  O  O20  1  0.890070  0.937951  0.743561  1
  O  O21  1  0.109930  0.062049  0.256439  1
