# generated using pymatgen
data_Tb5CeTc2
_symmetry_space_group_name_H-M   'P 1'
_cell_length_a   6.36236400
_cell_length_b   7.31049600
_cell_length_c   9.42686100
_cell_angle_alpha   90.00000000
_cell_angle_beta   90.00000000
_cell_angle_gamma   90.00000000
_symmetry_Int_Tables_number   1
_chemical_formula_structural   Tb5CeTc2
_chemical_formula_sum   'Tb10 Ce2 Tc4'
_cell_volume   438.46250360
_cell_formula_units_Z   2
loop_
 _symmetry_equiv_pos_site_id
 _symmetry_equiv_pos_as_xyz
  1  'x, y, z'
loop_
 _atom_site_type_symbol
 _atom_site_label
 _atom_site_symmetry_multiplicity
 _atom_site_fract_x
 _atom_site_fract_y
 _atom_site_fract_z
 _atom_site_occupancy
  Tb  Tb0  1  0.335613  0.678134  0.060675  1
  Tb  Tb1  1  0.164387  0.178134  0.439325  1
  Tb  Tb2  1  0.669587  0.324501  0.568571  1
  Tb  Tb3  1  0.830413  0.824501  0.931429  1
  Tb  Tb4  1  0.669587  0.324501  0.931429  1
  Tb  Tb5  1  0.830413  0.824501  0.568571  1
  Tb  Tb6  1  0.335613  0.678134  0.439325  1
  Tb  Tb7  1  0.164387  0.178134  0.060675  1
  Tb  Tb8  1  0.133103  0.459151  0.750000  1
  Tb  Tb9  1  0.366897  0.959151  0.750000  1
  Ce  Ce10  1  0.863787  0.560823  0.250000  1
  Ce  Ce11  1  0.636213  0.060823  0.250000  1
  Tc  Tc12  1  0.998353  0.860559  0.250000  1
  Tc  Tc13  1  0.501647  0.360559  0.250000  1
  Tc  Tc14  1  0.963944  0.114196  0.750000  1
  Tc  Tc15  1  0.536056  0.614196  0.750000  1
