# generated using pymatgen
data_Ba28Na16CaMgN12
_symmetry_space_group_name_H-M   'P 1'
_cell_length_a   11.43828000
_cell_length_b   11.43828045
_cell_length_c   21.49275300
_cell_angle_alpha   90.00000000
_cell_angle_beta   90.00000000
_cell_angle_gamma   120.00000448
_symmetry_Int_Tables_number   1
_chemical_formula_structural   Ba28Na16CaMgN12
_chemical_formula_sum   'Ba28 Na16 Ca1 Mg1 N12'
_cell_volume   2435.25320735
_cell_formula_units_Z   1
loop_
 _symmetry_equiv_pos_site_id
 _symmetry_equiv_pos_as_xyz
  1  'x, y, z'
loop_
 _atom_site_type_symbol
 _atom_site_label
 _atom_site_symmetry_multiplicity
 _atom_site_fract_x
 _atom_site_fract_y
 _atom_site_fract_z
 _atom_site_occupancy
  Ba  Ba0  1  0.250841  0.964097  0.950684  1
  Ba  Ba1  1  0.255270  0.963714  0.549832  1
  Ba  Ba2  1  0.331306  0.952813  0.360900  1
  Ba  Ba3  1  0.327961  0.952954  0.137436  1
  Ba  Ba4  1  0.047046  0.375006  0.137436  1
  Ba  Ba5  1  0.047187  0.378492  0.360900  1
  Ba  Ba6  1  0.036286  0.291556  0.549832  1
  Ba  Ba7  1  0.035903  0.286745  0.950684  1
  Ba  Ba8  1  0.000000  0.000000  0.149622  1
  Ba  Ba9  1  0.000000  0.000000  0.347779  1
  Ba  Ba10  1  0.000000  0.000000  0.652221  1
  Ba  Ba11  1  0.000000  0.000000  0.850378  1
  Ba  Ba12  1  0.286745  0.250841  0.049316  1
  Ba  Ba13  1  0.291556  0.255270  0.450168  1
  Ba  Ba14  1  0.375006  0.327961  0.862564  1
  Ba  Ba15  1  0.378492  0.331306  0.639100  1
  Ba  Ba16  1  0.621508  0.668694  0.360900  1
  Ba  Ba17  1  0.624994  0.672039  0.137436  1
  Ba  Ba18  1  0.708444  0.744730  0.549832  1
  Ba  Ba19  1  0.713255  0.749159  0.950684  1
  Ba  Ba20  1  0.964097  0.713255  0.049316  1
  Ba  Ba21  1  0.963714  0.708444  0.450168  1
  Ba  Ba22  1  0.952954  0.624994  0.862564  1
  Ba  Ba23  1  0.952813  0.621508  0.639100  1
  Ba  Ba24  1  0.672039  0.047046  0.862564  1
  Ba  Ba25  1  0.668694  0.047187  0.639100  1
  Ba  Ba26  1  0.749159  0.035903  0.049316  1
  Ba  Ba27  1  0.744730  0.036286  0.450168  1
  Na  Na28  1  0.312857  0.959781  0.750113  1
  Na  Na29  1  0.040219  0.353076  0.750113  1
  Na  Na30  1  0.333333  0.666667  0.009250  1
  Na  Na31  1  0.333333  0.666667  0.249899  1
  Na  Na32  1  0.333333  0.666667  0.490646  1
  Na  Na33  1  0.333333  0.666667  0.664887  1
  Na  Na34  1  0.333333  0.666667  0.835091  1
  Na  Na35  1  0.353076  0.312857  0.249887  1
  Na  Na36  1  0.646924  0.687143  0.750113  1
  Na  Na37  1  0.666667  0.333333  0.335113  1
  Na  Na38  1  0.666667  0.333333  0.509354  1
  Na  Na39  1  0.666667  0.333333  0.750101  1
  Na  Na40  1  0.666667  0.333333  0.990750  1
  Na  Na41  1  0.666667  0.333333  0.164909  1
  Na  Na42  1  0.959781  0.646924  0.249887  1
  Na  Na43  1  0.687143  0.040219  0.249887  1
  Ca  Ca44  1  0.000000  0.000000  0.500000  1
  Mg  Mg45  1  0.000000  0.000000  0.000000  1
  N  N46  1  0.164067  0.975054  0.066601  1
  N  N47  1  0.169152  0.973643  0.431333  1
  N  N48  1  0.024946  0.189014  0.066601  1
  N  N49  1  0.026357  0.195510  0.431333  1
  N  N50  1  0.195510  0.169152  0.568667  1
  N  N51  1  0.189014  0.164067  0.933399  1
  N  N52  1  0.810986  0.835933  0.066601  1
  N  N53  1  0.804490  0.830848  0.431333  1
  N  N54  1  0.975054  0.810986  0.933399  1
  N  N55  1  0.973643  0.804490  0.568667  1
  N  N56  1  0.830848  0.026357  0.568667  1
  N  N57  1  0.835933  0.024946  0.933399  1
