# generated using pymatgen
data_Cs5Au6
_symmetry_space_group_name_H-M   'P 1'
_cell_length_a   16.09931596
_cell_length_b   16.09931570
_cell_length_c   5.59685400
_cell_angle_alpha   90.00000000
_cell_angle_beta   90.00000000
_cell_angle_gamma   161.61556271
_symmetry_Int_Tables_number   1
_chemical_formula_structural   Cs5Au6
_chemical_formula_sum   'Cs5 Au6'
_cell_volume   457.51834809
_cell_formula_units_Z   1
loop_
 _symmetry_equiv_pos_site_id
 _symmetry_equiv_pos_as_xyz
  1  'x, y, z'
loop_
 _atom_site_type_symbol
 _atom_site_label
 _atom_site_symmetry_multiplicity
 _atom_site_fract_x
 _atom_site_fract_y
 _atom_site_fract_z
 _atom_site_occupancy
  Cs  Cs0  1  0.000000  0.000000  0.000000  1
  Cs  Cs1  1  0.615110  0.384890  0.000000  1
  Cs  Cs2  1  0.384890  0.615110  0.000000  1
  Cs  Cs3  1  0.809619  0.190380  0.500000  1
  Cs  Cs4  1  0.190380  0.809619  0.500000  1
  Au  Au5  1  0.739391  0.260609  0.000000  1
  Au  Au6  1  0.260609  0.739391  0.000000  1
  Au  Au7  1  0.928761  0.071239  0.500000  1
  Au  Au8  1  0.546844  0.453155  0.500000  1
  Au  Au9  1  0.453155  0.546844  0.500000  1
  Au  Au10  1  0.071239  0.928761  0.500000  1
