# generated using pymatgen
data_Sc3Pa5Co12
_symmetry_space_group_name_H-M   'P 1'
_cell_length_a   5.28595100
_cell_length_b   7.29114756
_cell_length_c   8.29620635
_cell_angle_alpha   89.56792612
_cell_angle_beta   90.00000000
_cell_angle_gamma   90.00000000
_symmetry_Int_Tables_number   1
_chemical_formula_structural   Sc3Pa5Co12
_chemical_formula_sum   'Sc3 Pa5 Co12'
_cell_volume   319.73208322
_cell_formula_units_Z   1
loop_
 _symmetry_equiv_pos_site_id
 _symmetry_equiv_pos_as_xyz
  1  'x, y, z'
loop_
 _atom_site_type_symbol
 _atom_site_label
 _atom_site_symmetry_multiplicity
 _atom_site_fract_x
 _atom_site_fract_y
 _atom_site_fract_z
 _atom_site_occupancy
  Sc  Sc0  1  0.750000  0.441123  0.092555  1
  Sc  Sc1  1  0.250000  0.067872  0.606575  1
  Sc  Sc2  1  0.250000  0.561182  0.900057  1
  Pa  Pa3  1  0.750000  0.896777  0.860424  1
  Pa  Pa4  1  0.750000  0.394069  0.648433  1
  Pa  Pa5  1  0.250000  0.111084  0.138322  1
  Pa  Pa6  1  0.250000  0.594500  0.348182  1
  Pa  Pa7  1  0.750000  0.934052  0.404375  1
  Co  Co8  1  0.750000  0.587321  0.377554  1
  Co  Co9  1  0.750000  0.087827  0.134680  1
  Co  Co10  1  0.250000  0.415699  0.613232  1
  Co  Co11  1  0.250000  0.911134  0.880985  1
  Co  Co12  1  0.992641  0.259106  0.373235  1
  Co  Co13  1  0.502094  0.768098  0.131818  1
  Co  Co14  1  0.497386  0.738833  0.622023  1
  Co  Co15  1  0.002676  0.232643  0.870238  1
  Co  Co16  1  0.002614  0.738833  0.622023  1
  Co  Co17  1  0.497324  0.232643  0.870238  1
  Co  Co18  1  0.507359  0.259106  0.373235  1
  Co  Co19  1  0.997906  0.768098  0.131818  1
