# generated using pymatgen
data_TbSn6(IrRu)2
_symmetry_space_group_name_H-M   'P 1'
_cell_length_a   6.96905475
_cell_length_b   6.97334254
_cell_length_c   6.96905324
_cell_angle_alpha   120.00574583
_cell_angle_beta   119.97026670
_cell_angle_gamma   90.00314614
_symmetry_Int_Tables_number   1
_chemical_formula_structural   TbSn6(IrRu)2
_chemical_formula_sum   'Tb1 Sn6 Ir2 Ru2'
_cell_volume   239.56264339
_cell_formula_units_Z   1
loop_
 _symmetry_equiv_pos_site_id
 _symmetry_equiv_pos_as_xyz
  1  'x, y, z'
loop_
 _atom_site_type_symbol
 _atom_site_label
 _atom_site_symmetry_multiplicity
 _atom_site_fract_x
 _atom_site_fract_y
 _atom_site_fract_z
 _atom_site_occupancy
  Tb  Tb0  1  0.002078  0.000000  0.002078  1
  Sn  Sn1  1  0.874680  0.536588  0.003657  1
  Sn  Sn2  1  0.540171  0.879451  0.004896  1
  Sn  Sn3  1  0.125446  0.120549  0.660721  1
  Sn  Sn4  1  0.996397  0.500000  0.496397  1
  Sn  Sn5  1  0.467070  0.463412  0.338092  1
  Sn  Sn6  1  0.505730  0.000000  0.505730  1
  Ir  Ir7  1  0.240799  0.605642  0.998257  1
  Ir  Ir8  1  0.392616  0.394358  0.635157  1
  Ru  Ru9  1  0.600977  0.244063  0.998100  1
  Ru  Ru10  1  0.754037  0.755937  0.356915  1
