# generated using pymatgen
data_Tm2Zn14Ni3
_symmetry_space_group_name_H-M   'P 1'
_cell_length_a   6.65014466
_cell_length_b   6.65014490
_cell_length_c   6.65014407
_cell_angle_alpha   82.86001685
_cell_angle_beta   82.86001193
_cell_angle_gamma   82.86001606
_symmetry_Int_Tables_number   1
_chemical_formula_structural   Tm2Zn14Ni3
_chemical_formula_sum   'Tm2 Zn14 Ni3'
_cell_volume   287.78036763
_cell_formula_units_Z   1
loop_
 _symmetry_equiv_pos_site_id
 _symmetry_equiv_pos_as_xyz
  1  'x, y, z'
loop_
 _atom_site_type_symbol
 _atom_site_label
 _atom_site_symmetry_multiplicity
 _atom_site_fract_x
 _atom_site_fract_y
 _atom_site_fract_z
 _atom_site_occupancy
  Tm  Tm0  1  0.663113  0.663113  0.663113  1
  Tm  Tm1  1  0.336887  0.336887  0.336887  1
  Zn  Zn2  1  0.347616  0.347616  0.849896  1
  Zn  Zn3  1  0.849896  0.347616  0.347616  1
  Zn  Zn4  1  0.106207  0.106207  0.106207  1
  Zn  Zn5  1  0.893793  0.893793  0.893793  1
  Zn  Zn6  1  0.296664  0.703336  0.000000  1
  Zn  Zn7  1  0.703336  0.000000  0.296664  1
  Zn  Zn8  1  0.000000  0.296664  0.703336  1
  Zn  Zn9  1  0.703336  0.296664  0.000000  1
  Zn  Zn10  1  0.296664  0.000000  0.703336  1
  Zn  Zn11  1  0.000000  0.703336  0.296664  1
  Zn  Zn12  1  0.150104  0.652384  0.652384  1
  Zn  Zn13  1  0.652384  0.652384  0.150104  1
  Zn  Zn14  1  0.652384  0.150104  0.652384  1
  Zn  Zn15  1  0.347616  0.849896  0.347616  1
  Ni  Ni16  1  0.000000  0.000000  0.500000  1
  Ni  Ni17  1  0.000000  0.500000  0.000000  1
  Ni  Ni18  1  0.500000  0.000000  0.000000  1
