# generated using pymatgen
data_Tb2DyErNi2C5
_symmetry_space_group_name_H-M   'P 1'
_cell_length_a   3.64533700
_cell_length_b   3.69515538
_cell_length_c   11.63651618
_cell_angle_alpha   90.05181349
_cell_angle_beta   90.00000000
_cell_angle_gamma   90.00000000
_symmetry_Int_Tables_number   1
_chemical_formula_structural   Tb2DyErNi2C5
_chemical_formula_sum   'Tb2 Dy1 Er1 Ni2 C5'
_cell_volume   156.74481693
_cell_formula_units_Z   1
loop_
 _symmetry_equiv_pos_site_id
 _symmetry_equiv_pos_as_xyz
  1  'x, y, z'
loop_
 _atom_site_type_symbol
 _atom_site_label
 _atom_site_symmetry_multiplicity
 _atom_site_fract_x
 _atom_site_fract_y
 _atom_site_fract_z
 _atom_site_occupancy
  Tb  Tb0  1  0.500000  0.206981  0.500585  1
  Tb  Tb1  1  0.000000  0.999194  0.998521  1
  Dy  Dy2  1  0.500000  0.503189  0.203063  1
  Er  Er3  1  0.500000  0.502715  0.796080  1
  Ni  Ni4  1  0.000000  0.697312  0.383843  1
  Ni  Ni5  1  0.000000  0.699253  0.617522  1
  C  C6  1  0.000000  0.999748  0.230315  1
  C  C7  1  0.000000  0.000920  0.770508  1
  C  C8  1  0.000000  0.196589  0.332293  1
  C  C9  1  0.000000  0.199464  0.668784  1
  C  C10  1  0.500000  0.496134  0.998487  1
