# generated using pymatgen
data_Tb4Co7GeO20
_symmetry_space_group_name_H-M   'P 1'
_cell_length_a   5.68210600
_cell_length_b   7.27297649
_cell_length_c   8.46077395
_cell_angle_alpha   89.88185495
_cell_angle_beta   90.00000000
_cell_angle_gamma   90.00000000
_symmetry_Int_Tables_number   1
_chemical_formula_structural   Tb4Co7GeO20
_chemical_formula_sum   'Tb4 Co7 Ge1 O20'
_cell_volume   349.64770656
_cell_formula_units_Z   1
loop_
 _symmetry_equiv_pos_site_id
 _symmetry_equiv_pos_as_xyz
  1  'x, y, z'
loop_
 _atom_site_type_symbol
 _atom_site_label
 _atom_site_symmetry_multiplicity
 _atom_site_fract_x
 _atom_site_fract_y
 _atom_site_fract_z
 _atom_site_occupancy
  Tb  Tb0  1  0.002496  0.859657  0.829423  1
  Tb  Tb1  1  0.002496  0.140343  0.170577  1
  Tb  Tb2  1  0.002048  0.363322  0.674055  1
  Tb  Tb3  1  0.002048  0.636678  0.325945  1
  Co  Co4  1  0.500233  0.588794  0.650331  1
  Co  Co5  1  0.500233  0.411206  0.349669  1
  Co  Co6  1  0.501612  0.909029  0.149786  1
  Co  Co7  1  0.501612  0.090971  0.850214  1
  Co  Co8  1  0.253861  0.500000  0.000000  1
  Co  Co9  1  0.741255  0.500000  0.000000  1
  Co  Co10  1  0.256162  0.000000  0.500000  1
  Ge  Ge11  1  0.742958  0.000000  0.500000  1
  O  O12  1  0.997397  0.338671  0.947323  1
  O  O13  1  0.724447  0.000000  0.000000  1
  O  O14  1  0.274776  0.000000  0.000000  1
  O  O15  1  0.498080  0.154027  0.431190  1
  O  O16  1  0.999858  0.162311  0.445939  1
  O  O17  1  0.725915  0.500000  0.500000  1
  O  O18  1  0.999858  0.837689  0.554061  1
  O  O19  1  0.754918  0.601682  0.791889  1
  O  O20  1  0.246461  0.101369  0.706748  1
  O  O21  1  0.498326  0.652717  0.063122  1
  O  O22  1  0.498326  0.347283  0.936878  1
  O  O23  1  0.997397  0.661329  0.052677  1
  O  O24  1  0.757872  0.895634  0.290123  1
  O  O25  1  0.754918  0.398318  0.208111  1
  O  O26  1  0.757872  0.104366  0.709877  1
  O  O27  1  0.243359  0.599563  0.792841  1
  O  O28  1  0.275306  0.500000  0.500000  1
  O  O29  1  0.246461  0.898631  0.293252  1
  O  O30  1  0.243359  0.400437  0.207159  1
  O  O31  1  0.498080  0.845973  0.568810  1
