# generated using pymatgen
data_Tb3Pr2(GaBi)2
_symmetry_space_group_name_H-M   'P 1'
_cell_length_a   8.12556000
_cell_length_b   8.13509300
_cell_length_c   15.45538000
_cell_angle_alpha   90.00000000
_cell_angle_beta   90.00000000
_cell_angle_gamma   90.00000000
_symmetry_Int_Tables_number   1
_chemical_formula_structural   Tb3Pr2(GaBi)2
_chemical_formula_sum   'Tb12 Pr8 Ga8 Bi8'
_cell_volume   1021.63440774
_cell_formula_units_Z   4
loop_
 _symmetry_equiv_pos_site_id
 _symmetry_equiv_pos_as_xyz
  1  'x, y, z'
loop_
 _atom_site_type_symbol
 _atom_site_label
 _atom_site_symmetry_multiplicity
 _atom_site_fract_x
 _atom_site_fract_y
 _atom_site_fract_z
 _atom_site_occupancy
  Tb  Tb0  1  0.382573  0.834392  0.870598  1
  Tb  Tb1  1  0.882573  0.665608  0.629402  1
  Tb  Tb2  1  0.617427  0.165608  0.370598  1
  Tb  Tb3  1  0.117427  0.334392  0.129402  1
  Tb  Tb4  1  0.617427  0.165608  0.129402  1
  Tb  Tb5  1  0.117427  0.334392  0.370598  1
  Tb  Tb6  1  0.382573  0.834392  0.629402  1
  Tb  Tb7  1  0.882573  0.665608  0.870598  1
  Tb  Tb8  1  0.222007  0.494808  0.750000  1
  Tb  Tb9  1  0.722007  0.005192  0.750000  1
  Tb  Tb10  1  0.777993  0.505192  0.250000  1
  Tb  Tb11  1  0.277993  0.994808  0.250000  1
  Pr  Pr12  1  0.530689  0.317057  0.892628  1
  Pr  Pr13  1  0.030689  0.182943  0.607372  1
  Pr  Pr14  1  0.469311  0.682943  0.392628  1
  Pr  Pr15  1  0.969311  0.817057  0.107372  1
  Pr  Pr16  1  0.469311  0.682943  0.107372  1
  Pr  Pr17  1  0.969311  0.817057  0.392628  1
  Pr  Pr18  1  0.530689  0.317057  0.607372  1
  Pr  Pr19  1  0.030689  0.182943  0.892628  1
  Ga  Ga20  1  0.589361  0.615286  0.750000  1
  Ga  Ga21  1  0.089361  0.884714  0.750000  1
  Ga  Ga22  1  0.410639  0.384714  0.250000  1
  Ga  Ga23  1  0.910639  0.115286  0.250000  1
  Ga  Ga24  1  0.326756  0.128148  0.750000  1
  Ga  Ga25  1  0.826756  0.371852  0.750000  1
  Ga  Ga26  1  0.673244  0.871852  0.250000  1
  Ga  Ga27  1  0.173244  0.628148  0.250000  1
  Bi  Bi28  1  0.283283  0.034284  0.040289  1
  Bi  Bi29  1  0.783283  0.465716  0.459711  1
  Bi  Bi30  1  0.716717  0.965716  0.540289  1
  Bi  Bi31  1  0.216717  0.534284  0.959711  1
  Bi  Bi32  1  0.716717  0.965716  0.959711  1
  Bi  Bi33  1  0.216717  0.534284  0.540289  1
  Bi  Bi34  1  0.283283  0.034284  0.459711  1
  Bi  Bi35  1  0.783283  0.465716  0.040289  1
