# generated using pymatgen
data_Sr3LaTi4O12
_symmetry_space_group_name_H-M   'P 1'
_cell_length_a   5.58378159
_cell_length_b   5.57888998
_cell_length_c   7.89395300
_cell_angle_alpha   90.00000000
_cell_angle_beta   90.00000000
_cell_angle_gamma   90.09158166
_symmetry_Int_Tables_number   1
_chemical_formula_structural   Sr3LaTi4O12
_chemical_formula_sum   'Sr3 La1 Ti4 O12'
_cell_volume   245.90660917
_cell_formula_units_Z   1
loop_
 _symmetry_equiv_pos_site_id
 _symmetry_equiv_pos_as_xyz
  1  'x, y, z'
loop_
 _atom_site_type_symbol
 _atom_site_label
 _atom_site_symmetry_multiplicity
 _atom_site_fract_x
 _atom_site_fract_y
 _atom_site_fract_z
 _atom_site_occupancy
  Sr  Sr0  1  0.000164  0.988363  0.750000  1
  Sr  Sr1  1  0.496051  0.486516  0.750000  1
  Sr  Sr2  1  0.502577  0.514290  0.250000  1
  La  La3  1  0.000205  0.020438  0.250000  1
  Ti  Ti4  1  0.000971  0.500998  0.501170  1
  Ti  Ti5  1  0.498408  0.999706  0.998751  1
  Ti  Ti6  1  0.498408  0.999706  0.501249  1
  Ti  Ti7  1  0.000971  0.500998  0.998830  1
  O  O8  1  0.732683  0.267034  0.475692  1
  O  O9  1  0.777049  0.776968  0.028147  1
  O  O10  1  0.226419  0.225582  0.516327  1
  O  O11  1  0.271551  0.728004  0.982935  1
  O  O12  1  0.271551  0.728004  0.517065  1
  O  O13  1  0.226419  0.225582  0.983673  1
  O  O14  1  0.777049  0.776968  0.471853  1
  O  O15  1  0.732683  0.267034  0.024308  1
  O  O16  1  0.039300  0.489214  0.250000  1
  O  O17  1  0.450121  0.997417  0.250000  1
  O  O18  1  0.537428  0.001587  0.750000  1
  O  O19  1  0.959993  0.505594  0.750000  1
