# generated using pymatgen
data_Nb4AlB4SbRu10
_symmetry_space_group_name_H-M   'P 1'
_cell_length_a   9.41489200
_cell_length_b   9.41489200
_cell_length_c   3.00877700
_cell_angle_alpha   90.00000000
_cell_angle_beta   90.00000000
_cell_angle_gamma   90.00000000
_symmetry_Int_Tables_number   1
_chemical_formula_structural   Nb4AlB4SbRu10
_chemical_formula_sum   'Nb4 Al1 B4 Sb1 Ru10'
_cell_volume   266.69856907
_cell_formula_units_Z   1
loop_
 _symmetry_equiv_pos_site_id
 _symmetry_equiv_pos_as_xyz
  1  'x, y, z'
loop_
 _atom_site_type_symbol
 _atom_site_label
 _atom_site_symmetry_multiplicity
 _atom_site_fract_x
 _atom_site_fract_y
 _atom_site_fract_z
 _atom_site_occupancy
  Nb  Nb0  1  0.817998  0.672558  0.000000  1
  Nb  Nb1  1  0.182002  0.327442  0.000000  1
  Nb  Nb2  1  0.327442  0.817998  0.000000  1
  Nb  Nb3  1  0.672558  0.182002  0.000000  1
  Al  Al4  1  0.500000  0.500000  0.000000  1
  B  B5  1  0.617441  0.871768  0.000000  1
  B  B6  1  0.382559  0.128232  0.000000  1
  B  B7  1  0.128232  0.617441  0.000000  1
  B  B8  1  0.871768  0.382559  0.000000  1
  Sb  Sb9  1  0.000000  0.000000  0.000000  1
  Ru  Ru10  1  0.500000  0.000000  0.500000  1
  Ru  Ru11  1  0.000000  0.500000  0.500000  1
  Ru  Ru12  1  0.566562  0.714896  0.500000  1
  Ru  Ru13  1  0.433438  0.285104  0.500000  1
  Ru  Ru14  1  0.071728  0.779181  0.500000  1
  Ru  Ru15  1  0.928272  0.220819  0.500000  1
  Ru  Ru16  1  0.285104  0.566562  0.500000  1
  Ru  Ru17  1  0.714896  0.433438  0.500000  1
  Ru  Ru18  1  0.220819  0.071728  0.500000  1
  Ru  Ru19  1  0.779181  0.928272  0.500000  1
