# generated using pymatgen
data_Tm3Lu13(Ga3Co)2
_symmetry_space_group_name_H-M   'P 1'
_cell_length_a   9.79840243
_cell_length_b   9.79840192
_cell_length_c   6.79426406
_cell_angle_alpha   89.98677710
_cell_angle_beta   90.01322338
_cell_angle_gamma   120.03133233
_symmetry_Int_Tables_number   1
_chemical_formula_structural   Tm3Lu13(Ga3Co)2
_chemical_formula_sum   'Tm3 Lu13 Ga6 Co2'
_cell_volume   564.73714734
_cell_formula_units_Z   1
loop_
 _symmetry_equiv_pos_site_id
 _symmetry_equiv_pos_as_xyz
  1  'x, y, z'
loop_
 _atom_site_type_symbol
 _atom_site_label
 _atom_site_symmetry_multiplicity
 _atom_site_fract_x
 _atom_site_fract_y
 _atom_site_fract_z
 _atom_site_occupancy
  Tm  Tm0  1  0.535696  0.464304  0.792309  1
  Tm  Tm1  1  0.999998  0.000002  0.268044  1
  Tm  Tm2  1  0.999960  0.000040  0.767956  1
  Lu  Lu3  1  0.174066  0.825934  0.989438  1
  Lu  Lu4  1  0.348068  0.173786  0.488886  1
  Lu  Lu5  1  0.826214  0.651932  0.488886  1
  Lu  Lu6  1  0.173627  0.347961  0.989788  1
  Lu  Lu7  1  0.652039  0.826373  0.989788  1
  Lu  Lu8  1  0.825975  0.174025  0.489377  1
  Lu  Lu9  1  0.333103  0.666897  0.671455  1
  Lu  Lu10  1  0.666832  0.333168  0.171816  1
  Lu  Lu11  1  0.463799  0.536201  0.292548  1
  Lu  Lu12  1  0.928014  0.463951  0.792624  1
  Lu  Lu13  1  0.536049  0.071986  0.792624  1
  Lu  Lu14  1  0.463932  0.927973  0.292668  1
  Lu  Lu15  1  0.072027  0.536068  0.292668  1
  Ga  Ga16  1  0.163321  0.836679  0.540444  1
  Ga  Ga17  1  0.326272  0.162770  0.039812  1
  Ga  Ga18  1  0.837230  0.673728  0.039812  1
  Ga  Ga19  1  0.163660  0.326773  0.540189  1
  Ga  Ga20  1  0.673227  0.836340  0.540189  1
  Ga  Ga21  1  0.836478  0.163522  0.040433  1
  Co  Co22  1  0.333225  0.666775  0.056327  1
  Co  Co23  1  0.667187  0.332813  0.555926  1
