# generated using pymatgen
data_Lu2SiNi9(P2Ru)3
_symmetry_space_group_name_H-M   'P 1'
_cell_length_a   9.08306400
_cell_length_b   9.08306349
_cell_length_c   3.58272700
_cell_angle_alpha   90.00000000
_cell_angle_beta   90.00000000
_cell_angle_gamma   120.00000915
_symmetry_Int_Tables_number   1
_chemical_formula_structural   Lu2SiNi9(P2Ru)3
_chemical_formula_sum   'Lu2 Si1 Ni9 P6 Ru3'
_cell_volume   255.98176688
_cell_formula_units_Z   1
loop_
 _symmetry_equiv_pos_site_id
 _symmetry_equiv_pos_as_xyz
  1  'x, y, z'
loop_
 _atom_site_type_symbol
 _atom_site_label
 _atom_site_symmetry_multiplicity
 _atom_site_fract_x
 _atom_site_fract_y
 _atom_site_fract_z
 _atom_site_occupancy
  Lu  Lu0  1  0.333333  0.666667  0.000000  1
  Lu  Lu1  1  0.666667  0.333333  0.500000  1
  Si  Si2  1  0.000000  0.000000  0.000000  1
  Ni  Ni3  1  0.708291  0.873709  0.000000  1
  Ni  Ni4  1  0.165419  0.291709  0.000000  1
  Ni  Ni5  1  0.126291  0.834581  0.000000  1
  Ni  Ni6  1  0.623118  0.559658  0.000000  1
  Ni  Ni7  1  0.936540  0.376882  0.000000  1
  Ni  Ni8  1  0.440342  0.063460  0.000000  1
  Ni  Ni9  1  0.557314  0.946113  0.500000  1
  Ni  Ni10  1  0.388799  0.442686  0.500000  1
  Ni  Ni11  1  0.053887  0.611201  0.500000  1
  P  P12  1  0.590426  0.710328  0.500000  1
  P  P13  1  0.119901  0.409574  0.500000  1
  P  P14  1  0.289672  0.880099  0.500000  1
  P  P15  1  0.882329  0.590818  0.000000  1
  P  P16  1  0.708489  0.117671  0.000000  1
  P  P17  1  0.409182  0.291511  0.000000  1
  Ru  Ru18  1  0.875633  0.778032  0.500000  1
  Ru  Ru19  1  0.902398  0.124367  0.500000  1
  Ru  Ru20  1  0.221968  0.097602  0.500000  1
