# generated using pymatgen
data_Ba7Ca4Tl(TcN4)4
_symmetry_space_group_name_H-M   'P 1'
_cell_length_a   10.79410451
_cell_length_b   10.51049048
_cell_length_c   8.07396142
_cell_angle_alpha   70.83074751
_cell_angle_beta   65.87906008
_cell_angle_gamma   44.51590356
_symmetry_Int_Tables_number   1
_chemical_formula_structural   Ba7Ca4Tl(TcN4)4
_chemical_formula_sum   'Ba7 Ca4 Tl1 Tc4 N16'
_cell_volume   585.16174289
_cell_formula_units_Z   1
loop_
 _symmetry_equiv_pos_site_id
 _symmetry_equiv_pos_as_xyz
  1  'x, y, z'
loop_
 _atom_site_type_symbol
 _atom_site_label
 _atom_site_symmetry_multiplicity
 _atom_site_fract_x
 _atom_site_fract_y
 _atom_site_fract_z
 _atom_site_occupancy
  Ba  Ba0  1  0.925084  0.574916  0.574916  1
  Ba  Ba1  1  0.318806  0.681194  0.681194  1
  Ba  Ba2  1  0.121395  0.108084  0.892987  1
  Ba  Ba3  1  0.143644  0.129788  0.360185  1
  Ba  Ba4  1  0.366383  0.360185  0.129788  1
  Ba  Ba5  1  0.679089  0.320911  0.320911  1
  Ba  Ba6  1  0.877534  0.892987  0.108084  1
  Ca  Ca7  1  0.351044  0.321156  0.664754  1
  Ca  Ca8  1  0.879485  0.928057  0.612888  1
  Ca  Ca9  1  0.663045  0.664754  0.321156  1
  Ca  Ca10  1  0.579569  0.612888  0.928057  1
  Tl  Tl11  1  0.556343  0.943657  0.943657  1
  Tc  Tc12  1  0.490046  0.005500  0.487673  1
  Tc  Tc13  1  0.016781  0.487673  0.005500  1
  Tc  Tc14  1  0.759334  0.255867  0.750181  1
  Tc  Tc15  1  0.234617  0.750181  0.255867  1
  N  N16  1  0.035604  0.633684  0.816769  1
  N  N17  1  0.696301  0.300560  0.987885  1
  N  N18  1  0.653039  0.017899  0.486370  1
  N  N19  1  0.513942  0.816769  0.633684  1
  N  N20  1  0.236048  0.578220  0.415545  1
  N  N21  1  0.770188  0.415545  0.578220  1
  N  N22  1  0.988750  0.021736  0.709256  1
  N  N23  1  0.537976  0.972463  0.250099  1
  N  N24  1  0.418499  0.724814  0.268517  1
  N  N25  1  0.971370  0.555412  0.222973  1
  N  N26  1  0.280259  0.709256  0.021736  1
  N  N27  1  0.842690  0.486370  0.017899  1
  N  N28  1  0.239462  0.250099  0.972463  1
  N  N29  1  0.588172  0.268517  0.724814  1
  N  N30  1  0.250244  0.222973  0.555412  1
  N  N31  1  0.015255  0.987885  0.300560  1
