# generated using pymatgen
data_Sm6CoTc2(Ni5P4)3
_symmetry_space_group_name_H-M   'P 1'
_cell_length_a   3.80982400
_cell_length_b   10.60476500
_cell_length_c   12.46958600
_cell_angle_alpha   90.00000000
_cell_angle_beta   90.00000000
_cell_angle_gamma   90.00000000
_symmetry_Int_Tables_number   1
_chemical_formula_structural   Sm6CoTc2(Ni5P4)3
_chemical_formula_sum   'Sm6 Co1 Tc2 Ni15 P12'
_cell_volume   503.79980745
_cell_formula_units_Z   1
loop_
 _symmetry_equiv_pos_site_id
 _symmetry_equiv_pos_as_xyz
  1  'x, y, z'
loop_
 _atom_site_type_symbol
 _atom_site_label
 _atom_site_symmetry_multiplicity
 _atom_site_fract_x
 _atom_site_fract_y
 _atom_site_fract_z
 _atom_site_occupancy
  Sm  Sm0  1  0.000000  0.500000  0.521874  1
  Sm  Sm1  1  0.500000  0.000000  0.477880  1
  Sm  Sm2  1  0.500000  0.814941  0.207078  1
  Sm  Sm3  1  0.500000  0.185059  0.207078  1
  Sm  Sm4  1  0.000000  0.685297  0.792647  1
  Sm  Sm5  1  0.000000  0.314703  0.792647  1
  Co  Co6  1  0.500000  0.000000  0.016286  1
  Tc  Tc7  1  0.500000  0.500000  0.152844  1
  Tc  Tc8  1  0.000000  0.000000  0.848245  1
  Ni  Ni9  1  0.500000  0.500000  0.701500  1
  Ni  Ni10  1  0.000000  0.000000  0.297521  1
  Ni  Ni11  1  0.000000  0.500000  0.983318  1
  Ni  Ni12  1  0.500000  0.330318  0.987737  1
  Ni  Ni13  1  0.500000  0.669682  0.987737  1
  Ni  Ni14  1  0.000000  0.166692  0.012075  1
  Ni  Ni15  1  0.000000  0.833308  0.012075  1
  Ni  Ni16  1  0.500000  0.302975  0.426485  1
  Ni  Ni17  1  0.500000  0.697025  0.426485  1
  Ni  Ni18  1  0.000000  0.196597  0.573373  1
  Ni  Ni19  1  0.000000  0.803403  0.573373  1
  Ni  Ni20  1  0.500000  0.881960  0.711980  1
  Ni  Ni21  1  0.500000  0.118040  0.711980  1
  Ni  Ni22  1  0.000000  0.618560  0.288513  1
  Ni  Ni23  1  0.000000  0.381440  0.288513  1
  P  P24  1  0.500000  0.500000  0.879410  1
  P  P25  1  0.000000  0.000000  0.119412  1
  P  P26  1  0.500000  0.500000  0.344312  1
  P  P27  1  0.000000  0.000000  0.656173  1
  P  P28  1  0.500000  0.311248  0.612849  1
  P  P29  1  0.500000  0.688752  0.612849  1
  P  P30  1  0.000000  0.188633  0.387285  1
  P  P31  1  0.000000  0.811367  0.387285  1
  P  P32  1  0.500000  0.850800  0.894809  1
  P  P33  1  0.500000  0.149200  0.894809  1
  P  P34  1  0.000000  0.650024  0.105781  1
  P  P35  1  0.000000  0.349976  0.105781  1
