# generated using pymatgen
data_Dy5Si9P3Ir10Rh9
_symmetry_space_group_name_H-M   'P 1'
_cell_length_a   12.83710100
_cell_length_b   12.83710112
_cell_length_c   3.94063200
_cell_angle_alpha   90.00000000
_cell_angle_beta   90.00000000
_cell_angle_gamma   119.99999712
_symmetry_Int_Tables_number   1
_chemical_formula_structural   Dy5Si9P3Ir10Rh9
_chemical_formula_sum   'Dy5 Si9 P3 Ir10 Rh9'
_cell_volume   562.38074700
_cell_formula_units_Z   1
loop_
 _symmetry_equiv_pos_site_id
 _symmetry_equiv_pos_as_xyz
  1  'x, y, z'
loop_
 _atom_site_type_symbol
 _atom_site_label
 _atom_site_symmetry_multiplicity
 _atom_site_fract_x
 _atom_site_fract_y
 _atom_site_fract_z
 _atom_site_occupancy
  Dy  Dy0  1  0.333333  0.666667  0.500000  1
  Dy  Dy1  1  0.666667  0.333333  0.500000  1
  Dy  Dy2  1  0.000000  0.814818  0.000000  1
  Dy  Dy3  1  0.185182  0.185182  0.000000  1
  Dy  Dy4  1  0.814818  0.000000  0.000000  1
  Si  Si5  1  0.000000  0.629703  0.500000  1
  Si  Si6  1  0.370297  0.370297  0.500000  1
  Si  Si7  1  0.629703  0.000000  0.500000  1
  Si  Si8  1  0.519672  0.685671  0.000000  1
  Si  Si9  1  0.314329  0.834001  0.000000  1
  Si  Si10  1  0.165999  0.480328  0.000000  1
  Si  Si11  1  0.480328  0.165999  0.000000  1
  Si  Si12  1  0.685671  0.519672  0.000000  1
  Si  Si13  1  0.834001  0.314329  0.000000  1
  P  P14  1  0.000000  0.179242  0.500000  1
  P  P15  1  0.820758  0.820758  0.500000  1
  P  P16  1  0.179242  0.000000  0.500000  1
  Ir  Ir17  1  0.514106  0.872805  0.000000  1
  Ir  Ir18  1  0.127195  0.641301  0.000000  1
  Ir  Ir19  1  0.358699  0.485894  0.000000  1
  Ir  Ir20  1  0.485894  0.358699  0.000000  1
  Ir  Ir21  1  0.872805  0.514106  0.000000  1
  Ir  Ir22  1  0.641301  0.127195  0.000000  1
  Ir  Ir23  1  0.000000  0.277120  0.000000  1
  Ir  Ir24  1  0.722880  0.722880  0.000000  1
  Ir  Ir25  1  0.277120  0.000000  0.000000  1
  Ir  Ir26  1  0.000000  0.000000  0.500000  1
  Rh  Rh27  1  0.000000  0.445304  0.500000  1
  Rh  Rh28  1  0.554696  0.554696  0.500000  1
  Rh  Rh29  1  0.445304  0.000000  0.500000  1
  Rh  Rh30  1  0.627798  0.807671  0.500000  1
  Rh  Rh31  1  0.192329  0.820127  0.500000  1
  Rh  Rh32  1  0.179873  0.372202  0.500000  1
  Rh  Rh33  1  0.372202  0.179873  0.500000  1
  Rh  Rh34  1  0.807671  0.627798  0.500000  1
  Rh  Rh35  1  0.820127  0.192329  0.500000  1
