# generated using pymatgen
data_Rb2LiVSe4
_symmetry_space_group_name_H-M   'P 1'
_cell_length_a   14.01581712
_cell_length_b   12.53817662
_cell_length_c   7.62909275
_cell_angle_alpha   84.31055042
_cell_angle_beta   62.89418535
_cell_angle_gamma   32.79526970
_symmetry_Int_Tables_number   1
_chemical_formula_structural   Rb2LiVSe4
_chemical_formula_sum   'Rb4 Li2 V2 Se8'
_cell_volume   522.49114426
_cell_formula_units_Z   2
loop_
 _symmetry_equiv_pos_site_id
 _symmetry_equiv_pos_as_xyz
  1  'x, y, z'
loop_
 _atom_site_type_symbol
 _atom_site_label
 _atom_site_symmetry_multiplicity
 _atom_site_fract_x
 _atom_site_fract_y
 _atom_site_fract_z
 _atom_site_occupancy
  Rb  Rb0  1  0.179306  0.179306  0.820694  1
  Rb  Rb1  1  0.429306  0.429306  0.070694  1
  Rb  Rb2  1  0.820694  0.820694  0.179306  1
  Rb  Rb3  1  0.070694  0.070694  0.429306  1
  Li  Li4  1  0.500000  0.500000  0.500000  1
  Li  Li5  1  0.750000  0.750000  0.750000  1
  V  V6  1  0.000000  0.000000  0.000000  1
  V  V7  1  0.250000  0.250000  0.250000  1
  Se  Se8  1  0.741641  0.366701  0.068007  1
  Se  Se9  1  0.366701  0.741641  0.823650  1
  Se  Se10  1  0.068007  0.823650  0.741641  1
  Se  Se11  1  0.823650  0.068007  0.366701  1
  Se  Se12  1  0.181993  0.426350  0.508359  1
  Se  Se13  1  0.426350  0.181993  0.883299  1
  Se  Se14  1  0.883299  0.508359  0.426350  1
  Se  Se15  1  0.508359  0.883299  0.181993  1
