# generated using pymatgen
data_Nd2Hg3(TeCl4)2
_symmetry_space_group_name_H-M   'P 1'
_cell_length_a   10.02049750
_cell_length_b   10.02049836
_cell_length_c   13.56508700
_cell_angle_alpha   74.80487606
_cell_angle_beta   74.80487492
_cell_angle_gamma   45.60928142
_symmetry_Int_Tables_number   1
_chemical_formula_structural   Nd2Hg3(TeCl4)2
_chemical_formula_sum   'Nd4 Hg6 Te4 Cl16'
_cell_volume   933.14693403
_cell_formula_units_Z   2
loop_
 _symmetry_equiv_pos_site_id
 _symmetry_equiv_pos_as_xyz
  1  'x, y, z'
loop_
 _atom_site_type_symbol
 _atom_site_label
 _atom_site_symmetry_multiplicity
 _atom_site_fract_x
 _atom_site_fract_y
 _atom_site_fract_z
 _atom_site_occupancy
  Nd  Nd0  1  0.214568  0.733530  0.929972  1
  Nd  Nd1  1  0.266470  0.785432  0.570028  1
  Nd  Nd2  1  0.785432  0.266470  0.070028  1
  Nd  Nd3  1  0.733530  0.214568  0.429972  1
  Hg  Hg4  1  0.500000  0.000000  0.000000  1
  Hg  Hg5  1  0.000000  0.500000  0.500000  1
  Hg  Hg6  1  0.254908  0.234740  0.753456  1
  Hg  Hg7  1  0.765260  0.745092  0.746544  1
  Hg  Hg8  1  0.745092  0.765260  0.246544  1
  Hg  Hg9  1  0.234740  0.254908  0.253456  1
  Te  Te10  1  0.587051  0.082375  0.801940  1
  Te  Te11  1  0.917625  0.412949  0.698060  1
  Te  Te12  1  0.412949  0.917625  0.198060  1
  Te  Te13  1  0.082375  0.587051  0.301940  1
  Cl  Cl14  1  0.448623  0.364865  0.033511  1
  Cl  Cl15  1  0.635135  0.551377  0.466489  1
  Cl  Cl16  1  0.551377  0.635135  0.966489  1
  Cl  Cl17  1  0.364865  0.448623  0.533511  1
  Cl  Cl18  1  0.175141  0.640517  0.763357  1
  Cl  Cl19  1  0.359483  0.824859  0.736643  1
  Cl  Cl20  1  0.824859  0.359483  0.236643  1
  Cl  Cl21  1  0.640517  0.175141  0.263357  1
  Cl  Cl22  1  0.946865  0.715961  0.022657  1
  Cl  Cl23  1  0.284039  0.053135  0.477343  1
  Cl  Cl24  1  0.053135  0.284039  0.977343  1
  Cl  Cl25  1  0.715961  0.946865  0.522657  1
  Cl  Cl26  1  0.107893  0.888632  0.111069  1
  Cl  Cl27  1  0.111368  0.892107  0.388931  1
  Cl  Cl28  1  0.892107  0.111368  0.888931  1
  Cl  Cl29  1  0.888632  0.107893  0.611069  1
