# generated using pymatgen
data_CsNpNiSe3
_symmetry_space_group_name_H-M   'P 1'
_cell_length_a   8.28863957
_cell_length_b   8.28863920
_cell_length_c   10.65521700
_cell_angle_alpha   90.00000000
_cell_angle_beta   90.00000000
_cell_angle_gamma   151.46245130
_symmetry_Int_Tables_number   1
_chemical_formula_structural   CsNpNiSe3
_chemical_formula_sum   'Cs2 Np2 Ni2 Se6'
_cell_volume   349.71597828
_cell_formula_units_Z   2
loop_
 _symmetry_equiv_pos_site_id
 _symmetry_equiv_pos_as_xyz
  1  'x, y, z'
loop_
 _atom_site_type_symbol
 _atom_site_label
 _atom_site_symmetry_multiplicity
 _atom_site_fract_x
 _atom_site_fract_y
 _atom_site_fract_z
 _atom_site_occupancy
  Cs  Cs0  1  0.742326  0.257674  0.250000  1
  Cs  Cs1  1  0.257674  0.742326  0.750000  1
  Np  Np2  1  0.000000  0.000000  0.500000  1
  Np  Np3  1  0.000000  0.000000  0.000000  1
  Ni  Ni4  1  0.530403  0.469597  0.750000  1
  Ni  Ni5  1  0.469597  0.530403  0.250000  1
  Se  Se6  1  0.613803  0.386197  0.562981  1
  Se  Se7  1  0.386197  0.613803  0.437019  1
  Se  Se8  1  0.052138  0.947862  0.250000  1
  Se  Se9  1  0.947862  0.052138  0.750000  1
  Se  Se10  1  0.613803  0.386197  0.937019  1
  Se  Se11  1  0.386197  0.613803  0.062981  1
