# generated using pymatgen
data_HoZn3CdRu
_symmetry_space_group_name_H-M   'P 1'
_cell_length_a   5.29736092
_cell_length_b   5.29736084
_cell_length_c   5.27534173
_cell_angle_alpha   59.86183330
_cell_angle_beta   59.86183994
_cell_angle_gamma   60.00000571
_symmetry_Int_Tables_number   1
_chemical_formula_structural   HoZn3CdRu
_chemical_formula_sum   'Ho1 Zn3 Cd1 Ru1'
_cell_volume   104.45870105
_cell_formula_units_Z   1
loop_
 _symmetry_equiv_pos_site_id
 _symmetry_equiv_pos_as_xyz
  1  'x, y, z'
loop_
 _atom_site_type_symbol
 _atom_site_label
 _atom_site_symmetry_multiplicity
 _atom_site_fract_x
 _atom_site_fract_y
 _atom_site_fract_z
 _atom_site_occupancy
  Ho  Ho0  1  0.747913  0.747913  0.756263  1
  Zn  Zn1  1  0.373401  0.875966  0.377232  1
  Zn  Zn2  1  0.373401  0.373401  0.377232  1
  Zn  Zn3  1  0.875966  0.373401  0.377232  1
  Cd  Cd4  1  0.004945  0.004945  0.985165  1
  Ru  Ru5  1  0.374375  0.374375  0.876874  1
