# generated using pymatgen
data_KMnRhF6
_symmetry_space_group_name_H-M   'P 1'
_cell_length_a   5.56273330
_cell_length_b   5.56180012
_cell_length_c   5.66643730
_cell_angle_alpha   90.96681465
_cell_angle_beta   91.00102172
_cell_angle_gamma   119.91251995
_symmetry_Int_Tables_number   1
_chemical_formula_structural   KMnRhF6
_chemical_formula_sum   'K1 Mn1 Rh1 F6'
_cell_volume   151.86960833
_cell_formula_units_Z   1
loop_
 _symmetry_equiv_pos_site_id
 _symmetry_equiv_pos_as_xyz
  1  'x, y, z'
loop_
 _atom_site_type_symbol
 _atom_site_label
 _atom_site_symmetry_multiplicity
 _atom_site_fract_x
 _atom_site_fract_y
 _atom_site_fract_z
 _atom_site_occupancy
  K  K0  1  0.517422  0.482596  0.499807  1
  Mn  Mn1  1  0.185383  0.814740  0.999784  1
  Rh  Rh2  1  0.850706  0.149270  0.000070  1
  F  F3  1  0.151556  0.133448  0.191738  1
  F  F4  1  0.881536  0.472126  0.194626  1
  F  F5  1  0.544996  0.865535  0.197151  1
  F  F6  1  0.134624  0.454864  0.802911  1
  F  F7  1  0.528007  0.119086  0.805537  1
  F  F8  1  0.865940  0.848174  0.808378  1
