# generated using pymatgen
data_Pu5TeO20
_symmetry_space_group_name_H-M   'P 1'
_cell_length_a   7.94412556
_cell_length_b   7.95817907
_cell_length_c   7.81557700
_cell_angle_alpha   88.92271660
_cell_angle_beta   90.96321807
_cell_angle_gamma   119.41529941
_symmetry_Int_Tables_number   1
_chemical_formula_structural   Pu5TeO20
_chemical_formula_sum   'Pu5 Te1 O20'
_cell_volume   430.31554475
_cell_formula_units_Z   1
loop_
 _symmetry_equiv_pos_site_id
 _symmetry_equiv_pos_as_xyz
  1  'x, y, z'
loop_
 _atom_site_type_symbol
 _atom_site_label
 _atom_site_symmetry_multiplicity
 _atom_site_fract_x
 _atom_site_fract_y
 _atom_site_fract_z
 _atom_site_occupancy
  Pu  Pu0  1  0.015224  0.985942  0.493455  1
  Pu  Pu1  1  0.517942  0.480337  0.006230  1
  Pu  Pu2  1  0.268721  0.734476  0.749397  1
  Pu  Pu3  1  0.264650  0.732369  0.249337  1
  Pu  Pu4  1  0.768927  0.234165  0.750915  1
  Te  Te5  1  0.764894  0.232157  0.250774  1
  O  O6  1  0.132895  0.864734  0.290448  1
  O  O7  1  0.123045  0.882978  0.677020  1
  O  O8  1  0.625343  0.367376  0.188801  1
  O  O9  1  0.638437  0.364882  0.803225  1
  O  O10  1  0.900859  0.104852  0.699169  1
  O  O11  1  0.902325  0.094808  0.312649  1
  O  O12  1  0.416304  0.587185  0.820780  1
  O  O13  1  0.394966  0.598701  0.207241  1
  O  O14  1  0.032617  0.498673  0.747780  1
  O  O15  1  0.521376  0.987714  0.248863  1
  O  O16  1  0.505371  0.969565  0.752233  1
  O  O17  1  0.007738  0.477127  0.251834  1
  O  O18  1  0.311393  0.693641  0.512362  1
  O  O19  1  0.805496  0.197397  0.013561  1
  O  O20  1  0.727538  0.268006  0.488608  1
  O  O21  1  0.223518  0.774410  0.986122  1
  O  O22  1  0.236604  0.206800  0.490329  1
  O  O23  1  0.793733  0.765192  0.497913  1
  O  O24  1  0.739167  0.701174  0.009141  1
  O  O25  1  0.296917  0.259339  0.001812  1
