# generated using pymatgen
data_Np6Co3Cu2NiSb8
_symmetry_space_group_name_H-M   'P 1'
_cell_length_a   8.19876440
_cell_length_b   8.18511134
_cell_length_c   8.18511151
_cell_angle_alpha   109.07405419
_cell_angle_beta   110.24439616
_cell_angle_gamma   109.03003789
_symmetry_Int_Tables_number   1
_chemical_formula_structural   Np6Co3Cu2NiSb8
_chemical_formula_sum   'Np6 Co3 Cu2 Ni1 Sb8'
_cell_volume   423.13338816
_cell_formula_units_Z   1
loop_
 _symmetry_equiv_pos_site_id
 _symmetry_equiv_pos_as_xyz
  1  'x, y, z'
loop_
 _atom_site_type_symbol
 _atom_site_label
 _atom_site_symmetry_multiplicity
 _atom_site_fract_x
 _atom_site_fract_y
 _atom_site_fract_z
 _atom_site_occupancy
  Np  Np0  1  0.867166  0.246151  0.120632  1
  Np  Np1  1  0.632834  0.753466  0.378985  1
  Np  Np2  1  0.250000  0.133280  0.883280  1
  Np  Np3  1  0.750000  0.362803  0.612803  1
  Np  Np4  1  0.110998  0.869465  0.246210  1
  Np  Np5  1  0.389002  0.635213  0.758467  1
  Co  Co6  1  0.750000  0.871821  0.121821  1
  Co  Co7  1  0.626098  0.376537  0.254410  1
  Co  Co8  1  0.873902  0.128312  0.750439  1
  Cu  Cu9  1  0.376680  0.250684  0.625149  1
  Cu  Cu10  1  0.123320  0.748469  0.874005  1
  Ni  Ni11  1  0.250000  0.627004  0.377004  1
  Sb  Sb12  1  0.664791  0.500577  0.002199  1
  Sb  Sb13  1  0.500732  0.996491  0.660453  1
  Sb  Sb14  1  0.999268  0.659720  0.495760  1
  Sb  Sb15  1  0.835209  0.837409  0.835786  1
  Sb  Sb16  1  0.500919  0.001758  0.162418  1
  Sb  Sb17  1  0.161886  0.498326  0.002901  1
  Sb  Sb18  1  0.999081  0.161499  0.500840  1
  Sb  Sb19  1  0.338114  0.341015  0.336440  1
