# generated using pymatgen
data_Dy4HoGe6P6Ir19
_symmetry_space_group_name_H-M   'P 1'
_cell_length_a   12.96629506
_cell_length_b   12.96681244
_cell_length_c   3.98027100
_cell_angle_alpha   90.00000000
_cell_angle_beta   90.00000000
_cell_angle_gamma   119.98726868
_symmetry_Int_Tables_number   1
_chemical_formula_structural   Dy4HoGe6P6Ir19
_chemical_formula_sum   'Dy4 Ho1 Ge6 P6 Ir19'
_cell_volume   579.62632835
_cell_formula_units_Z   1
loop_
 _symmetry_equiv_pos_site_id
 _symmetry_equiv_pos_as_xyz
  1  'x, y, z'
loop_
 _atom_site_type_symbol
 _atom_site_label
 _atom_site_symmetry_multiplicity
 _atom_site_fract_x
 _atom_site_fract_y
 _atom_site_fract_z
 _atom_site_occupancy
  Dy  Dy0  1  0.333381  0.666696  0.500000  1
  Dy  Dy1  1  0.666643  0.333319  0.500000  1
  Dy  Dy2  1  0.180830  0.182568  0.000000  1
  Dy  Dy3  1  0.817403  0.998203  0.000000  1
  Ho  Ho4  1  0.001857  0.819335  0.000000  1
  Ge  Ge5  1  0.998446  0.639499  0.500000  1
  Ge  Ge6  1  0.360725  0.359205  0.500000  1
  Ge  Ge7  1  0.640767  0.001527  0.500000  1
  Ge  Ge8  1  0.518621  0.677667  0.000000  1
  Ge  Ge9  1  0.322331  0.840906  0.000000  1
  Ge  Ge10  1  0.159149  0.481535  0.000000  1
  P  P11  1  0.483885  0.178501  0.000000  1
  P  P12  1  0.694585  0.516083  0.000000  1
  P  P13  1  0.821451  0.305376  0.000000  1
  P  P14  1  0.994749  0.175182  0.500000  1
  P  P15  1  0.824925  0.819454  0.500000  1
  P  P16  1  0.180418  0.005211  0.500000  1
  Ir  Ir17  1  0.521016  0.869950  0.000000  1
  Ir  Ir18  1  0.129969  0.651142  0.000000  1
  Ir  Ir19  1  0.348984  0.479020  0.000000  1
  Ir  Ir20  1  0.499987  0.368881  0.000000  1
  Ir  Ir21  1  0.868918  0.500016  0.000000  1
  Ir  Ir22  1  0.631108  0.131077  0.000000  1
  Ir  Ir23  1  0.008243  0.454164  0.500000  1
  Ir  Ir24  1  0.545891  0.554189  0.500000  1
  Ir  Ir25  1  0.445716  0.991608  0.500000  1
  Ir  Ir26  1  0.989691  0.270530  0.000000  1
  Ir  Ir27  1  0.729821  0.719295  0.000000  1
  Ir  Ir28  1  0.280711  0.010251  0.000000  1
  Ir  Ir29  1  0.639158  0.809018  0.500000  1
  Ir  Ir30  1  0.190556  0.830004  0.500000  1
  Ir  Ir31  1  0.169952  0.360887  0.500000  1
  Ir  Ir32  1  0.386359  0.179801  0.500000  1
  Ir  Ir33  1  0.793654  0.613665  0.500000  1
  Ir  Ir34  1  0.820121  0.206494  0.500000  1
  Ir  Ir35  1  0.999981  0.999738  0.500000  1
