# generated using pymatgen
data_Hf4TaInRh10
_symmetry_space_group_name_H-M   'P 1'
_cell_length_a   4.18549500
_cell_length_b   5.64147908
_cell_length_c   11.00394013
_cell_angle_alpha   89.40513685
_cell_angle_beta   90.00000000
_cell_angle_gamma   90.00000000
_symmetry_Int_Tables_number   1
_chemical_formula_structural   Hf4TaInRh10
_chemical_formula_sum   'Hf4 Ta1 In1 Rh10'
_cell_volume   259.81523964
_cell_formula_units_Z   1
loop_
 _symmetry_equiv_pos_site_id
 _symmetry_equiv_pos_as_xyz
  1  'x, y, z'
loop_
 _atom_site_type_symbol
 _atom_site_label
 _atom_site_symmetry_multiplicity
 _atom_site_fract_x
 _atom_site_fract_y
 _atom_site_fract_z
 _atom_site_occupancy
  Hf  Hf0  1  0.500000  0.181814  0.641473  1
  Hf  Hf1  1  0.500000  0.818186  0.358527  1
  Hf  Hf2  1  0.500000  0.666752  0.854859  1
  Hf  Hf3  1  0.500000  0.333248  0.145141  1
  Ta  Ta4  1  0.000000  0.000000  0.000000  1
  In  In5  1  0.000000  0.500000  0.500000  1
  Rh  Rh6  1  0.500000  0.187124  0.895985  1
  Rh  Rh7  1  0.500000  0.812876  0.104015  1
  Rh  Rh8  1  0.500000  0.710015  0.615851  1
  Rh  Rh9  1  0.500000  0.289985  0.384149  1
  Rh  Rh10  1  0.000000  0.426606  0.748404  1
  Rh  Rh11  1  0.000000  0.573394  0.251596  1
  Rh  Rh12  1  0.000000  0.000000  0.500000  1
  Rh  Rh13  1  0.000000  0.500000  0.000000  1
  Rh  Rh14  1  0.000000  0.074973  0.239281  1
  Rh  Rh15  1  0.000000  0.925027  0.760719  1
