# generated using pymatgen
data_HoEr2MgCd2Ga3
_symmetry_space_group_name_H-M   'P 1'
_cell_length_a   7.21404203
_cell_length_b   7.21404109
_cell_length_c   4.41270800
_cell_angle_alpha   90.00000000
_cell_angle_beta   90.00000000
_cell_angle_gamma   120.00708206
_symmetry_Int_Tables_number   1
_chemical_formula_structural   HoEr2MgCd2Ga3
_chemical_formula_sum   'Ho1 Er2 Mg1 Cd2 Ga3'
_cell_volume   198.86671718
_cell_formula_units_Z   1
loop_
 _symmetry_equiv_pos_site_id
 _symmetry_equiv_pos_as_xyz
  1  'x, y, z'
loop_
 _atom_site_type_symbol
 _atom_site_label
 _atom_site_symmetry_multiplicity
 _atom_site_fract_x
 _atom_site_fract_y
 _atom_site_fract_z
 _atom_site_occupancy
  Ho  Ho0  1  0.425423  0.425423  0.500000  1
  Er  Er1  1  0.572444  0.001116  0.500000  1
  Er  Er2  1  0.001116  0.572444  0.500000  1
  Mg  Mg3  1  0.759671  0.759671  0.000000  1
  Cd  Cd4  1  0.246966  0.997626  0.000000  1
  Cd  Cd5  1  0.997626  0.246966  0.000000  1
  Ga  Ga6  1  0.665055  0.337147  0.000000  1
  Ga  Ga7  1  0.337147  0.665055  0.000000  1
  Ga  Ga8  1  0.994553  0.994553  0.500000  1
