# generated using pymatgen
data_Mn3V16Si12Tc
_symmetry_space_group_name_H-M   'P 1'
_cell_length_a   6.98978346
_cell_length_b   6.99090107
_cell_length_c   13.18378965
_cell_angle_alpha   90.03520606
_cell_angle_beta   89.96575669
_cell_angle_gamma   140.68214929
_symmetry_Int_Tables_number   1
_chemical_formula_structural   Mn3V16Si12Tc
_chemical_formula_sum   'Mn3 V16 Si12 Tc1'
_cell_volume   408.19460120
_cell_formula_units_Z   1
loop_
 _symmetry_equiv_pos_site_id
 _symmetry_equiv_pos_as_xyz
  1  'x, y, z'
loop_
 _atom_site_type_symbol
 _atom_site_label
 _atom_site_symmetry_multiplicity
 _atom_site_fract_x
 _atom_site_fract_y
 _atom_site_fract_z
 _atom_site_occupancy
  Mn  Mn0  1  0.501066  0.501461  0.999641  1
  Mn  Mn1  1  0.501400  0.499019  0.501077  1
  Mn  Mn2  1  0.000896  0.001233  0.999611  1
  V  V3  1  0.574664  0.929116  0.902868  1
  V  V4  1  0.421594  0.069296  0.600090  1
  V  V5  1  0.929326  0.574679  0.098558  1
  V  V6  1  0.851812  0.653536  0.677203  1
  V  V7  1  0.349040  0.153114  0.176401  1
  V  V8  1  0.652867  0.846799  0.321521  1
  V  V9  1  0.152314  0.348929  0.823717  1
  V  V10  1  0.654127  0.852752  0.676831  1
  V  V11  1  0.152433  0.348792  0.174379  1
  V  V12  1  0.849596  0.656361  0.322128  1
  V  V13  1  0.348418  0.152326  0.823859  1
  V  V14  1  0.421538  0.069945  0.401135  1
  V  V15  1  0.928501  0.575540  0.902365  1
  V  V16  1  0.069733  0.420599  0.600756  1
  V  V17  1  0.574264  0.929028  0.097422  1
  V  V18  1  0.998823  0.996105  0.500873  1
  Si  Si19  1  0.250353  0.749249  0.751469  1
  Si  Si20  1  0.748912  0.250400  0.248855  1
  Si  Si21  1  0.749777  0.251201  0.751519  1
  Si  Si22  1  0.250662  0.750995  0.248637  1
  Si  Si23  1  0.255861  0.255695  0.663694  1
  Si  Si24  1  0.752911  0.753255  0.159317  1
  Si  Si25  1  0.256288  0.254115  0.336933  1
  Si  Si26  1  0.752488  0.753223  0.839509  1
  Si  Si27  1  0.574515  0.902268  0.500144  1
  Si  Si28  1  0.089753  0.411380  0.999491  1
  Si  Si29  1  0.904479  0.575583  0.499959  1
  Si  Si30  1  0.410847  0.091062  0.000153  1
  Tc  Tc31  1  0.070741  0.422943  0.399886  1
