# generated using pymatgen
data_Tb9DyPb6
_symmetry_space_group_name_H-M   'P 1'
_cell_length_a   9.10859700
_cell_length_b   9.10859727
_cell_length_c   6.67564100
_cell_angle_alpha   90.00000000
_cell_angle_beta   90.00000000
_cell_angle_gamma   119.99999537
_symmetry_Int_Tables_number   1
_chemical_formula_structural   Tb9DyPb6
_chemical_formula_sum   'Tb9 Dy1 Pb6'
_cell_volume   479.65239083
_cell_formula_units_Z   1
loop_
 _symmetry_equiv_pos_site_id
 _symmetry_equiv_pos_as_xyz
  1  'x, y, z'
loop_
 _atom_site_type_symbol
 _atom_site_label
 _atom_site_symmetry_multiplicity
 _atom_site_fract_x
 _atom_site_fract_y
 _atom_site_fract_z
 _atom_site_occupancy
  Tb  Tb0  1  0.237610  0.237590  0.749979  1
  Tb  Tb1  1  0.237610  0.000020  0.250021  1
  Tb  Tb2  1  0.333333  0.666667  0.000000  1
  Tb  Tb3  1  0.666667  0.333333  0.000000  1
  Tb  Tb4  1  0.999980  0.762390  0.749979  1
  Tb  Tb5  1  0.762410  0.762390  0.250021  1
  Tb  Tb6  1  0.999980  0.237590  0.250021  1
  Tb  Tb7  1  0.762410  0.000020  0.749979  1
  Tb  Tb8  1  0.333333  0.666667  0.500000  1
  Dy  Dy9  1  0.666667  0.333333  0.500000  1
  Pb  Pb10  1  0.999913  0.394643  0.749935  1
  Pb  Pb11  1  0.394729  0.394643  0.250065  1
  Pb  Pb12  1  0.605357  0.000087  0.250065  1
  Pb  Pb13  1  0.605357  0.605271  0.749935  1
  Pb  Pb14  1  0.394729  0.000087  0.749935  1
  Pb  Pb15  1  0.999913  0.605271  0.250065  1
