# generated using pymatgen
data_Sm4Tm4Sc12Si15Se
_symmetry_space_group_name_H-M   'P 1'
_cell_length_a   7.18307282
_cell_length_b   7.36848943
_cell_length_c   14.00674243
_cell_angle_alpha   89.97943725
_cell_angle_beta   88.24118422
_cell_angle_gamma   90.17531270
_symmetry_Int_Tables_number   1
_chemical_formula_structural   Sm4Tm4Sc12Si15Se
_chemical_formula_sum   'Sm4 Tm4 Sc12 Si15 Se1'
_cell_volume   741.00160108
_cell_formula_units_Z   1
loop_
 _symmetry_equiv_pos_site_id
 _symmetry_equiv_pos_as_xyz
  1  'x, y, z'
loop_
 _atom_site_type_symbol
 _atom_site_label
 _atom_site_symmetry_multiplicity
 _atom_site_fract_x
 _atom_site_fract_y
 _atom_site_fract_z
 _atom_site_occupancy
  Sm  Sm0  1  0.008833  0.174842  0.097986  1
  Sm  Sm1  1  0.990602  0.827357  0.902522  1
  Sm  Sm2  1  0.491747  0.673555  0.904844  1
  Sm  Sm3  1  0.999727  0.824034  0.595042  1
  Tm  Tm4  1  0.509559  0.324368  0.099594  1
  Tm  Tm5  1  0.993899  0.174680  0.399913  1
  Tm  Tm6  1  0.499397  0.315883  0.400537  1
  Tm  Tm7  1  0.511291  0.682672  0.598324  1
  Sc  Sc8  1  0.170235  0.500139  0.751724  1
  Sc  Sc9  1  0.828899  0.498052  0.254003  1
  Sc  Sc10  1  0.328465  0.999739  0.252644  1
  Sc  Sc11  1  0.671907  0.000292  0.747919  1
  Sc  Sc12  1  0.353195  0.166480  0.625560  1
  Sc  Sc13  1  0.649312  0.828963  0.374315  1
  Sc  Sc14  1  0.148807  0.668935  0.377216  1
  Sc  Sc15  1  0.663652  0.823179  0.127097  1
  Sc  Sc16  1  0.845907  0.332355  0.620094  1
  Sc  Sc17  1  0.336366  0.177276  0.873179  1
  Sc  Sc18  1  0.834450  0.324721  0.873808  1
  Sc  Sc19  1  0.165426  0.674678  0.126507  1
  Si  Si20  1  0.044732  0.123126  0.747530  1
  Si  Si21  1  0.955808  0.879593  0.251077  1
  Si  Si22  1  0.454380  0.614682  0.250315  1
  Si  Si23  1  0.545057  0.383050  0.748050  1
  Si  Si24  1  0.297612  0.872842  0.748918  1
  Si  Si25  1  0.703524  0.127494  0.250086  1
  Si  Si26  1  0.206363  0.372284  0.251338  1
  Si  Si27  1  0.795678  0.624897  0.748916  1
  Si  Si28  1  0.797823  0.537446  0.456031  1
  Si  Si29  1  0.317621  0.963027  0.458581  1
  Si  Si30  1  0.840136  0.534680  0.040240  1
  Si  Si31  1  0.679208  0.042055  0.539353  1
  Si  Si32  1  0.154209  0.464796  0.960584  1
  Si  Si33  1  0.653918  0.039848  0.961567  1
  Si  Si34  1  0.345861  0.967872  0.041178  1
  Se  Se35  1  0.206394  0.460107  0.543405  1
