# generated using pymatgen
data_Ti(S4Br)4
_symmetry_space_group_name_H-M   'P 1'
_cell_length_a   12.17464583
_cell_length_b   12.80764234
_cell_length_c   13.21329105
_cell_angle_alpha   102.64818566
_cell_angle_beta   62.56790697
_cell_angle_gamma   118.37812696
_symmetry_Int_Tables_number   1
_chemical_formula_structural   Ti(S4Br)4
_chemical_formula_sum   'Ti2 S32 Br8'
_cell_volume   1608.91025848
_cell_formula_units_Z   2
loop_
 _symmetry_equiv_pos_site_id
 _symmetry_equiv_pos_as_xyz
  1  'x, y, z'
loop_
 _atom_site_type_symbol
 _atom_site_label
 _atom_site_symmetry_multiplicity
 _atom_site_fract_x
 _atom_site_fract_y
 _atom_site_fract_z
 _atom_site_occupancy
  Ti  Ti0  1  0.003748  0.000000  0.000000  1
  Ti  Ti1  1  0.253747  0.500000  0.500001  1
  S  S2  1  0.472859  0.218402  0.004287  1
  S  S3  1  0.393106  0.329704  0.006402  1
  S  S4  1  0.656974  0.316958  0.018300  1
  S  S5  1  0.326244  0.652169  0.141894  1
  S  S6  1  0.921031  0.639071  0.158649  1
  S  S7  1  0.542082  0.008616  0.196694  1
  S  S8  1  0.165014  0.487644  0.197721  1
  S  S9  1  0.876696  0.478834  0.212855  1
  S  S10  1  0.339552  0.978834  0.287145  1
  S  S11  1  0.612734  0.987644  0.302279  1
  S  S12  1  0.988778  0.508617  0.303306  1
  S  S13  1  0.329678  0.139070  0.341351  1
  S  S14  1  0.718140  0.152170  0.358106  1
  S  S15  1  0.925275  0.816959  0.481700  1
  S  S16  1  0.649507  0.829703  0.493599  1
  S  S17  1  0.727146  0.718402  0.495713  1
  S  S18  1  0.504458  0.281598  0.504287  1
  S  S19  1  0.313402  0.170296  0.506401  1
  S  S20  1  0.590016  0.183041  0.518300  1
  S  S21  1  0.924076  0.847831  0.641894  1
  S  S22  1  0.531959  0.860929  0.658648  1
  S  S23  1  0.783467  0.491384  0.696694  1
  S  S24  1  0.927370  0.012356  0.697720  1
  S  S25  1  0.647861  0.021165  0.712856  1
  S  S26  1  0.610718  0.521166  0.787145  1
  S  S27  1  0.875090  0.512356  0.802279  1
  S  S28  1  0.730161  0.991384  0.803306  1
  S  S29  1  0.440608  0.360930  0.841351  1
  S  S30  1  0.815970  0.347830  0.858106  1
  S  S31  1  0.358315  0.683041  0.981700  1
  S  S32  1  0.069804  0.670296  0.993599  1
  S  S33  1  0.258743  0.781598  0.995713  1
  Br  Br34  1  0.806617  0.831456  0.001369  1
  Br  Br35  1  0.032775  0.000935  0.163674  1
  Br  Br36  1  0.446448  0.500935  0.336327  1
  Br  Br37  1  0.057985  0.331456  0.498632  1
  Br  Br38  1  0.225160  0.668544  0.501369  1
  Br  Br39  1  0.281840  0.499065  0.663673  1
  Br  Br40  1  0.195514  0.999065  0.836327  1
  Br  Br41  1  0.976530  0.168544  0.998631  1
