# generated using pymatgen
data_La7Yb11(PrSn8)2
_symmetry_space_group_name_H-M   'P 1'
_cell_length_a   7.97700349
_cell_length_b   8.50889691
_cell_length_c   16.06826400
_cell_angle_alpha   89.92085287
_cell_angle_beta   90.02014725
_cell_angle_gamma   90.12045892
_symmetry_Int_Tables_number   1
_chemical_formula_structural   La7Yb11(PrSn8)2
_chemical_formula_sum   'La7 Yb11 Pr2 Sn16'
_cell_volume   1090.63794248
_cell_formula_units_Z   1
loop_
 _symmetry_equiv_pos_site_id
 _symmetry_equiv_pos_as_xyz
  1  'x, y, z'
loop_
 _atom_site_type_symbol
 _atom_site_label
 _atom_site_symmetry_multiplicity
 _atom_site_fract_x
 _atom_site_fract_y
 _atom_site_fract_z
 _atom_site_occupancy
  La  La0  1  0.992101  0.184334  0.595560  1
  La  La1  1  0.507903  0.684959  0.404228  1
  La  La2  1  0.010921  0.815969  0.097511  1
  La  La3  1  0.507944  0.683979  0.096258  1
  La  La4  1  0.007689  0.815249  0.403818  1
  La  La5  1  0.491212  0.315506  0.593854  1
  La  La6  1  0.992216  0.182770  0.903949  1
  Yb  Yb7  1  0.328475  0.829186  0.877364  1
  Yb  Yb8  1  0.828272  0.669637  0.623206  1
  Yb  Yb9  1  0.671535  0.170465  0.376309  1
  Yb  Yb10  1  0.173373  0.329530  0.124107  1
  Yb  Yb11  1  0.670111  0.170980  0.124186  1
  Yb  Yb12  1  0.171181  0.329567  0.376372  1
  Yb  Yb13  1  0.327821  0.829098  0.623179  1
  Yb  Yb14  1  0.156959  0.502321  0.748957  1
  Yb  Yb15  1  0.654543  0.995950  0.748439  1
  Yb  Yb16  1  0.844181  0.494213  0.250227  1
  Yb  Yb17  1  0.343876  0.006691  0.250398  1
  Pr  Pr18  1  0.830813  0.673869  0.875619  1
  Pr  Pr19  1  0.490522  0.313079  0.904926  1
  Sn  Sn20  1  0.331943  0.038015  0.039102  1
  Sn  Sn21  1  0.832203  0.463965  0.460341  1
  Sn  Sn22  1  0.667568  0.963521  0.539428  1
  Sn  Sn23  1  0.169741  0.533496  0.959900  1
  Sn  Sn24  1  0.667251  0.965931  0.960808  1
  Sn  Sn25  1  0.166290  0.535504  0.539367  1
  Sn  Sn26  1  0.331726  0.036230  0.460643  1
  Sn  Sn27  1  0.831975  0.462567  0.039698  1
  Sn  Sn28  1  0.527661  0.605307  0.751110  1
  Sn  Sn29  1  0.029339  0.896273  0.749550  1
  Sn  Sn30  1  0.471614  0.395588  0.250856  1
  Sn  Sn31  1  0.971992  0.105691  0.249929  1
  Sn  Sn32  1  0.284697  0.140933  0.750142  1
  Sn  Sn33  1  0.780566  0.359115  0.751022  1
  Sn  Sn34  1  0.716511  0.859884  0.249668  1
  Sn  Sn35  1  0.217272  0.640622  0.249972  1
