# generated using pymatgen
data_Lu7(PS3)2
_symmetry_space_group_name_H-M   'P 1'
_cell_length_a   7.67012730
_cell_length_b   7.67030060
_cell_length_c   7.67015333
_cell_angle_alpha   119.99958989
_cell_angle_beta   89.99918582
_cell_angle_gamma   120.00053947
_symmetry_Int_Tables_number   1
_chemical_formula_structural   Lu7(PS3)2
_chemical_formula_sum   'Lu7 P2 S6'
_cell_volume   319.08489150
_cell_formula_units_Z   1
loop_
 _symmetry_equiv_pos_site_id
 _symmetry_equiv_pos_as_xyz
  1  'x, y, z'
loop_
 _atom_site_type_symbol
 _atom_site_label
 _atom_site_symmetry_multiplicity
 _atom_site_fract_x
 _atom_site_fract_y
 _atom_site_fract_z
 _atom_site_occupancy
  Lu  Lu0  1  0.249940  0.000015  0.249946  1
  Lu  Lu1  1  0.249940  0.499865  0.249930  1
  Lu  Lu2  1  0.750053  0.999981  0.249937  1
  Lu  Lu3  1  0.250006  0.500021  0.750020  1
  Lu  Lu4  1  0.249951  0.000010  0.750057  1
  Lu  Lu5  1  0.750058  0.999997  0.750049  1
  Lu  Lu6  1  0.750066  0.500116  0.750057  1
  P  P7  1  0.000005  0.999995  0.999987  1
  P  P8  1  0.499995  0.999996  0.500003  1
  S  S9  1  0.001027  0.002057  0.501028  1
  S  S10  1  0.001011  0.499986  0.501024  1
  S  S11  1  0.498965  0.499986  0.501042  1
  S  S12  1  0.001025  0.500008  0.998972  1
  S  S13  1  0.498981  0.500015  0.998977  1
  S  S14  1  0.498980  0.997955  0.998980  1
