# generated using pymatgen
data_Sr2Th(As2Pd3)3
_symmetry_space_group_name_H-M   'P 1'
_cell_length_a   4.18059300
_cell_length_b   8.69246838
_cell_length_c   10.20328520
_cell_angle_alpha   106.82955730
_cell_angle_beta   90.00000000
_cell_angle_gamma   103.91441169
_symmetry_Int_Tables_number   1
_chemical_formula_structural   Sr2Th(As2Pd3)3
_chemical_formula_sum   'Sr2 Th1 As6 Pd9'
_cell_volume   343.52056767
_cell_formula_units_Z   1
loop_
 _symmetry_equiv_pos_site_id
 _symmetry_equiv_pos_as_xyz
  1  'x, y, z'
loop_
 _atom_site_type_symbol
 _atom_site_label
 _atom_site_symmetry_multiplicity
 _atom_site_fract_x
 _atom_site_fract_y
 _atom_site_fract_z
 _atom_site_occupancy
  Sr  Sr0  1  0.844850  0.689699  0.297146  1
  Sr  Sr1  1  0.155150  0.310301  0.702854  1
  Th  Th2  1  0.000000  0.000000  0.000000  1
  As  As3  1  0.803873  0.607748  0.872534  1
  As  As4  1  0.196127  0.392252  0.127466  1
  As  As5  1  0.535721  0.071442  0.790931  1
  As  As6  1  0.464279  0.928558  0.209069  1
  As  As7  1  0.636521  0.273042  0.450757  1
  As  As8  1  0.363479  0.726958  0.549243  1
  Pd  Pd9  1  0.954097  0.908193  0.671409  1
  Pd  Pd10  1  0.045903  0.091807  0.328591  1
  Pd  Pd11  1  0.778912  0.557825  0.605678  1
  Pd  Pd12  1  0.221088  0.442175  0.394322  1
  Pd  Pd13  1  0.378081  0.756162  0.799405  1
  Pd  Pd14  1  0.621919  0.243838  0.200595  1
  Pd  Pd15  1  0.500000  0.000000  0.500000  1
  Pd  Pd16  1  0.679131  0.358263  0.970905  1
  Pd  Pd17  1  0.320869  0.641737  0.029095  1
