# generated using pymatgen
data_Y2Er10TcOs3
_symmetry_space_group_name_H-M   'P 1'
_cell_length_a   6.26607203
_cell_length_b   7.40024950
_cell_length_c   8.96593200
_cell_angle_alpha   90.00000000
_cell_angle_beta   90.00000000
_cell_angle_gamma   90.06427927
_symmetry_Int_Tables_number   1
_chemical_formula_structural   Y2Er10TcOs3
_chemical_formula_sum   'Y2 Er10 Tc1 Os3'
_cell_volume   415.75445613
_cell_formula_units_Z   1
loop_
 _symmetry_equiv_pos_site_id
 _symmetry_equiv_pos_as_xyz
  1  'x, y, z'
loop_
 _atom_site_type_symbol
 _atom_site_label
 _atom_site_symmetry_multiplicity
 _atom_site_fract_x
 _atom_site_fract_y
 _atom_site_fract_z
 _atom_site_occupancy
  Y  Y0  1  0.873383  0.539237  0.250000  1
  Y  Y1  1  0.624967  0.038954  0.250000  1
  Er  Er2  1  0.335593  0.674676  0.061893  1
  Er  Er3  1  0.165210  0.175294  0.437956  1
  Er  Er4  1  0.666228  0.324505  0.562948  1
  Er  Er5  1  0.834880  0.825049  0.936491  1
  Er  Er6  1  0.666228  0.324505  0.937052  1
  Er  Er7  1  0.834880  0.825049  0.563509  1
  Er  Er8  1  0.335593  0.674676  0.438107  1
  Er  Er9  1  0.165210  0.175294  0.062044  1
  Er  Er10  1  0.129985  0.459787  0.750000  1
  Er  Er11  1  0.369494  0.960504  0.750000  1
  Tc  Tc12  1  0.041687  0.883441  0.250000  1
  Os  Os13  1  0.457549  0.382766  0.250000  1
  Os  Os14  1  0.960043  0.118669  0.750000  1
  Os  Os15  1  0.539071  0.617595  0.750000  1
