# generated using pymatgen
data_TbDy3(CoOs)4
_symmetry_space_group_name_H-M   'P 1'
_cell_length_a   5.23605799
_cell_length_b   5.10804562
_cell_length_c   9.08999870
_cell_angle_alpha   73.68186323
_cell_angle_beta   89.59548252
_cell_angle_gamma   119.19449860
_symmetry_Int_Tables_number   1
_chemical_formula_structural   TbDy3(CoOs)4
_chemical_formula_sum   'Tb1 Dy3 Co4 Os4'
_cell_volume   200.65173003
_cell_formula_units_Z   1
loop_
 _symmetry_equiv_pos_site_id
 _symmetry_equiv_pos_as_xyz
  1  'x, y, z'
loop_
 _atom_site_type_symbol
 _atom_site_label
 _atom_site_symmetry_multiplicity
 _atom_site_fract_x
 _atom_site_fract_y
 _atom_site_fract_z
 _atom_site_occupancy
  Tb  Tb0  1  0.877915  0.751867  0.374180  1
  Dy  Dy1  1  0.378172  0.752108  0.873956  1
  Dy  Dy2  1  0.996960  0.998117  0.000725  1
  Dy  Dy3  1  0.496674  0.997717  0.501240  1
  Co  Co4  1  0.187635  0.374968  0.437698  1
  Co  Co5  1  0.687453  0.375044  0.937365  1
  Co  Co6  1  0.937694  0.375437  0.186819  1
  Co  Co7  1  0.437247  0.374568  0.688112  1
  Os  Os8  1  0.437499  0.375365  0.187047  1
  Os  Os9  1  0.937626  0.374745  0.687905  1
  Os  Os10  1  0.437499  0.875087  0.187047  1
  Os  Os11  1  0.937626  0.874976  0.687905  1
