# generated using pymatgen
data_La2ThIr8Pt
_symmetry_space_group_name_H-M   'P 1'
_cell_length_a   9.49725861
_cell_length_b   9.49725943
_cell_length_c   9.49725865
_cell_angle_alpha   33.01601045
_cell_angle_beta   33.01600222
_cell_angle_gamma   33.01600252
_symmetry_Int_Tables_number   1
_chemical_formula_structural   La2ThIr8Pt
_chemical_formula_sum   'La2 Th1 Ir8 Pt1'
_cell_volume   226.33152915
_cell_formula_units_Z   1
loop_
 _symmetry_equiv_pos_site_id
 _symmetry_equiv_pos_as_xyz
  1  'x, y, z'
loop_
 _atom_site_type_symbol
 _atom_site_label
 _atom_site_symmetry_multiplicity
 _atom_site_fract_x
 _atom_site_fract_y
 _atom_site_fract_z
 _atom_site_occupancy
  La  La0  1  0.860914  0.860914  0.860914  1
  La  La1  1  0.139086  0.139086  0.139086  1
  Th  Th2  1  0.000000  0.000000  0.000000  1
  Ir  Ir3  1  0.420120  0.919753  0.420120  1
  Ir  Ir4  1  0.420120  0.420120  0.919753  1
  Ir  Ir5  1  0.919753  0.420120  0.420120  1
  Ir  Ir6  1  0.579880  0.080247  0.579880  1
  Ir  Ir7  1  0.579880  0.579880  0.080247  1
  Ir  Ir8  1  0.080247  0.579880  0.579880  1
  Ir  Ir9  1  0.667404  0.667404  0.667404  1
  Ir  Ir10  1  0.332596  0.332596  0.332596  1
  Pt  Pt11  1  0.500000  0.500000  0.500000  1
