# generated using pymatgen
data_Tb7Yb(HoRu2)2
_symmetry_space_group_name_H-M   'P 1'
_cell_length_a   6.39974819
_cell_length_b   7.26996143
_cell_length_c   8.51963309
_cell_angle_alpha   96.63019841
_cell_angle_beta   112.00847449
_cell_angle_gamma   89.64303215
_symmetry_Int_Tables_number   1
_chemical_formula_structural   Tb7Yb(HoRu2)2
_chemical_formula_sum   'Tb7 Yb1 Ho2 Ru4'
_cell_volume   364.74552450
_cell_formula_units_Z   1
loop_
 _symmetry_equiv_pos_site_id
 _symmetry_equiv_pos_as_xyz
  1  'x, y, z'
loop_
 _atom_site_type_symbol
 _atom_site_label
 _atom_site_symmetry_multiplicity
 _atom_site_fract_x
 _atom_site_fract_y
 _atom_site_fract_z
 _atom_site_occupancy
  Tb  Tb0  1  0.794256  0.583781  0.815641  1
  Tb  Tb1  1  0.021354  0.084701  0.814771  1
  Tb  Tb2  1  0.207438  0.415548  0.186586  1
  Tb  Tb3  1  0.640185  0.814584  0.434808  1
  Tb  Tb4  1  0.205392  0.685524  0.566540  1
  Tb  Tb5  1  0.362257  0.185977  0.566688  1
  Tb  Tb6  1  0.792516  0.315871  0.432731  1
  Yb  Yb7  1  0.978589  0.918407  0.185294  1
  Ho  Ho8  1  0.425432  0.749765  0.000692  1
  Ho  Ho9  1  0.577530  0.250333  0.001163  1
  Ru  Ru10  1  0.819932  0.569653  0.219838  1
  Ru  Ru11  1  0.597850  0.924442  0.774374  1
  Ru  Ru12  1  0.177305  0.424924  0.781929  1
  Ru  Ru13  1  0.399962  0.076490  0.218946  1
