# generated using pymatgen
data_Tb4ZrRh3
_symmetry_space_group_name_H-M   'P 1'
_cell_length_a   10.91051100
_cell_length_b   10.91051100
_cell_length_c   6.25983500
_cell_angle_alpha   90.00000000
_cell_angle_beta   90.00000000
_cell_angle_gamma   90.00000000
_symmetry_Int_Tables_number   1
_chemical_formula_structural   Tb4ZrRh3
_chemical_formula_sum   'Tb16 Zr4 Rh12'
_cell_volume   745.16606528
_cell_formula_units_Z   4
loop_
 _symmetry_equiv_pos_site_id
 _symmetry_equiv_pos_as_xyz
  1  'x, y, z'
loop_
 _atom_site_type_symbol
 _atom_site_label
 _atom_site_symmetry_multiplicity
 _atom_site_fract_x
 _atom_site_fract_y
 _atom_site_fract_z
 _atom_site_occupancy
  Tb  Tb0  1  0.288991  0.087163  0.374550  1
  Tb  Tb1  1  0.288991  0.912837  0.874550  1
  Tb  Tb2  1  0.711009  0.087163  0.874550  1
  Tb  Tb3  1  0.711009  0.912837  0.374550  1
  Tb  Tb4  1  0.587163  0.788991  0.874550  1
  Tb  Tb5  1  0.587163  0.211009  0.374550  1
  Tb  Tb6  1  0.412837  0.788991  0.374550  1
  Tb  Tb7  1  0.412837  0.211009  0.874550  1
  Tb  Tb8  1  0.211009  0.412837  0.625450  1
  Tb  Tb9  1  0.211009  0.587163  0.125450  1
  Tb  Tb10  1  0.788991  0.412837  0.125450  1
  Tb  Tb11  1  0.788991  0.587163  0.625450  1
  Tb  Tb12  1  0.912837  0.711009  0.125450  1
  Tb  Tb13  1  0.912837  0.288991  0.625450  1
  Tb  Tb14  1  0.087163  0.711009  0.625450  1
  Tb  Tb15  1  0.087163  0.288991  0.125450  1
  Zr  Zr16  1  0.000000  0.000000  0.500000  1
  Zr  Zr17  1  0.000000  0.000000  0.000000  1
  Zr  Zr18  1  0.500000  0.500000  0.000000  1
  Zr  Zr19  1  0.500000  0.500000  0.500000  1
  Rh  Rh20  1  0.854800  0.145200  0.250000  1
  Rh  Rh21  1  0.854800  0.854800  0.750000  1
  Rh  Rh22  1  0.145200  0.145200  0.750000  1
  Rh  Rh23  1  0.145200  0.854800  0.250000  1
  Rh  Rh24  1  0.645200  0.354800  0.750000  1
  Rh  Rh25  1  0.645200  0.645200  0.250000  1
  Rh  Rh26  1  0.354800  0.354800  0.250000  1
  Rh  Rh27  1  0.354800  0.645200  0.750000  1
  Rh  Rh28  1  0.500000  0.000000  0.118342  1
  Rh  Rh29  1  0.500000  0.000000  0.618342  1
  Rh  Rh30  1  0.000000  0.500000  0.881658  1
  Rh  Rh31  1  0.000000  0.500000  0.381658  1
