# generated using pymatgen
data_TbY11OsRu3
_symmetry_space_group_name_H-M   'P 1'
_cell_length_a   6.36309141
_cell_length_b   7.36578409
_cell_length_c   9.22188800
_cell_angle_alpha   90.00000000
_cell_angle_beta   90.00000000
_cell_angle_gamma   89.95884861
_symmetry_Int_Tables_number   1
_chemical_formula_structural   TbY11OsRu3
_chemical_formula_sum   'Tb1 Y11 Os1 Ru3'
_cell_volume   432.22200936
_cell_formula_units_Z   1
loop_
 _symmetry_equiv_pos_site_id
 _symmetry_equiv_pos_as_xyz
  1  'x, y, z'
loop_
 _atom_site_type_symbol
 _atom_site_label
 _atom_site_symmetry_multiplicity
 _atom_site_fract_x
 _atom_site_fract_y
 _atom_site_fract_z
 _atom_site_occupancy
  Tb  Tb0  1  0.635464  0.042533  0.250000  1
  Y  Y1  1  0.330977  0.675592  0.063591  1
  Y  Y2  1  0.169720  0.175818  0.435203  1
  Y  Y3  1  0.670576  0.324430  0.564533  1
  Y  Y4  1  0.828659  0.823348  0.934657  1
  Y  Y5  1  0.670576  0.324430  0.935467  1
  Y  Y6  1  0.828659  0.823348  0.565343  1
  Y  Y7  1  0.330977  0.675592  0.436409  1
  Y  Y8  1  0.169720  0.175818  0.064797  1
  Y  Y9  1  0.866532  0.541494  0.250000  1
  Y  Y10  1  0.132781  0.458928  0.750000  1
  Y  Y11  1  0.365163  0.960025  0.750000  1
  Os  Os12  1  0.539494  0.615629  0.750000  1
  Ru  Ru13  1  0.036356  0.885097  0.250000  1
  Ru  Ru14  1  0.463130  0.382629  0.250000  1
  Ru  Ru15  1  0.961216  0.115291  0.750000  1
