# generated using pymatgen
data_Ho13Er7Bi11Sb
_symmetry_space_group_name_H-M   'P 1'
_cell_length_a   8.20063874
_cell_length_b   9.46986100
_cell_length_c   11.97851279
_cell_angle_alpha   89.99760623
_cell_angle_beta   90.04498624
_cell_angle_gamma   90.00043640
_symmetry_Int_Tables_number   1
_chemical_formula_structural   Ho13Er7Bi11Sb
_chemical_formula_sum   'Ho13 Er7 Bi11 Sb1'
_cell_volume   930.23794638
_cell_formula_units_Z   1
loop_
 _symmetry_equiv_pos_site_id
 _symmetry_equiv_pos_as_xyz
  1  'x, y, z'
loop_
 _atom_site_type_symbol
 _atom_site_label
 _atom_site_symmetry_multiplicity
 _atom_site_fract_x
 _atom_site_fract_y
 _atom_site_fract_z
 _atom_site_occupancy
  Ho  Ho0  1  0.354108  0.750148  0.213456  1
  Ho  Ho1  1  0.853161  0.750108  0.283230  1
  Ho  Ho2  1  0.646857  0.250044  0.783420  1
  Ho  Ho3  1  0.146940  0.250079  0.716655  1
  Ho  Ho4  1  0.191869  0.564428  0.440921  1
  Ho  Ho5  1  0.476265  0.249996  0.488602  1
  Ho  Ho6  1  0.976684  0.250046  0.011218  1
  Ho  Ho7  1  0.524057  0.750086  0.511522  1
  Ho  Ho8  1  0.027677  0.750013  0.988359  1
  Ho  Ho9  1  0.314077  0.250009  0.218208  1
  Ho  Ho10  1  0.814042  0.250008  0.281888  1
  Ho  Ho11  1  0.682007  0.750019  0.784253  1
  Ho  Ho12  1  0.187375  0.750110  0.719758  1
  Er  Er13  1  0.689141  0.567056  0.057761  1
  Er  Er14  1  0.191934  0.935107  0.440838  1
  Er  Er15  1  0.309233  0.060863  0.941187  1
  Er  Er16  1  0.808141  0.435307  0.559020  1
  Er  Er17  1  0.309260  0.439122  0.941160  1
  Er  Er18  1  0.807941  0.064655  0.559080  1
  Er  Er19  1  0.689146  0.932955  0.057757  1
  Bi  Bi20  1  0.905796  0.750192  0.542901  1
  Bi  Bi21  1  0.594513  0.250007  0.042552  1
  Bi  Bi22  1  0.094210  0.249337  0.457639  1
  Bi  Bi23  1  0.566394  0.995884  0.325652  1
  Bi  Bi24  1  0.066267  0.503994  0.174106  1
  Bi  Bi25  1  0.433557  0.495893  0.674327  1
  Bi  Bi26  1  0.933365  0.003937  0.825776  1
  Bi  Bi27  1  0.433596  0.004198  0.674275  1
  Bi  Bi28  1  0.933319  0.496132  0.825783  1
  Bi  Bi29  1  0.566521  0.504204  0.325624  1
  Bi  Bi30  1  0.066313  0.996071  0.174148  1
  Sb  Sb31  1  0.406235  0.749992  0.958925  1
