# generated using pymatgen
data_Nd4In15GaPt8
_symmetry_space_group_name_H-M   'P 1'
_cell_length_a   4.55425700
_cell_length_b   7.31996615
_cell_length_c   18.81539900
_cell_angle_alpha   89.91991075
_cell_angle_beta   90.00000000
_cell_angle_gamma   90.00000000
_symmetry_Int_Tables_number   1
_chemical_formula_structural   Nd4In15GaPt8
_chemical_formula_sum   'Nd4 In15 Ga1 Pt8'
_cell_volume   627.24847696
_cell_formula_units_Z   1
loop_
 _symmetry_equiv_pos_site_id
 _symmetry_equiv_pos_as_xyz
  1  'x, y, z'
loop_
 _atom_site_type_symbol
 _atom_site_label
 _atom_site_symmetry_multiplicity
 _atom_site_fract_x
 _atom_site_fract_y
 _atom_site_fract_z
 _atom_site_occupancy
  Nd  Nd0  1  0.750000  0.969229  0.639576  1
  Nd  Nd1  1  0.250000  0.468871  0.860939  1
  Nd  Nd2  1  0.750000  0.513045  0.143182  1
  Nd  Nd3  1  0.250000  0.033826  0.358093  1
  In  In4  1  0.250000  0.500030  0.428722  1
  In  In5  1  0.250000  0.000119  0.930357  1
  In  In6  1  0.250000  0.837191  0.184910  1
  In  In7  1  0.250000  0.670287  0.685834  1
  In  In8  1  0.250000  0.257331  0.691723  1
  In  In9  1  0.250000  0.148279  0.534409  1
  In  In10  1  0.750000  0.996661  0.070034  1
  In  In11  1  0.750000  0.169945  0.814362  1
  In  In12  1  0.250000  0.347009  0.037633  1
  In  In13  1  0.750000  0.852376  0.464173  1
  In  In14  1  0.750000  0.646319  0.966375  1
  In  In15  1  0.750000  0.756869  0.808654  1
  In  In16  1  0.750000  0.501377  0.570249  1
  In  In17  1  0.750000  0.333443  0.315209  1
  In  In18  1  0.750000  0.746423  0.304730  1
  Ga  Ga19  1  0.250000  0.241437  0.196099  1
  Pt  Pt20  1  0.250000  0.960383  0.782121  1
  Pt  Pt21  1  0.750000  0.058501  0.215578  1
  Pt  Pt22  1  0.250000  0.532622  0.277939  1
  Pt  Pt23  1  0.250000  0.753526  0.541028  1
  Pt  Pt24  1  0.250000  0.744190  0.041985  1
  Pt  Pt25  1  0.750000  0.247289  0.458669  1
  Pt  Pt26  1  0.750000  0.252748  0.959122  1
  Pt  Pt27  1  0.750000  0.460675  0.718294  1
