# generated using pymatgen
data_Li3US4
_symmetry_space_group_name_H-M   'P 1'
_cell_length_a   7.58443600
_cell_length_b   6.64333818
_cell_length_c   6.44716111
_cell_angle_alpha   69.97637675
_cell_angle_beta   90.00000000
_cell_angle_gamma   90.00000000
_symmetry_Int_Tables_number   1
_chemical_formula_structural   Li3US4
_chemical_formula_sum   'Li6 U2 S8'
_cell_volume   305.21001265
_cell_formula_units_Z   2
loop_
 _symmetry_equiv_pos_site_id
 _symmetry_equiv_pos_as_xyz
  1  'x, y, z'
loop_
 _atom_site_type_symbol
 _atom_site_label
 _atom_site_symmetry_multiplicity
 _atom_site_fract_x
 _atom_site_fract_y
 _atom_site_fract_z
 _atom_site_occupancy
  Li  Li0  1  0.613189  0.250000  0.000000  1
  Li  Li1  1  0.386811  0.750000  0.000000  1
  Li  Li2  1  0.400929  0.250000  0.500000  1
  Li  Li3  1  0.858354  0.250000  0.500000  1
  Li  Li4  1  0.599071  0.750000  0.500000  1
  Li  Li5  1  0.141646  0.750000  0.500000  1
  U  U6  1  0.143406  0.250000  0.000000  1
  U  U7  1  0.856594  0.750000  0.000000  1
  S  S8  1  0.373027  0.011359  0.253957  1
  S  S9  1  0.113569  0.501361  0.238878  1
  S  S10  1  0.626973  0.511359  0.253957  1
  S  S11  1  0.886431  0.001361  0.238878  1
  S  S12  1  0.113569  0.998639  0.761122  1
  S  S13  1  0.373027  0.488641  0.746043  1
  S  S14  1  0.886431  0.498639  0.761122  1
  S  S15  1  0.626973  0.988641  0.746043  1
