# generated using pymatgen
data_DyI9
_symmetry_space_group_name_H-M   'P 1'
_cell_length_a   10.44287507
_cell_length_b   10.44287548
_cell_length_c   10.44287482
_cell_angle_alpha   89.37212231
_cell_angle_beta   89.37211725
_cell_angle_gamma   89.37212739
_symmetry_Int_Tables_number   1
_chemical_formula_structural   DyI9
_chemical_formula_sum   'Dy2 I18'
_cell_volume   1138.62989875
_cell_formula_units_Z   2
loop_
 _symmetry_equiv_pos_site_id
 _symmetry_equiv_pos_as_xyz
  1  'x, y, z'
loop_
 _atom_site_type_symbol
 _atom_site_label
 _atom_site_symmetry_multiplicity
 _atom_site_fract_x
 _atom_site_fract_y
 _atom_site_fract_z
 _atom_site_occupancy
  Dy  Dy0  1  0.000000  0.000000  0.000000  1
  Dy  Dy1  1  0.500000  0.500000  0.500000  1
  I  I2  1  0.710355  0.993129  0.036638  1
  I  I3  1  0.746578  0.126299  0.605334  1
  I  I4  1  0.036638  0.710355  0.993129  1
  I  I5  1  0.253422  0.873701  0.394666  1
  I  I6  1  0.126299  0.605334  0.746578  1
  I  I7  1  0.006871  0.963362  0.289645  1
  I  I8  1  0.605334  0.746578  0.126299  1
  I  I9  1  0.963362  0.289645  0.006871  1
  I  I10  1  0.873701  0.394666  0.253422  1
  I  I11  1  0.394666  0.253422  0.873701  1
  I  I12  1  0.993129  0.036638  0.710355  1
  I  I13  1  0.289645  0.006871  0.963362  1
  I  I14  1  0.791424  0.521882  0.491628  1
  I  I15  1  0.508372  0.208576  0.478118  1
  I  I16  1  0.478118  0.508372  0.208576  1
  I  I17  1  0.491628  0.791424  0.521882  1
  I  I18  1  0.521882  0.491628  0.791424  1
  I  I19  1  0.208576  0.478118  0.508372  1
