# generated using pymatgen
data_CeFe4Re7W
_symmetry_space_group_name_H-M   'P 1'
_cell_length_a   6.77762629
_cell_length_b   6.77299738
_cell_length_c   6.77762444
_cell_angle_alpha   96.33655467
_cell_angle_beta   98.29699047
_cell_angle_gamma   138.23746368
_symmetry_Int_Tables_number   1
_chemical_formula_structural   CeFe4Re7W
_chemical_formula_sum   'Ce1 Fe4 Re7 W1'
_cell_volume   193.51203661
_cell_formula_units_Z   1
loop_
 _symmetry_equiv_pos_site_id
 _symmetry_equiv_pos_as_xyz
  1  'x, y, z'
loop_
 _atom_site_type_symbol
 _atom_site_label
 _atom_site_symmetry_multiplicity
 _atom_site_fract_x
 _atom_site_fract_y
 _atom_site_fract_z
 _atom_site_occupancy
  Ce  Ce0  1  0.998474  0.000000  0.998474  1
  Fe  Fe1  1  0.000168  0.000811  0.501440  1
  Fe  Fe2  1  0.500857  0.501672  0.501603  1
  Fe  Fe3  1  0.999931  0.498328  0.999184  1
  Fe  Fe4  1  0.500630  0.999189  0.999357  1
  Re  Re5  1  0.999713  0.359177  0.358875  1
  Re  Re6  1  0.999697  0.640823  0.640535  1
  Re  Re7  1  0.648343  0.000000  0.648343  1
  Re  Re8  1  0.290565  0.500000  0.790565  1
  Re  Re9  1  0.500619  0.276462  0.777528  1
  Re  Re10  1  0.501065  0.723538  0.224157  1
  Re  Re11  1  0.705277  0.500000  0.205277  1
  W  W12  1  0.354661  0.000000  0.354661  1
