# generated using pymatgen
data_Y4Ga20IrPt10
_symmetry_space_group_name_H-M   'P 1'
_cell_length_a   4.17001970
_cell_length_b   10.98434463
_cell_length_c   13.77797300
_cell_angle_alpha   82.71012308
_cell_angle_beta   81.29602628
_cell_angle_gamma   79.05792894
_symmetry_Int_Tables_number   1
_chemical_formula_structural   Y4Ga20IrPt10
_chemical_formula_sum   'Y4 Ga20 Ir1 Pt10'
_cell_volume   609.34835162
_cell_formula_units_Z   1
loop_
 _symmetry_equiv_pos_site_id
 _symmetry_equiv_pos_as_xyz
  1  'x, y, z'
loop_
 _atom_site_type_symbol
 _atom_site_label
 _atom_site_symmetry_multiplicity
 _atom_site_fract_x
 _atom_site_fract_y
 _atom_site_fract_z
 _atom_site_occupancy
  Y  Y0  1  0.122937  0.087038  0.667088  1
  Y  Y1  1  0.878385  0.909959  0.333271  1
  Y  Y2  1  0.774854  0.628902  0.821391  1
  Y  Y3  1  0.223422  0.372480  0.180676  1
  Ga  Ga4  1  0.009711  0.068133  0.912447  1
  Ga  Ga5  1  0.990052  0.931154  0.088742  1
  Ga  Ga6  1  0.064874  0.672072  0.198180  1
  Ga  Ga7  1  0.934645  0.324913  0.805796  1
  Ga  Ga8  1  0.100957  0.347346  0.450739  1
  Ga  Ga9  1  0.900269  0.657167  0.542297  1
  Ga  Ga10  1  0.202343  0.603465  0.991850  1
  Ga  Ga11  1  0.797051  0.396899  0.009000  1
  Ga  Ga12  1  0.260730  0.779355  0.699185  1
  Ga  Ga13  1  0.738754  0.221992  0.300500  1
  Ga  Ga14  1  0.303376  0.899610  0.493638  1
  Ga  Ga15  1  0.698131  0.098670  0.505067  1
  Ga  Ga16  1  0.387909  0.522976  0.701205  1
  Ga  Ga17  1  0.609870  0.482075  0.298185  1
  Ga  Ga18  1  0.396735  0.203822  0.002709  1
  Ga  Ga19  1  0.603012  0.796896  0.997079  1
  Ga  Ga20  1  0.543348  0.282671  0.630633  1
  Ga  Ga21  1  0.460068  0.713674  0.366190  1
  Ga  Ga22  1  0.637524  0.932680  0.792273  1
  Ga  Ga23  1  0.361886  0.067813  0.208414  1
  Ir  Ir24  1  0.026597  0.575033  0.371772  1
  Pt  Pt25  1  0.499215  0.499035  0.502536  1
  Pt  Pt26  1  0.973080  0.422630  0.631209  1
  Pt  Pt27  1  0.140705  0.831939  0.886650  1
  Pt  Pt28  1  0.859775  0.167816  0.112633  1
  Pt  Pt29  1  0.239131  0.129032  0.392704  1
  Pt  Pt30  1  0.760527  0.871010  0.607937  1
  Pt  Pt31  1  0.346136  0.415498  0.892229  1
  Pt  Pt32  1  0.653865  0.585686  0.106584  1
  Pt  Pt33  1  0.506244  0.167382  0.820132  1
  Pt  Pt34  1  0.493881  0.833178  0.179058  1
