# generated using pymatgen
data_Er8Tm2Sn5Sb
_symmetry_space_group_name_H-M   'P 1'
_cell_length_a   8.86711100
_cell_length_b   8.87594884
_cell_length_c   6.43897403
_cell_angle_alpha   89.98986162
_cell_angle_beta   90.00000000
_cell_angle_gamma   119.96706402
_symmetry_Int_Tables_number   1
_chemical_formula_structural   Er8Tm2Sn5Sb
_chemical_formula_sum   'Er8 Tm2 Sn5 Sb1'
_cell_volume   439.02400967
_cell_formula_units_Z   1
loop_
 _symmetry_equiv_pos_site_id
 _symmetry_equiv_pos_as_xyz
  1  'x, y, z'
loop_
 _atom_site_type_symbol
 _atom_site_label
 _atom_site_symmetry_multiplicity
 _atom_site_fract_x
 _atom_site_fract_y
 _atom_site_fract_z
 _atom_site_occupancy
  Er  Er0  1  0.997284  0.760305  0.749947  1
  Er  Er1  1  0.001036  0.238602  0.249962  1
  Er  Er2  1  0.762435  0.761398  0.250038  1
  Er  Er3  1  0.762204  0.000000  0.750000  1
  Er  Er4  1  0.236978  0.239695  0.750053  1
  Er  Er5  1  0.238604  0.000000  0.250000  1
  Er  Er6  1  0.667481  0.334032  0.499749  1
  Er  Er7  1  0.333448  0.665968  0.000251  1
  Tm  Tm8  1  0.333496  0.665958  0.499696  1
  Tm  Tm9  1  0.667539  0.334042  0.000304  1
  Sn  Sn10  1  0.395311  0.394120  0.249964  1
  Sn  Sn11  1  0.001191  0.605880  0.250036  1
  Sn  Sn12  1  0.999611  0.395179  0.749982  1
  Sn  Sn13  1  0.604432  0.604821  0.750018  1
  Sn  Sn14  1  0.605902  0.000000  0.250000  1
  Sb  Sb15  1  0.393049  0.000000  0.750000  1
