# generated using pymatgen
data_Tb3Dy5(NiB14)2
_symmetry_space_group_name_H-M   'P 1'
_cell_length_a   7.23858434
_cell_length_b   7.23806634
_cell_length_c   7.51658400
_cell_angle_alpha   90.00000000
_cell_angle_beta   90.00000000
_cell_angle_gamma   90.03498701
_symmetry_Int_Tables_number   1
_chemical_formula_structural   Tb3Dy5(NiB14)2
_chemical_formula_sum   'Tb3 Dy5 Ni2 B28'
_cell_volume   393.81897012
_cell_formula_units_Z   1
loop_
 _symmetry_equiv_pos_site_id
 _symmetry_equiv_pos_as_xyz
  1  'x, y, z'
loop_
 _atom_site_type_symbol
 _atom_site_label
 _atom_site_symmetry_multiplicity
 _atom_site_fract_x
 _atom_site_fract_y
 _atom_site_fract_z
 _atom_site_occupancy
  Tb  Tb0  1  0.193422  0.331475  0.000000  1
  Tb  Tb1  1  0.668436  0.193587  0.000000  1
  Tb  Tb2  1  0.331577  0.806611  0.000000  1
  Dy  Dy3  1  0.693669  0.168377  0.500000  1
  Dy  Dy4  1  0.306238  0.831585  0.500000  1
  Dy  Dy5  1  0.806602  0.668077  0.000000  1
  Dy  Dy6  1  0.831786  0.693651  0.500000  1
  Dy  Dy7  1  0.168513  0.306344  0.500000  1
  Ni  Ni8  1  0.999485  0.999456  0.000000  1
  Ni  Ni9  1  0.500325  0.500092  0.500000  1
  B  B10  1  0.174227  0.039259  0.233488  1
  B  B11  1  0.960673  0.174261  0.233419  1
  B  B12  1  0.038991  0.825419  0.233224  1
  B  B13  1  0.674624  0.460945  0.267587  1
  B  B14  1  0.325767  0.539361  0.267746  1
  B  B15  1  0.825428  0.960407  0.233325  1
  B  B16  1  0.539535  0.674569  0.267739  1
  B  B17  1  0.460771  0.325824  0.267833  1
  B  B18  1  0.825428  0.960407  0.766675  1
  B  B19  1  0.038991  0.825419  0.766776  1
  B  B20  1  0.960673  0.174261  0.766581  1
  B  B21  1  0.325767  0.539361  0.732254  1
  B  B22  1  0.674624  0.460945  0.732413  1
  B  B23  1  0.174227  0.039259  0.766512  1
  B  B24  1  0.460771  0.325824  0.732167  1
  B  B25  1  0.539535  0.674569  0.732261  1
  B  B26  1  0.089462  0.589478  0.250786  1
  B  B27  1  0.410439  0.089505  0.251046  1
  B  B28  1  0.589370  0.910712  0.251008  1
  B  B29  1  0.910593  0.410536  0.250566  1
  B  B30  1  0.910593  0.410536  0.749434  1
  B  B31  1  0.589370  0.910712  0.748992  1
  B  B32  1  0.410439  0.089505  0.748954  1
  B  B33  1  0.089462  0.589478  0.749214  1
  B  B34  1  0.999816  0.999836  0.388770  1
  B  B35  1  0.500278  0.500259  0.111741  1
  B  B36  1  0.999816  0.999836  0.611230  1
  B  B37  1  0.500278  0.500259  0.888259  1
