# generated using pymatgen
data_TiNb5(InRh2)6
_symmetry_space_group_name_H-M   'P 1'
_cell_length_a   4.19539900
_cell_length_b   7.46044400
_cell_length_c   12.59830700
_cell_angle_alpha   90.00019989
_cell_angle_beta   89.99790572
_cell_angle_gamma   89.99921228
_symmetry_Int_Tables_number   1
_chemical_formula_structural   TiNb5(InRh2)6
_chemical_formula_sum   'Ti1 Nb5 In6 Rh12'
_cell_volume   394.32120507
_cell_formula_units_Z   1
loop_
 _symmetry_equiv_pos_site_id
 _symmetry_equiv_pos_as_xyz
  1  'x, y, z'
loop_
 _atom_site_type_symbol
 _atom_site_label
 _atom_site_symmetry_multiplicity
 _atom_site_fract_x
 _atom_site_fract_y
 _atom_site_fract_z
 _atom_site_occupancy
  Ti  Ti0  1  0.500000  0.000013  0.833341  1
  Nb  Nb1  1  0.999982  0.499994  0.999064  1
  Nb  Nb2  1  0.500003  0.999991  0.165397  1
  Nb  Nb3  1  0.999990  0.500002  0.333345  1
  Nb  Nb4  1  0.500009  0.000002  0.501266  1
  Nb  Nb5  1  0.999995  0.500000  0.667591  1
  In  In6  1  0.000004  0.999995  0.997474  1
  In  In7  1  0.499938  0.499977  0.166122  1
  In  In8  1  0.000061  0.000036  0.333334  1
  In  In9  1  0.499997  0.500001  0.500556  1
  In  In10  1  0.000012  0.999997  0.669187  1
  In  In11  1  0.499992  0.499992  0.833293  1
  Rh  Rh12  1  0.499993  0.249132  0.999852  1
  Rh  Rh13  1  0.500002  0.750867  0.999861  1
  Rh  Rh14  1  0.999986  0.249397  0.166261  1
  Rh  Rh15  1  0.999995  0.750593  0.166263  1
  Rh  Rh16  1  0.500013  0.250142  0.333343  1
  Rh  Rh17  1  0.500011  0.749875  0.333340  1
  Rh  Rh18  1  0.000005  0.249399  0.500410  1
  Rh  Rh19  1  0.000012  0.750606  0.500408  1
  Rh  Rh20  1  0.499999  0.249101  0.666813  1
  Rh  Rh21  1  0.500003  0.750913  0.666802  1
  Rh  Rh22  1  0.999997  0.248741  0.833340  1
  Rh  Rh23  1  0.000005  0.751236  0.833337  1
