# generated using pymatgen
data_Lu12Co4PtPb
_symmetry_space_group_name_H-M   'P 1'
_cell_length_a   8.12125533
_cell_length_b   8.12125524
_cell_length_c   8.12125596
_cell_angle_alpha   111.08066806
_cell_angle_beta   111.00277861
_cell_angle_gamma   106.37392603
_symmetry_Int_Tables_number   1
_chemical_formula_structural   Lu12Co4PtPb
_chemical_formula_sum   'Lu12 Co4 Pt1 Pb1'
_cell_volume   411.43484386
_cell_formula_units_Z   1
loop_
 _symmetry_equiv_pos_site_id
 _symmetry_equiv_pos_as_xyz
  1  'x, y, z'
loop_
 _atom_site_type_symbol
 _atom_site_label
 _atom_site_symmetry_multiplicity
 _atom_site_fract_x
 _atom_site_fract_y
 _atom_site_fract_z
 _atom_site_occupancy
  Lu  Lu0  1  0.419164  0.218529  0.200636  1
  Lu  Lu1  1  0.580836  0.781471  0.799364  1
  Lu  Lu2  1  0.017893  0.218529  0.799364  1
  Lu  Lu3  1  0.982107  0.781471  0.200636  1
  Lu  Lu4  1  0.184910  0.286678  0.471588  1
  Lu  Lu5  1  0.815090  0.713322  0.528412  1
  Lu  Lu6  1  0.184910  0.713322  0.898233  1
  Lu  Lu7  1  0.815090  0.286678  0.101767  1
  Lu  Lu8  1  0.313833  0.619816  0.305982  1
  Lu  Lu9  1  0.686167  0.380184  0.694018  1
  Lu  Lu10  1  0.313833  0.007851  0.694018  1
  Lu  Lu11  1  0.686167  0.992149  0.305982  1
  Co  Co12  1  0.375590  0.000000  0.375590  1
  Co  Co13  1  0.624410  0.000000  0.624410  1
  Co  Co14  1  0.112872  0.612872  0.500000  1
  Co  Co15  1  0.887128  0.387128  0.500000  1
  Pt  Pt16  1  0.000000  0.000000  0.000000  1
  Pb  Pb17  1  0.500000  0.500000  0.000000  1
