# generated using pymatgen
data_Np3Ga2SnIr3
_symmetry_space_group_name_H-M   'P 1'
_cell_length_a   7.10226386
_cell_length_b   7.17654534
_cell_length_c   4.05211400
_cell_angle_alpha   90.00000000
_cell_angle_beta   90.00000000
_cell_angle_gamma   120.34659225
_symmetry_Int_Tables_number   1
_chemical_formula_structural   Np3Ga2SnIr3
_chemical_formula_sum   'Np3 Ga2 Sn1 Ir3'
_cell_volume   178.23670008
_cell_formula_units_Z   1
loop_
 _symmetry_equiv_pos_site_id
 _symmetry_equiv_pos_as_xyz
  1  'x, y, z'
loop_
 _atom_site_type_symbol
 _atom_site_label
 _atom_site_symmetry_multiplicity
 _atom_site_fract_x
 _atom_site_fract_y
 _atom_site_fract_z
 _atom_site_occupancy
  Np  Np0  1  0.427495  0.421717  0.500000  1
  Np  Np1  1  0.572505  0.994222  0.500000  1
  Np  Np2  1  0.000000  0.591020  0.500000  1
  Ga  Ga3  1  0.754651  0.752959  0.000000  1
  Ga  Ga4  1  0.245349  0.998307  0.000000  1
  Sn  Sn5  1  0.000000  0.243701  0.000000  1
  Ir  Ir6  1  0.660626  0.336146  0.000000  1
  Ir  Ir7  1  0.339374  0.675521  0.000000  1
  Ir  Ir8  1  0.000000  0.986407  0.500000  1
