# generated using pymatgen
data_Ho10Cd2In5HgPd4
_symmetry_space_group_name_H-M   'P 1'
_cell_length_a   3.59774400
_cell_length_b   8.09323871
_cell_length_c   18.29717202
_cell_angle_alpha   89.96003199
_cell_angle_beta   90.00000000
_cell_angle_gamma   90.00000000
_symmetry_Int_Tables_number   1
_chemical_formula_structural   Ho10Cd2In5HgPd4
_chemical_formula_sum   'Ho10 Cd2 In5 Hg1 Pd4'
_cell_volume   532.76596568
_cell_formula_units_Z   1
loop_
 _symmetry_equiv_pos_site_id
 _symmetry_equiv_pos_as_xyz
  1  'x, y, z'
loop_
 _atom_site_type_symbol
 _atom_site_label
 _atom_site_symmetry_multiplicity
 _atom_site_fract_x
 _atom_site_fract_y
 _atom_site_fract_z
 _atom_site_occupancy
  Ho  Ho0  1  0.000000  0.503486  0.497554  1
  Ho  Ho1  1  0.000000  0.000380  0.000457  1
  Ho  Ho2  1  0.000000  0.744527  0.283745  1
  Ho  Ho3  1  0.000000  0.256274  0.720056  1
  Ho  Ho4  1  0.000000  0.754765  0.781266  1
  Ho  Ho5  1  0.000000  0.244389  0.217617  1
  Ho  Ho6  1  0.000000  0.615135  0.084612  1
  Ho  Ho7  1  0.000000  0.386938  0.916574  1
  Ho  Ho8  1  0.000000  0.883242  0.583596  1
  Ho  Ho9  1  0.000000  0.110192  0.416080  1
  Cd  Cd10  1  0.500000  0.710336  0.932663  1
  Cd  Cd11  1  0.500000  0.292041  0.066993  1
  In  In12  1  0.500000  0.210404  0.567179  1
  In  In13  1  0.500000  0.575440  0.647913  1
  In  In14  1  0.500000  0.418991  0.350763  1
  In  In15  1  0.500000  0.925306  0.148263  1
  In  In16  1  0.500000  0.074781  0.852474  1
  Hg  Hg17  1  0.500000  0.789380  0.433160  1
  Pd  Pd18  1  0.500000  0.527879  0.197639  1
  Pd  Pd19  1  0.500000  0.473242  0.802938  1
  Pd  Pd20  1  0.500000  0.973388  0.696639  1
  Pd  Pd21  1  0.500000  0.029483  0.301820  1
