# generated using pymatgen
data_Ta3Si16MoPt12
_symmetry_space_group_name_H-M   'P 1'
_cell_length_a   3.58570900
_cell_length_b   5.56569809
_cell_length_c   24.68503287
_cell_angle_alpha   89.92811370
_cell_angle_beta   90.00000000
_cell_angle_gamma   90.00000000
_symmetry_Int_Tables_number   1
_chemical_formula_structural   Ta3Si16MoPt12
_chemical_formula_sum   'Ta3 Si16 Mo1 Pt12'
_cell_volume   492.63816503
_cell_formula_units_Z   1
loop_
 _symmetry_equiv_pos_site_id
 _symmetry_equiv_pos_as_xyz
  1  'x, y, z'
loop_
 _atom_site_type_symbol
 _atom_site_label
 _atom_site_symmetry_multiplicity
 _atom_site_fract_x
 _atom_site_fract_y
 _atom_site_fract_z
 _atom_site_occupancy
  Ta  Ta0  1  0.250000  0.502657  0.710497  1
  Ta  Ta1  1  0.750000  0.996539  0.211712  1
  Ta  Ta2  1  0.250000  0.003256  0.789308  1
  Si  Si3  1  0.250000  0.181343  0.519696  1
  Si  Si4  1  0.750000  0.319870  0.020662  1
  Si  Si5  1  0.250000  0.680753  0.980000  1
  Si  Si6  1  0.750000  0.821167  0.479407  1
  Si  Si7  1  0.750000  0.317109  0.644347  1
  Si  Si8  1  0.250000  0.178773  0.145189  1
  Si  Si9  1  0.750000  0.817262  0.855515  1
  Si  Si10  1  0.250000  0.684092  0.353362  1
  Si  Si11  1  0.250000  0.657780  0.607980  1
  Si  Si12  1  0.750000  0.841936  0.109022  1
  Si  Si13  1  0.250000  0.157438  0.891734  1
  Si  Si14  1  0.750000  0.339935  0.390649  1
  Si  Si15  1  0.750000  0.834912  0.724313  1
  Si  Si16  1  0.250000  0.661050  0.225889  1
  Si  Si17  1  0.750000  0.335516  0.775878  1
  Si  Si18  1  0.250000  0.173110  0.276076  1
  Mo  Mo19  1  0.750000  0.496320  0.290049  1
  Pt  Pt20  1  0.750000  0.001748  0.572719  1
  Pt  Pt21  1  0.250000  0.497486  0.073917  1
  Pt  Pt22  1  0.750000  0.501851  0.927436  1
  Pt  Pt23  1  0.250000  0.996931  0.426132  1
  Pt  Pt24  1  0.250000  0.004930  0.667603  1
  Pt  Pt25  1  0.750000  0.495909  0.169335  1
  Pt  Pt26  1  0.250000  0.505335  0.832384  1
  Pt  Pt27  1  0.750000  0.995975  0.331481  1
  Pt  Pt28  1  0.750000  0.503628  0.546543  1
  Pt  Pt29  1  0.250000  0.995876  0.048047  1
  Pt  Pt30  1  0.750000  0.003893  0.952707  1
  Pt  Pt31  1  0.250000  0.495621  0.450412  1
