# generated using pymatgen
data_TbPr2Dy3(RuBr3)2
_symmetry_space_group_name_H-M   'P 1'
_cell_length_a   4.23009800
_cell_length_b   8.53500976
_cell_length_c   12.00625301
_cell_angle_alpha   84.93554399
_cell_angle_beta   90.00000000
_cell_angle_gamma   90.00000000
_symmetry_Int_Tables_number   1
_chemical_formula_structural   TbPr2Dy3(RuBr3)2
_chemical_formula_sum   'Tb1 Pr2 Dy3 Ru2 Br6'
_cell_volume   431.78062131
_cell_formula_units_Z   1
loop_
 _symmetry_equiv_pos_site_id
 _symmetry_equiv_pos_as_xyz
  1  'x, y, z'
loop_
 _atom_site_type_symbol
 _atom_site_label
 _atom_site_symmetry_multiplicity
 _atom_site_fract_x
 _atom_site_fract_y
 _atom_site_fract_z
 _atom_site_occupancy
  Tb  Tb0  1  0.250000  0.277641  0.399255  1
  Pr  Pr1  1  0.250000  0.876571  0.826643  1
  Pr  Pr2  1  0.750000  0.122852  0.173126  1
  Dy  Dy3  1  0.750000  0.723747  0.600850  1
  Dy  Dy4  1  0.250000  0.866395  0.371284  1
  Dy  Dy5  1  0.750000  0.133237  0.628936  1
  Ru  Ru6  1  0.250000  0.938277  0.592368  1
  Ru  Ru7  1  0.750000  0.061387  0.407680  1
  Br  Br8  1  0.250000  0.420825  0.625997  1
  Br  Br9  1  0.750000  0.579732  0.374427  1
  Br  Br10  1  0.250000  0.876627  0.113664  1
  Br  Br11  1  0.750000  0.123033  0.886227  1
  Br  Br12  1  0.250000  0.376533  0.149253  1
  Br  Br13  1  0.750000  0.623144  0.850290  1
