# generated using pymatgen
data_Dy2UO6
_symmetry_space_group_name_H-M   'P 1'
_cell_length_a   6.50206266
_cell_length_b   6.50206267
_cell_length_c   6.64891723
_cell_angle_alpha   80.61252552
_cell_angle_beta   80.61253304
_cell_angle_gamma   120.59724117
_symmetry_Int_Tables_number   1
_chemical_formula_structural   Dy2UO6
_chemical_formula_sum   'Dy4 U2 O12'
_cell_volume   228.47086888
_cell_formula_units_Z   2
loop_
 _symmetry_equiv_pos_site_id
 _symmetry_equiv_pos_as_xyz
  1  'x, y, z'
loop_
 _atom_site_type_symbol
 _atom_site_label
 _atom_site_symmetry_multiplicity
 _atom_site_fract_x
 _atom_site_fract_y
 _atom_site_fract_z
 _atom_site_occupancy
  Dy  Dy0  1  0.915041  0.084959  0.750000  1
  Dy  Dy1  1  0.249876  0.750124  0.750000  1
  Dy  Dy2  1  0.084959  0.915041  0.250000  1
  Dy  Dy3  1  0.750124  0.249876  0.250000  1
  U  U4  1  0.585961  0.414039  0.750000  1
  U  U5  1  0.414039  0.585961  0.250000  1
  O  O6  1  0.933570  0.770629  0.628475  1
  O  O7  1  0.627314  0.141719  0.625621  1
  O  O8  1  0.689871  0.534933  0.379741  1
  O  O9  1  0.465067  0.310129  0.120259  1
  O  O10  1  0.310129  0.465067  0.620259  1
  O  O11  1  0.141719  0.627314  0.125621  1
  O  O12  1  0.372686  0.858281  0.374379  1
  O  O13  1  0.229371  0.066430  0.871525  1
  O  O14  1  0.066430  0.229371  0.371525  1
  O  O15  1  0.770629  0.933570  0.128475  1
  O  O16  1  0.858281  0.372686  0.874379  1
  O  O17  1  0.534933  0.689871  0.879741  1
