# generated using pymatgen
data_Ca10CuIr3
_symmetry_space_group_name_H-M   'P 1'
_cell_length_a   8.68666010
_cell_length_b   8.72294067
_cell_length_c   7.68377000
_cell_angle_alpha   82.98979293
_cell_angle_beta   82.80709997
_cell_angle_gamma   44.15241672
_symmetry_Int_Tables_number   1
_chemical_formula_structural   Ca10CuIr3
_chemical_formula_sum   'Ca10 Cu1 Ir3'
_cell_volume   401.93056548
_cell_formula_units_Z   1
loop_
 _symmetry_equiv_pos_site_id
 _symmetry_equiv_pos_as_xyz
  1  'x, y, z'
loop_
 _atom_site_type_symbol
 _atom_site_label
 _atom_site_symmetry_multiplicity
 _atom_site_fract_x
 _atom_site_fract_y
 _atom_site_fract_z
 _atom_site_occupancy
  Ca  Ca0  1  0.022850  0.806125  0.928133  1
  Ca  Ca1  1  0.201241  0.984594  0.583188  1
  Ca  Ca2  1  0.979313  0.198728  0.083803  1
  Ca  Ca3  1  0.789614  0.038400  0.412172  1
  Ca  Ca4  1  0.371475  0.188009  0.831480  1
  Ca  Ca5  1  0.789651  0.635284  0.677141  1
  Ca  Ca6  1  0.638460  0.795311  0.177057  1
  Ca  Ca7  1  0.199602  0.358955  0.313737  1
  Ca  Ca8  1  0.583119  0.420348  0.756798  1
  Ca  Ca9  1  0.431521  0.575433  0.238574  1
  Cu  Cu10  1  0.179527  0.599018  0.580772  1
  Ir  Ir11  1  0.395017  0.823565  0.914835  1
  Ir  Ir12  1  0.821997  0.396790  0.418061  1
  Ir  Ir13  1  0.596613  0.179442  0.084249  1
