# generated using pymatgen
data_CaPr3RuRh3O14
_symmetry_space_group_name_H-M   'P 1'
_cell_length_a   7.32622664
_cell_length_b   7.32622442
_cell_length_c   7.35879965
_cell_angle_alpha   60.79514523
_cell_angle_beta   60.79515460
_cell_angle_gamma   60.66144870
_symmetry_Int_Tables_number   1
_chemical_formula_structural   CaPr3RuRh3O14
_chemical_formula_sum   'Ca1 Pr3 Ru1 Rh3 O14'
_cell_volume   284.01694114
_cell_formula_units_Z   1
loop_
 _symmetry_equiv_pos_site_id
 _symmetry_equiv_pos_as_xyz
  1  'x, y, z'
loop_
 _atom_site_type_symbol
 _atom_site_label
 _atom_site_symmetry_multiplicity
 _atom_site_fract_x
 _atom_site_fract_y
 _atom_site_fract_z
 _atom_site_occupancy
  Ca  Ca0  1  0.625000  0.625000  0.625000  1
  Pr  Pr1  1  0.625000  0.125000  0.625000  1
  Pr  Pr2  1  0.625000  0.625000  0.125000  1
  Pr  Pr3  1  0.125000  0.625000  0.625000  1
  Ru  Ru4  1  0.125000  0.125000  0.625000  1
  Rh  Rh5  1  0.625000  0.125000  0.125000  1
  Rh  Rh6  1  0.125000  0.625000  0.125000  1
  Rh  Rh7  1  0.125000  0.125000  0.125000  1
  O  O8  1  0.202610  0.202610  0.795764  1
  O  O9  1  0.204280  0.793560  0.210438  1
  O  O10  1  0.456440  0.045720  0.039562  1
  O  O11  1  0.196538  0.805842  0.798069  1
  O  O12  1  0.053462  0.444158  0.451931  1
  O  O13  1  0.796216  0.796216  0.206999  1
  O  O14  1  0.453784  0.453784  0.043001  1
  O  O15  1  0.502079  0.502079  0.502569  1
  O  O16  1  0.047390  0.047390  0.454236  1
  O  O17  1  0.444158  0.053462  0.451931  1
  O  O18  1  0.045720  0.456440  0.039562  1
  O  O19  1  0.747921  0.747921  0.747431  1
  O  O20  1  0.805842  0.196538  0.798069  1
  O  O21  1  0.793560  0.204280  0.210438  1
