# generated using pymatgen
data_Th8Sc12Ga15Si
_symmetry_space_group_name_H-M   'P 1'
_cell_length_a   7.40108065
_cell_length_b   7.67274966
_cell_length_c   14.56082700
_cell_angle_alpha   90.00000000
_cell_angle_beta   90.00000000
_cell_angle_gamma   90.02697292
_symmetry_Int_Tables_number   1
_chemical_formula_structural   Th8Sc12Ga15Si
_chemical_formula_sum   'Th8 Sc12 Ga15 Si1'
_cell_volume   826.86033496
_cell_formula_units_Z   1
loop_
 _symmetry_equiv_pos_site_id
 _symmetry_equiv_pos_as_xyz
  1  'x, y, z'
loop_
 _atom_site_type_symbol
 _atom_site_label
 _atom_site_symmetry_multiplicity
 _atom_site_fract_x
 _atom_site_fract_y
 _atom_site_fract_z
 _atom_site_occupancy
  Th  Th0  1  0.011034  0.176213  0.095716  1
  Th  Th1  1  0.987940  0.820773  0.901662  1
  Th  Th2  1  0.491029  0.676084  0.903089  1
  Th  Th3  1  0.987940  0.820773  0.598338  1
  Th  Th4  1  0.510799  0.323246  0.095596  1
  Th  Th5  1  0.011034  0.176213  0.404284  1
  Th  Th6  1  0.510799  0.323246  0.404404  1
  Th  Th7  1  0.491029  0.676084  0.596911  1
  Sc  Sc8  1  0.158545  0.500303  0.750000  1
  Sc  Sc9  1  0.836444  0.500673  0.250000  1
  Sc  Sc10  1  0.337060  0.999156  0.250000  1
  Sc  Sc11  1  0.664821  0.995420  0.750000  1
  Sc  Sc12  1  0.330444  0.173450  0.624840  1
  Sc  Sc13  1  0.670510  0.827335  0.375609  1
  Sc  Sc14  1  0.170635  0.672902  0.375637  1
  Sc  Sc15  1  0.670510  0.827335  0.124391  1
  Sc  Sc16  1  0.828015  0.329738  0.625382  1
  Sc  Sc17  1  0.330444  0.173450  0.875160  1
  Sc  Sc18  1  0.828015  0.329738  0.874618  1
  Sc  Sc19  1  0.170635  0.672902  0.124363  1
  Ga  Ga20  1  0.031377  0.123544  0.750000  1
  Ga  Ga21  1  0.968684  0.878597  0.250000  1
  Ga  Ga22  1  0.468634  0.621378  0.250000  1
  Ga  Ga23  1  0.531133  0.380538  0.750000  1
  Ga  Ga24  1  0.289631  0.876953  0.750000  1
  Ga  Ga25  1  0.711960  0.123617  0.250000  1
  Ga  Ga26  1  0.212094  0.376450  0.250000  1
  Ga  Ga27  1  0.159243  0.462395  0.540475  1
  Ga  Ga28  1  0.841110  0.538378  0.459709  1
  Ga  Ga29  1  0.340523  0.961215  0.460230  1
  Ga  Ga30  1  0.841110  0.538378  0.040291  1
  Ga  Ga31  1  0.660245  0.038643  0.540587  1
  Ga  Ga32  1  0.159243  0.462395  0.959525  1
  Ga  Ga33  1  0.660245  0.038643  0.959413  1
  Ga  Ga34  1  0.340523  0.961215  0.039770  1
  Si  Si35  1  0.786559  0.622626  0.750000  1
