# generated using pymatgen
data_NdTa2Nb3(B2Ru5)2
_symmetry_space_group_name_H-M   'P 1'
_cell_length_a   9.57695763
_cell_length_b   9.57695711
_cell_length_c   3.04956800
_cell_angle_alpha   90.00000000
_cell_angle_beta   90.00000000
_cell_angle_gamma   90.66506959
_symmetry_Int_Tables_number   1
_chemical_formula_structural   NdTa2Nb3(B2Ru5)2
_chemical_formula_sum   'Nd1 Ta2 Nb3 B4 Ru10'
_cell_volume   279.68177789
_cell_formula_units_Z   1
loop_
 _symmetry_equiv_pos_site_id
 _symmetry_equiv_pos_as_xyz
  1  'x, y, z'
loop_
 _atom_site_type_symbol
 _atom_site_label
 _atom_site_symmetry_multiplicity
 _atom_site_fract_x
 _atom_site_fract_y
 _atom_site_fract_z
 _atom_site_occupancy
  Nd  Nd0  1  0.824366  0.675634  0.000000  1
  Ta  Ta1  1  0.500285  0.500141  0.000000  1
  Ta  Ta2  1  0.999859  0.999715  0.000000  1
  Nb  Nb3  1  0.178922  0.321078  0.000000  1
  Nb  Nb4  1  0.324558  0.824015  0.000000  1
  Nb  Nb5  1  0.675985  0.175442  0.000000  1
  B  B6  1  0.615446  0.884554  0.000000  1
  B  B7  1  0.376293  0.123707  0.000000  1
  B  B8  1  0.125707  0.618640  0.000000  1
  B  B9  1  0.881360  0.374293  0.000000  1
  Ru  Ru10  1  0.554322  0.727219  0.500000  1
  Ru  Ru11  1  0.426890  0.283319  0.500000  1
  Ru  Ru12  1  0.086237  0.782717  0.500000  1
  Ru  Ru13  1  0.931516  0.214873  0.500000  1
  Ru  Ru14  1  0.285127  0.568484  0.500000  1
  Ru  Ru15  1  0.717283  0.413763  0.500000  1
  Ru  Ru16  1  0.216681  0.073110  0.500000  1
  Ru  Ru17  1  0.772781  0.945678  0.500000  1
  Ru  Ru18  1  0.494565  0.005435  0.500000  1
  Ru  Ru19  1  0.011818  0.488182  0.500000  1
