# generated using pymatgen
data_Np2Cl7F5
_symmetry_space_group_name_H-M   'P 1'
_cell_length_a   6.06185032
_cell_length_b   11.54204798
_cell_length_c   11.97199890
_cell_angle_alpha   91.51190258
_cell_angle_beta   89.13589775
_cell_angle_gamma   88.76610744
_symmetry_Int_Tables_number   1
_chemical_formula_structural   Np2Cl7F5
_chemical_formula_sum   'Np4 Cl14 F10'
_cell_volume   837.04647414
_cell_formula_units_Z   2
loop_
 _symmetry_equiv_pos_site_id
 _symmetry_equiv_pos_as_xyz
  1  'x, y, z'
loop_
 _atom_site_type_symbol
 _atom_site_label
 _atom_site_symmetry_multiplicity
 _atom_site_fract_x
 _atom_site_fract_y
 _atom_site_fract_z
 _atom_site_occupancy
  Np  Np0  1  0.917110  0.752838  0.628971  1
  Np  Np1  1  0.082890  0.247162  0.371029  1
  Np  Np2  1  0.425481  0.243791  0.866997  1
  Np  Np3  1  0.574519  0.756209  0.133003  1
  Cl  Cl4  1  0.747730  0.601110  0.512284  1
  Cl  Cl5  1  0.252270  0.398890  0.487716  1
  Cl  Cl6  1  0.253005  0.398585  0.986644  1
  Cl  Cl7  1  0.256462  0.098693  0.486726  1
  Cl  Cl8  1  0.746995  0.601415  0.013356  1
  Cl  Cl9  1  0.743538  0.901307  0.513274  1
  Cl  Cl10  1  0.747652  0.901345  0.014170  1
  Cl  Cl11  1  0.252348  0.098655  0.985830  1
  Cl  Cl12  1  0.089527  0.603621  0.744973  1
  Cl  Cl13  1  0.910473  0.396379  0.255027  1
  Cl  Cl14  1  0.596840  0.391063  0.750018  1
  Cl  Cl15  1  0.914769  0.095260  0.254168  1
  Cl  Cl16  1  0.403160  0.608937  0.249982  1
  Cl  Cl17  1  0.085231  0.904740  0.745832  1
  F  F18  1  0.183574  0.748368  0.528848  1
  F  F19  1  0.816426  0.251632  0.471152  1
  F  F20  1  0.690756  0.243007  0.964150  1
  F  F21  1  0.309244  0.756993  0.035850  1
  F  F22  1  0.650797  0.756148  0.729395  1
  F  F23  1  0.349203  0.243852  0.270605  1
  F  F24  1  0.159295  0.245376  0.770526  1
  F  F25  1  0.840705  0.754624  0.229474  1
  F  F26  1  0.435528  0.882549  0.229811  1
  F  F27  1  0.564472  0.117451  0.770189  1
