# generated using pymatgen
data_V3Hg12AsO20
_symmetry_space_group_name_H-M   'P 1'
_cell_length_a   9.28953164
_cell_length_b   7.25844896
_cell_length_c   10.80175456
_cell_angle_alpha   57.86962434
_cell_angle_beta   89.86292653
_cell_angle_gamma   90.10073538
_symmetry_Int_Tables_number   1
_chemical_formula_structural   V3Hg12AsO20
_chemical_formula_sum   'V3 Hg12 As1 O20'
_cell_volume   616.77864739
_cell_formula_units_Z   1
loop_
 _symmetry_equiv_pos_site_id
 _symmetry_equiv_pos_as_xyz
  1  'x, y, z'
loop_
 _atom_site_type_symbol
 _atom_site_label
 _atom_site_symmetry_multiplicity
 _atom_site_fract_x
 _atom_site_fract_y
 _atom_site_fract_z
 _atom_site_occupancy
  V  V0  1  0.242124  0.300743  0.704547  1
  V  V1  1  0.258682  0.304311  0.203292  1
  V  V2  1  0.757733  0.695182  0.297992  1
  Hg  Hg3  1  0.132530  0.655661  0.341564  1
  Hg  Hg4  1  0.367209  0.657524  0.840963  1
  Hg  Hg5  1  0.866914  0.343114  0.662089  1
  Hg  Hg6  1  0.636833  0.353868  0.153172  1
  Hg  Hg7  1  0.008776  0.770274  0.986534  1
  Hg  Hg8  1  0.483196  0.767022  0.487977  1
  Hg  Hg9  1  0.985366  0.230955  0.015326  1
  Hg  Hg10  1  0.515967  0.232942  0.511317  1
  Hg  Hg11  1  0.367003  0.959591  0.051487  1
  Hg  Hg12  1  0.130421  0.960901  0.550395  1
  Hg  Hg13  1  0.631673  0.035897  0.951469  1
  Hg  Hg14  1  0.867088  0.041896  0.448247  1
  As  As15  1  0.742655  0.702416  0.793234  1
  O  O16  1  0.135326  0.853133  0.114887  1
  O  O17  1  0.362270  0.855914  0.614257  1
  O  O18  1  0.865776  0.138763  0.889573  1
  O  O19  1  0.636492  0.149502  0.381035  1
  O  O20  1  0.232570  0.324933  0.854369  1
  O  O21  1  0.269131  0.325603  0.354215  1
  O  O22  1  0.768270  0.672685  0.146709  1
  O  O23  1  0.735394  0.676069  0.644755  1
  O  O24  1  0.173361  0.052819  0.749494  1
  O  O25  1  0.321320  0.054502  0.247910  1
  O  O26  1  0.826472  0.941772  0.254191  1
  O  O27  1  0.676444  0.947163  0.754874  1
  O  O28  1  0.136164  0.520729  0.565065  1
  O  O29  1  0.370181  0.520059  0.065033  1
  O  O30  1  0.862356  0.475633  0.437909  1
  O  O31  1  0.636942  0.482507  0.926392  1
  O  O32  1  0.424855  0.328452  0.646815  1
  O  O33  1  0.076654  0.339856  0.143418  1
  O  O34  1  0.574894  0.668233  0.354990  1
  O  O35  1  0.920957  0.659374  0.854505  1
