# generated using pymatgen
data_Dy11HoRu4
_symmetry_space_group_name_H-M   'P 1'
_cell_length_a   6.30494779
_cell_length_b   7.29101228
_cell_length_c   9.18369999
_cell_angle_alpha   89.98700386
_cell_angle_beta   90.07894185
_cell_angle_gamma   89.98480246
_symmetry_Int_Tables_number   1
_chemical_formula_structural   Dy11HoRu4
_chemical_formula_sum   'Dy11 Ho1 Ru4'
_cell_volume   422.16922710
_cell_formula_units_Z   1
loop_
 _symmetry_equiv_pos_site_id
 _symmetry_equiv_pos_as_xyz
  1  'x, y, z'
loop_
 _atom_site_type_symbol
 _atom_site_label
 _atom_site_symmetry_multiplicity
 _atom_site_fract_x
 _atom_site_fract_y
 _atom_site_fract_z
 _atom_site_occupancy
  Dy  Dy0  1  0.634017  0.040361  0.250312  1
  Dy  Dy1  1  0.366475  0.959990  0.749773  1
  Dy  Dy2  1  0.133380  0.459553  0.749580  1
  Dy  Dy3  1  0.866176  0.540131  0.250382  1
  Dy  Dy4  1  0.170204  0.176922  0.064688  1
  Dy  Dy5  1  0.829950  0.823368  0.935325  1
  Dy  Dy6  1  0.669932  0.323006  0.934952  1
  Dy  Dy7  1  0.829805  0.823191  0.564583  1
  Dy  Dy8  1  0.330119  0.676740  0.064761  1
  Dy  Dy9  1  0.169962  0.176883  0.435570  1
  Dy  Dy10  1  0.330285  0.676444  0.435673  1
  Ho  Ho11  1  0.669747  0.323436  0.564682  1
  Ru  Ru12  1  0.461404  0.385449  0.250860  1
  Ru  Ru13  1  0.538903  0.614251  0.749556  1
  Ru  Ru14  1  0.960579  0.114648  0.749561  1
  Ru  Ru15  1  0.039063  0.885625  0.249741  1
