# generated using pymatgen
data_Sm2Ta4FeB4Ru9
_symmetry_space_group_name_H-M   'P 1'
_cell_length_a   9.53410912
_cell_length_b   9.53410808
_cell_length_c   3.09772900
_cell_angle_alpha   90.00000000
_cell_angle_beta   90.00000000
_cell_angle_gamma   90.48884512
_symmetry_Int_Tables_number   1
_chemical_formula_structural   Sm2Ta4FeB4Ru9
_chemical_formula_sum   'Sm2 Ta4 Fe1 B4 Ru9'
_cell_volume   281.57092223
_cell_formula_units_Z   1
loop_
 _symmetry_equiv_pos_site_id
 _symmetry_equiv_pos_as_xyz
  1  'x, y, z'
loop_
 _atom_site_type_symbol
 _atom_site_label
 _atom_site_symmetry_multiplicity
 _atom_site_fract_x
 _atom_site_fract_y
 _atom_site_fract_z
 _atom_site_occupancy
  Sm  Sm0  1  0.821180  0.678820  0.000000  1
  Sm  Sm1  1  0.178820  0.321180  0.000000  1
  Ta  Ta2  1  0.330701  0.830701  0.000000  1
  Ta  Ta3  1  0.669299  0.169299  0.000000  1
  Ta  Ta4  1  0.500000  0.500000  0.000000  1
  Ta  Ta5  1  0.000000  0.000000  0.000000  1
  Fe  Fe6  1  0.500000  0.000000  0.500000  1
  B  B7  1  0.609240  0.890760  0.000000  1
  B  B8  1  0.390760  0.109240  0.000000  1
  B  B9  1  0.123512  0.623512  0.000000  1
  B  B10  1  0.876488  0.376488  0.000000  1
  Ru  Ru11  1  0.553785  0.731005  0.500000  1
  Ru  Ru12  1  0.446215  0.268995  0.500000  1
  Ru  Ru13  1  0.083084  0.786963  0.500000  1
  Ru  Ru14  1  0.916916  0.213037  0.500000  1
  Ru  Ru15  1  0.286963  0.583084  0.500000  1
  Ru  Ru16  1  0.713037  0.416916  0.500000  1
  Ru  Ru17  1  0.231005  0.053785  0.500000  1
  Ru  Ru18  1  0.768995  0.946215  0.500000  1
  Ru  Ru19  1  0.000000  0.500000  0.500000  1
