# generated using pymatgen
data_Er4Tc2MoOs5
_symmetry_space_group_name_H-M   'P 1'
_cell_length_a   5.26960161
_cell_length_b   5.22187109
_cell_length_c   8.93973100
_cell_angle_alpha   90.00000000
_cell_angle_beta   90.00000000
_cell_angle_gamma   117.40564247
_symmetry_Int_Tables_number   1
_chemical_formula_structural   Er4Tc2MoOs5
_chemical_formula_sum   'Er4 Tc2 Mo1 Os5'
_cell_volume   218.38805212
_cell_formula_units_Z   1
loop_
 _symmetry_equiv_pos_site_id
 _symmetry_equiv_pos_as_xyz
  1  'x, y, z'
loop_
 _atom_site_type_symbol
 _atom_site_label
 _atom_site_symmetry_multiplicity
 _atom_site_fract_x
 _atom_site_fract_y
 _atom_site_fract_z
 _atom_site_occupancy
  Er  Er0  1  0.328109  0.669660  0.436234  1
  Er  Er1  1  0.669643  0.334237  0.564127  1
  Er  Er2  1  0.669643  0.334237  0.935873  1
  Er  Er3  1  0.328109  0.669660  0.063766  1
  Tc  Tc4  1  0.173348  0.823577  0.750000  1
  Tc  Tc5  1  0.173303  0.341296  0.750000  1
  Mo  Mo6  1  0.830523  0.164306  0.250000  1
  Os  Os7  1  0.999492  0.005431  0.501434  1
  Os  Os8  1  0.999492  0.005431  0.998566  1
  Os  Os9  1  0.825380  0.651783  0.250000  1
  Os  Os10  1  0.345031  0.172889  0.250000  1
  Os  Os11  1  0.657929  0.827489  0.750000  1
