# generated using pymatgen
data_Hf12Tc6Ir5Ru
_symmetry_space_group_name_H-M   'P 1'
_cell_length_a   4.60907500
_cell_length_b   6.50511200
_cell_length_c   13.86248800
_cell_angle_alpha   90.00000000
_cell_angle_beta   89.99992964
_cell_angle_gamma   90.00000000
_symmetry_Int_Tables_number   1
_chemical_formula_structural   Hf12Tc6Ir5Ru
_chemical_formula_sum   'Hf12 Tc6 Ir5 Ru1'
_cell_volume   415.63272699
_cell_formula_units_Z   1
loop_
 _symmetry_equiv_pos_site_id
 _symmetry_equiv_pos_as_xyz
  1  'x, y, z'
loop_
 _atom_site_type_symbol
 _atom_site_label
 _atom_site_symmetry_multiplicity
 _atom_site_fract_x
 _atom_site_fract_y
 _atom_site_fract_z
 _atom_site_occupancy
  Hf  Hf0  1  0.500001  0.248773  0.998551  1
  Hf  Hf1  1  0.500001  0.751227  0.998551  1
  Hf  Hf2  1  0.999986  0.249654  0.166382  1
  Hf  Hf3  1  0.999986  0.750346  0.166382  1
  Hf  Hf4  1  0.499991  0.250129  0.333343  1
  Hf  Hf5  1  0.499991  0.749871  0.333343  1
  Hf  Hf6  1  0.000001  0.249654  0.500294  1
  Hf  Hf7  1  0.000001  0.750347  0.500294  1
  Hf  Hf8  1  0.500010  0.248777  0.668107  1
  Hf  Hf9  1  0.500010  0.751223  0.668107  1
  Hf  Hf10  1  0.000013  0.247146  0.833325  1
  Hf  Hf11  1  0.000013  0.752854  0.833325  1
  Tc  Tc12  1  0.000002  0.000000  0.000868  1
  Tc  Tc13  1  0.499982  0.500001  0.166969  1
  Tc  Tc14  1  0.999990  0.000000  0.333349  1
  Tc  Tc15  1  0.500002  0.500001  0.499700  1
  Tc  Tc16  1  0.000010  0.000000  0.665778  1
  Tc  Tc17  1  0.500016  0.500001  0.833332  1
  Ir  Ir18  1  0.000000  0.500001  0.000353  1
  Ir  Ir19  1  0.499985  0.000000  0.167124  1
  Ir  Ir20  1  0.999990  0.500001  0.333340  1
  Ir  Ir21  1  0.500001  0.000000  0.499558  1
  Ir  Ir22  1  0.000010  0.500001  0.666308  1
  Ru  Ru23  1  0.500020  0.000000  0.833315  1
