# generated using pymatgen
data_Pr2Er3(SnBi)2
_symmetry_space_group_name_H-M   'P 1'
_cell_length_a   8.26327600
_cell_length_b   8.24719300
_cell_length_c   15.67037300
_cell_angle_alpha   90.00000000
_cell_angle_beta   90.00000000
_cell_angle_gamma   90.00000000
_symmetry_Int_Tables_number   1
_chemical_formula_structural   Pr2Er3(SnBi)2
_chemical_formula_sum   'Pr8 Er12 Sn8 Bi8'
_cell_volume   1067.91761671
_cell_formula_units_Z   4
loop_
 _symmetry_equiv_pos_site_id
 _symmetry_equiv_pos_as_xyz
  1  'x, y, z'
loop_
 _atom_site_type_symbol
 _atom_site_label
 _atom_site_symmetry_multiplicity
 _atom_site_fract_x
 _atom_site_fract_y
 _atom_site_fract_z
 _atom_site_occupancy
  Pr  Pr0  1  0.537733  0.324606  0.895658  1
  Pr  Pr1  1  0.037733  0.175394  0.604342  1
  Pr  Pr2  1  0.462267  0.675394  0.395658  1
  Pr  Pr3  1  0.962267  0.824606  0.104342  1
  Pr  Pr4  1  0.462267  0.675394  0.104342  1
  Pr  Pr5  1  0.962267  0.824606  0.395658  1
  Pr  Pr6  1  0.537733  0.324606  0.604342  1
  Pr  Pr7  1  0.037733  0.175394  0.895658  1
  Er  Er8  1  0.375025  0.840289  0.873602  1
  Er  Er9  1  0.875025  0.659711  0.626398  1
  Er  Er10  1  0.624975  0.159711  0.373602  1
  Er  Er11  1  0.124975  0.340289  0.126398  1
  Er  Er12  1  0.624975  0.159711  0.126398  1
  Er  Er13  1  0.124975  0.340289  0.373602  1
  Er  Er14  1  0.375025  0.840289  0.626398  1
  Er  Er15  1  0.875025  0.659711  0.873602  1
  Er  Er16  1  0.207858  0.498743  0.750000  1
  Er  Er17  1  0.707858  0.001257  0.750000  1
  Er  Er18  1  0.792142  0.501257  0.250000  1
  Er  Er19  1  0.292142  0.998743  0.250000  1
  Sn  Sn20  1  0.573613  0.630298  0.750000  1
  Sn  Sn21  1  0.073613  0.869702  0.750000  1
  Sn  Sn22  1  0.426387  0.369702  0.250000  1
  Sn  Sn23  1  0.926387  0.130298  0.250000  1
  Sn  Sn24  1  0.347126  0.141850  0.750000  1
  Sn  Sn25  1  0.847126  0.358150  0.750000  1
  Sn  Sn26  1  0.652874  0.858150  0.250000  1
  Sn  Sn27  1  0.152874  0.641850  0.250000  1
  Bi  Bi28  1  0.286951  0.035875  0.044063  1
  Bi  Bi29  1  0.786951  0.464125  0.455937  1
  Bi  Bi30  1  0.713049  0.964125  0.544063  1
  Bi  Bi31  1  0.213049  0.535875  0.955937  1
  Bi  Bi32  1  0.713049  0.964125  0.955937  1
  Bi  Bi33  1  0.213049  0.535875  0.544063  1
  Bi  Bi34  1  0.286951  0.035875  0.455937  1
  Bi  Bi35  1  0.786951  0.464125  0.044063  1
