# generated using pymatgen
data_Dy5Ho3Tm2(In2Ni)4
_symmetry_space_group_name_H-M   'P 1'
_cell_length_a   3.58858800
_cell_length_b   7.99459163
_cell_length_c   17.90844212
_cell_angle_alpha   89.96030010
_cell_angle_beta   90.00000000
_cell_angle_gamma   90.00000000
_symmetry_Int_Tables_number   1
_chemical_formula_structural   Dy5Ho3Tm2(In2Ni)4
_chemical_formula_sum   'Dy5 Ho3 Tm2 In8 Ni4'
_cell_volume   513.78046604
_cell_formula_units_Z   1
loop_
 _symmetry_equiv_pos_site_id
 _symmetry_equiv_pos_as_xyz
  1  'x, y, z'
loop_
 _atom_site_type_symbol
 _atom_site_label
 _atom_site_symmetry_multiplicity
 _atom_site_fract_x
 _atom_site_fract_y
 _atom_site_fract_z
 _atom_site_occupancy
  Dy  Dy0  1  0.000000  0.499997  0.499911  1
  Dy  Dy1  1  0.000000  0.999918  0.000003  1
  Dy  Dy2  1  0.000000  0.745751  0.278969  1
  Dy  Dy3  1  0.000000  0.254262  0.720993  1
  Dy  Dy4  1  0.000000  0.754502  0.778116  1
  Ho  Ho5  1  0.000000  0.245619  0.221936  1
  Ho  Ho6  1  0.000000  0.617155  0.088285  1
  Ho  Ho7  1  0.000000  0.382755  0.911915  1
  Tm  Tm8  1  0.000000  0.882855  0.588325  1
  Tm  Tm9  1  0.000000  0.117195  0.411506  1
  In  In10  1  0.500000  0.705167  0.931100  1
  In  In11  1  0.500000  0.294719  0.069227  1
  In  In12  1  0.500000  0.797495  0.432146  1
  In  In13  1  0.500000  0.202591  0.567770  1
  In  In14  1  0.500000  0.574527  0.651318  1
  In  In15  1  0.500000  0.425097  0.348463  1
  In  In16  1  0.500000  0.927612  0.152201  1
  In  In17  1  0.500000  0.072908  0.847875  1
  Ni  Ni18  1  0.500000  0.523270  0.195755  1
  Ni  Ni19  1  0.500000  0.476024  0.804367  1
  Ni  Ni20  1  0.500000  0.975322  0.694419  1
  Ni  Ni21  1  0.500000  0.025260  0.305400  1
