# generated using pymatgen
data_Ti8Al15Pd(RuRh2)2
_symmetry_space_group_name_H-M   'P 1'
_cell_length_a   8.67036795
_cell_length_b   8.65091150
_cell_length_c   8.65440515
_cell_angle_alpha   120.12256841
_cell_angle_beta   119.75031575
_cell_angle_gamma   90.03760046
_symmetry_Int_Tables_number   1
_chemical_formula_structural   Ti8Al15Pd(RuRh2)2
_chemical_formula_sum   'Ti8 Al15 Pd1 Ru2 Rh4'
_cell_volume   459.73513788
_cell_formula_units_Z   1
loop_
 _symmetry_equiv_pos_site_id
 _symmetry_equiv_pos_as_xyz
  1  'x, y, z'
loop_
 _atom_site_type_symbol
 _atom_site_label
 _atom_site_symmetry_multiplicity
 _atom_site_fract_x
 _atom_site_fract_y
 _atom_site_fract_z
 _atom_site_occupancy
  Ti  Ti0  1  0.788655  0.289673  0.073467  1
  Ti  Ti1  1  0.218425  0.289616  0.500524  1
  Ti  Ti2  1  0.211384  0.710509  0.502805  1
  Ti  Ti3  1  0.219048  0.718052  0.926508  1
  Ti  Ti4  1  0.788286  0.716497  0.499848  1
  Ti  Ti5  1  0.779221  0.281136  0.496660  1
  Ti  Ti6  1  0.388914  0.126894  0.754343  1
  Ti  Ti7  1  0.380918  0.634325  0.254669  1
  Al  Al8  1  0.996776  0.496688  0.500031  1
  Al  Al9  1  0.153439  0.345206  0.191941  1
  Al  Al10  1  0.154631  0.962716  0.810695  1
  Al  Al11  1  0.150416  0.348967  0.803868  1
  Al  Al12  1  0.543246  0.347212  0.197112  1
  Al  Al13  1  0.846458  0.651576  0.805371  1
  Al  Al14  1  0.844516  0.040797  0.191140  1
  Al  Al15  1  0.842585  0.651199  0.187983  1
  Al  Al16  1  0.464794  0.654113  0.809878  1
  Al  Al17  1  0.379126  0.121377  0.256595  1
  Al  Al18  1  0.862482  0.123211  0.745387  1
  Al  Al19  1  0.616933  0.875185  0.251253  1
  Al  Al20  1  0.620505  0.365959  0.744485  1
  Al  Al21  1  0.619590  0.877141  0.742659  1
  Al  Al22  1  0.136694  0.876936  0.254914  1
  Pd  Pd23  1  0.000213  0.999685  0.500398  1
  Ru  Ru24  1  0.497999  0.000146  0.998072  1
  Ru  Ru25  1  0.496697  0.497794  0.000521  1
  Rh  Rh26  1  0.498488  0.499392  0.498303  1
  Rh  Rh27  1  0.001376  0.499948  0.001464  1
  Rh  Rh28  1  0.998878  0.999109  0.999290  1
  Rh  Rh29  1  0.499304  0.998938  0.499813  1
