# generated using pymatgen
data_La(In2Pd)2
_symmetry_space_group_name_H-M   'P 1'
_cell_length_a   4.66488600
_cell_length_b   7.26754100
_cell_length_c   18.80841700
_cell_angle_alpha   90.00000000
_cell_angle_beta   90.00000000
_cell_angle_gamma   90.00000000
_symmetry_Int_Tables_number   1
_chemical_formula_structural   La(In2Pd)2
_chemical_formula_sum   'La4 In16 Pd8'
_cell_volume   637.64766023
_cell_formula_units_Z   4
loop_
 _symmetry_equiv_pos_site_id
 _symmetry_equiv_pos_as_xyz
  1  'x, y, z'
loop_
 _atom_site_type_symbol
 _atom_site_label
 _atom_site_symmetry_multiplicity
 _atom_site_fract_x
 _atom_site_fract_y
 _atom_site_fract_z
 _atom_site_occupancy
  La  La0  1  0.750000  0.981972  0.639669  1
  La  La1  1  0.250000  0.018028  0.360331  1
  La  La2  1  0.250000  0.481972  0.860331  1
  La  La3  1  0.750000  0.518028  0.139669  1
  In  In4  1  0.250000  0.270250  0.692704  1
  In  In5  1  0.750000  0.729750  0.307296  1
  In  In6  1  0.750000  0.770250  0.807296  1
  In  In7  1  0.250000  0.229750  0.192704  1
  In  In8  1  0.250000  0.679303  0.685373  1
  In  In9  1  0.750000  0.320697  0.314627  1
  In  In10  1  0.750000  0.179303  0.814627  1
  In  In11  1  0.250000  0.820697  0.185373  1
  In  In12  1  0.250000  0.156306  0.534691  1
  In  In13  1  0.750000  0.843694  0.465309  1
  In  In14  1  0.750000  0.656306  0.965309  1
  In  In15  1  0.250000  0.343694  0.034691  1
  In  In16  1  0.250000  0.493010  0.429934  1
  In  In17  1  0.750000  0.506990  0.570066  1
  In  In18  1  0.750000  0.993010  0.070066  1
  In  In19  1  0.250000  0.006990  0.929934  1
  Pd  Pd20  1  0.250000  0.755531  0.539059  1
  Pd  Pd21  1  0.750000  0.244469  0.460941  1
  Pd  Pd22  1  0.750000  0.255531  0.960941  1
  Pd  Pd23  1  0.250000  0.744469  0.039059  1
  Pd  Pd24  1  0.250000  0.970748  0.783015  1
  Pd  Pd25  1  0.750000  0.029252  0.216985  1
  Pd  Pd26  1  0.750000  0.470748  0.716985  1
  Pd  Pd27  1  0.250000  0.529252  0.283015  1
