# generated using pymatgen
data_Hf3Al3GaPtRh
_symmetry_space_group_name_H-M   'P 1'
_cell_length_a   6.66006600
_cell_length_b   6.66006620
_cell_length_c   8.16474200
_cell_angle_alpha   90.00000000
_cell_angle_beta   90.00000000
_cell_angle_gamma   120.00000894
_symmetry_Int_Tables_number   1
_chemical_formula_structural   Hf3Al3GaPtRh
_chemical_formula_sum   'Hf6 Al6 Ga2 Pt2 Rh2'
_cell_volume   313.63905555
_cell_formula_units_Z   2
loop_
 _symmetry_equiv_pos_site_id
 _symmetry_equiv_pos_as_xyz
  1  'x, y, z'
loop_
 _atom_site_type_symbol
 _atom_site_label
 _atom_site_symmetry_multiplicity
 _atom_site_fract_x
 _atom_site_fract_y
 _atom_site_fract_z
 _atom_site_occupancy
  Hf  Hf0  1  0.580423  0.995708  0.750000  1
  Hf  Hf1  1  0.004292  0.584715  0.750000  1
  Hf  Hf2  1  0.415285  0.419577  0.750000  1
  Hf  Hf3  1  0.005125  0.585549  0.250000  1
  Hf  Hf4  1  0.580423  0.994875  0.250000  1
  Hf  Hf5  1  0.414451  0.419577  0.250000  1
  Al  Al6  1  0.754931  0.763174  0.999915  1
  Al  Al7  1  0.236826  0.991758  0.999915  1
  Al  Al8  1  0.008242  0.245069  0.999915  1
  Al  Al9  1  0.754931  0.763174  0.500085  1
  Al  Al10  1  0.236826  0.991758  0.500085  1
  Al  Al11  1  0.008242  0.245069  0.500085  1
  Ga  Ga12  1  0.666667  0.333333  0.000562  1
  Ga  Ga13  1  0.666667  0.333333  0.499438  1
  Pt  Pt14  1  0.333333  0.666667  0.500230  1
  Pt  Pt15  1  0.333333  0.666667  0.999771  1
  Rh  Rh16  1  0.000000  0.000000  0.750000  1
  Rh  Rh17  1  0.000000  0.000000  0.250000  1
