# generated using pymatgen
data_La2Sn4IrRh
_symmetry_space_group_name_H-M   'P 1'
_cell_length_a   8.90743679
_cell_length_b   8.90743738
_cell_length_c   9.75414900
_cell_angle_alpha   90.00000000
_cell_angle_beta   90.00000000
_cell_angle_gamma   149.21985531
_symmetry_Int_Tables_number   1
_chemical_formula_structural   La2Sn4IrRh
_chemical_formula_sum   'La4 Sn8 Ir2 Rh2'
_cell_volume   396.04876605
_cell_formula_units_Z   2
loop_
 _symmetry_equiv_pos_site_id
 _symmetry_equiv_pos_as_xyz
  1  'x, y, z'
loop_
 _atom_site_type_symbol
 _atom_site_label
 _atom_site_symmetry_multiplicity
 _atom_site_fract_x
 _atom_site_fract_y
 _atom_site_fract_z
 _atom_site_occupancy
  La  La0  1  0.502901  0.497099  0.500538  1
  La  La1  1  0.497099  0.502901  0.000538  1
  La  La2  1  0.296278  0.703722  0.248676  1
  La  La3  1  0.703722  0.296278  0.748676  1
  Sn  Sn4  1  0.908899  0.091101  0.749550  1
  Sn  Sn5  1  0.924755  0.075245  0.250879  1
  Sn  Sn6  1  0.091101  0.908899  0.249550  1
  Sn  Sn7  1  0.075245  0.924755  0.750879  1
  Sn  Sn8  1  0.698463  0.301537  0.409060  1
  Sn  Sn9  1  0.303822  0.696178  0.590227  1
  Sn  Sn10  1  0.301537  0.698463  0.909060  1
  Sn  Sn11  1  0.696178  0.303822  0.090227  1
  Ir  Ir12  1  0.147274  0.852726  0.504795  1
  Ir  Ir13  1  0.852726  0.147274  0.004795  1
  Rh  Rh14  1  0.147208  0.852792  0.996273  1
  Rh  Rh15  1  0.852792  0.147208  0.496273  1
