# generated using pymatgen
data_Pa2ReB8Os
_symmetry_space_group_name_H-M   'P 1'
_cell_length_a   3.63476800
_cell_length_b   5.98758485
_cell_length_c   11.63466252
_cell_angle_alpha   90.03564425
_cell_angle_beta   90.00000000
_cell_angle_gamma   90.00000000
_symmetry_Int_Tables_number   1
_chemical_formula_structural   Pa2ReB8Os
_chemical_formula_sum   'Pa4 Re2 B16 Os2'
_cell_volume   253.21071701
_cell_formula_units_Z   2
loop_
 _symmetry_equiv_pos_site_id
 _symmetry_equiv_pos_as_xyz
  1  'x, y, z'
loop_
 _atom_site_type_symbol
 _atom_site_label
 _atom_site_symmetry_multiplicity
 _atom_site_fract_x
 _atom_site_fract_y
 _atom_site_fract_z
 _atom_site_occupancy
  Pa  Pa0  1  0.000000  0.127814  0.149138  1
  Pa  Pa1  1  0.000000  0.872186  0.850862  1
  Pa  Pa2  1  0.000000  0.627963  0.349758  1
  Pa  Pa3  1  0.000000  0.372037  0.650242  1
  Re  Re4  1  0.000000  0.639372  0.094688  1
  Re  Re5  1  0.000000  0.360628  0.905312  1
  B  B6  1  0.500000  0.529142  0.808579  1
  B  B7  1  0.500000  0.470858  0.191421  1
  B  B8  1  0.500000  0.027762  0.691180  1
  B  B9  1  0.500000  0.972238  0.308820  1
  B  B10  1  0.500000  0.386794  0.045521  1
  B  B11  1  0.500000  0.613206  0.954479  1
  B  B12  1  0.500000  0.887186  0.454016  1
  B  B13  1  0.500000  0.112814  0.545984  1
  B  B14  1  0.500000  0.211543  0.811569  1
  B  B15  1  0.500000  0.788457  0.188431  1
  B  B16  1  0.500000  0.711647  0.687858  1
  B  B17  1  0.500000  0.288353  0.312142  1
  B  B18  1  0.500000  0.135013  0.968025  1
  B  B19  1  0.500000  0.864987  0.031975  1
  B  B20  1  0.500000  0.635329  0.531680  1
  B  B21  1  0.500000  0.364671  0.468320  1
  Os  Os22  1  0.000000  0.142207  0.404112  1
  Os  Os23  1  0.000000  0.857793  0.595888  1
