# generated using pymatgen
data_TmPaC2
_symmetry_space_group_name_H-M   'P 1'
_cell_length_a   6.12478528
_cell_length_b   6.12478624
_cell_length_c   6.12478541
_cell_angle_alpha   34.36220391
_cell_angle_beta   34.36218785
_cell_angle_gamma   34.36220316
_symmetry_Int_Tables_number   1
_chemical_formula_structural   TmPaC2
_chemical_formula_sum   'Tm1 Pa1 C2'
_cell_volume   65.28379269
_cell_formula_units_Z   1
loop_
 _symmetry_equiv_pos_site_id
 _symmetry_equiv_pos_as_xyz
  1  'x, y, z'
loop_
 _atom_site_type_symbol
 _atom_site_label
 _atom_site_symmetry_multiplicity
 _atom_site_fract_x
 _atom_site_fract_y
 _atom_site_fract_z
 _atom_site_occupancy
  Tm  Tm0  1  0.500000  0.500000  0.500000  1
  Pa  Pa1  1  0.000000  0.000000  0.000000  1
  C  C2  1  0.256493  0.256493  0.256493  1
  C  C3  1  0.743507  0.743507  0.743507  1
