# generated using pymatgen
data_Sr3Y(Al3Pt)6
_symmetry_space_group_name_H-M   'P 1'
_cell_length_a   7.69960916
_cell_length_b   7.70013589
_cell_length_c   9.60723600
_cell_angle_alpha   90.00000000
_cell_angle_beta   90.00000000
_cell_angle_gamma   119.59440293
_symmetry_Int_Tables_number   1
_chemical_formula_structural   Sr3Y(Al3Pt)6
_chemical_formula_sum   'Sr3 Y1 Al18 Pt6'
_cell_volume   495.28671724
_cell_formula_units_Z   1
loop_
 _symmetry_equiv_pos_site_id
 _symmetry_equiv_pos_as_xyz
  1  'x, y, z'
loop_
 _atom_site_type_symbol
 _atom_site_label
 _atom_site_symmetry_multiplicity
 _atom_site_fract_x
 _atom_site_fract_y
 _atom_site_fract_z
 _atom_site_occupancy
  Sr  Sr0  1  0.994608  0.669117  0.250000  1
  Sr  Sr1  1  0.003714  0.330578  0.750000  1
  Sr  Sr2  1  0.670818  0.996147  0.250000  1
  Y  Y3  1  0.330107  0.002979  0.750000  1
  Al  Al4  1  0.135547  0.134427  0.250000  1
  Al  Al5  1  0.871101  0.867202  0.750000  1
  Al  Al6  1  0.003243  0.334793  0.072517  1
  Al  Al7  1  0.999838  0.667263  0.922769  1
  Al  Al8  1  0.999838  0.667263  0.577231  1
  Al  Al9  1  0.334439  0.002081  0.429033  1
  Al  Al10  1  0.003243  0.334793  0.427483  1
  Al  Al11  1  0.663598  0.998211  0.577100  1
  Al  Al12  1  0.663598  0.998211  0.922900  1
  Al  Al13  1  0.334439  0.002081  0.070967  1
  Al  Al14  1  0.334080  0.332158  0.557673  1
  Al  Al15  1  0.664774  0.664901  0.450072  1
  Al  Al16  1  0.664774  0.664901  0.049928  1
  Al  Al17  1  0.334080  0.332158  0.942327  1
  Al  Al18  1  0.340355  0.543367  0.250000  1
  Al  Al19  1  0.653948  0.452090  0.750000  1
  Al  Al20  1  0.541210  0.339433  0.250000  1
  Al  Al21  1  0.457988  0.665371  0.750000  1
  Pt  Pt22  1  0.669696  0.328458  0.998483  1
  Pt  Pt23  1  0.329180  0.671315  0.998124  1
  Pt  Pt24  1  0.329180  0.671315  0.501876  1
  Pt  Pt25  1  0.669696  0.328458  0.501517  1
  Pt  Pt26  1  0.001455  0.000464  0.997969  1
  Pt  Pt27  1  0.001455  0.000464  0.502031  1
