# generated using pymatgen
data_Nb2CrCoP2
_symmetry_space_group_name_H-M   'P 1'
_cell_length_a   3.56821900
_cell_length_b   6.24116600
_cell_length_c   7.15292800
_cell_angle_alpha   90.00000000
_cell_angle_beta   90.00000000
_cell_angle_gamma   90.00000000
_symmetry_Int_Tables_number   1
_chemical_formula_structural   Nb2CrCoP2
_chemical_formula_sum   'Nb4 Cr2 Co2 P4'
_cell_volume   159.29461290
_cell_formula_units_Z   2
loop_
 _symmetry_equiv_pos_site_id
 _symmetry_equiv_pos_as_xyz
  1  'x, y, z'
loop_
 _atom_site_type_symbol
 _atom_site_label
 _atom_site_symmetry_multiplicity
 _atom_site_fract_x
 _atom_site_fract_y
 _atom_site_fract_z
 _atom_site_occupancy
  Nb  Nb0  1  0.250000  0.029203  0.827077  1
  Nb  Nb1  1  0.250000  0.524917  0.674002  1
  Nb  Nb2  1  0.750000  0.470797  0.327077  1
  Nb  Nb3  1  0.750000  0.975083  0.174002  1
  Cr  Cr4  1  0.750000  0.360350  0.937390  1
  Cr  Cr5  1  0.250000  0.139650  0.437390  1
  Co  Co6  1  0.750000  0.855944  0.559799  1
  Co  Co7  1  0.250000  0.644056  0.059799  1
  P  P8  1  0.250000  0.771686  0.375425  1
  P  P9  1  0.250000  0.274531  0.126307  1
  P  P10  1  0.750000  0.225469  0.626307  1
  P  P11  1  0.750000  0.728314  0.875425  1
