# generated using pymatgen
data_Ti12Sn9Hg
_symmetry_space_group_name_H-M   'P 1'
_cell_length_a   9.29521200
_cell_length_b   9.29521224
_cell_length_c   5.72739000
_cell_angle_alpha   90.00000000
_cell_angle_beta   90.00000000
_cell_angle_gamma   119.99999915
_symmetry_Int_Tables_number   1
_chemical_formula_structural   Ti12Sn9Hg
_chemical_formula_sum   'Ti12 Sn9 Hg1'
_cell_volume   428.55444316
_cell_formula_units_Z   1
loop_
 _symmetry_equiv_pos_site_id
 _symmetry_equiv_pos_as_xyz
  1  'x, y, z'
loop_
 _atom_site_type_symbol
 _atom_site_label
 _atom_site_symmetry_multiplicity
 _atom_site_fract_x
 _atom_site_fract_y
 _atom_site_fract_z
 _atom_site_occupancy
  Ti  Ti0  1  0.842617  0.685234  0.754469  1
  Ti  Ti1  1  0.157383  0.842617  0.245531  1
  Ti  Ti2  1  0.685234  0.842617  0.245531  1
  Ti  Ti3  1  0.314766  0.157383  0.754469  1
  Ti  Ti4  1  0.842617  0.157383  0.754469  1
  Ti  Ti5  1  0.157383  0.314766  0.245531  1
  Ti  Ti6  1  0.500000  0.000000  0.500000  1
  Ti  Ti7  1  0.500000  0.500000  0.000000  1
  Ti  Ti8  1  0.000000  0.500000  0.000000  1
  Ti  Ti9  1  0.000000  0.500000  0.500000  1
  Ti  Ti10  1  0.500000  0.000000  0.000000  1
  Ti  Ti11  1  0.500000  0.500000  0.500000  1
  Sn  Sn12  1  0.201350  0.402699  0.748379  1
  Sn  Sn13  1  0.798650  0.201350  0.251621  1
  Sn  Sn14  1  0.402699  0.201350  0.251621  1
  Sn  Sn15  1  0.597301  0.798650  0.748379  1
  Sn  Sn16  1  0.201350  0.798650  0.748379  1
  Sn  Sn17  1  0.798650  0.597301  0.251621  1
  Sn  Sn18  1  0.666667  0.333333  0.751774  1
  Sn  Sn19  1  0.333333  0.666667  0.248226  1
  Sn  Sn20  1  0.000000  0.000000  0.000000  1
  Hg  Hg21  1  0.000000  0.000000  0.500000  1
