# generated using pymatgen
data_La4B4BrCl4
_symmetry_space_group_name_H-M   'P 1'
_cell_length_a   10.84517072
_cell_length_b   10.84517019
_cell_length_c   10.01230800
_cell_angle_alpha   50.87645832
_cell_angle_beta   50.87646059
_cell_angle_gamma   22.98133781
_symmetry_Int_Tables_number   1
_chemical_formula_structural   La4B4BrCl4
_chemical_formula_sum   'La4 B4 Br1 Cl4'
_cell_volume   351.78325968
_cell_formula_units_Z   1
loop_
 _symmetry_equiv_pos_site_id
 _symmetry_equiv_pos_as_xyz
  1  'x, y, z'
loop_
 _atom_site_type_symbol
 _atom_site_label
 _atom_site_symmetry_multiplicity
 _atom_site_fract_x
 _atom_site_fract_y
 _atom_site_fract_z
 _atom_site_occupancy
  La  La0  1  0.151220  0.151220  0.775428  1
  La  La1  1  0.516721  0.516721  0.229047  1
  La  La2  1  0.483279  0.483279  0.770953  1
  La  La3  1  0.848780  0.848780  0.224572  1
  B  B4  1  0.004552  0.004552  0.089209  1
  B  B5  1  0.684704  0.315296  0.000000  1
  B  B6  1  0.995448  0.995448  0.910791  1
  B  B7  1  0.315296  0.684704  0.000000  1
  Br  Br8  1  0.000000  0.000000  0.500000  1
  Cl  Cl9  1  0.307981  0.307981  0.085478  1
  Cl  Cl10  1  0.333138  0.333138  0.459702  1
  Cl  Cl11  1  0.666862  0.666862  0.540298  1
  Cl  Cl12  1  0.692019  0.692019  0.914522  1
