# generated using pymatgen
data_Dy2MnPtF14
_symmetry_space_group_name_H-M   'P 1'
_cell_length_a   5.49238368
_cell_length_b   8.80632362
_cell_length_c   11.85916400
_cell_angle_alpha   62.43847300
_cell_angle_beta   90.14257462
_cell_angle_gamma   90.16983258
_symmetry_Int_Tables_number   1
_chemical_formula_structural   Dy2MnPtF14
_chemical_formula_sum   'Dy4 Mn2 Pt2 F28'
_cell_volume   508.50258223
_cell_formula_units_Z   2
loop_
 _symmetry_equiv_pos_site_id
 _symmetry_equiv_pos_as_xyz
  1  'x, y, z'
loop_
 _atom_site_type_symbol
 _atom_site_label
 _atom_site_symmetry_multiplicity
 _atom_site_fract_x
 _atom_site_fract_y
 _atom_site_fract_z
 _atom_site_occupancy
  Dy  Dy0  1  0.259752  0.815907  0.259834  1
  Dy  Dy1  1  0.740248  0.184093  0.740166  1
  Dy  Dy2  1  0.763259  0.190840  0.231504  1
  Dy  Dy3  1  0.236741  0.809160  0.768496  1
  Mn  Mn4  1  0.757685  0.725926  0.043373  1
  Mn  Mn5  1  0.242315  0.274074  0.956627  1
  Pt  Pt6  1  0.260303  0.273229  0.456426  1
  Pt  Pt7  1  0.739697  0.726771  0.543574  1
  F  F8  1  0.929113  0.702065  0.412487  1
  F  F9  1  0.070887  0.297935  0.587513  1
  F  F10  1  0.438114  0.292774  0.075332  1
  F  F11  1  0.561886  0.707226  0.924668  1
  F  F12  1  0.486345  0.732253  0.131968  1
  F  F13  1  0.513655  0.267747  0.868032  1
  F  F14  1  0.961263  0.279358  0.362838  1
  F  F15  1  0.038737  0.720642  0.637162  1
  F  F16  1  0.952049  0.743515  0.164941  1
  F  F17  1  0.047951  0.256485  0.835059  1
  F  F18  1  0.444032  0.256830  0.319832  1
  F  F19  1  0.555968  0.743170  0.680168  1
  F  F20  1  0.767577  0.490159  0.135734  1
  F  F21  1  0.232423  0.509841  0.864266  1
  F  F22  1  0.277453  0.524121  0.355246  1
  F  F23  1  0.722547  0.475879  0.644754  1
  F  F24  1  0.962605  0.283245  0.041142  1
  F  F25  1  0.037395  0.716755  0.958858  1
  F  F26  1  0.433868  0.723420  0.457473  1
  F  F27  1  0.566132  0.276580  0.542527  1
  F  F28  1  0.744089  0.977785  0.449136  1
  F  F29  1  0.255911  0.022215  0.550864  1
  F  F30  1  0.239978  0.039235  0.047157  1
  F  F31  1  0.760022  0.960765  0.952843  1
  F  F32  1  0.591237  0.969954  0.229334  1
  F  F33  1  0.408763  0.030046  0.770666  1
  F  F34  1  0.088764  0.031094  0.269761  1
  F  F35  1  0.911236  0.968906  0.730239  1
