# generated using pymatgen
data_DyY5Al24Ru5Pt3
_symmetry_space_group_name_H-M   'P 1'
_cell_length_a   8.85698936
_cell_length_b   8.85290131
_cell_length_c   9.52899205
_cell_angle_alpha   89.78499214
_cell_angle_beta   90.01766286
_cell_angle_gamma   119.77172977
_symmetry_Int_Tables_number   1
_chemical_formula_structural   DyY5Al24Ru5Pt3
_chemical_formula_sum   'Dy1 Y5 Al24 Ru5 Pt3'
_cell_volume   648.54477310
_cell_formula_units_Z   1
loop_
 _symmetry_equiv_pos_site_id
 _symmetry_equiv_pos_as_xyz
  1  'x, y, z'
loop_
 _atom_site_type_symbol
 _atom_site_label
 _atom_site_symmetry_multiplicity
 _atom_site_fract_x
 _atom_site_fract_y
 _atom_site_fract_z
 _atom_site_occupancy
  Dy  Dy0  1  0.384596  0.190819  0.750072  1
  Y  Y1  1  0.190721  0.807554  0.249949  1
  Y  Y2  1  0.189566  0.384640  0.248462  1
  Y  Y3  1  0.615708  0.809203  0.249987  1
  Y  Y4  1  0.809162  0.192369  0.750051  1
  Y  Y5  1  0.810395  0.615384  0.751531  1
  Al  Al6  1  0.563847  0.436351  0.250532  1
  Al  Al7  1  0.561807  0.125740  0.246043  1
  Al  Al8  1  0.877343  0.439852  0.250201  1
  Al  Al9  1  0.436120  0.563577  0.749470  1
  Al  Al10  1  0.438129  0.874237  0.753929  1
  Al  Al11  1  0.122591  0.560119  0.749800  1
  Al  Al12  1  0.322782  0.162143  0.422448  1
  Al  Al13  1  0.841729  0.167855  0.423101  1
  Al  Al14  1  0.841832  0.674817  0.424172  1
  Al  Al15  1  0.677191  0.837843  0.577701  1
  Al  Al16  1  0.158290  0.832264  0.577045  1
  Al  Al17  1  0.158193  0.325072  0.575959  1
  Al  Al18  1  0.675055  0.841863  0.924611  1
  Al  Al19  1  0.163378  0.835707  0.924086  1
  Al  Al20  1  0.158140  0.325249  0.924078  1
  Al  Al21  1  0.324903  0.158134  0.075239  1
  Al  Al22  1  0.836626  0.164415  0.075774  1
  Al  Al23  1  0.841876  0.674670  0.075816  1
  Al  Al24  1  0.672520  0.336338  0.529076  1
  Al  Al25  1  0.327412  0.663654  0.471042  1
  Al  Al26  1  0.330452  0.670019  0.027286  1
  Al  Al27  1  0.669485  0.330000  0.972605  1
  Al  Al28  1  0.997372  0.000657  0.249828  1
  Al  Al29  1  0.003238  0.999629  0.750174  1
  Ru  Ru30  1  0.999920  0.999960  0.499960  1
  Ru  Ru31  1  0.999902  0.999944  0.000054  1
  Ru  Ru32  1  0.999978  0.499978  0.500021  1
  Ru  Ru33  1  0.499942  0.000079  0.999847  1
  Ru  Ru34  1  0.999958  0.499970  0.999968  1
  Pt  Pt35  1  0.499961  0.499924  0.500066  1
  Pt  Pt36  1  0.499940  0.000083  0.500106  1
  Pt  Pt37  1  0.499941  0.499890  0.999911  1
