# generated using pymatgen
data_BaY2(GaRh2)3
_symmetry_space_group_name_H-M   'P 1'
_cell_length_a   5.71587200
_cell_length_b   5.71587256
_cell_length_c   15.90490100
_cell_angle_alpha   90.00000000
_cell_angle_beta   90.00000000
_cell_angle_gamma   119.99999678
_symmetry_Int_Tables_number   1
_chemical_formula_structural   BaY2(GaRh2)3
_chemical_formula_sum   'Ba2 Y4 Ga6 Rh12'
_cell_volume   450.01464537
_cell_formula_units_Z   2
loop_
 _symmetry_equiv_pos_site_id
 _symmetry_equiv_pos_as_xyz
  1  'x, y, z'
loop_
 _atom_site_type_symbol
 _atom_site_label
 _atom_site_symmetry_multiplicity
 _atom_site_fract_x
 _atom_site_fract_y
 _atom_site_fract_z
 _atom_site_occupancy
  Ba  Ba0  1  0.333333  0.666667  0.750000  1
  Ba  Ba1  1  0.666667  0.333333  0.250000  1
  Y  Y2  1  0.333333  0.666667  0.539518  1
  Y  Y3  1  0.666667  0.333333  0.460482  1
  Y  Y4  1  0.666667  0.333333  0.039518  1
  Y  Y5  1  0.333333  0.666667  0.960482  1
  Ga  Ga6  1  0.000000  0.000000  0.250000  1
  Ga  Ga7  1  0.000000  0.000000  0.750000  1
  Ga  Ga8  1  0.333333  0.666667  0.250000  1
  Ga  Ga9  1  0.666667  0.333333  0.750000  1
  Ga  Ga10  1  0.000000  0.000000  0.000000  1
  Ga  Ga11  1  0.000000  0.000000  0.500000  1
  Rh  Rh12  1  0.169163  0.338325  0.122860  1
  Rh  Rh13  1  0.830837  0.661675  0.877140  1
  Rh  Rh14  1  0.661675  0.830837  0.122860  1
  Rh  Rh15  1  0.830837  0.661675  0.622860  1
  Rh  Rh16  1  0.338325  0.169163  0.877140  1
  Rh  Rh17  1  0.169163  0.338325  0.377140  1
  Rh  Rh18  1  0.169163  0.830837  0.122860  1
  Rh  Rh19  1  0.338325  0.169163  0.622860  1
  Rh  Rh20  1  0.830837  0.169163  0.877140  1
  Rh  Rh21  1  0.661675  0.830837  0.377140  1
  Rh  Rh22  1  0.830837  0.169163  0.622860  1
  Rh  Rh23  1  0.169163  0.830837  0.377140  1
