# generated using pymatgen
data_Pa3Zn(Pd3Rh)3
_symmetry_space_group_name_H-M   'P 1'
_cell_length_a   5.76526100
_cell_length_b   5.76526033
_cell_length_c   9.40876800
_cell_angle_alpha   90.00000000
_cell_angle_beta   90.00000000
_cell_angle_gamma   119.99999811
_symmetry_Int_Tables_number   1
_chemical_formula_structural   Pa3Zn(Pd3Rh)3
_chemical_formula_sum   'Pa3 Zn1 Pd9 Rh3'
_cell_volume   270.83282235
_cell_formula_units_Z   1
loop_
 _symmetry_equiv_pos_site_id
 _symmetry_equiv_pos_as_xyz
  1  'x, y, z'
loop_
 _atom_site_type_symbol
 _atom_site_label
 _atom_site_symmetry_multiplicity
 _atom_site_fract_x
 _atom_site_fract_y
 _atom_site_fract_z
 _atom_site_occupancy
  Pa  Pa0  1  0.666667  0.333333  0.500000  1
  Pa  Pa1  1  0.000000  0.000000  0.743457  1
  Pa  Pa2  1  0.000000  0.000000  0.256543  1
  Zn  Zn3  1  0.333333  0.666667  0.000000  1
  Pd  Pd4  1  0.831412  0.168588  0.000000  1
  Pd  Pd5  1  0.831412  0.662823  0.000000  1
  Pd  Pd6  1  0.337177  0.168588  0.000000  1
  Pd  Pd7  1  0.002606  0.501303  0.755126  1
  Pd  Pd8  1  0.498697  0.501303  0.755126  1
  Pd  Pd9  1  0.498697  0.997394  0.755126  1
  Pd  Pd10  1  0.002606  0.501303  0.244874  1
  Pd  Pd11  1  0.498697  0.501303  0.244874  1
  Pd  Pd12  1  0.498697  0.997394  0.244874  1
  Rh  Rh13  1  0.167716  0.832284  0.500000  1
  Rh  Rh14  1  0.167716  0.335433  0.500000  1
  Rh  Rh15  1  0.664567  0.832284  0.500000  1
