# generated using pymatgen
data_Rb4ScPaCl12
_symmetry_space_group_name_H-M   'P 1'
_cell_length_a   7.48324600
_cell_length_b   7.48324600
_cell_length_c   10.71092000
_cell_angle_alpha   90.00000000
_cell_angle_beta   90.00000000
_cell_angle_gamma   90.00000000
_symmetry_Int_Tables_number   1
_chemical_formula_structural   Rb4ScPaCl12
_chemical_formula_sum   'Rb4 Sc1 Pa1 Cl12'
_cell_volume   599.80049521
_cell_formula_units_Z   1
loop_
 _symmetry_equiv_pos_site_id
 _symmetry_equiv_pos_as_xyz
  1  'x, y, z'
loop_
 _atom_site_type_symbol
 _atom_site_label
 _atom_site_symmetry_multiplicity
 _atom_site_fract_x
 _atom_site_fract_y
 _atom_site_fract_z
 _atom_site_occupancy
  Rb  Rb0  1  0.500000  0.000000  0.798583  1
  Rb  Rb1  1  0.000000  0.500000  0.201417  1
  Rb  Rb2  1  0.500000  0.000000  0.201417  1
  Rb  Rb3  1  0.000000  0.500000  0.798583  1
  Sc  Sc4  1  0.000000  0.000000  0.000000  1
  Pa  Pa5  1  0.500000  0.500000  0.500000  1
  Cl  Cl6  1  0.000000  0.000000  0.766896  1
  Cl  Cl7  1  0.500000  0.500000  0.260039  1
  Cl  Cl8  1  0.740978  0.740978  0.500000  1
  Cl  Cl9  1  0.238377  0.238377  0.000000  1
  Cl  Cl10  1  0.740978  0.259022  0.500000  1
  Cl  Cl11  1  0.238377  0.761623  0.000000  1
  Cl  Cl12  1  0.000000  0.000000  0.233104  1
  Cl  Cl13  1  0.500000  0.500000  0.739961  1
  Cl  Cl14  1  0.259022  0.259022  0.500000  1
  Cl  Cl15  1  0.761623  0.761623  0.000000  1
  Cl  Cl16  1  0.259022  0.740978  0.500000  1
  Cl  Cl17  1  0.761623  0.238377  0.000000  1
