# generated using pymatgen
data_Pr7Nd(B4Br5)2
_symmetry_space_group_name_H-M   'P 1'
_cell_length_a   9.38219298
_cell_length_b   9.38219401
_cell_length_c   19.47009890
_cell_angle_alpha   74.25475703
_cell_angle_beta   74.25475436
_cell_angle_gamma   26.50046732
_symmetry_Int_Tables_number   1
_chemical_formula_structural   Pr7Nd(B4Br5)2
_chemical_formula_sum   'Pr7 Nd1 B8 Br10'
_cell_volume   734.41743418
_cell_formula_units_Z   1
loop_
 _symmetry_equiv_pos_site_id
 _symmetry_equiv_pos_as_xyz
  1  'x, y, z'
loop_
 _atom_site_type_symbol
 _atom_site_label
 _atom_site_symmetry_multiplicity
 _atom_site_fract_x
 _atom_site_fract_y
 _atom_site_fract_z
 _atom_site_occupancy
  Pr  Pr0  1  0.611051  0.611051  0.723329  1
  Pr  Pr1  1  0.388882  0.388882  0.276753  1
  Pr  Pr2  1  0.977610  0.977610  0.628529  1
  Pr  Pr3  1  0.022472  0.022472  0.371586  1
  Pr  Pr4  1  0.329927  0.329927  0.793010  1
  Pr  Pr5  1  0.669823  0.669823  0.206548  1
  Pr  Pr6  1  0.964873  0.964873  0.889067  1
  Nd  Nd7  1  0.034523  0.034523  0.112489  1
  B  B8  1  0.155602  0.785556  0.759000  1
  B  B9  1  0.214362  0.844163  0.241224  1
  B  B10  1  0.844163  0.214362  0.241224  1
  B  B11  1  0.785556  0.155602  0.759000  1
  B  B12  1  0.468907  0.468907  0.808504  1
  B  B13  1  0.530673  0.530673  0.191685  1
  B  B14  1  0.471306  0.471306  0.709619  1
  B  B15  1  0.528773  0.528773  0.290557  1
  Br  Br16  1  0.148871  0.148871  0.604248  1
  Br  Br17  1  0.851094  0.851094  0.395886  1
  Br  Br18  1  0.143621  0.143621  0.828081  1
  Br  Br19  1  0.857009  0.857009  0.171056  1
  Br  Br20  1  0.792983  0.792983  0.912235  1
  Br  Br21  1  0.205538  0.205538  0.087191  1
  Br  Br22  1  0.798932  0.798932  0.686020  1
  Br  Br23  1  0.201420  0.201420  0.312994  1
  Br  Br24  1  0.499417  0.499417  0.500266  1
  Br  Br25  1  0.502614  0.502614  0.999902  1
