# generated using pymatgen
data_ErPuReB6
_symmetry_space_group_name_H-M   'P 1'
_cell_length_a   3.66717400
_cell_length_b   9.16125900
_cell_length_c   11.50647900
_cell_angle_alpha   90.00000000
_cell_angle_beta   90.00000000
_cell_angle_gamma   90.00000000
_symmetry_Int_Tables_number   1
_chemical_formula_structural   ErPuReB6
_chemical_formula_sum   'Er4 Pu4 Re4 B24'
_cell_volume   386.57087237
_cell_formula_units_Z   4
loop_
 _symmetry_equiv_pos_site_id
 _symmetry_equiv_pos_as_xyz
  1  'x, y, z'
loop_
 _atom_site_type_symbol
 _atom_site_label
 _atom_site_symmetry_multiplicity
 _atom_site_fract_x
 _atom_site_fract_y
 _atom_site_fract_z
 _atom_site_occupancy
  Er  Er0  1  0.000000  0.944387  0.373238  1
  Er  Er1  1  0.000000  0.055613  0.626762  1
  Er  Er2  1  0.000000  0.444387  0.126762  1
  Er  Er3  1  0.000000  0.555613  0.873238  1
  Pu  Pu4  1  0.000000  0.322485  0.414091  1
  Pu  Pu5  1  0.000000  0.677515  0.585909  1
  Pu  Pu6  1  0.000000  0.822485  0.085909  1
  Pu  Pu7  1  0.000000  0.177515  0.914091  1
  Re  Re8  1  0.000000  0.638220  0.321622  1
  Re  Re9  1  0.000000  0.361780  0.678378  1
  Re  Re10  1  0.000000  0.138220  0.178378  1
  Re  Re11  1  0.000000  0.861780  0.821622  1
  B  B12  1  0.500000  0.552815  0.433338  1
  B  B13  1  0.500000  0.447185  0.566662  1
  B  B14  1  0.500000  0.052815  0.066662  1
  B  B15  1  0.500000  0.947185  0.933338  1
  B  B16  1  0.500000  0.748536  0.419966  1
  B  B17  1  0.500000  0.251464  0.580034  1
  B  B18  1  0.500000  0.248536  0.080034  1
  B  B19  1  0.500000  0.751464  0.919966  1
  B  B20  1  0.500000  0.792951  0.265467  1
  B  B21  1  0.500000  0.207049  0.734533  1
  B  B22  1  0.500000  0.292951  0.234533  1
  B  B23  1  0.500000  0.707049  0.765467  1
  B  B24  1  0.500000  0.632388  0.185113  1
  B  B25  1  0.500000  0.367612  0.814887  1
  B  B26  1  0.500000  0.132388  0.314887  1
  B  B27  1  0.500000  0.867612  0.685113  1
  B  B28  1  0.500000  0.981604  0.212665  1
  B  B29  1  0.500000  0.018396  0.787335  1
  B  B30  1  0.500000  0.481604  0.287335  1
  B  B31  1  0.500000  0.518396  0.712665  1
  B  B32  1  0.500000  0.608781  0.030308  1
  B  B33  1  0.500000  0.391219  0.969692  1
  B  B34  1  0.500000  0.108781  0.469692  1
  B  B35  1  0.500000  0.891219  0.530308  1
