# generated using pymatgen
data_Tb2Ho3In4IrPd
_symmetry_space_group_name_H-M   'P 1'
_cell_length_a   3.63241300
_cell_length_b   8.13114440
_cell_length_c   18.27490382
_cell_angle_alpha   90.01213420
_cell_angle_beta   90.00000000
_cell_angle_gamma   90.00000000
_symmetry_Int_Tables_number   1
_chemical_formula_structural   Tb2Ho3In4IrPd
_chemical_formula_sum   'Tb4 Ho6 In8 Ir2 Pd2'
_cell_volume   539.76160090
_cell_formula_units_Z   2
loop_
 _symmetry_equiv_pos_site_id
 _symmetry_equiv_pos_as_xyz
  1  'x, y, z'
loop_
 _atom_site_type_symbol
 _atom_site_label
 _atom_site_symmetry_multiplicity
 _atom_site_fract_x
 _atom_site_fract_y
 _atom_site_fract_z
 _atom_site_occupancy
  Tb  Tb0  1  0.000000  0.500000  0.500000  1
  Tb  Tb1  1  0.000000  0.000000  0.000000  1
  Tb  Tb2  1  0.000000  0.728782  0.277869  1
  Tb  Tb3  1  0.000000  0.271218  0.722131  1
  Ho  Ho4  1  0.000000  0.746873  0.779942  1
  Ho  Ho5  1  0.000000  0.253127  0.220058  1
  Ho  Ho6  1  0.000000  0.612950  0.087137  1
  Ho  Ho7  1  0.000000  0.387050  0.912863  1
  Ho  Ho8  1  0.000000  0.884717  0.584626  1
  Ho  Ho9  1  0.000000  0.115283  0.415374  1
  In  In10  1  0.500000  0.709094  0.931603  1
  In  In11  1  0.500000  0.290906  0.068397  1
  In  In12  1  0.500000  0.791940  0.431980  1
  In  In13  1  0.500000  0.208060  0.568020  1
  In  In14  1  0.500000  0.579566  0.648764  1
  In  In15  1  0.500000  0.420434  0.351236  1
  In  In16  1  0.500000  0.921820  0.149952  1
  In  In17  1  0.500000  0.078180  0.850048  1
  Ir  Ir18  1  0.500000  0.518087  0.195169  1
  Ir  Ir19  1  0.500000  0.481913  0.804831  1
  Pd  Pd20  1  0.500000  0.978745  0.696036  1
  Pd  Pd21  1  0.500000  0.021255  0.303964  1
