# generated using pymatgen
data_AcPr7Bi3O8
_symmetry_space_group_name_H-M   'P 1'
_cell_length_a   7.34463200
_cell_length_b   7.34480615
_cell_length_c   15.88185400
_cell_angle_alpha   73.49121019
_cell_angle_beta   73.49667385
_cell_angle_gamma   31.72060508
_symmetry_Int_Tables_number   1
_chemical_formula_structural   AcPr7Bi3O8
_chemical_formula_sum   'Ac1 Pr7 Bi3 O8'
_cell_volume   430.36050929
_cell_formula_units_Z   1
loop_
 _symmetry_equiv_pos_site_id
 _symmetry_equiv_pos_as_xyz
  1  'x, y, z'
loop_
 _atom_site_type_symbol
 _atom_site_label
 _atom_site_symmetry_multiplicity
 _atom_site_fract_x
 _atom_site_fract_y
 _atom_site_fract_z
 _atom_site_occupancy
  Ac  Ac0  1  0.538242  0.545043  0.170639  1
  Pr  Pr1  1  0.716844  0.725265  0.910625  1
  Pr  Pr2  1  0.277235  0.285948  0.087098  1
  Pr  Pr3  1  0.642151  0.643395  0.568443  1
  Pr  Pr4  1  0.356289  0.357572  0.433522  1
  Pr  Pr5  1  0.878245  0.881235  0.651902  1
  Pr  Pr6  1  0.119204  0.122143  0.350042  1
  Pr  Pr7  1  0.450805  0.456936  0.829996  1
  Bi  Bi8  1  0.170756  0.172861  0.733399  1
  Bi  Bi9  1  0.821786  0.824699  0.269987  1
  Bi  Bi10  1  0.993482  0.007096  0.994999  1
  O  O11  1  0.468165  0.470976  0.632339  1
  O  O12  1  0.528207  0.531144  0.367683  1
  O  O13  1  0.878902  0.885515  0.798810  1
  O  O14  1  0.118656  0.125502  0.201654  1
  O  O15  1  0.164358  0.165659  0.487696  1
  O  O16  1  0.834275  0.835451  0.513678  1
  O  O17  1  0.291944  0.300432  0.932987  1
  O  O18  1  0.702451  0.711129  0.064503  1
