# generated using pymatgen
data_YbSmFe2Si2C
_symmetry_space_group_name_H-M   'P 1'
_cell_length_a   5.66353672
_cell_length_b   5.66353719
_cell_length_c   6.90537656
_cell_angle_alpha   127.13072411
_cell_angle_beta   127.13072861
_cell_angle_gamma   41.24498420
_symmetry_Int_Tables_number   1
_chemical_formula_structural   YbSmFe2Si2C
_chemical_formula_sum   'Yb1 Sm1 Fe2 Si2 C1'
_cell_volume   111.59560983
_cell_formula_units_Z   1
loop_
 _symmetry_equiv_pos_site_id
 _symmetry_equiv_pos_as_xyz
  1  'x, y, z'
loop_
 _atom_site_type_symbol
 _atom_site_label
 _atom_site_symmetry_multiplicity
 _atom_site_fract_x
 _atom_site_fract_y
 _atom_site_fract_z
 _atom_site_occupancy
  Yb  Yb0  1  0.559020  0.559020  0.826853  1
  Sm  Sm1  1  0.437383  0.437383  0.170056  1
  Fe  Fe2  1  0.200090  0.200090  0.307587  1
  Fe  Fe3  1  0.801735  0.801735  0.695250  1
  Si  Si4  1  0.835391  0.835391  0.398225  1
  Si  Si5  1  0.164497  0.164497  0.601390  1
  C  C6  1  0.001884  0.001884  0.000637  1
