# generated using pymatgen
data_Sm(GdC2)7
_symmetry_space_group_name_H-M   'P 1'
_cell_length_a   13.88168878
_cell_length_b   3.77551502
_cell_length_c   6.57818567
_cell_angle_alpha   75.42439397
_cell_angle_beta   89.94754405
_cell_angle_gamma   90.03490053
_symmetry_Int_Tables_number   1
_chemical_formula_structural   Sm(GdC2)7
_chemical_formula_sum   'Sm1 Gd7 C14'
_cell_volume   333.67008027
_cell_formula_units_Z   1
loop_
 _symmetry_equiv_pos_site_id
 _symmetry_equiv_pos_as_xyz
  1  'x, y, z'
loop_
 _atom_site_type_symbol
 _atom_site_label
 _atom_site_symmetry_multiplicity
 _atom_site_fract_x
 _atom_site_fract_y
 _atom_site_fract_z
 _atom_site_occupancy
  Sm  Sm0  1  0.943240  0.367762  0.262164  1
  Gd  Gd1  1  0.443731  0.631964  0.238692  1
  Gd  Gd2  1  0.056591  0.631771  0.738334  1
  Gd  Gd3  1  0.555942  0.368035  0.761364  1
  Gd  Gd4  1  0.663079  0.055265  0.337460  1
  Gd  Gd5  1  0.164028  0.944420  0.161786  1
  Gd  Gd6  1  0.336267  0.945207  0.662253  1
  Gd  Gd7  1  0.835915  0.055720  0.836895  1
  C  C8  1  0.500103  0.999622  0.500123  1
  C  C9  1  0.000822  0.999075  0.998215  1
  C  C10  1  0.781244  0.470972  0.071580  1
  C  C11  1  0.282925  0.530764  0.426105  1
  C  C12  1  0.217914  0.529141  0.926445  1
  C  C13  1  0.717593  0.471260  0.572619  1
  C  C14  1  0.196211  0.377485  0.454780  1
  C  C15  1  0.694563  0.623427  0.044484  1
  C  C16  1  0.395701  0.264866  0.950123  1
  C  C17  1  0.895558  0.733241  0.554303  1
  C  C18  1  0.603796  0.737029  0.049467  1
  C  C19  1  0.105525  0.262048  0.452006  1
  C  C20  1  0.304742  0.377260  0.954493  1
  C  C21  1  0.804509  0.623666  0.546309  1
