# generated using pymatgen
data_Er3Tm4(PaGa4)5
_symmetry_space_group_name_H-M   'P 1'
_cell_length_a   6.04031247
_cell_length_b   9.50217673
_cell_length_c   11.62808443
_cell_angle_alpha   90.01628616
_cell_angle_beta   90.21947281
_cell_angle_gamma   89.95852164
_symmetry_Int_Tables_number   1
_chemical_formula_structural   Er3Tm4(PaGa4)5
_chemical_formula_sum   'Er3 Tm4 Pa5 Ga20'
_cell_volume   667.40179231
_cell_formula_units_Z   1
loop_
 _symmetry_equiv_pos_site_id
 _symmetry_equiv_pos_as_xyz
  1  'x, y, z'
loop_
 _atom_site_type_symbol
 _atom_site_label
 _atom_site_symmetry_multiplicity
 _atom_site_fract_x
 _atom_site_fract_y
 _atom_site_fract_z
 _atom_site_occupancy
  Er  Er0  1  0.882033  0.501503  0.350731  1
  Er  Er1  1  0.618255  0.998902  0.850373  1
  Er  Er2  1  0.117091  0.001846  0.649356  1
  Tm  Tm3  1  0.860525  0.751557  0.072956  1
  Tm  Tm4  1  0.642472  0.746995  0.572821  1
  Tm  Tm5  1  0.142550  0.254093  0.928342  1
  Tm  Tm6  1  0.357853  0.247301  0.427547  1
  Pa  Pa7  1  0.381351  0.499162  0.146911  1
  Pa  Pa8  1  0.118757  0.498001  0.649207  1
  Pa  Pa9  1  0.380177  0.002163  0.148642  1
  Pa  Pa10  1  0.879264  0.996514  0.351457  1
  Pa  Pa11  1  0.619958  0.502181  0.852093  1
  Ga  Ga12  1  0.870726  0.053305  0.091582  1
  Ga  Ga13  1  0.628239  0.444817  0.591383  1
  Ga  Ga14  1  0.130035  0.555604  0.909342  1
  Ga  Ga15  1  0.370151  0.945569  0.408602  1
  Ga  Ga16  1  0.134268  0.950178  0.907291  1
  Ga  Ga17  1  0.366205  0.551479  0.409140  1
  Ga  Ga18  1  0.869837  0.448202  0.091960  1
  Ga  Ga19  1  0.633409  0.051221  0.591479  1
  Ga  Ga20  1  0.156936  0.749755  0.264241  1
  Ga  Ga21  1  0.343710  0.751144  0.761931  1
  Ga  Ga22  1  0.844480  0.250279  0.737416  1
  Ga  Ga23  1  0.654233  0.250426  0.236686  1
  Ga  Ga24  1  0.394040  0.752304  0.995106  1
  Ga  Ga25  1  0.104812  0.748981  0.496134  1
  Ga  Ga26  1  0.607609  0.250363  0.005297  1
  Ga  Ga27  1  0.893666  0.248272  0.503872  1
  Ga  Ga28  1  0.597014  0.748405  0.291766  1
  Ga  Ga29  1  0.900330  0.749536  0.794604  1
  Ga  Ga30  1  0.399777  0.250223  0.705918  1
  Ga  Ga31  1  0.100237  0.249719  0.205813  1
