# generated using pymatgen
data_AcFe3As12Ir
_symmetry_space_group_name_H-M   'P 1'
_cell_length_a   7.33416993
_cell_length_b   7.33417014
_cell_length_c   7.33417003
_cell_angle_alpha   109.54511773
_cell_angle_beta   109.54511590
_cell_angle_gamma   109.54512338
_symmetry_Int_Tables_number   1
_chemical_formula_structural   AcFe3As12Ir
_chemical_formula_sum   'Ac1 Fe3 As12 Ir1'
_cell_volume   302.85662740
_cell_formula_units_Z   1
loop_
 _symmetry_equiv_pos_site_id
 _symmetry_equiv_pos_as_xyz
  1  'x, y, z'
loop_
 _atom_site_type_symbol
 _atom_site_label
 _atom_site_symmetry_multiplicity
 _atom_site_fract_x
 _atom_site_fract_y
 _atom_site_fract_z
 _atom_site_occupancy
  Ac  Ac0  1  0.000000  0.000000  0.000000  1
  Fe  Fe1  1  0.000000  0.000000  0.500000  1
  Fe  Fe2  1  0.500000  0.000000  0.000000  1
  Fe  Fe3  1  0.000000  0.500000  0.000000  1
  As  As4  1  0.157608  0.813766  0.656958  1
  As  As5  1  0.842392  0.186234  0.343042  1
  As  As6  1  0.656958  0.157608  0.813766  1
  As  As7  1  0.498344  0.659793  0.856692  1
  As  As8  1  0.659793  0.856692  0.498344  1
  As  As9  1  0.501656  0.340207  0.143308  1
  As  As10  1  0.343042  0.842392  0.186234  1
  As  As11  1  0.186234  0.343042  0.842392  1
  As  As12  1  0.813766  0.656958  0.157608  1
  As  As13  1  0.340207  0.143308  0.501656  1
  As  As14  1  0.856692  0.498344  0.659793  1
  As  As15  1  0.143308  0.501656  0.340207  1
  Ir  Ir16  1  0.500000  0.500000  0.500000  1
