# generated using pymatgen
data_Tb4NdTmTa2O14
_symmetry_space_group_name_H-M   'P 1'
_cell_length_a   6.51082688
_cell_length_b   6.49202387
_cell_length_c   7.55155633
_cell_angle_alpha   90.06558324
_cell_angle_beta   89.89760064
_cell_angle_gamma   108.95132509
_symmetry_Int_Tables_number   1
_chemical_formula_structural   Tb4NdTmTa2O14
_chemical_formula_sum   'Tb4 Nd1 Tm1 Ta2 O14'
_cell_volume   301.89010696
_cell_formula_units_Z   1
loop_
 _symmetry_equiv_pos_site_id
 _symmetry_equiv_pos_as_xyz
  1  'x, y, z'
loop_
 _atom_site_type_symbol
 _atom_site_label
 _atom_site_symmetry_multiplicity
 _atom_site_fract_x
 _atom_site_fract_y
 _atom_site_fract_z
 _atom_site_occupancy
  Tb  Tb0  1  0.536448  0.531301  0.499947  1
  Tb  Tb1  1  0.002266  0.464713  0.746189  1
  Tb  Tb2  1  0.533243  0.002157  0.749868  1
  Tb  Tb3  1  0.464646  0.000806  0.254244  1
  Nd  Nd4  1  0.509378  0.507410  0.001100  1
  Tm  Tm5  1  0.002916  0.533335  0.249623  1
  Ta  Ta6  1  0.002643  0.003336  0.498864  1
  Ta  Ta7  1  0.000316  0.000752  0.001335  1
  O  O8  1  0.936842  0.065082  0.750341  1
  O  O9  1  0.065162  0.930237  0.249760  1
  O  O10  1  0.355207  0.638316  0.258167  1
  O  O11  1  0.642591  0.362143  0.743268  1
  O  O12  1  0.368559  0.632031  0.742215  1
  O  O13  1  0.640082  0.371831  0.256477  1
  O  O14  1  0.318893  0.071754  0.968538  1
  O  O15  1  0.673791  0.917466  0.471747  1
  O  O16  1  0.313260  0.064158  0.535026  1
  O  O17  1  0.677454  0.925831  0.032823  1
  O  O18  1  0.042419  0.307686  0.457639  1
  O  O19  1  0.930723  0.678223  0.968409  1
  O  O20  1  0.923760  0.674969  0.527238  1
  O  O21  1  0.059404  0.316462  0.037183  1
