# generated using pymatgen
data_Tm4Ga2TcOs5
_symmetry_space_group_name_H-M   'P 1'
_cell_length_a   5.38545301
_cell_length_b   5.32969859
_cell_length_c   8.73817300
_cell_angle_alpha   90.00000000
_cell_angle_beta   90.00000000
_cell_angle_gamma   120.39314415
_symmetry_Int_Tables_number   1
_chemical_formula_structural   Tm4Ga2TcOs5
_chemical_formula_sum   'Tm4 Ga2 Tc1 Os5'
_cell_volume   216.34257720
_cell_formula_units_Z   1
loop_
 _symmetry_equiv_pos_site_id
 _symmetry_equiv_pos_as_xyz
  1  'x, y, z'
loop_
 _atom_site_type_symbol
 _atom_site_label
 _atom_site_symmetry_multiplicity
 _atom_site_fract_x
 _atom_site_fract_y
 _atom_site_fract_z
 _atom_site_occupancy
  Tm  Tm0  1  0.671940  0.344131  0.556368  1
  Tm  Tm1  1  0.337403  0.674981  0.430044  1
  Tm  Tm2  1  0.337403  0.674981  0.069956  1
  Tm  Tm3  1  0.671940  0.344131  0.943632  1
  Ga  Ga4  1  0.160894  0.813393  0.750000  1
  Ga  Ga5  1  0.652594  0.813783  0.750000  1
  Tc  Tc6  1  0.160280  0.320797  0.750000  1
  Os  Os7  1  0.010722  0.020206  0.501799  1
  Os  Os8  1  0.010722  0.020206  0.998201  1
  Os  Os9  1  0.819073  0.638473  0.250000  1
  Os  Os10  1  0.835867  0.167591  0.250000  1
  Os  Os11  1  0.331162  0.167329  0.250000  1
