# generated using pymatgen
data_Tb3NiSn3Pd2
_symmetry_space_group_name_H-M   'P 1'
_cell_length_a   7.57552500
_cell_length_b   7.57552517
_cell_length_c   3.88180600
_cell_angle_alpha   90.00000000
_cell_angle_beta   90.00000000
_cell_angle_gamma   120.00000364
_symmetry_Int_Tables_number   1
_chemical_formula_structural   Tb3NiSn3Pd2
_chemical_formula_sum   'Tb3 Ni1 Sn3 Pd2'
_cell_volume   192.92562850
_cell_formula_units_Z   1
loop_
 _symmetry_equiv_pos_site_id
 _symmetry_equiv_pos_as_xyz
  1  'x, y, z'
loop_
 _atom_site_type_symbol
 _atom_site_label
 _atom_site_symmetry_multiplicity
 _atom_site_fract_x
 _atom_site_fract_y
 _atom_site_fract_z
 _atom_site_occupancy
  Tb  Tb0  1  0.402476  0.402476  0.500000  1
  Tb  Tb1  1  0.597524  0.000000  0.500000  1
  Tb  Tb2  1  0.000000  0.597524  0.500000  1
  Ni  Ni3  1  0.000000  0.000000  0.500000  1
  Sn  Sn4  1  0.750569  0.750569  0.000000  1
  Sn  Sn5  1  0.249431  0.000000  0.000000  1
  Sn  Sn6  1  0.000000  0.249431  0.000000  1
  Pd  Pd7  1  0.666667  0.333333  0.000000  1
  Pd  Pd8  1  0.333333  0.666667  0.000000  1
