# generated using pymatgen
data_TbDy9(Bi3S)2
_symmetry_space_group_name_H-M   'P 1'
_cell_length_a   9.20236614
_cell_length_b   9.20512070
_cell_length_c   6.56600700
_cell_angle_alpha   90.00000000
_cell_angle_beta   90.00000000
_cell_angle_gamma   120.00990432
_symmetry_Int_Tables_number   1
_chemical_formula_structural   TbDy9(Bi3S)2
_chemical_formula_sum   'Tb1 Dy9 Bi6 S2'
_cell_volume   481.63453187
_cell_formula_units_Z   1
loop_
 _symmetry_equiv_pos_site_id
 _symmetry_equiv_pos_as_xyz
  1  'x, y, z'
loop_
 _atom_site_type_symbol
 _atom_site_label
 _atom_site_symmetry_multiplicity
 _atom_site_fract_x
 _atom_site_fract_y
 _atom_site_fract_z
 _atom_site_occupancy
  Tb  Tb0  1  0.000000  0.753649  0.750000  1
  Dy  Dy1  1  0.666660  0.333322  0.500037  1
  Dy  Dy2  1  0.333340  0.666663  0.500037  1
  Dy  Dy3  1  0.333340  0.666663  0.999963  1
  Dy  Dy4  1  0.666660  0.333322  0.999963  1
  Dy  Dy5  1  0.753974  0.754002  0.250000  1
  Dy  Dy6  1  0.246026  0.000028  0.250000  1
  Dy  Dy7  1  0.000000  0.245963  0.250000  1
  Dy  Dy8  1  0.245944  0.245935  0.750000  1
  Dy  Dy9  1  0.754056  0.999992  0.750000  1
  Bi  Bi10  1  0.396613  0.396581  0.250000  1
  Bi  Bi11  1  0.603387  0.999968  0.250000  1
  Bi  Bi12  1  0.000000  0.603408  0.250000  1
  Bi  Bi13  1  0.603120  0.603361  0.750000  1
  Bi  Bi14  1  0.396880  0.000241  0.750000  1
  Bi  Bi15  1  0.000000  0.396318  0.750000  1
  S  S16  1  0.000000  0.000292  0.499718  1
  S  S17  1  0.000000  0.000292  0.000282  1
