# generated using pymatgen
data_Ca20Si11Bi
_symmetry_space_group_name_H-M   'P 1'
_cell_length_a   7.67027100
_cell_length_b   7.67027100
_cell_length_c   14.93086800
_cell_angle_alpha   90.00000000
_cell_angle_beta   90.00000000
_cell_angle_gamma   90.00000000
_symmetry_Int_Tables_number   1
_chemical_formula_structural   Ca20Si11Bi
_chemical_formula_sum   'Ca20 Si11 Bi1'
_cell_volume   878.42861129
_cell_formula_units_Z   1
loop_
 _symmetry_equiv_pos_site_id
 _symmetry_equiv_pos_as_xyz
  1  'x, y, z'
loop_
 _atom_site_type_symbol
 _atom_site_label
 _atom_site_symmetry_multiplicity
 _atom_site_fract_x
 _atom_site_fract_y
 _atom_site_fract_z
 _atom_site_occupancy
  Ca  Ca0  1  0.327806  0.683967  0.114214  1
  Ca  Ca1  1  0.183967  0.172194  0.114214  1
  Ca  Ca2  1  0.500000  0.000000  0.730045  1
  Ca  Ca3  1  0.323779  0.681006  0.392067  1
  Ca  Ca4  1  0.665452  0.691302  0.885977  1
  Ca  Ca5  1  0.181006  0.176221  0.392067  1
  Ca  Ca6  1  0.676221  0.318994  0.392067  1
  Ca  Ca7  1  0.172204  0.815473  0.607855  1
  Ca  Ca8  1  0.334548  0.308698  0.885977  1
  Ca  Ca9  1  0.191302  0.834548  0.885977  1
  Ca  Ca10  1  0.500000  0.000000  0.253904  1
  Ca  Ca11  1  0.827796  0.184527  0.607855  1
  Ca  Ca12  1  0.315473  0.327796  0.607855  1
  Ca  Ca13  1  0.818994  0.823779  0.392067  1
  Ca  Ca14  1  0.808698  0.165452  0.885977  1
  Ca  Ca15  1  0.816033  0.827806  0.114214  1
  Ca  Ca16  1  0.000000  0.500000  0.260206  1
  Ca  Ca17  1  0.000000  0.500000  0.753800  1
  Ca  Ca18  1  0.672194  0.316033  0.114214  1
  Ca  Ca19  1  0.684527  0.672204  0.607855  1
  Si  Si20  1  0.112580  0.113899  0.748369  1
  Si  Si21  1  0.386101  0.612580  0.748369  1
  Si  Si22  1  0.613973  0.612384  0.251723  1
  Si  Si23  1  0.500000  0.000000  0.004723  1
  Si  Si24  1  0.112384  0.886027  0.251723  1
  Si  Si25  1  0.613899  0.387420  0.748369  1
  Si  Si26  1  0.887420  0.886101  0.748369  1
  Si  Si27  1  0.386027  0.387616  0.251723  1
  Si  Si28  1  0.887616  0.113973  0.251723  1
  Si  Si29  1  0.500000  0.000000  0.502248  1
  Si  Si30  1  0.000000  0.500000  0.496950  1
  Bi  Bi31  1  0.000000  0.500000  0.997302  1
