# generated using pymatgen
data_Nd12Ga(SiBr4)3
_symmetry_space_group_name_H-M   'P 1'
_cell_length_a   10.46261473
_cell_length_b   10.46261578
_cell_length_c   10.46261626
_cell_angle_alpha   109.57944990
_cell_angle_beta   109.57943717
_cell_angle_gamma   109.57943810
_symmetry_Int_Tables_number   1
_chemical_formula_structural   Nd12Ga(SiBr4)3
_chemical_formula_sum   'Nd12 Ga1 Si3 Br12'
_cell_volume   878.10512855
_cell_formula_units_Z   1
loop_
 _symmetry_equiv_pos_site_id
 _symmetry_equiv_pos_as_xyz
  1  'x, y, z'
loop_
 _atom_site_type_symbol
 _atom_site_label
 _atom_site_symmetry_multiplicity
 _atom_site_fract_x
 _atom_site_fract_y
 _atom_site_fract_z
 _atom_site_occupancy
  Nd  Nd0  1  0.479397  0.491619  0.237924  1
  Nd  Nd1  1  0.750000  0.237852  0.262148  1
  Nd  Nd2  1  0.750000  0.011348  0.488652  1
  Nd  Nd3  1  0.237924  0.479397  0.491619  1
  Nd  Nd4  1  0.262148  0.750000  0.237852  1
  Nd  Nd5  1  0.020603  0.262076  0.008381  1
  Nd  Nd6  1  0.008381  0.020603  0.262076  1
  Nd  Nd7  1  0.488652  0.750000  0.011348  1
  Nd  Nd8  1  0.491619  0.237924  0.479397  1
  Nd  Nd9  1  0.011348  0.488652  0.750000  1
  Nd  Nd10  1  0.262076  0.008381  0.020603  1
  Nd  Nd11  1  0.237852  0.262148  0.750000  1
  Ga  Ga12  1  0.250000  0.250000  0.250000  1
  Si  Si13  1  0.499728  0.000272  0.250000  1
  Si  Si14  1  0.000272  0.250000  0.499728  1
  Si  Si15  1  0.250000  0.499728  0.000272  1
  Br  Br16  1  0.250000  0.754214  0.745786  1
  Br  Br17  1  0.508061  0.504191  0.754481  1
  Br  Br18  1  0.991939  0.745519  0.995809  1
  Br  Br19  1  0.745786  0.250000  0.754214  1
  Br  Br20  1  0.995809  0.991939  0.745519  1
  Br  Br21  1  0.250000  0.995509  0.504491  1
  Br  Br22  1  0.754481  0.508061  0.504191  1
  Br  Br23  1  0.504491  0.250000  0.995509  1
  Br  Br24  1  0.754214  0.745786  0.250000  1
  Br  Br25  1  0.745519  0.995809  0.991939  1
  Br  Br26  1  0.995509  0.504491  0.250000  1
  Br  Br27  1  0.504191  0.754481  0.508061  1
