# generated using pymatgen
data_La2NiB10
_symmetry_space_group_name_H-M   'P 1'
_cell_length_a   4.22055800
_cell_length_b   5.67848500
_cell_length_c   11.30359300
_cell_angle_alpha   90.00000000
_cell_angle_beta   90.00000000
_cell_angle_gamma   90.00000000
_symmetry_Int_Tables_number   1
_chemical_formula_structural   La2NiB10
_chemical_formula_sum   'La4 Ni2 B20'
_cell_volume   270.90615202
_cell_formula_units_Z   2
loop_
 _symmetry_equiv_pos_site_id
 _symmetry_equiv_pos_as_xyz
  1  'x, y, z'
loop_
 _atom_site_type_symbol
 _atom_site_label
 _atom_site_symmetry_multiplicity
 _atom_site_fract_x
 _atom_site_fract_y
 _atom_site_fract_z
 _atom_site_occupancy
  La  La0  1  0.500000  0.192841  0.363538  1
  La  La1  1  0.500000  0.807159  0.636462  1
  La  La2  1  0.500000  0.307159  0.863538  1
  La  La3  1  0.500000  0.692841  0.136462  1
  Ni  Ni4  1  0.000000  0.000000  0.000000  1
  Ni  Ni5  1  0.000000  0.500000  0.500000  1
  B  B6  1  0.000000  0.374489  0.041768  1
  B  B7  1  0.000000  0.625511  0.958232  1
  B  B8  1  0.000000  0.125511  0.541768  1
  B  B9  1  0.000000  0.874489  0.458232  1
  B  B10  1  0.000000  0.345762  0.197158  1
  B  B11  1  0.000000  0.654238  0.802842  1
  B  B12  1  0.000000  0.154238  0.697158  1
  B  B13  1  0.000000  0.845762  0.302842  1
  B  B14  1  0.000000  0.037626  0.188195  1
  B  B15  1  0.000000  0.962374  0.811805  1
  B  B16  1  0.000000  0.462374  0.688195  1
  B  B17  1  0.000000  0.537626  0.311805  1
  B  B18  1  0.299220  0.202807  0.113706  1
  B  B19  1  0.700780  0.797193  0.886294  1
  B  B20  1  0.299220  0.797193  0.886294  1
  B  B21  1  0.700780  0.297193  0.613706  1
  B  B22  1  0.700780  0.202807  0.113706  1
  B  B23  1  0.299220  0.702807  0.386294  1
  B  B24  1  0.700780  0.702807  0.386294  1
  B  B25  1  0.299220  0.297193  0.613706  1
