# generated using pymatgen
data_Nd2Al20OsRuRh2
_symmetry_space_group_name_H-M   'P 1'
_cell_length_a   6.87013573
_cell_length_b   6.88159181
_cell_length_c   9.19897492
_cell_angle_alpha   90.29618683
_cell_angle_beta   90.28869273
_cell_angle_gamma   97.30999652
_symmetry_Int_Tables_number   1
_chemical_formula_structural   Nd2Al20OsRuRh2
_chemical_formula_sum   'Nd2 Al20 Os1 Ru1 Rh2'
_cell_volume   431.35659153
_cell_formula_units_Z   1
loop_
 _symmetry_equiv_pos_site_id
 _symmetry_equiv_pos_as_xyz
  1  'x, y, z'
loop_
 _atom_site_type_symbol
 _atom_site_label
 _atom_site_symmetry_multiplicity
 _atom_site_fract_x
 _atom_site_fract_y
 _atom_site_fract_z
 _atom_site_occupancy
  Nd  Nd0  1  0.872529  0.126747  0.750065  1
  Nd  Nd1  1  0.127471  0.873253  0.249935  1
  Al  Al2  1  0.620706  0.376871  0.548857  1
  Al  Al3  1  0.379294  0.623129  0.451143  1
  Al  Al4  1  0.376982  0.620914  0.049528  1
  Al  Al5  1  0.623018  0.379086  0.950472  1
  Al  Al6  1  0.223283  0.223299  0.499938  1
  Al  Al7  1  0.776717  0.776701  0.500062  1
  Al  Al8  1  0.776068  0.774727  0.999708  1
  Al  Al9  1  0.223932  0.225273  0.000292  1
  Al  Al10  1  0.842355  0.159892  0.102936  1
  Al  Al11  1  0.157645  0.840108  0.897064  1
  Al  Al12  1  0.158745  0.842506  0.602900  1
  Al  Al13  1  0.841255  0.157494  0.397100  1
  Al  Al14  1  0.857132  0.589387  0.750383  1
  Al  Al15  1  0.142868  0.410613  0.249617  1
  Al  Al16  1  0.409155  0.142977  0.750375  1
  Al  Al17  1  0.590845  0.857023  0.249625  1
  Al  Al18  1  0.222856  0.481977  0.752398  1
  Al  Al19  1  0.777144  0.518023  0.247602  1
  Al  Al20  1  0.517301  0.777592  0.746605  1
  Al  Al21  1  0.482699  0.222408  0.253395  1
  Os  Os22  1  0.500000  0.000000  0.500000  1
  Ru  Ru23  1  0.000000  0.500000  0.000000  1
  Rh  Rh24  1  0.000000  0.500000  0.500000  1
  Rh  Rh25  1  0.500000  0.000000  0.000000  1
