# generated using pymatgen
data_PrErNpO6
_symmetry_space_group_name_H-M   'P 1'
_cell_length_a   5.64801000
_cell_length_b   7.93663198
_cell_length_c   11.84411700
_cell_angle_alpha   74.70642368
_cell_angle_beta   90.00000000
_cell_angle_gamma   90.00000000
_symmetry_Int_Tables_number   1
_chemical_formula_structural   PrErNpO6
_chemical_formula_sum   'Pr4 Er4 Np4 O24'
_cell_volume   512.12478091
_cell_formula_units_Z   4
loop_
 _symmetry_equiv_pos_site_id
 _symmetry_equiv_pos_as_xyz
  1  'x, y, z'
loop_
 _atom_site_type_symbol
 _atom_site_label
 _atom_site_symmetry_multiplicity
 _atom_site_fract_x
 _atom_site_fract_y
 _atom_site_fract_z
 _atom_site_occupancy
  Pr  Pr0  1  0.694516  0.500000  0.250000  1
  Pr  Pr1  1  0.305484  0.500000  0.750000  1
  Pr  Pr2  1  0.748698  0.000000  0.250000  1
  Pr  Pr3  1  0.251302  0.000000  0.750000  1
  Er  Er4  1  0.185189  0.208496  0.419132  1
  Er  Er5  1  0.185189  0.791504  0.080868  1
  Er  Er6  1  0.814811  0.791504  0.580868  1
  Er  Er7  1  0.814811  0.208496  0.919132  1
  Np  Np8  1  0.256136  0.277044  0.111986  1
  Np  Np9  1  0.256136  0.722956  0.388014  1
  Np  Np10  1  0.743864  0.722956  0.888014  1
  Np  Np11  1  0.743864  0.277044  0.611986  1
  O  O12  1  0.441579  0.203207  0.273306  1
  O  O13  1  0.441579  0.796793  0.226694  1
  O  O14  1  0.558421  0.796793  0.726694  1
  O  O15  1  0.558421  0.203207  0.773306  1
  O  O16  1  0.058763  0.055259  0.099180  1
  O  O17  1  0.058763  0.944741  0.400820  1
  O  O18  1  0.941237  0.944741  0.900820  1
  O  O19  1  0.941237  0.055259  0.599180  1
  O  O20  1  0.974193  0.282525  0.233277  1
  O  O21  1  0.974193  0.717475  0.266723  1
  O  O22  1  0.025807  0.717475  0.766723  1
  O  O23  1  0.025807  0.282525  0.733277  1
  O  O24  1  0.879466  0.368255  0.447179  1
  O  O25  1  0.879466  0.631745  0.052821  1
  O  O26  1  0.120534  0.631745  0.552821  1
  O  O27  1  0.120534  0.368255  0.947179  1
  O  O28  1  0.626495  0.517085  0.613277  1
  O  O29  1  0.626495  0.482915  0.886723  1
  O  O30  1  0.373505  0.482915  0.386723  1
  O  O31  1  0.373505  0.517085  0.113277  1
  O  O32  1  0.443256  0.160673  0.562804  1
  O  O33  1  0.443256  0.839327  0.937196  1
  O  O34  1  0.556744  0.839327  0.437196  1
  O  O35  1  0.556744  0.160673  0.062804  1
