# generated using pymatgen
data_Ho2Sc3Si5Ge2Pt9
_symmetry_space_group_name_H-M   'P 1'
_cell_length_a   10.11695802
_cell_length_b   10.15114756
_cell_length_c   3.99325900
_cell_angle_alpha   90.00000000
_cell_angle_beta   90.00000000
_cell_angle_gamma   120.21847988
_symmetry_Int_Tables_number   1
_chemical_formula_structural   Ho2Sc3Si5Ge2Pt9
_chemical_formula_sum   'Ho2 Sc3 Si5 Ge2 Pt9'
_cell_volume   354.37482619
_cell_formula_units_Z   1
loop_
 _symmetry_equiv_pos_site_id
 _symmetry_equiv_pos_as_xyz
  1  'x, y, z'
loop_
 _atom_site_type_symbol
 _atom_site_label
 _atom_site_symmetry_multiplicity
 _atom_site_fract_x
 _atom_site_fract_y
 _atom_site_fract_z
 _atom_site_occupancy
  Ho  Ho0  1  0.999186  0.996826  0.000000  1
  Ho  Ho1  1  0.332835  0.667009  0.500000  1
  Sc  Sc2  1  0.895024  0.456905  0.500000  1
  Sc  Sc3  1  0.560669  0.105525  0.500000  1
  Sc  Sc4  1  0.545091  0.439092  0.500000  1
  Si  Si5  1  0.949125  0.753797  0.500000  1
  Si  Si6  1  0.556984  0.647381  0.000000  1
  Si  Si7  1  0.351857  0.908227  0.000000  1
  Si  Si8  1  0.091331  0.445679  0.000000  1
  Si  Si9  1  0.667411  0.334934  0.000000  1
  Ge  Ge10  1  0.243186  0.194242  0.500000  1
  Ge  Ge11  1  0.805115  0.048284  0.500000  1
  Pt  Pt12  1  0.219087  0.930967  0.500000  1
  Pt  Pt13  1  0.065311  0.294205  0.500000  1
  Pt  Pt14  1  0.713059  0.772090  0.500000  1
  Pt  Pt15  1  0.316448  0.417695  0.000000  1
  Pt  Pt16  1  0.582850  0.898118  0.000000  1
  Pt  Pt17  1  0.099502  0.684317  0.000000  1
  Pt  Pt18  1  0.389098  0.170426  0.000000  1
  Pt  Pt19  1  0.827696  0.217930  0.000000  1
  Pt  Pt20  1  0.789135  0.616355  0.000000  1
