# generated using pymatgen
data_TbHo3Zn2FeRu5
_symmetry_space_group_name_H-M   'P 1'
_cell_length_a   5.27844122
_cell_length_b   5.34246542
_cell_length_c   9.21344206
_cell_angle_alpha   73.14637202
_cell_angle_beta   92.10472599
_cell_angle_gamma   120.40204165
_symmetry_Int_Tables_number   1
_chemical_formula_structural   TbHo3Zn2FeRu5
_chemical_formula_sum   'Tb1 Ho3 Zn2 Fe1 Ru5'
_cell_volume   212.55417738
_cell_formula_units_Z   1
loop_
 _symmetry_equiv_pos_site_id
 _symmetry_equiv_pos_as_xyz
  1  'x, y, z'
loop_
 _atom_site_type_symbol
 _atom_site_label
 _atom_site_symmetry_multiplicity
 _atom_site_fract_x
 _atom_site_fract_y
 _atom_site_fract_z
 _atom_site_occupancy
  Tb  Tb0  1  0.876003  0.749516  0.376970  1
  Ho  Ho1  1  0.382551  0.757577  0.867397  1
  Ho  Ho2  1  0.998945  0.999529  0.999888  1
  Ho  Ho3  1  0.501413  0.999321  0.502772  1
  Zn  Zn4  1  0.678314  0.371781  0.934752  1
  Zn  Zn5  1  0.936411  0.373079  0.190251  1
  Fe  Fe6  1  0.438320  0.378373  0.681574  1
  Ru  Ru7  1  0.434327  0.370476  0.186034  1
  Ru  Ru8  1  0.935394  0.376368  0.690647  1
  Ru  Ru9  1  0.434327  0.877818  0.186034  1
  Ru  Ru10  1  0.935394  0.868380  0.690647  1
  Ru  Ru11  1  0.198597  0.377781  0.443035  1
