# generated using pymatgen
data_DyEr7Os2(WC4)2
_symmetry_space_group_name_H-M   'P 1'
_cell_length_a   5.06134300
_cell_length_b   6.56419482
_cell_length_c   9.84060771
_cell_angle_alpha   89.15719172
_cell_angle_beta   90.00000000
_cell_angle_gamma   90.00000000
_symmetry_Int_Tables_number   1
_chemical_formula_structural   DyEr7Os2(WC4)2
_chemical_formula_sum   'Dy1 Er7 Os2 W2 C8'
_cell_volume   326.90545193
_cell_formula_units_Z   1
loop_
 _symmetry_equiv_pos_site_id
 _symmetry_equiv_pos_as_xyz
  1  'x, y, z'
loop_
 _atom_site_type_symbol
 _atom_site_label
 _atom_site_symmetry_multiplicity
 _atom_site_fract_x
 _atom_site_fract_y
 _atom_site_fract_z
 _atom_site_occupancy
  Dy  Dy0  1  0.250000  0.031588  0.283413  1
  Er  Er1  1  0.250000  0.677875  0.557950  1
  Er  Er2  1  0.750000  0.322697  0.442396  1
  Er  Er3  1  0.750000  0.823890  0.058184  1
  Er  Er4  1  0.250000  0.175782  0.941554  1
  Er  Er5  1  0.250000  0.538855  0.218650  1
  Er  Er6  1  0.750000  0.461007  0.781056  1
  Er  Er7  1  0.750000  0.968016  0.717602  1
  Os  Os8  1  0.750000  0.779231  0.367421  1
  Os  Os9  1  0.250000  0.220650  0.632698  1
  W  W10  1  0.250000  0.715859  0.868293  1
  W  W11  1  0.750000  0.284038  0.131197  1
  C  C12  1  0.250000  0.449609  0.758312  1
  C  C13  1  0.750000  0.550095  0.241742  1
  C  C14  1  0.750000  0.046887  0.259654  1
  C  C15  1  0.250000  0.953099  0.739855  1
  C  C16  1  0.250000  0.825102  0.054312  1
  C  C17  1  0.750000  0.174106  0.945068  1
  C  C18  1  0.750000  0.675264  0.550553  1
  C  C19  1  0.250000  0.326350  0.450090  1
