# generated using pymatgen
data_La2Sm3DyOsI10
_symmetry_space_group_name_H-M   'P 1'
_cell_length_a   7.95336067
_cell_length_b   10.04480355
_cell_length_c   9.90887611
_cell_angle_alpha   107.18852273
_cell_angle_beta   96.01459274
_cell_angle_gamma   105.73734601
_symmetry_Int_Tables_number   1
_chemical_formula_structural   La2Sm3DyOsI10
_chemical_formula_sum   'La2 Sm3 Dy1 Os1 I10'
_cell_volume   713.04189685
_cell_formula_units_Z   1
loop_
 _symmetry_equiv_pos_site_id
 _symmetry_equiv_pos_as_xyz
  1  'x, y, z'
loop_
 _atom_site_type_symbol
 _atom_site_label
 _atom_site_symmetry_multiplicity
 _atom_site_fract_x
 _atom_site_fract_y
 _atom_site_fract_z
 _atom_site_occupancy
  La  La0  1  0.384679  0.957673  0.729399  1
  La  La1  1  0.612169  0.040978  0.269188  1
  Sm  Sm2  1  0.470599  0.292310  0.589201  1
  Sm  Sm3  1  0.527340  0.707191  0.409486  1
  Sm  Sm4  1  0.857395  0.131052  0.671185  1
  Dy  Dy5  1  0.147925  0.870428  0.331295  1
  Os  Os6  1  0.499099  0.999578  0.499689  1
  I  I7  1  0.416313  0.626653  0.677613  1
  I  I8  1  0.583549  0.373379  0.322064  1
  I  I9  1  0.284704  0.264196  0.848686  1
  I  I10  1  0.722712  0.738227  0.154773  1
  I  I11  1  0.854630  0.452944  0.770336  1
  I  I12  1  0.142369  0.551511  0.229662  1
  I  I13  1  0.049928  0.176430  0.409232  1
  I  I14  1  0.229732  0.910009  0.045810  1
  I  I15  1  0.766077  0.088070  0.957470  1
  I  I16  1  0.950782  0.819372  0.584912  1
