# generated using pymatgen
data_YbPa5(Ni3Bi4)2
_symmetry_space_group_name_H-M   'P 1'
_cell_length_a   8.35149112
_cell_length_b   8.35302435
_cell_length_c   8.35408233
_cell_angle_alpha   109.51754237
_cell_angle_beta   109.45968924
_cell_angle_gamma   109.42637656
_symmetry_Int_Tables_number   1
_chemical_formula_structural   YbPa5(Ni3Bi4)2
_chemical_formula_sum   'Yb1 Pa5 Ni6 Bi8'
_cell_volume   448.68163540
_cell_formula_units_Z   1
loop_
 _symmetry_equiv_pos_site_id
 _symmetry_equiv_pos_as_xyz
  1  'x, y, z'
loop_
 _atom_site_type_symbol
 _atom_site_label
 _atom_site_symmetry_multiplicity
 _atom_site_fract_x
 _atom_site_fract_y
 _atom_site_fract_z
 _atom_site_occupancy
  Yb  Yb0  1  0.750058  0.374982  0.625077  1
  Pa  Pa1  1  0.127426  0.875790  0.251242  1
  Pa  Pa2  1  0.372756  0.623886  0.748441  1
  Pa  Pa3  1  0.875490  0.251576  0.124250  1
  Pa  Pa4  1  0.624652  0.748892  0.376226  1
  Pa  Pa5  1  0.250005  0.124969  0.874960  1
  Ni  Ni6  1  0.615027  0.370599  0.233259  1
  Ni  Ni7  1  0.884551  0.117617  0.754719  1
  Ni  Ni8  1  0.362719  0.244510  0.629587  1
  Ni  Ni9  1  0.137250  0.767232  0.882180  1
  Ni  Ni10  1  0.249878  0.624761  0.374987  1
  Ni  Ni11  1  0.749710  0.875095  0.124775  1
  Bi  Bi12  1  0.335309  0.331712  0.335163  1
  Bi  Bi13  1  0.164659  0.499788  0.996412  1
  Bi  Bi14  1  0.996850  0.168092  0.499083  1
  Bi  Bi15  1  0.830947  0.828571  0.831967  1
  Bi  Bi16  1  0.503482  0.002554  0.171481  1
  Bi  Bi17  1  0.669010  0.500994  0.997730  1
  Bi  Bi18  1  0.503557  0.003586  0.668327  1
  Bi  Bi19  1  0.996665  0.664794  0.500133  1
