# generated using pymatgen
data_Ce2Pr2YRu2
_symmetry_space_group_name_H-M   'P 1'
_cell_length_a   6.47820595
_cell_length_b   7.10505759
_cell_length_c   9.07735684
_cell_angle_alpha   95.20930406
_cell_angle_beta   110.90585144
_cell_angle_gamma   89.99999181
_symmetry_Int_Tables_number   1
_chemical_formula_structural   Ce2Pr2YRu2
_chemical_formula_sum   'Ce4 Pr4 Y2 Ru4'
_cell_volume   388.45950568
_cell_formula_units_Z   2
loop_
 _symmetry_equiv_pos_site_id
 _symmetry_equiv_pos_as_xyz
  1  'x, y, z'
loop_
 _atom_site_type_symbol
 _atom_site_label
 _atom_site_symmetry_multiplicity
 _atom_site_fract_x
 _atom_site_fract_y
 _atom_site_fract_z
 _atom_site_occupancy
  Ce  Ce0  1  0.987318  0.900878  0.181989  1
  Ce  Ce1  1  0.805330  0.599122  0.818011  1
  Ce  Ce2  1  0.012682  0.099122  0.818011  1
  Ce  Ce3  1  0.194670  0.400878  0.181989  1
  Pr  Pr4  1  0.640765  0.816170  0.429455  1
  Pr  Pr5  1  0.211309  0.683830  0.570545  1
  Pr  Pr6  1  0.359235  0.183830  0.570545  1
  Pr  Pr7  1  0.788691  0.316170  0.429455  1
  Y  Y8  1  0.425642  0.750000  0.000000  1
  Y  Y9  1  0.574358  0.250000  0.000000  1
  Ru  Ru10  1  0.852689  0.594006  0.209565  1
  Ru  Ru11  1  0.643124  0.905994  0.790435  1
  Ru  Ru12  1  0.147311  0.405994  0.790435  1
  Ru  Ru13  1  0.356876  0.094006  0.209565  1
