# generated using pymatgen
data_LaCu9Si4
_symmetry_space_group_name_H-M   'P 1'
_cell_length_a   8.17482400
_cell_length_b   8.17482386
_cell_length_c   8.17482393
_cell_angle_alpha   120.50298850
_cell_angle_beta   120.50298486
_cell_angle_gamma   89.13098865
_symmetry_Int_Tables_number   1
_chemical_formula_structural   LaCu9Si4
_chemical_formula_sum   'La2 Cu18 Si8'
_cell_volume   383.31133260
_cell_formula_units_Z   2
loop_
 _symmetry_equiv_pos_site_id
 _symmetry_equiv_pos_as_xyz
  1  'x, y, z'
loop_
 _atom_site_type_symbol
 _atom_site_label
 _atom_site_symmetry_multiplicity
 _atom_site_fract_x
 _atom_site_fract_y
 _atom_site_fract_z
 _atom_site_occupancy
  La  La0  1  0.750000  0.750000  0.000000  1
  La  La1  1  0.250000  0.250000  0.000000  1
  Cu  Cu2  1  0.066486  0.201651  0.268137  1
  Cu  Cu3  1  0.933514  0.798349  0.731863  1
  Cu  Cu4  1  0.566486  0.298349  0.864836  1
  Cu  Cu5  1  0.433514  0.701651  0.135164  1
  Cu  Cu6  1  0.798349  0.066486  0.864836  1
  Cu  Cu7  1  0.201651  0.933514  0.135164  1
  Cu  Cu8  1  0.701651  0.566486  0.268137  1
  Cu  Cu9  1  0.298349  0.433514  0.731863  1
  Cu  Cu10  1  0.442724  0.942724  0.749743  1
  Cu  Cu11  1  0.192980  0.692980  0.250257  1
  Cu  Cu12  1  0.942724  0.192980  0.500000  1
  Cu  Cu13  1  0.692980  0.442724  0.500000  1
  Cu  Cu14  1  0.557276  0.057276  0.250257  1
  Cu  Cu15  1  0.807020  0.307020  0.749743  1
  Cu  Cu16  1  0.057276  0.807020  0.500000  1
  Cu  Cu17  1  0.307020  0.557276  0.500000  1
  Cu  Cu18  1  0.000000  0.500000  0.500000  1
  Cu  Cu19  1  0.500000  0.000000  0.500000  1
  Si  Si20  1  0.056370  0.556370  0.848755  1
  Si  Si21  1  0.707615  0.207615  0.151245  1
  Si  Si22  1  0.556370  0.707615  0.500000  1
  Si  Si23  1  0.207615  0.056370  0.500000  1
  Si  Si24  1  0.943630  0.443630  0.151245  1
  Si  Si25  1  0.292385  0.792385  0.848755  1
  Si  Si26  1  0.443630  0.292385  0.500000  1
  Si  Si27  1  0.792385  0.943630  0.500000  1
