# generated using pymatgen
data_Ce2Er7TmRu4
_symmetry_space_group_name_H-M   'P 1'
_cell_length_a   6.34274195
_cell_length_b   7.11417107
_cell_length_c   8.57760787
_cell_angle_alpha   96.36013482
_cell_angle_beta   111.69877369
_cell_angle_gamma   90.00000207
_symmetry_Int_Tables_number   1
_chemical_formula_structural   Ce2Er7TmRu4
_chemical_formula_sum   'Ce2 Er7 Tm1 Ru4'
_cell_volume   357.05907077
_cell_formula_units_Z   1
loop_
 _symmetry_equiv_pos_site_id
 _symmetry_equiv_pos_as_xyz
  1  'x, y, z'
loop_
 _atom_site_type_symbol
 _atom_site_label
 _atom_site_symmetry_multiplicity
 _atom_site_fract_x
 _atom_site_fract_y
 _atom_site_fract_z
 _atom_site_occupancy
  Ce  Ce0  1  0.796458  0.095692  0.807527  1
  Ce  Ce1  1  0.988932  0.404308  0.192473  1
  Er  Er2  1  0.211211  0.916736  0.184350  1
  Er  Er3  1  0.026861  0.583264  0.815650  1
  Er  Er4  1  0.205376  0.183641  0.565544  1
  Er  Er5  1  0.639832  0.316359  0.434456  1
  Er  Er6  1  0.788963  0.811731  0.433079  1
  Er  Er7  1  0.355884  0.688269  0.566921  1
  Er  Er8  1  0.424031  0.250000  0.000000  1
  Tm  Tm9  1  0.582180  0.750000  0.000000  1
  Ru  Ru10  1  0.615346  0.406125  0.780393  1
  Ru  Ru11  1  0.834952  0.093875  0.219607  1
  Ru  Ru12  1  0.375404  0.568905  0.220836  1
  Ru  Ru13  1  0.154569  0.931095  0.779164  1
