# generated using pymatgen
data_Tb20(OsRh3)3
_symmetry_space_group_name_H-M   'P 1'
_cell_length_a   10.93414900
_cell_length_b   10.93414900
_cell_length_c   6.43440400
_cell_angle_alpha   90.00000000
_cell_angle_beta   90.00000000
_cell_angle_gamma   90.00000000
_symmetry_Int_Tables_number   1
_chemical_formula_structural   Tb20(OsRh3)3
_chemical_formula_sum   'Tb20 Os3 Rh9'
_cell_volume   769.26912322
_cell_formula_units_Z   1
loop_
 _symmetry_equiv_pos_site_id
 _symmetry_equiv_pos_as_xyz
  1  'x, y, z'
loop_
 _atom_site_type_symbol
 _atom_site_label
 _atom_site_symmetry_multiplicity
 _atom_site_fract_x
 _atom_site_fract_y
 _atom_site_fract_z
 _atom_site_occupancy
  Tb  Tb0  1  0.294653  0.086556  0.378036  1
  Tb  Tb1  1  0.294699  0.913928  0.878231  1
  Tb  Tb2  1  0.705301  0.086072  0.878231  1
  Tb  Tb3  1  0.705347  0.913444  0.378036  1
  Tb  Tb4  1  0.586072  0.794699  0.878231  1
  Tb  Tb5  1  0.586556  0.205347  0.378036  1
  Tb  Tb6  1  0.413444  0.794653  0.378036  1
  Tb  Tb7  1  0.413928  0.205301  0.878231  1
  Tb  Tb8  1  0.207571  0.412680  0.624569  1
  Tb  Tb9  1  0.207113  0.587588  0.118641  1
  Tb  Tb10  1  0.792887  0.412412  0.118641  1
  Tb  Tb11  1  0.792429  0.587320  0.624569  1
  Tb  Tb12  1  0.912412  0.707113  0.118641  1
  Tb  Tb13  1  0.912680  0.292429  0.624569  1
  Tb  Tb14  1  0.087320  0.707571  0.624569  1
  Tb  Tb15  1  0.087588  0.292887  0.118641  1
  Tb  Tb16  1  0.000000  0.000000  0.499042  1
  Tb  Tb17  1  0.000000  0.000000  0.999556  1
  Tb  Tb18  1  0.500000  0.500000  0.999556  1
  Tb  Tb19  1  0.500000  0.500000  0.499042  1
  Os  Os20  1  0.500000  0.000000  0.124202  1
  Os  Os21  1  0.500000  0.000000  0.623795  1
  Os  Os22  1  0.000000  0.500000  0.876878  1
  Rh  Rh23  1  0.849156  0.153244  0.250511  1
  Rh  Rh24  1  0.848756  0.847152  0.749772  1
  Rh  Rh25  1  0.151244  0.152848  0.749772  1
  Rh  Rh26  1  0.150844  0.846756  0.250511  1
  Rh  Rh27  1  0.652848  0.348756  0.749772  1
  Rh  Rh28  1  0.653244  0.650844  0.250511  1
  Rh  Rh29  1  0.346756  0.349156  0.250511  1
  Rh  Rh30  1  0.347152  0.651244  0.749772  1
  Rh  Rh31  1  0.000000  0.500000  0.378879  1
