# generated using pymatgen
data_DyHo3Tc4F28
_symmetry_space_group_name_H-M   'P 1'
_cell_length_a   5.56717806
_cell_length_b   8.87638482
_cell_length_c   11.99834920
_cell_angle_alpha   62.65936063
_cell_angle_beta   89.98433140
_cell_angle_gamma   89.98775473
_symmetry_Int_Tables_number   1
_chemical_formula_structural   DyHo3Tc4F28
_chemical_formula_sum   'Dy1 Ho3 Tc4 F28'
_cell_volume   526.68180337
_cell_formula_units_Z   1
loop_
 _symmetry_equiv_pos_site_id
 _symmetry_equiv_pos_as_xyz
  1  'x, y, z'
loop_
 _atom_site_type_symbol
 _atom_site_label
 _atom_site_symmetry_multiplicity
 _atom_site_fract_x
 _atom_site_fract_y
 _atom_site_fract_z
 _atom_site_occupancy
  Dy  Dy0  1  0.758753  0.813569  0.764697  1
  Ho  Ho1  1  0.258769  0.186733  0.735350  1
  Ho  Ho2  1  0.241202  0.186291  0.235419  1
  Ho  Ho3  1  0.741212  0.813756  0.264611  1
  Tc  Tc4  1  0.757893  0.272527  0.957020  1
  Tc  Tc5  1  0.257937  0.727053  0.542795  1
  Tc  Tc6  1  0.242221  0.727081  0.043372  1
  Tc  Tc7  1  0.742029  0.273061  0.456802  1
  F  F8  1  0.440837  0.706262  0.916712  1
  F  F9  1  0.941248  0.293551  0.583427  1
  F  F10  1  0.558615  0.293497  0.083496  1
  F  F11  1  0.058421  0.706465  0.416326  1
  F  F12  1  0.443900  0.275839  0.545176  1
  F  F13  1  0.944169  0.723884  0.955344  1
  F  F14  1  0.556406  0.724224  0.454659  1
  F  F15  1  0.056115  0.275750  0.045265  1
  F  F16  1  0.775263  0.520629  0.859416  1
  F  F17  1  0.275185  0.478737  0.640735  1
  F  F18  1  0.224843  0.478672  0.140812  1
  F  F19  1  0.724818  0.521471  0.359165  1
  F  F20  1  0.755315  0.025390  0.052870  1
  F  F21  1  0.255308  0.974324  0.447226  1
  F  F22  1  0.244632  0.974246  0.947329  1
  F  F23  1  0.744706  0.025955  0.552373  1
  F  F24  1  0.971340  0.727512  0.637863  1
  F  F25  1  0.471202  0.272210  0.861877  1
  F  F26  1  0.028881  0.272203  0.361791  1
  F  F27  1  0.529098  0.727835  0.138260  1
  F  F28  1  0.048043  0.747106  0.173627  1
  F  F29  1  0.548137  0.252937  0.326478  1
  F  F30  1  0.951764  0.252903  0.826535  1
  F  F31  1  0.450797  0.746815  0.673318  1
  F  F32  1  0.418384  0.970569  0.232373  1
  F  F33  1  0.918349  0.029383  0.267631  1
  F  F34  1  0.581105  0.030420  0.767684  1
  F  F35  1  0.083102  0.971139  0.732167  1
