# generated using pymatgen
data_CePd3(SeO3)8
_symmetry_space_group_name_H-M   'P 1'
_cell_length_a   8.29430036
_cell_length_b   8.29429961
_cell_length_c   8.29430000
_cell_angle_alpha   90.99168523
_cell_angle_beta   89.00830795
_cell_angle_gamma   90.99169478
_symmetry_Int_Tables_number   1
_chemical_formula_structural   CePd3(SeO3)8
_chemical_formula_sum   'Ce1 Pd3 Se8 O24'
_cell_volume   570.35630389
_cell_formula_units_Z   1
loop_
 _symmetry_equiv_pos_site_id
 _symmetry_equiv_pos_as_xyz
  1  'x, y, z'
loop_
 _atom_site_type_symbol
 _atom_site_label
 _atom_site_symmetry_multiplicity
 _atom_site_fract_x
 _atom_site_fract_y
 _atom_site_fract_z
 _atom_site_occupancy
  Ce  Ce0  1  0.000000  0.500000  0.500000  1
  Pd  Pd1  1  0.500000  0.500000  0.000000  1
  Pd  Pd2  1  0.500000  0.000000  0.500000  1
  Pd  Pd3  1  0.000000  0.000000  0.000000  1
  Se  Se4  1  0.815884  0.125721  0.693245  1
  Se  Se5  1  0.184116  0.874279  0.306755  1
  Se  Se6  1  0.625721  0.693245  0.684116  1
  Se  Se7  1  0.193245  0.684116  0.874279  1
  Se  Se8  1  0.324899  0.175101  0.824899  1
  Se  Se9  1  0.806755  0.315884  0.125721  1
  Se  Se10  1  0.675101  0.824899  0.175101  1
  Se  Se11  1  0.374279  0.306755  0.315884  1
  O  O12  1  0.251752  0.424770  0.434904  1
  O  O13  1  0.956448  0.240171  0.990714  1
  O  O14  1  0.065096  0.751752  0.424770  1
  O  O15  1  0.463511  0.259560  0.960980  1
  O  O16  1  0.259829  0.009286  0.456448  1
  O  O17  1  0.490714  0.543552  0.759829  1
  O  O18  1  0.962449  0.991322  0.758762  1
  O  O19  1  0.536489  0.740440  0.039020  1
  O  O20  1  0.539020  0.963511  0.259560  1
  O  O21  1  0.460980  0.036489  0.740440  1
  O  O22  1  0.759560  0.960980  0.036489  1
  O  O23  1  0.258762  0.537551  0.008678  1
  O  O24  1  0.075230  0.565096  0.751752  1
  O  O25  1  0.037551  0.008678  0.241238  1
  O  O26  1  0.240440  0.039020  0.963511  1
  O  O27  1  0.509286  0.456448  0.240171  1
  O  O28  1  0.748248  0.575230  0.565096  1
  O  O29  1  0.924770  0.434904  0.248248  1
  O  O30  1  0.043552  0.759829  0.009286  1
  O  O31  1  0.508678  0.241238  0.462449  1
  O  O32  1  0.491322  0.758762  0.537551  1
  O  O33  1  0.934904  0.248248  0.575230  1
  O  O34  1  0.740171  0.990714  0.543552  1
  O  O35  1  0.741238  0.462449  0.991322  1
