# generated using pymatgen
data_Ho3Er3Ni2
_symmetry_space_group_name_H-M   'P 1'
_cell_length_a   6.29167923
_cell_length_b   6.77293000
_cell_length_c   9.46795434
_cell_angle_alpha   90.00000000
_cell_angle_beta   90.03081249
_cell_angle_gamma   90.00000000
_symmetry_Int_Tables_number   1
_chemical_formula_structural   Ho3Er3Ni2
_chemical_formula_sum   'Ho6 Er6 Ni4'
_cell_volume   403.45885515
_cell_formula_units_Z   2
loop_
 _symmetry_equiv_pos_site_id
 _symmetry_equiv_pos_as_xyz
  1  'x, y, z'
loop_
 _atom_site_type_symbol
 _atom_site_label
 _atom_site_symmetry_multiplicity
 _atom_site_fract_x
 _atom_site_fract_y
 _atom_site_fract_z
 _atom_site_occupancy
  Ho  Ho0  1  0.320744  0.678501  0.065343  1
  Ho  Ho1  1  0.179256  0.178501  0.434657  1
  Ho  Ho2  1  0.861280  0.532284  0.250090  1
  Ho  Ho3  1  0.638720  0.032284  0.249910  1
  Ho  Ho4  1  0.138579  0.467583  0.749956  1
  Ho  Ho5  1  0.361421  0.967583  0.750044  1
  Er  Er6  1  0.679122  0.321641  0.565805  1
  Er  Er7  1  0.820878  0.821641  0.934195  1
  Er  Er8  1  0.679270  0.321568  0.934272  1
  Er  Er9  1  0.820730  0.821568  0.565728  1
  Er  Er10  1  0.320903  0.678447  0.434691  1
  Er  Er11  1  0.179097  0.178447  0.065309  1
  Ni  Ni12  1  0.055428  0.891838  0.249988  1
  Ni  Ni13  1  0.444572  0.391838  0.250012  1
  Ni  Ni14  1  0.944228  0.108139  0.750114  1
  Ni  Ni15  1  0.555772  0.608139  0.749886  1
