# generated using pymatgen
data_Sc2Rh4PbAu
_symmetry_space_group_name_H-M   'P 1'
_cell_length_a   6.04281054
_cell_length_b   6.04092840
_cell_length_c   7.38127101
_cell_angle_alpha   90.00667245
_cell_angle_beta   90.00260079
_cell_angle_gamma   90.04471229
_symmetry_Int_Tables_number   1
_chemical_formula_structural   Sc2Rh4PbAu
_chemical_formula_sum   'Sc4 Rh8 Pb2 Au2'
_cell_volume   269.44720433
_cell_formula_units_Z   2
loop_
 _symmetry_equiv_pos_site_id
 _symmetry_equiv_pos_as_xyz
  1  'x, y, z'
loop_
 _atom_site_type_symbol
 _atom_site_label
 _atom_site_symmetry_multiplicity
 _atom_site_fract_x
 _atom_site_fract_y
 _atom_site_fract_z
 _atom_site_occupancy
  Sc  Sc0  1  0.250094  0.250023  0.999989  1
  Sc  Sc1  1  0.749906  0.749977  0.000011  1
  Sc  Sc2  1  0.250182  0.250010  0.500011  1
  Sc  Sc3  1  0.749818  0.749990  0.499988  1
  Rh  Rh4  1  0.999994  0.500006  0.252120  1
  Rh  Rh5  1  0.999989  0.999994  0.251810  1
  Rh  Rh6  1  0.499996  0.500004  0.251947  1
  Rh  Rh7  1  0.499985  0.999995  0.252346  1
  Rh  Rh8  1  0.500004  0.499996  0.748052  1
  Rh  Rh9  1  0.500015  0.000005  0.747653  1
  Rh  Rh10  1  0.000006  0.499994  0.747880  1
  Rh  Rh11  1  0.000011  0.000006  0.748190  1
  Pb  Pb12  1  0.750214  0.250048  0.499954  1
  Pb  Pb13  1  0.249786  0.749952  0.500047  1
  Au  Au14  1  0.749671  0.250005  0.000022  1
  Au  Au15  1  0.250328  0.749995  0.999978  1
