# generated using pymatgen
data_Nd3Cu(Sb2Pd)2
_symmetry_space_group_name_H-M   'P 1'
_cell_length_a   8.57620419
_cell_length_b   8.57579709
_cell_length_c   8.57579692
_cell_angle_alpha   109.14658912
_cell_angle_beta   109.66687130
_cell_angle_gamma   109.66686513
_symmetry_Int_Tables_number   1
_chemical_formula_structural   Nd3Cu(Sb2Pd)2
_chemical_formula_sum   'Nd6 Cu2 Sb8 Pd4'
_cell_volume   485.12700569
_cell_formula_units_Z   2
loop_
 _symmetry_equiv_pos_site_id
 _symmetry_equiv_pos_as_xyz
  1  'x, y, z'
loop_
 _atom_site_type_symbol
 _atom_site_label
 _atom_site_symmetry_multiplicity
 _atom_site_fract_x
 _atom_site_fract_y
 _atom_site_fract_z
 _atom_site_occupancy
  Nd  Nd0  1  0.874484  0.124394  0.752000  1
  Nd  Nd1  1  0.127279  0.750134  0.875572  1
  Nd  Nd2  1  0.748380  0.874694  0.122988  1
  Nd  Nd3  1  0.248380  0.622988  0.374694  1
  Nd  Nd4  1  0.627279  0.375572  0.250134  1
  Nd  Nd5  1  0.374484  0.252000  0.624394  1
  Cu  Cu6  1  0.875140  0.249819  0.124990  1
  Cu  Cu7  1  0.375140  0.624990  0.749819  1
  Sb  Sb8  1  0.499109  0.998715  0.337494  1
  Sb  Sb9  1  0.002108  0.340471  0.497165  1
  Sb  Sb10  1  0.340331  0.503828  0.998613  1
  Sb  Sb11  1  0.999109  0.837494  0.498715  1
  Sb  Sb12  1  0.657821  0.660532  0.662516  1
  Sb  Sb13  1  0.840331  0.498613  0.003828  1
  Sb  Sb14  1  0.157821  0.162516  0.160532  1
  Sb  Sb15  1  0.502108  0.997165  0.840471  1
  Pd  Pd16  1  0.124630  0.875273  0.250209  1
  Pd  Pd17  1  0.250718  0.125577  0.875015  1
  Pd  Pd18  1  0.750718  0.375015  0.625577  1
  Pd  Pd19  1  0.624630  0.750209  0.375273  1
