# generated using pymatgen
data_Sc4Ti7NbSn10
_symmetry_space_group_name_H-M   'P 1'
_cell_length_a   10.61495704
_cell_length_b   10.61495828
_cell_length_c   10.61979566
_cell_angle_alpha   149.00626157
_cell_angle_beta   131.82396972
_cell_angle_gamma   58.34773403
_symmetry_Int_Tables_number   1
_chemical_formula_structural   Sc4Ti7NbSn10
_chemical_formula_sum   'Sc4 Ti7 Nb1 Sn10'
_cell_volume   455.74295840
_cell_formula_units_Z   1
loop_
 _symmetry_equiv_pos_site_id
 _symmetry_equiv_pos_as_xyz
  1  'x, y, z'
loop_
 _atom_site_type_symbol
 _atom_site_label
 _atom_site_symmetry_multiplicity
 _atom_site_fract_x
 _atom_site_fract_y
 _atom_site_fract_z
 _atom_site_occupancy
  Sc  Sc0  1  0.254811  0.144351  0.111716  1
  Sc  Sc1  1  0.744773  0.855629  0.887804  1
  Sc  Sc2  1  0.032635  0.643096  0.388284  1
  Sc  Sc3  1  0.967825  0.356968  0.612196  1
  Ti  Ti4  1  0.689462  0.439462  0.750000  1
  Ti  Ti5  1  0.689881  0.939881  0.250000  1
  Ti  Ti6  1  0.310335  0.060335  0.750000  1
  Ti  Ti7  1  0.675423  0.435943  0.240485  1
  Ti  Ti8  1  0.324559  0.564446  0.760088  1
  Ti  Ti9  1  0.195458  0.934937  0.259515  1
  Ti  Ti10  1  0.804358  0.064472  0.739912  1
  Nb  Nb11  1  0.309830  0.559830  0.250000  1
  Sn  Sn12  1  0.589180  0.288645  0.299477  1
  Sn  Sn13  1  0.411692  0.711015  0.702039  1
  Sn  Sn14  1  0.989168  0.789704  0.200523  1
  Sn  Sn15  1  0.008976  0.209653  0.797961  1
  Sn  Sn16  1  0.000073  0.250073  0.250000  1
  Sn  Sn17  1  0.999938  0.749938  0.750000  1
  Sn  Sn18  1  0.467982  0.067744  0.399987  1
  Sn  Sn19  1  0.533400  0.935072  0.602590  1
  Sn  Sn20  1  0.667757  0.567995  0.100013  1
  Sn  Sn21  1  0.332483  0.430811  0.897410  1
