# generated using pymatgen
data_K2RbNb2CuSe12
_symmetry_space_group_name_H-M   'P 1'
_cell_length_a   14.02214100
_cell_length_b   9.75381198
_cell_length_c   17.83990206
_cell_angle_alpha   61.37367329
_cell_angle_beta   90.00000000
_cell_angle_gamma   90.00000000
_symmetry_Int_Tables_number   1
_chemical_formula_structural   K2RbNb2CuSe12
_chemical_formula_sum   'K8 Rb4 Nb8 Cu4 Se48'
_cell_volume   2141.69888478
_cell_formula_units_Z   4
loop_
 _symmetry_equiv_pos_site_id
 _symmetry_equiv_pos_as_xyz
  1  'x, y, z'
loop_
 _atom_site_type_symbol
 _atom_site_label
 _atom_site_symmetry_multiplicity
 _atom_site_fract_x
 _atom_site_fract_y
 _atom_site_fract_z
 _atom_site_occupancy
  K  K0  1  0.102893  0.837175  0.157891  1
  K  K1  1  0.602893  0.162825  0.342109  1
  K  K2  1  0.897107  0.162825  0.842109  1
  K  K3  1  0.397107  0.837175  0.657891  1
  K  K4  1  0.916190  0.736934  0.505458  1
  K  K5  1  0.083810  0.263066  0.494542  1
  K  K6  1  0.416190  0.263066  0.994542  1
  K  K7  1  0.583810  0.736934  0.005458  1
  Rb  Rb8  1  0.410787  0.643006  0.273621  1
  Rb  Rb9  1  0.910787  0.356994  0.226379  1
  Rb  Rb10  1  0.589213  0.356994  0.726379  1
  Rb  Rb11  1  0.089213  0.643006  0.773621  1
  Nb  Nb12  1  0.275054  0.909644  0.921945  1
  Nb  Nb13  1  0.274461  0.290518  0.222921  1
  Nb  Nb14  1  0.774461  0.709482  0.277079  1
  Nb  Nb15  1  0.725539  0.709482  0.777079  1
  Nb  Nb16  1  0.225539  0.290518  0.722921  1
  Nb  Nb17  1  0.224946  0.909644  0.421945  1
  Nb  Nb18  1  0.724946  0.090356  0.078055  1
  Nb  Nb19  1  0.775054  0.090356  0.578055  1
  Cu  Cu20  1  0.195482  0.610402  0.576693  1
  Cu  Cu21  1  0.695482  0.389598  0.923307  1
  Cu  Cu22  1  0.804518  0.389598  0.423307  1
  Cu  Cu23  1  0.304518  0.610402  0.076693  1
  Se  Se24  1  0.819096  0.991228  0.245727  1
  Se  Se25  1  0.409409  0.902559  0.434040  1
  Se  Se26  1  0.909409  0.097441  0.065960  1
  Se  Se27  1  0.590591  0.097441  0.565960  1
  Se  Se28  1  0.090591  0.902559  0.934040  1
  Se  Se29  1  0.235790  0.628628  0.436084  1
  Se  Se30  1  0.735790  0.371372  0.063916  1
  Se  Se31  1  0.764210  0.371372  0.563916  1
  Se  Se32  1  0.298488  0.434774  0.799914  1
  Se  Se33  1  0.798488  0.565226  0.700086  1
  Se  Se34  1  0.701512  0.565226  0.200086  1
  Se  Se35  1  0.201512  0.434774  0.299914  1
  Se  Se36  1  0.074993  0.425478  0.659507  1
  Se  Se37  1  0.574993  0.574522  0.840493  1
  Se  Se38  1  0.925007  0.574522  0.340493  1
  Se  Se39  1  0.425007  0.425478  0.159507  1
  Se  Se40  1  0.278276  0.166656  0.630551  1
  Se  Se41  1  0.778276  0.833344  0.869449  1
  Se  Se42  1  0.721724  0.833344  0.369449  1
  Se  Se43  1  0.221724  0.166656  0.130551  1
  Se  Se44  1  0.387682  0.502821  0.496207  1
  Se  Se45  1  0.887682  0.497179  0.003793  1
  Se  Se46  1  0.612318  0.497179  0.503793  1
  Se  Se47  1  0.112318  0.502821  0.996207  1
  Se  Se48  1  0.330147  0.864665  0.062158  1
  Se  Se49  1  0.830147  0.135335  0.437842  1
  Se  Se50  1  0.669853  0.135335  0.937842  1
  Se  Se51  1  0.169853  0.864665  0.562158  1
  Se  Se52  1  0.074413  0.881789  0.343301  1
  Se  Se53  1  0.889721  0.861808  0.671688  1
  Se  Se54  1  0.610279  0.861808  0.171688  1
  Se  Se55  1  0.110279  0.138192  0.328312  1
  Se  Se56  1  0.164979  0.157446  0.889737  1
  Se  Se57  1  0.664979  0.842554  0.610263  1
  Se  Se58  1  0.835021  0.842554  0.110263  1
  Se  Se59  1  0.335021  0.157446  0.389737  1
  Se  Se60  1  0.180904  0.008772  0.754273  1
  Se  Se61  1  0.680904  0.991228  0.745727  1
  Se  Se62  1  0.264210  0.628628  0.936084  1
  Se  Se63  1  0.319096  0.008772  0.254273  1
  Se  Se64  1  0.358816  0.497525  0.637788  1
  Se  Se65  1  0.858816  0.502475  0.862212  1
  Se  Se66  1  0.641184  0.502475  0.362212  1
  Se  Se67  1  0.141184  0.497525  0.137788  1
  Se  Se68  1  0.425587  0.881789  0.843301  1
  Se  Se69  1  0.925587  0.118211  0.656699  1
  Se  Se70  1  0.574413  0.118211  0.156699  1
  Se  Se71  1  0.389721  0.138192  0.828312  1
