# generated using pymatgen
data_Y7ErCu3Si12Pd
_symmetry_space_group_name_H-M   'P 1'
_cell_length_a   8.04564400
_cell_length_b   8.03536635
_cell_length_c   8.13109320
_cell_angle_alpha   90.16441642
_cell_angle_beta   90.00000000
_cell_angle_gamma   120.04231150
_symmetry_Int_Tables_number   1
_chemical_formula_structural   Y7ErCu3Si12Pd
_chemical_formula_sum   'Y7 Er1 Cu3 Si12 Pd1'
_cell_volume   455.04920010
_cell_formula_units_Z   1
loop_
 _symmetry_equiv_pos_site_id
 _symmetry_equiv_pos_as_xyz
  1  'x, y, z'
loop_
 _atom_site_type_symbol
 _atom_site_label
 _atom_site_symmetry_multiplicity
 _atom_site_fract_x
 _atom_site_fract_y
 _atom_site_fract_z
 _atom_site_occupancy
  Y  Y0  1  0.500539  0.001077  0.750704  1
  Y  Y1  1  0.998267  0.499136  0.249155  1
  Y  Y2  1  0.998912  0.499453  0.750787  1
  Y  Y3  1  0.500869  0.499136  0.249155  1
  Y  Y4  1  0.500541  0.499453  0.750787  1
  Y  Y5  1  0.000012  0.000024  0.249073  1
  Y  Y6  1  0.000005  0.000010  0.750870  1
  Er  Er7  1  0.500666  0.001332  0.249244  1
  Cu  Cu8  1  0.333833  0.667667  0.002673  1
  Cu  Cu9  1  0.666019  0.332038  0.000845  1
  Cu  Cu10  1  0.666318  0.332634  0.498822  1
  Si  Si11  1  0.169685  0.339370  0.999899  1
  Si  Si12  1  0.830754  0.661509  0.999988  1
  Si  Si13  1  0.660991  0.830525  0.000711  1
  Si  Si14  1  0.831132  0.662264  0.499992  1
  Si  Si15  1  0.337906  0.168850  0.000813  1
  Si  Si16  1  0.166266  0.332531  0.500065  1
  Si  Si17  1  0.169534  0.830525  0.000711  1
  Si  Si18  1  0.337671  0.168856  0.499231  1
  Si  Si19  1  0.830943  0.168850  0.000813  1
  Si  Si20  1  0.667959  0.834043  0.499277  1
  Si  Si21  1  0.831186  0.168856  0.499231  1
  Si  Si22  1  0.166085  0.834043  0.499277  1
  Pd  Pd23  1  0.333907  0.667816  0.497879  1
