# generated using pymatgen
data_K3Ac2SbTe6
_symmetry_space_group_name_H-M   'P 1'
_cell_length_a   8.10220221
_cell_length_b   8.10220415
_cell_length_c   8.96963800
_cell_angle_alpha   81.33934495
_cell_angle_beta   81.33934285
_cell_angle_gamma   120.05097107
_symmetry_Int_Tables_number   1
_chemical_formula_structural   K3Ac2SbTe6
_chemical_formula_sum   'K3 Ac2 Sb1 Te6'
_cell_volume   485.96920462
_cell_formula_units_Z   1
loop_
 _symmetry_equiv_pos_site_id
 _symmetry_equiv_pos_as_xyz
  1  'x, y, z'
loop_
 _atom_site_type_symbol
 _atom_site_label
 _atom_site_symmetry_multiplicity
 _atom_site_fract_x
 _atom_site_fract_y
 _atom_site_fract_z
 _atom_site_occupancy
  K  K0  1  0.667095  0.332905  0.500000  1
  K  K1  1  0.332905  0.667095  0.500000  1
  K  K2  1  0.000000  0.000000  0.500000  1
  Ac  Ac3  1  0.833538  0.166462  0.000000  1
  Ac  Ac4  1  0.166462  0.833538  0.000000  1
  Sb  Sb5  1  0.500000  0.500000  0.000000  1
  Te  Te6  1  0.744103  0.744103  0.215678  1
  Te  Te7  1  0.255897  0.255897  0.784322  1
  Te  Te8  1  0.428035  0.111903  0.216089  1
  Te  Te9  1  0.571965  0.888097  0.783911  1
  Te  Te10  1  0.888097  0.571965  0.783911  1
  Te  Te11  1  0.111903  0.428035  0.216089  1
