# generated using pymatgen
data_Zr6Fe5Co13P12
_symmetry_space_group_name_H-M   'P 1'
_cell_length_a   3.63309500
_cell_length_b   10.33566736
_cell_length_c   11.87766441
_cell_angle_alpha   89.96994032
_cell_angle_beta   90.00000000
_cell_angle_gamma   90.00000000
_symmetry_Int_Tables_number   1
_chemical_formula_structural   Zr6Fe5Co13P12
_chemical_formula_sum   'Zr6 Fe5 Co13 P12'
_cell_volume   446.01171741
_cell_formula_units_Z   1
loop_
 _symmetry_equiv_pos_site_id
 _symmetry_equiv_pos_as_xyz
  1  'x, y, z'
loop_
 _atom_site_type_symbol
 _atom_site_label
 _atom_site_symmetry_multiplicity
 _atom_site_fract_x
 _atom_site_fract_y
 _atom_site_fract_z
 _atom_site_occupancy
  Zr  Zr0  1  0.000000  0.499396  0.525275  1
  Zr  Zr1  1  0.500000  0.000964  0.474577  1
  Zr  Zr2  1  0.500000  0.822569  0.206391  1
  Zr  Zr3  1  0.500000  0.176702  0.207396  1
  Zr  Zr4  1  0.000000  0.677547  0.793656  1
  Zr  Zr5  1  0.000000  0.323061  0.793298  1
  Fe  Fe6  1  0.000000  0.499801  0.989470  1
  Fe  Fe7  1  0.500000  0.000309  0.010612  1
  Fe  Fe8  1  0.500000  0.299051  0.431124  1
  Fe  Fe9  1  0.500000  0.498807  0.159531  1
  Fe  Fe10  1  0.000000  0.000599  0.840943  1
  Co  Co11  1  0.500000  0.700160  0.431664  1
  Co  Co12  1  0.000000  0.200292  0.568937  1
  Co  Co13  1  0.000000  0.799173  0.567620  1
  Co  Co14  1  0.500000  0.875720  0.707753  1
  Co  Co15  1  0.500000  0.123663  0.707797  1
  Co  Co16  1  0.000000  0.624054  0.291764  1
  Co  Co17  1  0.000000  0.377844  0.291045  1
  Co  Co18  1  0.500000  0.331897  0.994389  1
  Co  Co19  1  0.500000  0.668191  0.994598  1
  Co  Co20  1  0.000000  0.168839  0.005763  1
  Co  Co21  1  0.000000  0.831330  0.005905  1
  Co  Co22  1  0.500000  0.499571  0.703619  1
  Co  Co23  1  0.000000  0.000681  0.296789  1
  P  P24  1  0.500000  0.315557  0.616352  1
  P  P25  1  0.500000  0.684061  0.617381  1
  P  P26  1  0.000000  0.185903  0.383125  1
  P  P27  1  0.000000  0.815850  0.382408  1
  P  P28  1  0.500000  0.500260  0.882431  1
  P  P29  1  0.000000  0.999974  0.117472  1
  P  P30  1  0.500000  0.844776  0.889966  1
  P  P31  1  0.500000  0.155656  0.889772  1
  P  P32  1  0.000000  0.655034  0.110224  1
  P  P33  1  0.000000  0.344458  0.110153  1
  P  P34  1  0.500000  0.498509  0.349430  1
  P  P35  1  0.000000  0.999742  0.651372  1
