# generated using pymatgen
data_TbYb3Ru8
_symmetry_space_group_name_H-M   'P 1'
_cell_length_a   5.23860000
_cell_length_b   5.23859941
_cell_length_c   8.87755700
_cell_angle_alpha   90.00000000
_cell_angle_beta   90.00000000
_cell_angle_gamma   120.00000372
_symmetry_Int_Tables_number   1
_chemical_formula_structural   TbYb3Ru8
_chemical_formula_sum   'Tb1 Yb3 Ru8'
_cell_volume   210.98642491
_cell_formula_units_Z   1
loop_
 _symmetry_equiv_pos_site_id
 _symmetry_equiv_pos_as_xyz
  1  'x, y, z'
loop_
 _atom_site_type_symbol
 _atom_site_label
 _atom_site_symmetry_multiplicity
 _atom_site_fract_x
 _atom_site_fract_y
 _atom_site_fract_z
 _atom_site_occupancy
  Tb  Tb0  1  0.333333  0.666667  0.067405  1
  Yb  Yb1  1  0.333333  0.666667  0.438736  1
  Yb  Yb2  1  0.666667  0.333333  0.565799  1
  Yb  Yb3  1  0.666667  0.333333  0.929673  1
  Ru  Ru4  1  0.000000  0.000000  0.498454  1
  Ru  Ru5  1  0.000000  0.000000  0.999752  1
  Ru  Ru6  1  0.828103  0.171897  0.250379  1
  Ru  Ru7  1  0.828103  0.656207  0.250379  1
  Ru  Ru8  1  0.343793  0.171897  0.250379  1
  Ru  Ru9  1  0.171235  0.828765  0.749681  1
  Ru  Ru10  1  0.171235  0.342470  0.749681  1
  Ru  Ru11  1  0.657530  0.828765  0.749681  1
