# generated using pymatgen
data_TbSm2Fe2Co7P6
_symmetry_space_group_name_H-M   'P 1'
_cell_length_a   3.74216200
_cell_length_b   10.64183600
_cell_length_c   12.23368700
_cell_angle_alpha   90.00000000
_cell_angle_beta   90.00000000
_cell_angle_gamma   90.00000000
_symmetry_Int_Tables_number   1
_chemical_formula_structural   TbSm2Fe2Co7P6
_chemical_formula_sum   'Tb2 Sm4 Fe4 Co14 P12'
_cell_volume   487.18791971
_cell_formula_units_Z   2
loop_
 _symmetry_equiv_pos_site_id
 _symmetry_equiv_pos_as_xyz
  1  'x, y, z'
loop_
 _atom_site_type_symbol
 _atom_site_label
 _atom_site_symmetry_multiplicity
 _atom_site_fract_x
 _atom_site_fract_y
 _atom_site_fract_z
 _atom_site_occupancy
  Tb  Tb0  1  0.000000  0.680560  0.795894  1
  Tb  Tb1  1  0.000000  0.319440  0.795894  1
  Sm  Sm2  1  0.000000  0.500000  0.522304  1
  Sm  Sm3  1  0.500000  0.000000  0.478481  1
  Sm  Sm4  1  0.500000  0.818946  0.204236  1
  Sm  Sm5  1  0.500000  0.181054  0.204236  1
  Fe  Fe6  1  0.500000  0.500000  0.153887  1
  Fe  Fe7  1  0.000000  0.000000  0.845249  1
  Fe  Fe8  1  0.000000  0.500000  0.987759  1
  Fe  Fe9  1  0.500000  0.000000  0.009418  1
  Co  Co10  1  0.500000  0.500000  0.702909  1
  Co  Co11  1  0.000000  0.000000  0.298046  1
  Co  Co12  1  0.500000  0.332366  0.993902  1
  Co  Co13  1  0.500000  0.667634  0.993902  1
  Co  Co14  1  0.000000  0.168670  0.003607  1
  Co  Co15  1  0.000000  0.831330  0.003607  1
  Co  Co16  1  0.500000  0.296696  0.431134  1
  Co  Co17  1  0.500000  0.703304  0.431134  1
  Co  Co18  1  0.000000  0.203879  0.571329  1
  Co  Co19  1  0.000000  0.796121  0.571329  1
  Co  Co20  1  0.500000  0.879429  0.710878  1
  Co  Co21  1  0.500000  0.120571  0.710878  1
  Co  Co22  1  0.000000  0.619742  0.290026  1
  Co  Co23  1  0.000000  0.380258  0.290026  1
  P  P24  1  0.500000  0.500000  0.884992  1
  P  P25  1  0.000000  0.000000  0.112266  1
  P  P26  1  0.500000  0.500000  0.339011  1
  P  P27  1  0.000000  0.000000  0.661161  1
  P  P28  1  0.500000  0.308254  0.617487  1
  P  P29  1  0.500000  0.691746  0.617487  1
  P  P30  1  0.000000  0.192591  0.385229  1
  P  P31  1  0.000000  0.807409  0.385229  1
  P  P32  1  0.500000  0.846855  0.893656  1
  P  P33  1  0.500000  0.153145  0.893656  1
  P  P34  1  0.000000  0.651343  0.104880  1
  P  P35  1  0.000000  0.348657  0.104880  1
