# generated using pymatgen
data_Lu3PS2
_symmetry_space_group_name_H-M   'P 1'
_cell_length_a   6.65089738
_cell_length_b   6.65089671
_cell_length_c   6.65089661
_cell_angle_alpha   146.25011931
_cell_angle_beta   131.88443134
_cell_angle_gamma   60.05945890
_symmetry_Int_Tables_number   1
_chemical_formula_structural   Lu3PS2
_chemical_formula_sum   'Lu3 P1 S2'
_cell_volume   120.56449609
_cell_formula_units_Z   1
loop_
 _symmetry_equiv_pos_site_id
 _symmetry_equiv_pos_as_xyz
  1  'x, y, z'
loop_
 _atom_site_type_symbol
 _atom_site_label
 _atom_site_symmetry_multiplicity
 _atom_site_fract_x
 _atom_site_fract_y
 _atom_site_fract_z
 _atom_site_occupancy
  Lu  Lu0  1  0.000000  0.000000  0.000000  1
  Lu  Lu1  1  0.662142  0.662142  0.000000  1
  Lu  Lu2  1  0.337858  0.337858  0.000000  1
  P  P3  1  0.500000  0.000000  0.500000  1
  S  S4  1  0.167038  0.667038  0.500000  1
  S  S5  1  0.832962  0.332962  0.500000  1
