# generated using pymatgen
data_DyHo7(OsI4)2
_symmetry_space_group_name_H-M   'P 1'
_cell_length_a   11.06774721
_cell_length_b   11.08082257
_cell_length_c   6.17949725
_cell_angle_alpha   89.28626744
_cell_angle_beta   89.30700928
_cell_angle_gamma   88.53547976
_symmetry_Int_Tables_number   1
_chemical_formula_structural   DyHo7(OsI4)2
_chemical_formula_sum   'Dy1 Ho7 Os2 I8'
_cell_volume   757.49304433
_cell_formula_units_Z   1
loop_
 _symmetry_equiv_pos_site_id
 _symmetry_equiv_pos_as_xyz
  1  'x, y, z'
loop_
 _atom_site_type_symbol
 _atom_site_label
 _atom_site_symmetry_multiplicity
 _atom_site_fract_x
 _atom_site_fract_y
 _atom_site_fract_z
 _atom_site_occupancy
  Dy  Dy0  1  0.203677  0.915215  0.996804  1
  Ho  Ho1  1  0.797554  0.084307  0.003307  1
  Ho  Ho2  1  0.084069  0.797772  0.503491  1
  Ho  Ho3  1  0.915576  0.202198  0.496611  1
  Ho  Ho4  1  0.799579  0.921019  0.507286  1
  Ho  Ho5  1  0.200154  0.079272  0.492794  1
  Ho  Ho6  1  0.079277  0.200181  0.992705  1
  Ho  Ho7  1  0.921049  0.799730  0.007305  1
  Os  Os8  1  0.000173  0.999941  0.250006  1
  Os  Os9  1  0.000186  0.999930  0.750067  1
  I  I10  1  0.363452  0.841592  0.503248  1
  I  I11  1  0.636381  0.158413  0.496339  1
  I  I12  1  0.157792  0.635777  0.996358  1
  I  I13  1  0.841465  0.363458  0.003631  1
  I  I14  1  0.359261  0.150862  0.002787  1
  I  I15  1  0.640643  0.850227  0.997287  1
  I  I16  1  0.850018  0.641072  0.497306  1
  I  I17  1  0.149694  0.359035  0.502667  1
