# generated using pymatgen
data_CaTaGaO5
_symmetry_space_group_name_H-M   'P 1'
_cell_length_a   5.73003801
_cell_length_b   5.73003813
_cell_length_c   7.51942085
_cell_angle_alpha   75.35062971
_cell_angle_beta   75.35063238
_cell_angle_gamma   106.11815469
_symmetry_Int_Tables_number   1
_chemical_formula_structural   CaTaGaO5
_chemical_formula_sum   'Ca2 Ta2 Ga2 O10'
_cell_volume   215.16011935
_cell_formula_units_Z   2
loop_
 _symmetry_equiv_pos_site_id
 _symmetry_equiv_pos_as_xyz
  1  'x, y, z'
loop_
 _atom_site_type_symbol
 _atom_site_label
 _atom_site_symmetry_multiplicity
 _atom_site_fract_x
 _atom_site_fract_y
 _atom_site_fract_z
 _atom_site_occupancy
  Ca  Ca0  1  0.329346  0.670654  0.250000  1
  Ca  Ca1  1  0.670654  0.329346  0.750000  1
  Ta  Ta2  1  0.000000  0.000000  0.500000  1
  Ta  Ta3  1  0.000000  0.000000  0.000000  1
  Ga  Ga4  1  0.684462  0.315538  0.250000  1
  Ga  Ga5  1  0.315538  0.684462  0.750000  1
  O  O6  1  0.070729  0.929271  0.250000  1
  O  O7  1  0.929271  0.070729  0.750000  1
  O  O8  1  0.306976  0.902061  0.894495  1
  O  O9  1  0.097939  0.693024  0.605505  1
  O  O10  1  0.693024  0.097939  0.105505  1
  O  O11  1  0.902061  0.306976  0.394495  1
  O  O12  1  0.747726  0.642894  0.085261  1
  O  O13  1  0.357106  0.252274  0.414739  1
  O  O14  1  0.252274  0.357106  0.914739  1
  O  O15  1  0.642894  0.747726  0.585261  1
