# generated using pymatgen
data_Pu2AgF12
_symmetry_space_group_name_H-M   'P 1'
_cell_length_a   5.68446797
_cell_length_b   6.07549985
_cell_length_c   9.60193146
_cell_angle_alpha   105.13496916
_cell_angle_beta   91.19454928
_cell_angle_gamma   115.33737050
_symmetry_Int_Tables_number   1
_chemical_formula_structural   Pu2AgF12
_chemical_formula_sum   'Pu2 Ag1 F12'
_cell_volume   285.95616540
_cell_formula_units_Z   1
loop_
 _symmetry_equiv_pos_site_id
 _symmetry_equiv_pos_as_xyz
  1  'x, y, z'
loop_
 _atom_site_type_symbol
 _atom_site_label
 _atom_site_symmetry_multiplicity
 _atom_site_fract_x
 _atom_site_fract_y
 _atom_site_fract_z
 _atom_site_occupancy
  Pu  Pu0  1  0.262327  0.009103  0.756713  1
  Pu  Pu1  1  0.737673  0.990897  0.243287  1
  Ag  Ag2  1  0.500000  0.500000  0.500000  1
  F  F3  1  0.773957  0.769570  0.367661  1
  F  F4  1  0.226043  0.230430  0.632339  1
  F  F5  1  0.346154  0.773055  0.209493  1
  F  F6  1  0.306693  0.785224  0.866690  1
  F  F7  1  0.693307  0.214776  0.133310  1
  F  F8  1  0.861912  0.778049  0.706400  1
  F  F9  1  0.138088  0.221951  0.293600  1
  F  F10  1  0.307124  0.772482  0.566440  1
  F  F11  1  0.692876  0.227518  0.433560  1
  F  F12  1  0.213432  0.236647  0.936619  1
  F  F13  1  0.786568  0.763353  0.063381  1
  F  F14  1  0.653846  0.226945  0.790507  1
