# generated using pymatgen
data_Tm4Co16Si7Mo4P5
_symmetry_space_group_name_H-M   'P 1'
_cell_length_a   3.72281700
_cell_length_b   10.48936551
_cell_length_c   11.99994860
_cell_angle_alpha   90.03590644
_cell_angle_beta   90.00000000
_cell_angle_gamma   90.00000000
_symmetry_Int_Tables_number   1
_chemical_formula_structural   Tm4Co16Si7Mo4P5
_chemical_formula_sum   'Tm4 Co16 Si7 Mo4 P5'
_cell_volume   468.59775949
_cell_formula_units_Z   1
loop_
 _symmetry_equiv_pos_site_id
 _symmetry_equiv_pos_as_xyz
  1  'x, y, z'
loop_
 _atom_site_type_symbol
 _atom_site_label
 _atom_site_symmetry_multiplicity
 _atom_site_fract_x
 _atom_site_fract_y
 _atom_site_fract_z
 _atom_site_occupancy
  Tm  Tm0  1  0.250000  0.580097  0.703397  1
  Tm  Tm1  1  0.250000  0.923515  0.203382  1
  Tm  Tm2  1  0.750000  0.423859  0.297320  1
  Tm  Tm3  1  0.750000  0.076875  0.796738  1
  Co  Co4  1  0.250000  0.411908  0.488506  1
  Co  Co5  1  0.250000  0.089214  0.987524  1
  Co  Co6  1  0.750000  0.593380  0.514901  1
  Co  Co7  1  0.750000  0.909787  0.009744  1
  Co  Co8  1  0.250000  0.212994  0.172292  1
  Co  Co9  1  0.250000  0.287164  0.672079  1
  Co  Co10  1  0.750000  0.784007  0.822806  1
  Co  Co11  1  0.750000  0.713497  0.328796  1
  Co  Co12  1  0.250000  0.882250  0.702406  1
  Co  Co13  1  0.250000  0.616749  0.203219  1
  Co  Co14  1  0.750000  0.115677  0.296899  1
  Co  Co15  1  0.750000  0.383839  0.796406  1
  Co  Co16  1  0.250000  0.465468  0.932494  1
  Co  Co17  1  0.250000  0.033122  0.433434  1
  Co  Co18  1  0.750000  0.534021  0.068021  1
  Co  Co19  1  0.750000  0.962635  0.569301  1
  Si  Si20  1  0.250000  0.419715  0.116684  1
  Si  Si21  1  0.250000  0.080641  0.616555  1
  Si  Si22  1  0.750000  0.578959  0.884092  1
  Si  Si23  1  0.750000  0.919697  0.383942  1
  Si  Si24  1  0.250000  0.266943  0.860717  1
  Si  Si25  1  0.250000  0.232685  0.361650  1
  Si  Si26  1  0.750000  0.733118  0.139004  1
  Mo  Mo27  1  0.250000  0.704449  0.990621  1
  Mo  Mo28  1  0.250000  0.794340  0.492559  1
  Mo  Mo29  1  0.750000  0.295471  0.008427  1
  Mo  Mo30  1  0.750000  0.205043  0.509400  1
  P  P31  1  0.750000  0.767751  0.637900  1
  P  P32  1  0.250000  0.597283  0.391751  1
  P  P33  1  0.250000  0.903350  0.891083  1
  P  P34  1  0.750000  0.404262  0.608251  1
  P  P35  1  0.750000  0.096235  0.107697  1
