# generated using pymatgen
data_K8V7FeP8(O4F)8
_symmetry_space_group_name_H-M   'P 1'
_cell_length_a   6.49820000
_cell_length_b   10.83800200
_cell_length_c   13.04120400
_cell_angle_alpha   90.00000000
_cell_angle_beta   90.00000000
_cell_angle_gamma   90.00000000
_symmetry_Int_Tables_number   1
_chemical_formula_structural   K8V7FeP8(O4F)8
_chemical_formula_sum   'K8 V7 Fe1 P8 O32 F8'
_cell_volume   918.45945465
_cell_formula_units_Z   1
loop_
 _symmetry_equiv_pos_site_id
 _symmetry_equiv_pos_as_xyz
  1  'x, y, z'
loop_
 _atom_site_type_symbol
 _atom_site_label
 _atom_site_symmetry_multiplicity
 _atom_site_fract_x
 _atom_site_fract_y
 _atom_site_fract_z
 _atom_site_occupancy
  K  K0  1  0.224024  0.800709  0.621950  1
  K  K1  1  0.723910  0.300812  0.878350  1
  K  K2  1  0.276454  0.801069  0.122561  1
  K  K3  1  0.775495  0.300061  0.377435  1
  K  K4  1  0.700581  0.059603  0.104416  1
  K  K5  1  0.298533  0.559055  0.896408  1
  K  K6  1  0.798488  0.059706  0.603993  1
  K  K7  1  0.201421  0.559416  0.395880  1
  V  V8  1  0.505231  0.502740  0.614801  1
  V  V9  1  0.005532  0.002934  0.885212  1
  V  V10  1  0.994124  0.503439  0.114770  1
  V  V11  1  0.251082  0.251767  0.246732  1
  V  V12  1  0.750031  0.752113  0.753115  1
  V  V13  1  0.250106  0.252092  0.746974  1
  V  V14  1  0.749245  0.752640  0.253164  1
  Fe  Fe15  1  0.492457  0.002511  0.387431  1
  P  P16  1  0.333590  0.254296  0.499035  1
  P  P17  1  0.666420  0.754328  0.500820  1
  P  P18  1  0.165802  0.254325  0.999085  1
  P  P19  1  0.833958  0.754436  0.000924  1
  P  P20  1  0.498237  0.504188  0.180594  1
  P  P21  1  0.501734  0.004182  0.819344  1
  P  P22  1  0.001638  0.504266  0.680605  1
  P  P23  1  0.997961  0.004550  0.319057  1
  O  O24  1  0.483252  0.143520  0.483337  1
  O  O25  1  0.514111  0.644779  0.516144  1
  O  O26  1  0.014981  0.143816  0.983959  1
  O  O27  1  0.984486  0.643632  0.016022  1
  O  O28  1  0.474398  0.369956  0.510984  1
  O  O29  1  0.528704  0.871371  0.488530  1
  O  O30  1  0.025926  0.370111  0.010806  1
  O  O31  1  0.974437  0.870050  0.989239  1
  O  O32  1  0.196831  0.274234  0.402834  1
  O  O33  1  0.802730  0.774039  0.597283  1
  O  O34  1  0.302761  0.273654  0.902689  1
  O  O35  1  0.696927  0.773879  0.097102  1
  O  O36  1  0.197517  0.231683  0.594465  1
  O  O37  1  0.802920  0.731423  0.405774  1
  O  O38  1  0.302605  0.231495  0.094245  1
  O  O39  1  0.697898  0.731584  0.905556  1
  O  O40  1  0.309324  0.530927  0.111296  1
  O  O41  1  0.690931  0.030671  0.888582  1
  O  O42  1  0.190894  0.530863  0.611369  1
  O  O43  1  0.808231  0.030787  0.388062  1
  O  O44  1  0.686772  0.477405  0.112273  1
  O  O45  1  0.313098  0.978205  0.887692  1
  O  O46  1  0.812980  0.478523  0.612181  1
  O  O47  1  0.188835  0.978869  0.386554  1
  O  O48  1  0.534289  0.618937  0.251538  1
  O  O49  1  0.466079  0.118929  0.748371  1
  O  O50  1  0.966057  0.619148  0.751428  1
  O  O51  1  0.033761  0.119345  0.248337  1
  O  O52  1  0.454384  0.392571  0.253322  1
  O  O53  1  0.545317  0.892406  0.746745  1
  O  O54  1  0.045300  0.392529  0.753153  1
  O  O55  1  0.955115  0.892515  0.246836  1
  F  F56  1  0.523629  0.881712  0.270203  1
  F  F57  1  0.475952  0.380858  0.730364  1
  F  F58  1  0.975758  0.880912  0.769668  1
  F  F59  1  0.025972  0.381683  0.229953  1
  F  F60  1  0.480994  0.128934  0.270615  1
  F  F61  1  0.520311  0.629509  0.729680  1
  F  F62  1  0.020262  0.129543  0.770149  1
  F  F63  1  0.979216  0.630439  0.230006  1
