# generated using pymatgen
data_Yb2MnCrC3
_symmetry_space_group_name_H-M   'P 1'
_cell_length_a   5.36144991
_cell_length_b   5.36144968
_cell_length_c   5.51536122
_cell_angle_alpha   75.47017307
_cell_angle_beta   75.47017147
_cell_angle_gamma   38.58615850
_symmetry_Int_Tables_number   1
_chemical_formula_structural   Yb2MnCrC3
_chemical_formula_sum   'Yb2 Mn1 Cr1 C3'
_cell_volume   95.32263719
_cell_formula_units_Z   1
loop_
 _symmetry_equiv_pos_site_id
 _symmetry_equiv_pos_as_xyz
  1  'x, y, z'
loop_
 _atom_site_type_symbol
 _atom_site_label
 _atom_site_symmetry_multiplicity
 _atom_site_fract_x
 _atom_site_fract_y
 _atom_site_fract_z
 _atom_site_occupancy
  Yb  Yb0  1  0.595652  0.595652  0.184882  1
  Yb  Yb1  1  0.399468  0.399468  0.813044  1
  Mn  Mn2  1  0.841146  0.841146  0.407274  1
  Cr  Cr3  1  0.159119  0.159119  0.591019  1
  C  C4  1  0.999528  0.999528  0.498006  1
  C  C5  1  0.316210  0.316210  0.300750  1
  C  C6  1  0.688877  0.688877  0.705024  1
