# generated using pymatgen
data_Er2ThIn3Ir2Rh
_symmetry_space_group_name_H-M   'P 1'
_cell_length_a   7.58234991
_cell_length_b   7.76557547
_cell_length_c   3.87019400
_cell_angle_alpha   90.00000000
_cell_angle_beta   90.00000000
_cell_angle_gamma   120.80263004
_symmetry_Int_Tables_number   1
_chemical_formula_structural   Er2ThIn3Ir2Rh
_chemical_formula_sum   'Er2 Th1 In3 Ir2 Rh1'
_cell_volume   195.73622398
_cell_formula_units_Z   1
loop_
 _symmetry_equiv_pos_site_id
 _symmetry_equiv_pos_as_xyz
  1  'x, y, z'
loop_
 _atom_site_type_symbol
 _atom_site_label
 _atom_site_symmetry_multiplicity
 _atom_site_fract_x
 _atom_site_fract_y
 _atom_site_fract_z
 _atom_site_occupancy
  Er  Er0  1  0.405663  0.406558  0.500000  1
  Er  Er1  1  0.594337  0.000894  0.500000  1
  Th  Th2  1  0.000000  0.581314  0.500000  1
  In  In3  1  0.268383  0.011550  0.000000  1
  In  In4  1  0.731617  0.743168  0.000000  1
  In  In5  1  0.000000  0.243012  0.000000  1
  Ir  Ir6  1  0.680472  0.349255  0.000000  1
  Ir  Ir7  1  0.319528  0.668784  0.000000  1
  Rh  Rh8  1  0.000000  0.995464  0.500000  1
