# generated using pymatgen
data_La12Tc3Os
_symmetry_space_group_name_H-M   'P 1'
_cell_length_a   7.39051070
_cell_length_b   10.07486300
_cell_length_c   6.67138685
_cell_angle_alpha   90.00000000
_cell_angle_beta   90.16480896
_cell_angle_gamma   90.00000000
_symmetry_Int_Tables_number   1
_chemical_formula_structural   La12Tc3Os
_chemical_formula_sum   'La12 Tc3 Os1'
_cell_volume   496.73862082
_cell_formula_units_Z   1
loop_
 _symmetry_equiv_pos_site_id
 _symmetry_equiv_pos_as_xyz
  1  'x, y, z'
loop_
 _atom_site_type_symbol
 _atom_site_label
 _atom_site_symmetry_multiplicity
 _atom_site_fract_x
 _atom_site_fract_y
 _atom_site_fract_z
 _atom_site_occupancy
  La  La0  1  0.055556  0.750000  0.147654  1
  La  La1  1  0.333386  0.067123  0.171594  1
  La  La2  1  0.333386  0.432878  0.171594  1
  La  La3  1  0.830806  0.067960  0.329640  1
  La  La4  1  0.830806  0.432041  0.329640  1
  La  La5  1  0.560434  0.750000  0.357688  1
  La  La6  1  0.434642  0.250000  0.636319  1
  La  La7  1  0.169592  0.569152  0.671461  1
  La  La8  1  0.169592  0.930849  0.671461  1
  La  La9  1  0.668414  0.567945  0.829128  1
  La  La10  1  0.668414  0.932056  0.829128  1
  La  La11  1  0.937996  0.250000  0.862432  1
  Tc  Tc12  1  0.623407  0.250000  0.040814  1
  Tc  Tc13  1  0.124389  0.250000  0.465199  1
  Tc  Tc14  1  0.876379  0.750000  0.538143  1
  Os  Os15  1  0.382799  0.750000  0.948100  1
