# generated using pymatgen
data_NdCrNi4P3
_symmetry_space_group_name_H-M   'P 1'
_cell_length_a   3.73494600
_cell_length_b   10.56509400
_cell_length_c   12.01768200
_cell_angle_alpha   90.00000000
_cell_angle_beta   90.00000000
_cell_angle_gamma   90.00000000
_symmetry_Int_Tables_number   1
_chemical_formula_structural   NdCrNi4P3
_chemical_formula_sum   'Nd4 Cr4 Ni16 P12'
_cell_volume   474.21839960
_cell_formula_units_Z   4
loop_
 _symmetry_equiv_pos_site_id
 _symmetry_equiv_pos_as_xyz
  1  'x, y, z'
loop_
 _atom_site_type_symbol
 _atom_site_label
 _atom_site_symmetry_multiplicity
 _atom_site_fract_x
 _atom_site_fract_y
 _atom_site_fract_z
 _atom_site_occupancy
  Nd  Nd0  1  0.250000  0.583857  0.704361  1
  Nd  Nd1  1  0.250000  0.916143  0.204361  1
  Nd  Nd2  1  0.750000  0.416143  0.295639  1
  Nd  Nd3  1  0.750000  0.083857  0.795639  1
  Cr  Cr4  1  0.250000  0.706697  0.986853  1
  Cr  Cr5  1  0.250000  0.793303  0.486853  1
  Cr  Cr6  1  0.750000  0.293303  0.013147  1
  Cr  Cr7  1  0.750000  0.206697  0.513147  1
  Ni  Ni8  1  0.250000  0.406355  0.491141  1
  Ni  Ni9  1  0.250000  0.093645  0.991141  1
  Ni  Ni10  1  0.750000  0.593645  0.508859  1
  Ni  Ni11  1  0.750000  0.906355  0.008859  1
  Ni  Ni12  1  0.250000  0.220697  0.177021  1
  Ni  Ni13  1  0.250000  0.279303  0.677021  1
  Ni  Ni14  1  0.750000  0.779303  0.822979  1
  Ni  Ni15  1  0.750000  0.720697  0.322979  1
  Ni  Ni16  1  0.250000  0.881958  0.700263  1
  Ni  Ni17  1  0.250000  0.618042  0.200263  1
  Ni  Ni18  1  0.750000  0.118042  0.299737  1
  Ni  Ni19  1  0.750000  0.381958  0.799737  1
  Ni  Ni20  1  0.250000  0.467536  0.931328  1
  Ni  Ni21  1  0.250000  0.032464  0.431328  1
  Ni  Ni22  1  0.750000  0.532464  0.068672  1
  Ni  Ni23  1  0.750000  0.967536  0.568672  1
  P  P24  1  0.250000  0.417417  0.109953  1
  P  P25  1  0.250000  0.082583  0.609953  1
  P  P26  1  0.750000  0.582583  0.890047  1
  P  P27  1  0.750000  0.917417  0.390047  1
  P  P28  1  0.250000  0.272621  0.871397  1
  P  P29  1  0.250000  0.227379  0.371397  1
  P  P30  1  0.750000  0.727379  0.128603  1
  P  P31  1  0.750000  0.772621  0.628603  1
  P  P32  1  0.250000  0.603568  0.392915  1
  P  P33  1  0.250000  0.896432  0.892915  1
  P  P34  1  0.750000  0.396432  0.607085  1
  P  P35  1  0.750000  0.103568  0.107085  1
