# generated using pymatgen
data_La9PrSi5Hg
_symmetry_space_group_name_H-M   'P 1'
_cell_length_a   7.98774013
_cell_length_b   7.99511364
_cell_length_c   9.13451248
_cell_angle_alpha   115.82317273
_cell_angle_beta   115.81443257
_cell_angle_gamma   90.04424614
_symmetry_Int_Tables_number   1
_chemical_formula_structural   La9PrSi5Hg
_chemical_formula_sum   'La9 Pr1 Si5 Hg1'
_cell_volume   459.46108640
_cell_formula_units_Z   1
loop_
 _symmetry_equiv_pos_site_id
 _symmetry_equiv_pos_as_xyz
  1  'x, y, z'
loop_
 _atom_site_type_symbol
 _atom_site_label
 _atom_site_symmetry_multiplicity
 _atom_site_fract_x
 _atom_site_fract_y
 _atom_site_fract_z
 _atom_site_occupancy
  La  La0  1  0.488497  0.489503  0.976705  1
  La  La1  1  0.011753  0.011423  0.023562  1
  La  La2  1  0.969713  0.824389  0.288737  1
  La  La3  1  0.319176  0.462669  0.287303  1
  La  La4  1  0.825102  0.318072  0.287836  1
  La  La5  1  0.459477  0.966506  0.285039  1
  La  La6  1  0.038608  0.180331  0.712762  1
  La  La7  1  0.674303  0.531074  0.711364  1
  La  La8  1  0.182206  0.675435  0.711814  1
  Pr  Pr9  1  0.534328  0.039876  0.716104  1
  Si  Si10  1  0.250085  0.250948  0.501307  1
  Si  Si11  1  0.612729  0.887918  0.999150  1
  Si  Si12  1  0.388070  0.111929  0.998982  1
  Si  Si13  1  0.886891  0.387053  0.999753  1
  Si  Si14  1  0.110638  0.610659  0.998340  1
  Hg  Hg15  1  0.748423  0.752216  0.501242  1
