# generated using pymatgen
data_Ta8V2Si5As
_symmetry_space_group_name_H-M   'P 1'
_cell_length_a   7.53159570
_cell_length_b   7.53159503
_cell_length_c   7.53159573
_cell_angle_alpha   129.39135302
_cell_angle_beta   129.39135253
_cell_angle_gamma   74.38168170
_symmetry_Int_Tables_number   1
_chemical_formula_structural   Ta8V2Si5As
_chemical_formula_sum   'Ta8 V2 Si5 As1'
_cell_volume   248.71259458
_cell_formula_units_Z   1
loop_
 _symmetry_equiv_pos_site_id
 _symmetry_equiv_pos_as_xyz
  1  'x, y, z'
loop_
 _atom_site_type_symbol
 _atom_site_label
 _atom_site_symmetry_multiplicity
 _atom_site_fract_x
 _atom_site_fract_y
 _atom_site_fract_z
 _atom_site_occupancy
  Ta  Ta0  1  0.018376  0.513264  0.830367  1
  Ta  Ta1  1  0.682897  0.188009  0.169633  1
  Ta  Ta2  1  0.513264  0.682897  0.494888  1
  Ta  Ta3  1  0.188009  0.018376  0.505112  1
  Ta  Ta4  1  0.986736  0.481624  0.169633  1
  Ta  Ta5  1  0.311991  0.817103  0.830367  1
  Ta  Ta6  1  0.481624  0.311991  0.494888  1
  Ta  Ta7  1  0.817103  0.986736  0.505112  1
  V  V8  1  0.001856  0.001856  0.000000  1
  V  V9  1  0.498144  0.498144  0.000000  1
  Si  Si10  1  0.250000  0.250000  0.000000  1
  Si  Si11  1  0.634006  0.134006  0.768011  1
  Si  Si12  1  0.365994  0.865994  0.231989  1
  Si  Si13  1  0.134006  0.365994  0.500000  1
  Si  Si14  1  0.865994  0.634006  0.500000  1
  As  As15  1  0.750000  0.750000  0.000000  1
