# generated using pymatgen
data_Ho2Th2(Ga8Pt3)3
_symmetry_space_group_name_H-M   'P 1'
_cell_length_a   7.62223779
_cell_length_b   7.63552369
_cell_length_c   13.32867925
_cell_angle_alpha   84.43717873
_cell_angle_beta   78.89243339
_cell_angle_gamma   60.01942289
_symmetry_Int_Tables_number   1
_chemical_formula_structural   Ho2Th2(Ga8Pt3)3
_chemical_formula_sum   'Ho2 Th2 Ga24 Pt9'
_cell_volume   659.34269389
_cell_formula_units_Z   1
loop_
 _symmetry_equiv_pos_site_id
 _symmetry_equiv_pos_as_xyz
  1  'x, y, z'
loop_
 _atom_site_type_symbol
 _atom_site_label
 _atom_site_symmetry_multiplicity
 _atom_site_fract_x
 _atom_site_fract_y
 _atom_site_fract_z
 _atom_site_occupancy
  Ho  Ho0  1  0.733058  0.498559  0.808260  1
  Ho  Ho1  1  0.266942  0.501441  0.191740  1
  Th  Th2  1  0.395810  0.167677  0.808388  1
  Th  Th3  1  0.604190  0.832323  0.191612  1
  Ga  Ga4  1  0.688385  0.829634  0.938213  1
  Ga  Ga5  1  0.311615  0.170366  0.061787  1
  Ga  Ga6  1  0.145278  0.834059  0.560115  1
  Ga  Ga7  1  0.854722  0.165941  0.439885  1
  Ga  Ga8  1  0.481112  0.167553  0.556079  1
  Ga  Ga9  1  0.518888  0.832447  0.443921  1
  Ga  Ga10  1  0.215757  0.169836  0.328784  1
  Ga  Ga11  1  0.784243  0.830164  0.671216  1
  Ga  Ga12  1  0.439008  0.507277  0.671998  1
  Ga  Ga13  1  0.560992  0.492723  0.328002  1
  Ga  Ga14  1  0.105081  0.162796  0.670227  1
  Ga  Ga15  1  0.894919  0.837204  0.329773  1
  Ga  Ga16  1  0.357193  0.500578  0.940917  1
  Ga  Ga17  1  0.642807  0.499422  0.059083  1
  Ga  Ga18  1  0.014675  0.169817  0.944854  1
  Ga  Ga19  1  0.985325  0.830183  0.055146  1
  Ga  Ga20  1  0.185068  0.500477  0.442365  1
  Ga  Ga21  1  0.814932  0.499523  0.557635  1
  Ga  Ga22  1  0.734048  0.168509  0.182200  1
  Ga  Ga23  1  0.265952  0.831491  0.817800  1
  Ga  Ga24  1  0.058276  0.634728  0.816169  1
  Ga  Ga25  1  0.941724  0.365272  0.183831  1
  Ga  Ga26  1  0.862147  0.041176  0.816509  1
  Ga  Ga27  1  0.137853  0.958824  0.183491  1
  Pt  Pt28  1  0.121581  0.493200  0.639055  1
  Pt  Pt29  1  0.878419  0.506800  0.360945  1
  Pt  Pt30  1  0.659073  0.167603  0.999340  1
  Pt  Pt31  1  0.340927  0.832397  0.000660  1
  Pt  Pt32  1  0.540647  0.165178  0.360241  1
  Pt  Pt33  1  0.459353  0.834822  0.639759  1
  Pt  Pt34  1  0.779807  0.172447  0.637974  1
  Pt  Pt35  1  0.220193  0.827553  0.362026  1
  Pt  Pt36  1  0.000000  0.500000  0.000000  1
