# generated using pymatgen
data_LaSn6IrRu3
_symmetry_space_group_name_H-M   'P 1'
_cell_length_a   6.98775069
_cell_length_b   6.98593098
_cell_length_c   6.99214875
_cell_angle_alpha   119.98967578
_cell_angle_beta   119.99829277
_cell_angle_gamma   89.96690398
_symmetry_Int_Tables_number   1
_chemical_formula_structural   LaSn6IrRu3
_chemical_formula_sum   'La1 Sn6 Ir1 Ru3'
_cell_volume   241.46904801
_cell_formula_units_Z   1
loop_
 _symmetry_equiv_pos_site_id
 _symmetry_equiv_pos_as_xyz
  1  'x, y, z'
loop_
 _atom_site_type_symbol
 _atom_site_label
 _atom_site_symmetry_multiplicity
 _atom_site_fract_x
 _atom_site_fract_y
 _atom_site_fract_z
 _atom_site_occupancy
  La  La0  1  0.000895  0.997683  0.000000  1
  Sn  Sn1  1  0.877134  0.526877  0.000000  1
  Sn  Sn2  1  0.529539  0.881534  0.000000  1
  Sn  Sn3  1  0.119244  0.115254  0.642625  1
  Sn  Sn4  1  0.000659  0.499382  0.494744  1
  Sn  Sn5  1  0.476619  0.472629  0.357375  1
  Sn  Sn6  1  0.505915  0.004638  0.505256  1
  Ir  Ir7  1  0.245097  0.595328  0.000000  1
  Ru  Ru8  1  0.405970  0.408058  0.658334  1
  Ru  Ru9  1  0.591293  0.248893  0.000000  1
  Ru  Ru10  1  0.747636  0.749724  0.341666  1
