# generated using pymatgen
data_Nd2TmGaSi
_symmetry_space_group_name_H-M   'P 1'
_cell_length_a   7.69304100
_cell_length_b   7.66597000
_cell_length_c   4.43866800
_cell_angle_alpha   90.00000000
_cell_angle_beta   90.00000000
_cell_angle_gamma   90.00000000
_symmetry_Int_Tables_number   1
_chemical_formula_structural   Nd2TmGaSi
_chemical_formula_sum   'Nd4 Tm2 Ga2 Si2'
_cell_volume   261.76876533
_cell_formula_units_Z   2
loop_
 _symmetry_equiv_pos_site_id
 _symmetry_equiv_pos_as_xyz
  1  'x, y, z'
loop_
 _atom_site_type_symbol
 _atom_site_label
 _atom_site_symmetry_multiplicity
 _atom_site_fract_x
 _atom_site_fract_y
 _atom_site_fract_z
 _atom_site_occupancy
  Nd  Nd0  1  0.674195  0.176126  0.500000  1
  Nd  Nd1  1  0.825805  0.676126  0.500000  1
  Nd  Nd2  1  0.178334  0.324478  0.500000  1
  Nd  Nd3  1  0.321666  0.824478  0.500000  1
  Tm  Tm4  1  0.494611  0.495769  0.000000  1
  Tm  Tm5  1  0.005389  0.995769  0.000000  1
  Ga  Ga6  1  0.617101  0.883407  0.000000  1
  Ga  Ga7  1  0.882899  0.383407  0.000000  1
  Si  Si8  1  0.120117  0.620219  0.000000  1
  Si  Si9  1  0.379883  0.120219  0.000000  1
