# generated using pymatgen
data_ScMn5Si7Ni16
_symmetry_space_group_name_H-M   'P 1'
_cell_length_a   7.86374379
_cell_length_b   7.88292474
_cell_length_c   7.87346397
_cell_angle_alpha   59.93477891
_cell_angle_beta   60.14669234
_cell_angle_gamma   59.88877691
_symmetry_Int_Tables_number   1
_chemical_formula_structural   ScMn5Si7Ni16
_chemical_formula_sum   'Sc1 Mn5 Si7 Ni16'
_cell_volume   345.03638747
_cell_formula_units_Z   1
loop_
 _symmetry_equiv_pos_site_id
 _symmetry_equiv_pos_as_xyz
  1  'x, y, z'
loop_
 _atom_site_type_symbol
 _atom_site_label
 _atom_site_symmetry_multiplicity
 _atom_site_fract_x
 _atom_site_fract_y
 _atom_site_fract_z
 _atom_site_occupancy
  Sc  Sc0  1  0.311497  0.688532  0.311402  1
  Mn  Mn1  1  0.303301  0.696712  0.698286  1
  Mn  Mn2  1  0.698261  0.301718  0.303276  1
  Mn  Mn3  1  0.698281  0.696740  0.303270  1
  Mn  Mn4  1  0.303295  0.301706  0.698279  1
  Mn  Mn5  1  0.690084  0.309911  0.690116  1
  Si  Si6  1  0.002810  0.997204  0.002787  1
  Si  Si7  1  0.999958  0.500040  0.999967  1
  Si  Si8  1  0.503580  0.003922  0.996133  1
  Si  Si9  1  0.996130  0.496364  0.503589  1
  Si  Si10  1  0.499909  0.000083  0.499923  1
  Si  Si11  1  0.996130  0.003917  0.503587  1
  Si  Si12  1  0.503574  0.496373  0.996135  1
  Ni  Ni13  1  0.333157  0.331948  0.333167  1
  Ni  Ni14  1  0.998273  0.666792  0.668068  1
  Ni  Ni15  1  0.664757  0.004328  0.664870  1
  Ni  Ni16  1  0.668029  0.666863  0.998275  1
  Ni  Ni17  1  0.333215  0.001733  0.333117  1
  Ni  Ni18  1  0.333977  0.335158  0.995682  1
  Ni  Ni19  1  0.995674  0.335229  0.333938  1
  Ni  Ni20  1  0.664808  0.666027  0.664833  1
  Ni  Ni21  1  0.117593  0.119637  0.117603  1
  Ni  Ni22  1  0.354714  0.882460  0.880362  1
  Ni  Ni23  1  0.882746  0.351377  0.882784  1
  Ni  Ni24  1  0.880356  0.882468  0.354717  1
  Ni  Ni25  1  0.117593  0.645177  0.117584  1
  Ni  Ni26  1  0.116964  0.117242  0.648529  1
  Ni  Ni27  1  0.648563  0.117259  0.116951  1
  Ni  Ni28  1  0.882769  0.883079  0.882768  1
