# generated using pymatgen
data_NdHo2Co8MoP6
_symmetry_space_group_name_H-M   'P 1'
_cell_length_a   3.74451100
_cell_length_b   10.60977100
_cell_length_c   12.32011200
_cell_angle_alpha   90.00000000
_cell_angle_beta   90.00000000
_cell_angle_gamma   90.00000000
_symmetry_Int_Tables_number   1
_chemical_formula_structural   NdHo2Co8MoP6
_chemical_formula_sum   'Nd2 Ho4 Co16 Mo2 P12'
_cell_volume   489.45838953
_cell_formula_units_Z   2
loop_
 _symmetry_equiv_pos_site_id
 _symmetry_equiv_pos_as_xyz
  1  'x, y, z'
loop_
 _atom_site_type_symbol
 _atom_site_label
 _atom_site_symmetry_multiplicity
 _atom_site_fract_x
 _atom_site_fract_y
 _atom_site_fract_z
 _atom_site_occupancy
  Nd  Nd0  1  0.000000  0.500000  0.524926  1
  Nd  Nd1  1  0.500000  0.000000  0.475074  1
  Ho  Ho2  1  0.500000  0.818725  0.203686  1
  Ho  Ho3  1  0.500000  0.181275  0.203686  1
  Ho  Ho4  1  0.000000  0.681275  0.796314  1
  Ho  Ho5  1  0.000000  0.318725  0.796314  1
  Co  Co6  1  0.000000  0.500000  0.986401  1
  Co  Co7  1  0.500000  0.000000  0.013599  1
  Co  Co8  1  0.500000  0.295204  0.429847  1
  Co  Co9  1  0.500000  0.704796  0.429847  1
  Co  Co10  1  0.000000  0.204796  0.570153  1
  Co  Co11  1  0.000000  0.795204  0.570153  1
  Co  Co12  1  0.500000  0.878547  0.709669  1
  Co  Co13  1  0.500000  0.121453  0.709669  1
  Co  Co14  1  0.000000  0.621453  0.290331  1
  Co  Co15  1  0.000000  0.378547  0.290331  1
  Co  Co16  1  0.500000  0.332188  0.990271  1
  Co  Co17  1  0.500000  0.667812  0.990271  1
  Co  Co18  1  0.000000  0.167812  0.009729  1
  Co  Co19  1  0.000000  0.832188  0.009729  1
  Co  Co20  1  0.500000  0.500000  0.704858  1
  Co  Co21  1  0.000000  0.000000  0.295142  1
  Mo  Mo22  1  0.500000  0.500000  0.154029  1
  Mo  Mo23  1  0.000000  0.000000  0.845971  1
  P  P24  1  0.500000  0.308132  0.617730  1
  P  P25  1  0.500000  0.691868  0.617730  1
  P  P26  1  0.000000  0.191868  0.382270  1
  P  P27  1  0.000000  0.808132  0.382270  1
  P  P28  1  0.500000  0.500000  0.882163  1
  P  P29  1  0.000000  0.000000  0.117837  1
  P  P30  1  0.500000  0.844706  0.893854  1
  P  P31  1  0.500000  0.155294  0.893854  1
  P  P32  1  0.000000  0.655294  0.106146  1
  P  P33  1  0.000000  0.344706  0.106146  1
  P  P34  1  0.500000  0.500000  0.345183  1
  P  P35  1  0.000000  0.000000  0.654817  1
