# generated using pymatgen
data_Ba3SrRuO6
_symmetry_space_group_name_H-M   'P 1'
_cell_length_a   7.26081639
_cell_length_b   7.26081604
_cell_length_c   7.26081684
_cell_angle_alpha   91.68853160
_cell_angle_beta   91.68852636
_cell_angle_gamma   91.68852801
_symmetry_Int_Tables_number   1
_chemical_formula_structural   Ba3SrRuO6
_chemical_formula_sum   'Ba6 Sr2 Ru2 O12'
_cell_volume   382.27762143
_cell_formula_units_Z   2
loop_
 _symmetry_equiv_pos_site_id
 _symmetry_equiv_pos_as_xyz
  1  'x, y, z'
loop_
 _atom_site_type_symbol
 _atom_site_label
 _atom_site_symmetry_multiplicity
 _atom_site_fract_x
 _atom_site_fract_y
 _atom_site_fract_z
 _atom_site_occupancy
  Ba  Ba0  1  0.111601  0.750000  0.388399  1
  Ba  Ba1  1  0.388399  0.111601  0.750000  1
  Ba  Ba2  1  0.888399  0.250000  0.611601  1
  Ba  Ba3  1  0.611601  0.888399  0.250000  1
  Ba  Ba4  1  0.750000  0.388399  0.111601  1
  Ba  Ba5  1  0.250000  0.611601  0.888399  1
  Sr  Sr6  1  0.250000  0.250000  0.250000  1
  Sr  Sr7  1  0.750000  0.750000  0.750000  1
  Ru  Ru8  1  0.000000  0.000000  0.000000  1
  Ru  Ru9  1  0.500000  0.500000  0.500000  1
  O  O10  1  0.447571  0.770357  0.580646  1
  O  O11  1  0.580646  0.447571  0.770357  1
  O  O12  1  0.770357  0.580646  0.447571  1
  O  O13  1  0.052429  0.919354  0.729643  1
  O  O14  1  0.729643  0.052429  0.919354  1
  O  O15  1  0.919354  0.729643  0.052429  1
  O  O16  1  0.552429  0.229643  0.419354  1
  O  O17  1  0.419354  0.552429  0.229643  1
  O  O18  1  0.229643  0.419354  0.552429  1
  O  O19  1  0.947571  0.080646  0.270357  1
  O  O20  1  0.080646  0.270357  0.947571  1
  O  O21  1  0.270357  0.947571  0.080646  1
