# generated using pymatgen
data_SrLaHg2(Pt2O7)2
_symmetry_space_group_name_H-M   'P 1'
_cell_length_a   7.42564957
_cell_length_b   7.40002632
_cell_length_c   7.34429000
_cell_angle_alpha   60.24883339
_cell_angle_beta   60.36177416
_cell_angle_gamma   61.11240129
_symmetry_Int_Tables_number   1
_chemical_formula_structural   SrLaHg2(Pt2O7)2
_chemical_formula_sum   'Sr1 La1 Hg2 Pt4 O14'
_cell_volume   289.03010225
_cell_formula_units_Z   1
loop_
 _symmetry_equiv_pos_site_id
 _symmetry_equiv_pos_as_xyz
  1  'x, y, z'
loop_
 _atom_site_type_symbol
 _atom_site_label
 _atom_site_symmetry_multiplicity
 _atom_site_fract_x
 _atom_site_fract_y
 _atom_site_fract_z
 _atom_site_occupancy
  Sr  Sr0  1  0.125000  0.625000  0.125000  1
  La  La1  1  0.625000  0.125000  0.125000  1
  Hg  Hg2  1  0.125000  0.125000  0.125000  1
  Hg  Hg3  1  0.125000  0.125000  0.625000  1
  Pt  Pt4  1  0.625000  0.625000  0.125000  1
  Pt  Pt5  1  0.625000  0.625000  0.625000  1
  Pt  Pt6  1  0.625000  0.125000  0.625000  1
  Pt  Pt7  1  0.125000  0.625000  0.625000  1
  O  O8  1  0.693863  0.299398  0.297017  1
  O  O9  1  0.693863  0.299398  0.709723  1
  O  O10  1  0.012773  0.028148  0.979539  1
  O  O11  1  0.301901  0.697914  0.298094  1
  O  O12  1  0.702687  0.713120  0.292096  1
  O  O13  1  0.948099  0.552086  0.547910  1
  O  O14  1  0.301901  0.697914  0.702090  1
  O  O15  1  0.237227  0.221852  0.270461  1
  O  O16  1  0.948099  0.552086  0.951906  1
  O  O17  1  0.556137  0.950602  0.540277  1
  O  O18  1  0.547313  0.536880  0.957904  1
  O  O19  1  0.948235  0.949747  0.551009  1
  O  O20  1  0.556137  0.950602  0.952983  1
  O  O21  1  0.301765  0.300253  0.698991  1
