# generated using pymatgen
data_Nd4RuCl4
_symmetry_space_group_name_H-M   'P 1'
_cell_length_a   8.95544348
_cell_length_b   8.95544443
_cell_length_c   6.71318685
_cell_angle_alpha   90.09039243
_cell_angle_beta   90.09039516
_cell_angle_gamma   89.67569792
_symmetry_Int_Tables_number   1
_chemical_formula_structural   Nd4RuCl4
_chemical_formula_sum   'Nd8 Ru2 Cl8'
_cell_volume   538.38747049
_cell_formula_units_Z   2
loop_
 _symmetry_equiv_pos_site_id
 _symmetry_equiv_pos_as_xyz
  1  'x, y, z'
loop_
 _atom_site_type_symbol
 _atom_site_label
 _atom_site_symmetry_multiplicity
 _atom_site_fract_x
 _atom_site_fract_y
 _atom_site_fract_z
 _atom_site_occupancy
  Nd  Nd0  1  0.104938  0.740681  0.988636  1
  Nd  Nd1  1  0.259319  0.895062  0.511364  1
  Nd  Nd2  1  0.895062  0.259319  0.011364  1
  Nd  Nd3  1  0.740681  0.104938  0.488636  1
  Nd  Nd4  1  0.741743  0.895395  0.000992  1
  Nd  Nd5  1  0.104605  0.258257  0.499008  1
  Nd  Nd6  1  0.258257  0.104605  0.999008  1
  Nd  Nd7  1  0.895395  0.741743  0.500992  1
  Ru  Ru8  1  0.004268  0.995732  0.250000  1
  Ru  Ru9  1  0.995732  0.004268  0.750000  1
  Cl  Cl10  1  0.413350  0.822536  0.917462  1
  Cl  Cl11  1  0.177464  0.586650  0.582538  1
  Cl  Cl12  1  0.586650  0.177464  0.082538  1
  Cl  Cl13  1  0.822536  0.413350  0.417462  1
  Cl  Cl14  1  0.819712  0.587723  0.915127  1
  Cl  Cl15  1  0.412277  0.180288  0.584873  1
  Cl  Cl16  1  0.180288  0.412277  0.084873  1
  Cl  Cl17  1  0.587723  0.819712  0.415127  1
