# generated using pymatgen
data_Pr3Mn(Co4P3)2
_symmetry_space_group_name_H-M   'P 1'
_cell_length_a   3.77719600
_cell_length_b   10.73009800
_cell_length_c   12.44205300
_cell_angle_alpha   90.00000000
_cell_angle_beta   90.00000000
_cell_angle_gamma   90.00000000
_symmetry_Int_Tables_number   1
_chemical_formula_structural   Pr3Mn(Co4P3)2
_chemical_formula_sum   'Pr6 Mn2 Co16 P12'
_cell_volume   504.27246701
_cell_formula_units_Z   2
loop_
 _symmetry_equiv_pos_site_id
 _symmetry_equiv_pos_as_xyz
  1  'x, y, z'
loop_
 _atom_site_type_symbol
 _atom_site_label
 _atom_site_symmetry_multiplicity
 _atom_site_fract_x
 _atom_site_fract_y
 _atom_site_fract_z
 _atom_site_occupancy
  Pr  Pr0  1  0.000000  0.500000  0.522495  1
  Pr  Pr1  1  0.500000  0.000000  0.477505  1
  Pr  Pr2  1  0.500000  0.818577  0.205320  1
  Pr  Pr3  1  0.500000  0.181423  0.205320  1
  Pr  Pr4  1  0.000000  0.681423  0.794680  1
  Pr  Pr5  1  0.000000  0.318577  0.794680  1
  Mn  Mn6  1  0.500000  0.500000  0.153179  1
  Mn  Mn7  1  0.000000  0.000000  0.846821  1
  Co  Co8  1  0.500000  0.500000  0.704306  1
  Co  Co9  1  0.000000  0.000000  0.295694  1
  Co  Co10  1  0.000000  0.500000  0.988419  1
  Co  Co11  1  0.500000  0.000000  0.011581  1
  Co  Co12  1  0.500000  0.333133  0.996035  1
  Co  Co13  1  0.500000  0.666867  0.996035  1
  Co  Co14  1  0.000000  0.166867  0.003965  1
  Co  Co15  1  0.000000  0.833133  0.003965  1
  Co  Co16  1  0.500000  0.296860  0.430226  1
  Co  Co17  1  0.500000  0.703140  0.430226  1
  Co  Co18  1  0.000000  0.203140  0.569774  1
  Co  Co19  1  0.000000  0.796860  0.569774  1
  Co  Co20  1  0.500000  0.881324  0.710049  1
  Co  Co21  1  0.500000  0.118676  0.710049  1
  Co  Co22  1  0.000000  0.618676  0.289951  1
  Co  Co23  1  0.000000  0.381324  0.289951  1
  P  P24  1  0.500000  0.500000  0.887806  1
  P  P25  1  0.000000  0.000000  0.112194  1
  P  P26  1  0.500000  0.500000  0.341891  1
  P  P27  1  0.000000  0.000000  0.658109  1
  P  P28  1  0.500000  0.304841  0.613662  1
  P  P29  1  0.500000  0.695159  0.613662  1
  P  P30  1  0.000000  0.195159  0.386338  1
  P  P31  1  0.000000  0.804841  0.386338  1
  P  P32  1  0.500000  0.847137  0.896087  1
  P  P33  1  0.500000  0.152863  0.896087  1
  P  P34  1  0.000000  0.652863  0.103913  1
  P  P35  1  0.000000  0.347137  0.103913  1
