# generated using pymatgen
data_TbLu2(P2Ir3)3
_symmetry_space_group_name_H-M   'P 1'
_cell_length_a   3.95187800
_cell_length_b   11.13555300
_cell_length_c   12.84629300
_cell_angle_alpha   90.00000000
_cell_angle_beta   90.00000000
_cell_angle_gamma   90.00000000
_symmetry_Int_Tables_number   1
_chemical_formula_structural   TbLu2(P2Ir3)3
_chemical_formula_sum   'Tb2 Lu4 P12 Ir18'
_cell_volume   565.31842638
_cell_formula_units_Z   2
loop_
 _symmetry_equiv_pos_site_id
 _symmetry_equiv_pos_as_xyz
  1  'x, y, z'
loop_
 _atom_site_type_symbol
 _atom_site_label
 _atom_site_symmetry_multiplicity
 _atom_site_fract_x
 _atom_site_fract_y
 _atom_site_fract_z
 _atom_site_occupancy
  Tb  Tb0  1  0.000000  0.500000  0.522022  1
  Tb  Tb1  1  0.500000  0.000000  0.477978  1
  Lu  Lu2  1  0.500000  0.814518  0.203982  1
  Lu  Lu3  1  0.500000  0.185482  0.203982  1
  Lu  Lu4  1  0.000000  0.685482  0.796018  1
  Lu  Lu5  1  0.000000  0.314518  0.796018  1
  P  P6  1  0.500000  0.500000  0.874132  1
  P  P7  1  0.000000  0.000000  0.125868  1
  P  P8  1  0.500000  0.500000  0.359920  1
  P  P9  1  0.000000  0.000000  0.640080  1
  P  P10  1  0.500000  0.315548  0.617934  1
  P  P11  1  0.500000  0.684452  0.617934  1
  P  P12  1  0.000000  0.184452  0.382066  1
  P  P13  1  0.000000  0.815548  0.382066  1
  P  P14  1  0.500000  0.845839  0.892897  1
  P  P15  1  0.500000  0.154161  0.892897  1
  P  P16  1  0.000000  0.654161  0.107103  1
  P  P17  1  0.000000  0.345839  0.107103  1
  Ir  Ir18  1  0.500000  0.500000  0.182511  1
  Ir  Ir19  1  0.000000  0.000000  0.817489  1
  Ir  Ir20  1  0.500000  0.500000  0.700204  1
  Ir  Ir21  1  0.000000  0.000000  0.299796  1
  Ir  Ir22  1  0.000000  0.500000  0.966616  1
  Ir  Ir23  1  0.500000  0.000000  0.033384  1
  Ir  Ir24  1  0.500000  0.336791  0.005097  1
  Ir  Ir25  1  0.500000  0.663209  0.005097  1
  Ir  Ir26  1  0.000000  0.163209  0.994903  1
  Ir  Ir27  1  0.000000  0.836791  0.994903  1
  Ir  Ir28  1  0.500000  0.292116  0.429290  1
  Ir  Ir29  1  0.500000  0.707884  0.429290  1
  Ir  Ir30  1  0.000000  0.207884  0.570710  1
  Ir  Ir31  1  0.000000  0.792116  0.570710  1
  Ir  Ir32  1  0.500000  0.867353  0.714606  1
  Ir  Ir33  1  0.500000  0.132647  0.714606  1
  Ir  Ir34  1  0.000000  0.632647  0.285394  1
  Ir  Ir35  1  0.000000  0.367353  0.285394  1
