# generated using pymatgen
data_Ho16MgAg3Ir4
_symmetry_space_group_name_H-M   'P 1'
_cell_length_a   9.55302652
_cell_length_b   9.56308656
_cell_length_c   9.56308600
_cell_angle_alpha   60.00000193
_cell_angle_beta   59.96516044
_cell_angle_gamma   59.96516275
_symmetry_Int_Tables_number   1
_chemical_formula_structural   Ho16MgAg3Ir4
_chemical_formula_sum   'Ho16 Mg1 Ag3 Ir4'
_cell_volume   617.43784785
_cell_formula_units_Z   1
loop_
 _symmetry_equiv_pos_site_id
 _symmetry_equiv_pos_as_xyz
  1  'x, y, z'
loop_
 _atom_site_type_symbol
 _atom_site_label
 _atom_site_symmetry_multiplicity
 _atom_site_fract_x
 _atom_site_fract_y
 _atom_site_fract_z
 _atom_site_occupancy
  Ho  Ho0  1  0.350423  0.349419  0.349419  1
  Ho  Ho1  1  0.350423  0.349419  0.950739  1
  Ho  Ho2  1  0.350423  0.950739  0.349419  1
  Ho  Ho3  1  0.941265  0.352912  0.352912  1
  Ho  Ho4  1  0.809570  0.189914  0.189914  1
  Ho  Ho5  1  0.186923  0.812412  0.812412  1
  Ho  Ho6  1  0.186923  0.812412  0.188253  1
  Ho  Ho7  1  0.809570  0.189914  0.810601  1
  Ho  Ho8  1  0.186923  0.188253  0.812412  1
  Ho  Ho9  1  0.809570  0.810601  0.189914  1
  Ho  Ho10  1  0.934607  0.563463  0.563463  1
  Ho  Ho11  1  0.562855  0.936000  0.936000  1
  Ho  Ho12  1  0.562855  0.936000  0.565146  1
  Ho  Ho13  1  0.934607  0.563463  0.938467  1
  Ho  Ho14  1  0.562855  0.565146  0.936000  1
  Ho  Ho15  1  0.934607  0.938467  0.563463  1
  Mg  Mg16  1  0.286539  0.571153  0.571153  1
  Ag  Ag17  1  0.581702  0.583535  0.583535  1
  Ag  Ag18  1  0.581702  0.583535  0.251228  1
  Ag  Ag19  1  0.581702  0.251228  0.583535  1
  Ir  Ir20  1  0.140246  0.143376  0.143376  1
  Ir  Ir21  1  0.140246  0.143376  0.573000  1
  Ir  Ir22  1  0.140246  0.573000  0.143376  1
  Ir  Ir23  1  0.573215  0.142261  0.142261  1
