# generated using pymatgen
data_Tm3Al3GeAu2
_symmetry_space_group_name_H-M   'P 1'
_cell_length_a   6.98526800
_cell_length_b   6.98526926
_cell_length_c   4.28183100
_cell_angle_alpha   90.00000000
_cell_angle_beta   90.00000000
_cell_angle_gamma   119.99999401
_symmetry_Int_Tables_number   1
_chemical_formula_structural   Tm3Al3GeAu2
_chemical_formula_sum   'Tm3 Al3 Ge1 Au2'
_cell_volume   180.93659151
_cell_formula_units_Z   1
loop_
 _symmetry_equiv_pos_site_id
 _symmetry_equiv_pos_as_xyz
  1  'x, y, z'
loop_
 _atom_site_type_symbol
 _atom_site_label
 _atom_site_symmetry_multiplicity
 _atom_site_fract_x
 _atom_site_fract_y
 _atom_site_fract_z
 _atom_site_occupancy
  Tm  Tm0  1  0.421322  0.422100  0.500000  1
  Tm  Tm1  1  0.577900  0.999222  0.500000  1
  Tm  Tm2  1  0.000778  0.578678  0.500000  1
  Al  Al3  1  0.751320  0.761627  0.000000  1
  Al  Al4  1  0.238373  0.989694  0.000000  1
  Al  Al5  1  0.010306  0.248680  0.000000  1
  Ge  Ge6  1  0.666667  0.333333  0.000000  1
  Au  Au7  1  0.333333  0.666667  0.000000  1
  Au  Au8  1  0.000000  0.000000  0.500000  1
