# generated using pymatgen
data_Y2ErZr(Co4P3)2
_symmetry_space_group_name_H-M   'P 1'
_cell_length_a   3.72075000
_cell_length_b   10.69125300
_cell_length_c   12.41003000
_cell_angle_alpha   90.00000000
_cell_angle_beta   90.00000000
_cell_angle_gamma   90.00000000
_symmetry_Int_Tables_number   1
_chemical_formula_structural   Y2ErZr(Co4P3)2
_chemical_formula_sum   'Y4 Er2 Zr2 Co16 P12'
_cell_volume   493.66453522
_cell_formula_units_Z   2
loop_
 _symmetry_equiv_pos_site_id
 _symmetry_equiv_pos_as_xyz
  1  'x, y, z'
loop_
 _atom_site_type_symbol
 _atom_site_label
 _atom_site_symmetry_multiplicity
 _atom_site_fract_x
 _atom_site_fract_y
 _atom_site_fract_z
 _atom_site_occupancy
  Y  Y0  1  0.750000  0.250000  0.470475  1
  Y  Y1  1  0.250000  0.750000  0.529281  1
  Y  Y2  1  0.250000  0.928304  0.795231  1
  Y  Y3  1  0.250000  0.571696  0.795231  1
  Er  Er4  1  0.750000  0.072073  0.204728  1
  Er  Er5  1  0.750000  0.427927  0.204728  1
  Zr  Zr6  1  0.250000  0.250000  0.841811  1
  Zr  Zr7  1  0.750000  0.750000  0.158277  1
  Co  Co8  1  0.250000  0.250000  0.295904  1
  Co  Co9  1  0.750000  0.750000  0.703226  1
  Co  Co10  1  0.750000  0.250000  0.014619  1
  Co  Co11  1  0.250000  0.750000  0.986305  1
  Co  Co12  1  0.250000  0.417814  0.007725  1
  Co  Co13  1  0.250000  0.082186  0.007725  1
  Co  Co14  1  0.750000  0.581734  0.993244  1
  Co  Co15  1  0.750000  0.918266  0.993244  1
  Co  Co16  1  0.250000  0.454864  0.566274  1
  Co  Co17  1  0.250000  0.045136  0.566274  1
  Co  Co18  1  0.750000  0.544872  0.433041  1
  Co  Co19  1  0.750000  0.955128  0.433041  1
  Co  Co20  1  0.250000  0.873045  0.298421  1
  Co  Co21  1  0.250000  0.626955  0.298421  1
  Co  Co22  1  0.750000  0.127547  0.701071  1
  Co  Co23  1  0.750000  0.372453  0.701071  1
  P  P24  1  0.250000  0.250000  0.117119  1
  P  P25  1  0.750000  0.750000  0.883781  1
  P  P26  1  0.250000  0.250000  0.636804  1
  P  P27  1  0.750000  0.750000  0.363134  1
  P  P28  1  0.250000  0.439737  0.383691  1
  P  P29  1  0.250000  0.060263  0.383691  1
  P  P30  1  0.750000  0.559969  0.615372  1
  P  P31  1  0.750000  0.940031  0.615372  1
  P  P32  1  0.250000  0.912426  0.106620  1
  P  P33  1  0.250000  0.587574  0.106620  1
  P  P34  1  0.750000  0.088321  0.894214  1
  P  P35  1  0.750000  0.411679  0.894214  1
