# generated using pymatgen
data_Pa4Ge6MoOs6
_symmetry_space_group_name_H-M   'P 1'
_cell_length_a   7.32827213
_cell_length_b   7.32827147
_cell_length_c   7.32827200
_cell_angle_alpha   109.47122764
_cell_angle_beta   109.47122581
_cell_angle_gamma   109.47120556
_symmetry_Int_Tables_number   1
_chemical_formula_structural   Pa4Ge6MoOs6
_chemical_formula_sum   'Pa4 Ge6 Mo1 Os6'
_cell_volume   302.95829081
_cell_formula_units_Z   1
loop_
 _symmetry_equiv_pos_site_id
 _symmetry_equiv_pos_as_xyz
  1  'x, y, z'
loop_
 _atom_site_type_symbol
 _atom_site_label
 _atom_site_symmetry_multiplicity
 _atom_site_fract_x
 _atom_site_fract_y
 _atom_site_fract_z
 _atom_site_occupancy
  Pa  Pa0  1  0.000000  0.000000  0.500000  1
  Pa  Pa1  1  0.000000  0.500000  0.000000  1
  Pa  Pa2  1  0.500000  0.000000  0.000000  1
  Pa  Pa3  1  0.500000  0.500000  0.500000  1
  Ge  Ge4  1  0.687481  0.687481  0.000000  1
  Ge  Ge5  1  0.312519  0.000000  0.312519  1
  Ge  Ge6  1  0.000000  0.312519  0.312519  1
  Ge  Ge7  1  0.312519  0.312519  0.000000  1
  Ge  Ge8  1  0.687481  0.000000  0.687481  1
  Ge  Ge9  1  0.000000  0.687481  0.687481  1
  Mo  Mo10  1  0.000000  0.000000  0.000000  1
  Os  Os11  1  0.750000  0.250000  0.500000  1
  Os  Os12  1  0.750000  0.500000  0.250000  1
  Os  Os13  1  0.500000  0.250000  0.750000  1
  Os  Os14  1  0.250000  0.500000  0.750000  1
  Os  Os15  1  0.250000  0.750000  0.500000  1
  Os  Os16  1  0.500000  0.750000  0.250000  1
