# generated using pymatgen
data_Er2ZrGa5
_symmetry_space_group_name_H-M   'P 1'
_cell_length_a   5.94679000
_cell_length_b   9.41943100
_cell_length_c   11.29262000
_cell_angle_alpha   90.00000000
_cell_angle_beta   90.00000000
_cell_angle_gamma   90.00000000
_symmetry_Int_Tables_number   1
_chemical_formula_structural   Er2ZrGa5
_chemical_formula_sum   'Er8 Zr4 Ga20'
_cell_volume   632.56037877
_cell_formula_units_Z   4
loop_
 _symmetry_equiv_pos_site_id
 _symmetry_equiv_pos_as_xyz
  1  'x, y, z'
loop_
 _atom_site_type_symbol
 _atom_site_label
 _atom_site_symmetry_multiplicity
 _atom_site_fract_x
 _atom_site_fract_y
 _atom_site_fract_z
 _atom_site_occupancy
  Er  Er0  1  0.887557  0.507655  0.352696  1
  Er  Er1  1  0.612443  0.992345  0.852696  1
  Er  Er2  1  0.112443  0.007655  0.647304  1
  Er  Er3  1  0.387557  0.492345  0.147304  1
  Er  Er4  1  0.112443  0.492345  0.647304  1
  Er  Er5  1  0.387557  0.007655  0.147304  1
  Er  Er6  1  0.887557  0.992345  0.352696  1
  Er  Er7  1  0.612443  0.507655  0.852696  1
  Zr  Zr8  1  0.856414  0.750000  0.074510  1
  Zr  Zr9  1  0.643586  0.750000  0.574510  1
  Zr  Zr10  1  0.143586  0.250000  0.925490  1
  Zr  Zr11  1  0.356414  0.250000  0.425490  1
  Ga  Ga12  1  0.875254  0.052292  0.088865  1
  Ga  Ga13  1  0.624746  0.447708  0.588865  1
  Ga  Ga14  1  0.124746  0.552292  0.911135  1
  Ga  Ga15  1  0.375254  0.947708  0.411135  1
  Ga  Ga16  1  0.124746  0.947708  0.911135  1
  Ga  Ga17  1  0.375254  0.552292  0.411135  1
  Ga  Ga18  1  0.875254  0.447708  0.088865  1
  Ga  Ga19  1  0.624746  0.052292  0.588865  1
  Ga  Ga20  1  0.163270  0.750000  0.253156  1
  Ga  Ga21  1  0.336730  0.750000  0.753156  1
  Ga  Ga22  1  0.836730  0.250000  0.746844  1
  Ga  Ga23  1  0.663270  0.250000  0.246844  1
  Ga  Ga24  1  0.386749  0.750000  0.003476  1
  Ga  Ga25  1  0.113251  0.750000  0.503476  1
  Ga  Ga26  1  0.613251  0.250000  0.996524  1
  Ga  Ga27  1  0.886749  0.250000  0.496524  1
  Ga  Ga28  1  0.607177  0.750000  0.294586  1
  Ga  Ga29  1  0.892823  0.750000  0.794586  1
  Ga  Ga30  1  0.392823  0.250000  0.705414  1
  Ga  Ga31  1  0.107177  0.250000  0.205414  1
