# generated using pymatgen
data_Zr3Nb2SiSn3
_symmetry_space_group_name_H-M   'P 1'
_cell_length_a   8.56596500
_cell_length_b   8.56596499
_cell_length_c   5.74491000
_cell_angle_alpha   90.00000000
_cell_angle_beta   90.00000000
_cell_angle_gamma   120.00000389
_symmetry_Int_Tables_number   1
_chemical_formula_structural   Zr3Nb2SiSn3
_chemical_formula_sum   'Zr6 Nb4 Si2 Sn6'
_cell_volume   365.06183695
_cell_formula_units_Z   2
loop_
 _symmetry_equiv_pos_site_id
 _symmetry_equiv_pos_as_xyz
  1  'x, y, z'
loop_
 _atom_site_type_symbol
 _atom_site_label
 _atom_site_symmetry_multiplicity
 _atom_site_fract_x
 _atom_site_fract_y
 _atom_site_fract_z
 _atom_site_occupancy
  Zr  Zr0  1  0.738960  0.738960  0.750000  1
  Zr  Zr1  1  0.261040  0.000000  0.750000  1
  Zr  Zr2  1  0.000000  0.261040  0.750000  1
  Zr  Zr3  1  0.261040  0.261040  0.250000  1
  Zr  Zr4  1  0.738960  0.000000  0.250000  1
  Zr  Zr5  1  0.000000  0.738960  0.250000  1
  Nb  Nb6  1  0.666667  0.333333  0.000000  1
  Nb  Nb7  1  0.333333  0.666667  0.000000  1
  Nb  Nb8  1  0.333333  0.666667  0.500000  1
  Nb  Nb9  1  0.666667  0.333333  0.500000  1
  Si  Si10  1  0.000000  0.000000  0.000000  1
  Si  Si11  1  0.000000  0.000000  0.500000  1
  Sn  Sn12  1  0.396528  0.396528  0.750000  1
  Sn  Sn13  1  0.603472  0.000000  0.750000  1
  Sn  Sn14  1  0.000000  0.603472  0.750000  1
  Sn  Sn15  1  0.603472  0.603472  0.250000  1
  Sn  Sn16  1  0.396528  0.000000  0.250000  1
  Sn  Sn17  1  0.000000  0.396528  0.250000  1
