# generated using pymatgen
data_TmLu3(Sc3Si4)2
_symmetry_space_group_name_H-M   'P 1'
_cell_length_a   7.03513956
_cell_length_b   7.32970184
_cell_length_c   13.87118248
_cell_angle_alpha   90.03007677
_cell_angle_beta   90.00212620
_cell_angle_gamma   89.95424991
_symmetry_Int_Tables_number   1
_chemical_formula_structural   TmLu3(Sc3Si4)2
_chemical_formula_sum   'Tm2 Lu6 Sc12 Si16'
_cell_volume   715.27379144
_cell_formula_units_Z   2
loop_
 _symmetry_equiv_pos_site_id
 _symmetry_equiv_pos_as_xyz
  1  'x, y, z'
loop_
 _atom_site_type_symbol
 _atom_site_label
 _atom_site_symmetry_multiplicity
 _atom_site_fract_x
 _atom_site_fract_y
 _atom_site_fract_z
 _atom_site_occupancy
  Tm  Tm0  1  0.511918  0.323070  0.403830  1
  Tm  Tm1  1  0.488082  0.676930  0.596170  1
  Lu  Lu2  1  0.011745  0.177060  0.095775  1
  Lu  Lu3  1  0.988255  0.822940  0.904225  1
  Lu  Lu4  1  0.488169  0.677170  0.903856  1
  Lu  Lu5  1  0.988480  0.823060  0.596436  1
  Lu  Lu6  1  0.511831  0.322830  0.096144  1
  Lu  Lu7  1  0.011520  0.176940  0.403564  1
  Sc  Sc8  1  0.161070  0.504202  0.750278  1
  Sc  Sc9  1  0.838930  0.495798  0.249722  1
  Sc  Sc10  1  0.338718  0.004368  0.249684  1
  Sc  Sc11  1  0.661282  0.995632  0.750316  1
  Sc  Sc12  1  0.330894  0.176423  0.625400  1
  Sc  Sc13  1  0.669106  0.823577  0.374600  1
  Sc  Sc14  1  0.168346  0.677831  0.374386  1
  Sc  Sc15  1  0.668827  0.822687  0.125126  1
  Sc  Sc16  1  0.831654  0.322169  0.625614  1
  Sc  Sc17  1  0.331173  0.177313  0.874874  1
  Sc  Sc18  1  0.831411  0.322428  0.874733  1
  Sc  Sc19  1  0.168589  0.677572  0.125267  1
  Si  Si20  1  0.032984  0.111810  0.750316  1
  Si  Si21  1  0.967016  0.888190  0.249684  1
  Si  Si22  1  0.467153  0.612618  0.249837  1
  Si  Si23  1  0.532847  0.387382  0.750163  1
  Si  Si24  1  0.285022  0.869713  0.750477  1
  Si  Si25  1  0.714978  0.130287  0.249523  1
  Si  Si26  1  0.214444  0.369772  0.249546  1
  Si  Si27  1  0.785556  0.630228  0.750454  1
  Si  Si28  1  0.159167  0.465233  0.539243  1
  Si  Si29  1  0.840833  0.534767  0.460757  1
  Si  Si30  1  0.338982  0.965600  0.460559  1
  Si  Si31  1  0.839407  0.534253  0.039245  1
  Si  Si32  1  0.661018  0.034400  0.539441  1
  Si  Si33  1  0.160593  0.465747  0.960755  1
  Si  Si34  1  0.660434  0.034325  0.960601  1
  Si  Si35  1  0.339566  0.965675  0.039399  1
