# generated using pymatgen
data_Ba4MnFe3N8
_symmetry_space_group_name_H-M   'P 1'
_cell_length_a   6.40217955
_cell_length_b   6.40217880
_cell_length_c   7.78554199
_cell_angle_alpha   90.31988737
_cell_angle_beta   89.68011558
_cell_angle_gamma   125.85583359
_symmetry_Int_Tables_number   1
_chemical_formula_structural   Ba4MnFe3N8
_chemical_formula_sum   'Ba4 Mn1 Fe3 N8'
_cell_volume   258.63389995
_cell_formula_units_Z   1
loop_
 _symmetry_equiv_pos_site_id
 _symmetry_equiv_pos_as_xyz
  1  'x, y, z'
loop_
 _atom_site_type_symbol
 _atom_site_label
 _atom_site_symmetry_multiplicity
 _atom_site_fract_x
 _atom_site_fract_y
 _atom_site_fract_z
 _atom_site_occupancy
  Ba  Ba0  1  0.841654  0.158346  0.555464  1
  Ba  Ba1  1  0.152711  0.847289  0.440236  1
  Ba  Ba2  1  0.655861  0.344139  0.057668  1
  Ba  Ba3  1  0.344896  0.655104  0.942248  1
  Mn  Mn4  1  0.047121  0.952879  0.866377  1
  Fe  Fe5  1  0.546573  0.453427  0.630128  1
  Fe  Fe6  1  0.449569  0.550431  0.365917  1
  Fe  Fe7  1  0.949543  0.050457  0.137193  1
  N  N8  1  0.889193  0.110807  0.913029  1
  N  N9  1  0.114531  0.885469  0.079750  1
  N  N10  1  0.613360  0.386640  0.416536  1
  N  N11  1  0.386094  0.613906  0.584681  1
  N  N12  1  0.330220  0.160196  0.755484  1
  N  N13  1  0.169515  0.330645  0.249903  1
  N  N14  1  0.669355  0.830485  0.249903  1
  N  N15  1  0.839804  0.669780  0.755484  1
