# generated using pymatgen
data_Tb4Pr2Co17MoP12
_symmetry_space_group_name_H-M   'P 1'
_cell_length_a   3.72995200
_cell_length_b   10.58543800
_cell_length_c   12.29223900
_cell_angle_alpha   90.00000000
_cell_angle_beta   90.00000000
_cell_angle_gamma   90.00000000
_symmetry_Int_Tables_number   1
_chemical_formula_structural   Tb4Pr2Co17MoP12
_chemical_formula_sum   'Tb4 Pr2 Co17 Mo1 P12'
_cell_volume   485.33663143
_cell_formula_units_Z   1
loop_
 _symmetry_equiv_pos_site_id
 _symmetry_equiv_pos_as_xyz
  1  'x, y, z'
loop_
 _atom_site_type_symbol
 _atom_site_label
 _atom_site_symmetry_multiplicity
 _atom_site_fract_x
 _atom_site_fract_y
 _atom_site_fract_z
 _atom_site_occupancy
  Tb  Tb0  1  0.500000  0.818118  0.205279  1
  Tb  Tb1  1  0.500000  0.181882  0.205279  1
  Tb  Tb2  1  0.000000  0.683044  0.796736  1
  Tb  Tb3  1  0.000000  0.316956  0.796736  1
  Pr  Pr4  1  0.000000  0.500000  0.525269  1
  Pr  Pr5  1  0.500000  0.000000  0.477735  1
  Co  Co6  1  0.000000  0.000000  0.842202  1
  Co  Co7  1  0.500000  0.500000  0.705446  1
  Co  Co8  1  0.000000  0.000000  0.293064  1
  Co  Co9  1  0.000000  0.500000  0.986071  1
  Co  Co10  1  0.500000  0.000000  0.013826  1
  Co  Co11  1  0.500000  0.331055  0.990949  1
  Co  Co12  1  0.500000  0.668945  0.990949  1
  Co  Co13  1  0.000000  0.165591  0.005339  1
  Co  Co14  1  0.000000  0.834409  0.005339  1
  Co  Co15  1  0.500000  0.295594  0.430232  1
  Co  Co16  1  0.500000  0.704406  0.430232  1
  Co  Co17  1  0.000000  0.203552  0.570941  1
  Co  Co18  1  0.000000  0.796448  0.570941  1
  Co  Co19  1  0.500000  0.880233  0.711733  1
  Co  Co20  1  0.500000  0.119767  0.711733  1
  Co  Co21  1  0.000000  0.621062  0.289477  1
  Co  Co22  1  0.000000  0.378938  0.289477  1
  Mo  Mo23  1  0.500000  0.500000  0.153758  1
  P  P24  1  0.500000  0.500000  0.882736  1
  P  P25  1  0.000000  0.000000  0.115434  1
  P  P26  1  0.500000  0.500000  0.344709  1
  P  P27  1  0.000000  0.000000  0.660962  1
  P  P28  1  0.500000  0.306251  0.618266  1
  P  P29  1  0.500000  0.693749  0.618266  1
  P  P30  1  0.000000  0.192807  0.383508  1
  P  P31  1  0.000000  0.807193  0.383508  1
  P  P32  1  0.500000  0.849557  0.892953  1
  P  P33  1  0.500000  0.150443  0.892953  1
  P  P34  1  0.000000  0.656657  0.103983  1
  P  P35  1  0.000000  0.343343  0.103983  1
