# generated using pymatgen
data_La2Nd3Si4
_symmetry_space_group_name_H-M   'P 1'
_cell_length_a   7.92760100
_cell_length_b   7.92760100
_cell_length_c   15.35941900
_cell_angle_alpha   90.00000000
_cell_angle_beta   90.00000000
_cell_angle_gamma   90.00000000
_symmetry_Int_Tables_number   1
_chemical_formula_structural   La2Nd3Si4
_chemical_formula_sum   'La8 Nd12 Si16'
_cell_volume   965.29121895
_cell_formula_units_Z   4
loop_
 _symmetry_equiv_pos_site_id
 _symmetry_equiv_pos_as_xyz
  1  'x, y, z'
loop_
 _atom_site_type_symbol
 _atom_site_label
 _atom_site_symmetry_multiplicity
 _atom_site_fract_x
 _atom_site_fract_y
 _atom_site_fract_z
 _atom_site_occupancy
  La  La0  1  0.987242  0.621712  0.052695  1
  La  La1  1  0.012758  0.378288  0.552695  1
  La  La2  1  0.621712  0.987242  0.947305  1
  La  La3  1  0.121712  0.512758  0.802695  1
  La  La4  1  0.878288  0.487242  0.302695  1
  La  La5  1  0.512758  0.121712  0.197305  1
  La  La6  1  0.487242  0.878288  0.697305  1
  La  La7  1  0.378288  0.012758  0.447305  1
  Nd  Nd8  1  0.373951  0.480790  0.373556  1
  Nd  Nd9  1  0.873951  0.019210  0.376444  1
  Nd  Nd10  1  0.980790  0.126049  0.123556  1
  Nd  Nd11  1  0.019210  0.873951  0.623556  1
  Nd  Nd12  1  0.626049  0.519210  0.873556  1
  Nd  Nd13  1  0.480790  0.373951  0.626444  1
  Nd  Nd14  1  0.519210  0.626049  0.126444  1
  Nd  Nd15  1  0.126049  0.980790  0.876444  1
  Nd  Nd16  1  0.692043  0.692043  0.500000  1
  Nd  Nd17  1  0.807957  0.192043  0.750000  1
  Nd  Nd18  1  0.192043  0.807957  0.250000  1
  Nd  Nd19  1  0.307957  0.307957  0.000000  1
  Si  Si20  1  0.079378  0.713054  0.439644  1
  Si  Si21  1  0.920622  0.286946  0.939644  1
  Si  Si22  1  0.713054  0.079378  0.560356  1
  Si  Si23  1  0.213055  0.420622  0.189644  1
  Si  Si24  1  0.786946  0.579378  0.689644  1
  Si  Si25  1  0.420622  0.213055  0.810356  1
  Si  Si26  1  0.579378  0.786946  0.310356  1
  Si  Si27  1  0.286946  0.920622  0.060356  1
  Si  Si28  1  0.830421  0.806433  0.796155  1
  Si  Si29  1  0.169579  0.193567  0.296155  1
  Si  Si30  1  0.806433  0.830421  0.203845  1
  Si  Si31  1  0.306433  0.669579  0.546155  1
  Si  Si32  1  0.693567  0.330421  0.046155  1
  Si  Si33  1  0.669579  0.306433  0.453845  1
  Si  Si34  1  0.330421  0.693567  0.953845  1
  Si  Si35  1  0.193567  0.169579  0.703845  1
