# generated using pymatgen
data_Ta3Mn2Nb3(Ga2C)2
_symmetry_space_group_name_H-M   'P 1'
_cell_length_a   8.23563078
_cell_length_b   8.25556444
_cell_length_c   8.23361922
_cell_angle_alpha   60.06877451
_cell_angle_beta   59.98500516
_cell_angle_gamma   60.07297235
_symmetry_Int_Tables_number   1
_chemical_formula_structural   Ta3Mn2Nb3(Ga2C)2
_chemical_formula_sum   'Ta6 Mn4 Nb6 Ga8 C4'
_cell_volume   396.21825708
_cell_formula_units_Z   2
loop_
 _symmetry_equiv_pos_site_id
 _symmetry_equiv_pos_as_xyz
  1  'x, y, z'
loop_
 _atom_site_type_symbol
 _atom_site_label
 _atom_site_symmetry_multiplicity
 _atom_site_fract_x
 _atom_site_fract_y
 _atom_site_fract_z
 _atom_site_occupancy
  Ta  Ta0  1  0.805525  0.805994  0.194151  1
  Ta  Ta1  1  0.196473  0.193548  0.805005  1
  Ta  Ta2  1  0.804962  0.193586  0.805012  1
  Ta  Ta3  1  0.194342  0.805997  0.194113  1
  Ta  Ta4  1  0.194176  0.806069  0.805639  1
  Ta  Ta5  1  0.804869  0.193787  0.196454  1
  Mn  Mn6  1  0.125055  0.625020  0.624953  1
  Mn  Mn7  1  0.624967  0.125090  0.624966  1
  Mn  Mn8  1  0.624963  0.625021  0.125052  1
  Mn  Mn9  1  0.624962  0.625011  0.624961  1
  Nb  Nb10  1  0.446134  0.445823  0.054126  1
  Nb  Nb11  1  0.051689  0.054670  0.446798  1
  Nb  Nb12  1  0.446867  0.054618  0.446809  1
  Nb  Nb13  1  0.053905  0.445813  0.054175  1
  Nb  Nb14  1  0.054092  0.445740  0.446012  1
  Nb  Nb15  1  0.446953  0.054403  0.051708  1
  Ga  Ga16  1  0.755674  0.413054  0.415571  1
  Ga  Ga17  1  0.414019  0.757891  0.413972  1
  Ga  Ga18  1  0.415518  0.412928  0.755954  1
  Ga  Ga19  1  0.415596  0.413051  0.415583  1
  Ga  Ga20  1  0.494477  0.836802  0.834419  1
  Ga  Ga21  1  0.835963  0.492180  0.836012  1
  Ga  Ga22  1  0.834477  0.836933  0.494197  1
  Ga  Ga23  1  0.834395  0.836808  0.834397  1
  C  C24  1  0.627587  0.124149  0.124138  1
  C  C25  1  0.124097  0.627708  0.124105  1
  C  C26  1  0.124133  0.124156  0.627585  1
  C  C27  1  0.124128  0.124149  0.124132  1
