# generated using pymatgen
data_Yb10AlTcN10
_symmetry_space_group_name_H-M   'P 1'
_cell_length_a   6.72894891
_cell_length_b   6.72894867
_cell_length_c   8.55752100
_cell_angle_alpha   81.36957944
_cell_angle_beta   81.36957975
_cell_angle_gamma   60.23035441
_symmetry_Int_Tables_number   1
_chemical_formula_structural   Yb10AlTcN10
_chemical_formula_sum   'Yb10 Al1 Tc1 N10'
_cell_volume   331.23885541
_cell_formula_units_Z   1
loop_
 _symmetry_equiv_pos_site_id
 _symmetry_equiv_pos_as_xyz
  1  'x, y, z'
loop_
 _atom_site_type_symbol
 _atom_site_label
 _atom_site_symmetry_multiplicity
 _atom_site_fract_x
 _atom_site_fract_y
 _atom_site_fract_z
 _atom_site_occupancy
  Yb  Yb0  1  0.901004  0.358564  0.842142  1
  Yb  Yb1  1  0.882331  0.882331  0.812978  1
  Yb  Yb2  1  0.733163  0.733163  0.545586  1
  Yb  Yb3  1  0.741107  0.261303  0.520653  1
  Yb  Yb4  1  0.609535  0.127074  0.129828  1
  Yb  Yb5  1  0.358564  0.901004  0.842142  1
  Yb  Yb6  1  0.261303  0.741107  0.520653  1
  Yb  Yb7  1  0.249016  0.249016  0.498710  1
  Yb  Yb8  1  0.132494  0.132494  0.176047  1
  Yb  Yb9  1  0.127074  0.609535  0.129828  1
  Al  Al10  1  0.369345  0.369345  0.770185  1
  Tc  Tc11  1  0.632796  0.632796  0.225517  1
  N  N12  1  0.904054  0.472479  0.322624  1
  N  N13  1  0.990605  0.990605  0.030058  1
  N  N14  1  0.698846  0.698846  0.018816  1
  N  N15  1  0.540428  0.540428  0.702164  1
  N  N16  1  0.472479  0.904054  0.322624  1
  N  N17  1  0.548803  0.081694  0.664773  1
  N  N18  1  0.471069  0.471069  0.278643  1
  N  N19  1  0.289082  0.289082  0.980770  1
  N  N20  1  0.067499  0.067499  0.646297  1
  N  N21  1  0.081694  0.548803  0.664773  1
