# generated using pymatgen
data_Pr4TlHg7O4
_symmetry_space_group_name_H-M   'P 1'
_cell_length_a   5.87270080
_cell_length_b   5.85147112
_cell_length_c   12.01542900
_cell_angle_alpha   91.55867647
_cell_angle_beta   114.09730003
_cell_angle_gamma   89.75404645
_symmetry_Int_Tables_number   1
_chemical_formula_structural   Pr4TlHg7O4
_chemical_formula_sum   'Pr4 Tl1 Hg7 O4'
_cell_volume   376.76490478
_cell_formula_units_Z   1
loop_
 _symmetry_equiv_pos_site_id
 _symmetry_equiv_pos_as_xyz
  1  'x, y, z'
loop_
 _atom_site_type_symbol
 _atom_site_label
 _atom_site_symmetry_multiplicity
 _atom_site_fract_x
 _atom_site_fract_y
 _atom_site_fract_z
 _atom_site_occupancy
  Pr  Pr0  1  0.661911  0.995243  0.397235  1
  Pr  Pr1  1  0.159947  0.495128  0.394470  1
  Pr  Pr2  1  0.336838  0.006421  0.606173  1
  Pr  Pr3  1  0.837213  0.506529  0.606187  1
  Tl  Tl4  1  0.347702  0.983259  0.077925  1
  Hg  Hg5  1  0.880358  0.479994  0.083901  1
  Hg  Hg6  1  0.143521  0.510887  0.914953  1
  Hg  Hg7  1  0.641893  0.015911  0.916615  1
  Hg  Hg8  1  0.514039  0.482366  0.208600  1
  Hg  Hg9  1  0.983482  0.979014  0.207640  1
  Hg  Hg10  1  0.998387  0.019572  0.790659  1
  Hg  Hg11  1  0.499412  0.522569  0.792060  1
  O  O12  1  0.999635  0.251910  0.500845  1
  O  O13  1  0.498418  0.251892  0.501239  1
  O  O14  1  0.999701  0.749543  0.500840  1
  O  O15  1  0.497549  0.749780  0.500658  1
