# generated using pymatgen
data_Ho20IrRu6Pt5
_symmetry_space_group_name_H-M   'P 1'
_cell_length_a   10.84622151
_cell_length_b   10.83179695
_cell_length_c   6.43504128
_cell_angle_alpha   90.00718403
_cell_angle_beta   89.90724941
_cell_angle_gamma   90.13858970
_symmetry_Int_Tables_number   1
_chemical_formula_structural   Ho20IrRu6Pt5
_chemical_formula_sum   'Ho20 Ir1 Ru6 Pt5'
_cell_volume   756.01162640
_cell_formula_units_Z   1
loop_
 _symmetry_equiv_pos_site_id
 _symmetry_equiv_pos_as_xyz
  1  'x, y, z'
loop_
 _atom_site_type_symbol
 _atom_site_label
 _atom_site_symmetry_multiplicity
 _atom_site_fract_x
 _atom_site_fract_y
 _atom_site_fract_z
 _atom_site_occupancy
  Ho  Ho0  1  0.296642  0.085158  0.376341  1
  Ho  Ho1  1  0.296448  0.911229  0.876113  1
  Ho  Ho2  1  0.708297  0.084045  0.877648  1
  Ho  Ho3  1  0.708283  0.915622  0.377428  1
  Ho  Ho4  1  0.587231  0.795188  0.874043  1
  Ho  Ho5  1  0.589851  0.203890  0.375758  1
  Ho  Ho6  1  0.414251  0.794728  0.378812  1
  Ho  Ho7  1  0.415422  0.202530  0.874832  1
  Ho  Ho8  1  0.204253  0.418055  0.625845  1
  Ho  Ho9  1  0.205015  0.586030  0.120576  1
  Ho  Ho10  1  0.795739  0.410520  0.124667  1
  Ho  Ho11  1  0.796543  0.589798  0.625094  1
  Ho  Ho12  1  0.912820  0.705712  0.120568  1
  Ho  Ho13  1  0.912929  0.294390  0.620565  1
  Ho  Ho14  1  0.085004  0.706557  0.626351  1
  Ho  Ho15  1  0.081962  0.293483  0.126267  1
  Ho  Ho16  1  0.995561  0.000861  0.500047  1
  Ho  Ho17  1  0.995377  0.999007  0.999426  1
  Ho  Ho18  1  0.498478  0.501424  0.998548  1
  Ho  Ho19  1  0.498829  0.501784  0.500996  1
  Ir  Ir20  1  0.348345  0.652052  0.750327  1
  Ru  Ru21  1  0.847826  0.153450  0.249670  1
  Ru  Ru22  1  0.847848  0.846386  0.749300  1
  Ru  Ru23  1  0.499225  0.000611  0.125040  1
  Ru  Ru24  1  0.499204  0.000249  0.624059  1
  Ru  Ru25  1  0.999381  0.500246  0.876187  1
  Ru  Ru26  1  0.999345  0.499685  0.375215  1
  Pt  Pt27  1  0.154575  0.153704  0.750344  1
  Pt  Pt28  1  0.153933  0.846980  0.250434  1
  Pt  Pt29  1  0.651655  0.348591  0.749722  1
  Pt  Pt30  1  0.652506  0.651717  0.249640  1
  Pt  Pt31  1  0.347223  0.346318  0.250136  1
