# generated using pymatgen
data_Ti5Nb3Al15Ir7
_symmetry_space_group_name_H-M   'P 1'
_cell_length_a   8.67802300
_cell_length_b   8.67286499
_cell_length_c   8.67802206
_cell_angle_alpha   120.05577352
_cell_angle_beta   119.97788465
_cell_angle_gamma   89.98791203
_symmetry_Int_Tables_number   1
_chemical_formula_structural   Ti5Nb3Al15Ir7
_chemical_formula_sum   'Ti5 Nb3 Al15 Ir7'
_cell_volume   461.65093695
_cell_formula_units_Z   1
loop_
 _symmetry_equiv_pos_site_id
 _symmetry_equiv_pos_as_xyz
  1  'x, y, z'
loop_
 _atom_site_type_symbol
 _atom_site_label
 _atom_site_symmetry_multiplicity
 _atom_site_fract_x
 _atom_site_fract_y
 _atom_site_fract_z
 _atom_site_occupancy
  Ti  Ti0  1  0.218120  0.718009  0.926780  1
  Ti  Ti1  1  0.791229  0.718009  0.499888  1
  Ti  Ti2  1  0.782821  0.280190  0.497369  1
  Ti  Ti3  1  0.378958  0.124072  0.745113  1
  Ti  Ti4  1  0.378875  0.635615  0.256740  1
  Nb  Nb5  1  0.794315  0.293331  0.081331  1
  Nb  Nb6  1  0.212000  0.293331  0.499017  1
  Nb  Nb7  1  0.205937  0.704733  0.498797  1
  Al  Al8  1  0.992896  0.500560  0.507664  1
  Al  Al9  1  0.157986  0.339388  0.181399  1
  Al  Al10  1  0.157133  0.971612  0.814479  1
  Al  Al11  1  0.152565  0.343842  0.807700  1
  Al  Al12  1  0.536141  0.343842  0.191277  1
  Al  Al13  1  0.845444  0.652361  0.806918  1
  Al  Al14  1  0.843126  0.030077  0.186950  1
  Al  Al15  1  0.840642  0.657145  0.181894  1
  Al  Al16  1  0.475251  0.657145  0.816503  1
  Al  Al17  1  0.379712  0.121855  0.258960  1
  Al  Al18  1  0.862896  0.121855  0.742142  1
  Al  Al19  1  0.620929  0.878312  0.257382  1
  Al  Al20  1  0.621250  0.364607  0.743356  1
  Al  Al21  1  0.621745  0.878508  0.743627  1
  Al  Al22  1  0.134880  0.878508  0.256764  1
  Ir  Ir23  1  0.997785  0.998464  0.499798  1
  Ir  Ir24  1  0.498666  0.998464  0.000679  1
  Ir  Ir25  1  0.498063  0.500616  0.002553  1
  Ir  Ir26  1  0.500729  0.499432  0.498129  1
  Ir  Ir27  1  0.001304  0.499432  0.998704  1
  Ir  Ir28  1  0.000097  0.997056  0.996959  1
  Ir  Ir29  1  0.498500  0.999629  0.501129  1
