# generated using pymatgen
data_Ho4MnAl6Rh
_symmetry_space_group_name_H-M   'P 1'
_cell_length_a   5.53835100
_cell_length_b   5.53835154
_cell_length_c   8.72343100
_cell_angle_alpha   90.00000000
_cell_angle_beta   90.00000000
_cell_angle_gamma   120.00000273
_symmetry_Int_Tables_number   1
_chemical_formula_structural   Ho4MnAl6Rh
_chemical_formula_sum   'Ho4 Mn1 Al6 Rh1'
_cell_volume   231.72823040
_cell_formula_units_Z   1
loop_
 _symmetry_equiv_pos_site_id
 _symmetry_equiv_pos_as_xyz
  1  'x, y, z'
loop_
 _atom_site_type_symbol
 _atom_site_label
 _atom_site_symmetry_multiplicity
 _atom_site_fract_x
 _atom_site_fract_y
 _atom_site_fract_z
 _atom_site_occupancy
  Ho  Ho0  1  0.666668  0.333334  0.056263  1
  Ho  Ho1  1  0.666668  0.333334  0.443592  1
  Ho  Ho2  1  0.333333  0.666666  0.556408  1
  Ho  Ho3  1  0.333333  0.666666  0.943737  1
  Mn  Mn4  1  0.000000  0.000000  0.000000  1
  Al  Al5  1  0.163427  0.326852  0.250286  1
  Al  Al6  1  0.163428  0.836573  0.250286  1
  Al  Al7  1  0.673147  0.836573  0.250286  1
  Al  Al8  1  0.326852  0.163427  0.749714  1
  Al  Al9  1  0.836573  0.163427  0.749714  1
  Al  Al10  1  0.836574  0.673148  0.749714  1
  Rh  Rh11  1  0.000000  0.000000  0.500000  1
