# generated using pymatgen
data_Sc6MoAs2
_symmetry_space_group_name_H-M   'P 1'
_cell_length_a   7.35635057
_cell_length_b   4.02762500
_cell_length_c   7.35634500
_cell_angle_alpha   90.00000000
_cell_angle_beta   120.00001516
_cell_angle_gamma   90.00000000
_symmetry_Int_Tables_number   1
_chemical_formula_structural   Sc6MoAs2
_chemical_formula_sum   'Sc6 Mo1 As2'
_cell_volume   188.75744910
_cell_formula_units_Z   1
loop_
 _symmetry_equiv_pos_site_id
 _symmetry_equiv_pos_as_xyz
  1  'x, y, z'
loop_
 _atom_site_type_symbol
 _atom_site_label
 _atom_site_symmetry_multiplicity
 _atom_site_fract_x
 _atom_site_fract_y
 _atom_site_fract_z
 _atom_site_occupancy
  Sc  Sc0  1  0.406755  0.000000  0.000000  1
  Sc  Sc1  1  0.752835  0.499999  0.000000  1
  Sc  Sc2  1  0.247163  0.499999  0.247127  1
  Sc  Sc3  1  0.999981  0.000000  0.406754  1
  Sc  Sc4  1  0.593226  0.000000  0.593245  1
  Sc  Sc5  1  0.000036  0.499999  0.752871  1
  Mo  Mo6  1  0.999999  0.000000  0.000000  1
  As  As7  1  0.666668  0.499999  0.333336  1
  As  As8  1  0.333331  0.499999  0.666662  1
