# generated using pymatgen
data_Zn20NiPd3Au2
_symmetry_space_group_name_H-M   'P 1'
_cell_length_a   7.95411162
_cell_length_b   7.95411205
_cell_length_c   7.92123845
_cell_angle_alpha   70.75610300
_cell_angle_beta   70.75610378
_cell_angle_gamma   109.44375135
_symmetry_Int_Tables_number   1
_chemical_formula_structural   Zn20NiPd3Au2
_chemical_formula_sum   'Zn20 Ni1 Pd3 Au2'
_cell_volume   388.07051449
_cell_formula_units_Z   1
loop_
 _symmetry_equiv_pos_site_id
 _symmetry_equiv_pos_as_xyz
  1  'x, y, z'
loop_
 _atom_site_type_symbol
 _atom_site_label
 _atom_site_symmetry_multiplicity
 _atom_site_fract_x
 _atom_site_fract_y
 _atom_site_fract_z
 _atom_site_occupancy
  Zn  Zn0  1  0.001675  0.001675  0.791013  1
  Zn  Zn1  1  0.779314  0.779314  0.226027  1
  Zn  Zn2  1  0.212729  0.000701  0.003208  1
  Zn  Zn3  1  0.000701  0.212729  0.003208  1
  Zn  Zn4  1  0.259243  0.259243  0.389106  1
  Zn  Zn5  1  0.003145  0.742105  0.643739  1
  Zn  Zn6  1  0.742105  0.003145  0.643739  1
  Zn  Zn7  1  0.657747  0.657747  0.623373  1
  Zn  Zn8  1  0.380140  0.645554  0.347779  1
  Zn  Zn9  1  0.645554  0.380140  0.347779  1
  Zn  Zn10  1  0.351549  0.731216  0.990479  1
  Zn  Zn11  1  0.611814  0.259262  0.734720  1
  Zn  Zn12  1  0.346559  0.005407  0.271124  1
  Zn  Zn13  1  0.731216  0.351549  0.990479  1
  Zn  Zn14  1  0.005407  0.346559  0.271124  1
  Zn  Zn15  1  0.259262  0.611814  0.734720  1
  Zn  Zn16  1  0.645188  0.645188  0.993789  1
  Zn  Zn17  1  0.004348  0.657623  0.349246  1
  Zn  Zn18  1  0.657623  0.004348  0.349246  1
  Zn  Zn19  1  0.353609  0.353609  0.008514  1
  Ni  Ni20  1  0.999495  0.999495  0.342065  1
  Pd  Pd21  1  0.357283  0.357283  0.656239  1
  Pd  Pd22  1  0.643367  0.988117  0.013030  1
  Pd  Pd23  1  0.988117  0.643367  0.013030  1
  Au  Au24  1  0.996629  0.366176  0.631612  1
  Au  Au25  1  0.366176  0.996629  0.631612  1
