# generated using pymatgen
data_GdDyHo4Ta2O14
_symmetry_space_group_name_H-M   'P 1'
_cell_length_a   6.48361546
_cell_length_b   6.48361532
_cell_length_c   7.47854602
_cell_angle_alpha   90.00754628
_cell_angle_beta   89.99245657
_cell_angle_gamma   108.62273782
_symmetry_Int_Tables_number   1
_chemical_formula_structural   GdDyHo4Ta2O14
_chemical_formula_sum   'Gd1 Dy1 Ho4 Ta2 O14'
_cell_volume   297.91738202
_cell_formula_units_Z   1
loop_
 _symmetry_equiv_pos_site_id
 _symmetry_equiv_pos_as_xyz
  1  'x, y, z'
loop_
 _atom_site_type_symbol
 _atom_site_label
 _atom_site_symmetry_multiplicity
 _atom_site_fract_x
 _atom_site_fract_y
 _atom_site_fract_z
 _atom_site_occupancy
  Gd  Gd0  1  0.469640  0.469640  0.000000  1
  Dy  Dy1  1  0.535979  0.535979  0.500000  1
  Ho  Ho2  1  0.000476  0.534921  0.242360  1
  Ho  Ho3  1  0.999628  0.465048  0.741058  1
  Ho  Ho4  1  0.534921  0.000476  0.757640  1
  Ho  Ho5  1  0.465048  0.999628  0.258942  1
  Ta  Ta6  1  0.002458  0.002458  0.500000  1
  Ta  Ta7  1  0.998029  0.998029  0.000000  1
  O  O8  1  0.931158  0.068649  0.750001  1
  O  O9  1  0.068649  0.931158  0.249999  1
  O  O10  1  0.358810  0.640925  0.252588  1
  O  O11  1  0.640925  0.358810  0.747412  1
  O  O12  1  0.369178  0.630956  0.746987  1
  O  O13  1  0.630956  0.369178  0.253013  1
  O  O14  1  0.327768  0.079242  0.974859  1
  O  O15  1  0.671390  0.917760  0.475166  1
  O  O16  1  0.308560  0.050555  0.544499  1
  O  O17  1  0.690478  0.948394  0.044453  1
  O  O18  1  0.050555  0.308560  0.455501  1
  O  O19  1  0.948394  0.690478  0.955547  1
  O  O20  1  0.917760  0.671390  0.524834  1
  O  O21  1  0.079242  0.327768  0.025141  1
