# generated using pymatgen
data_Tb2ZrPa(Al3Rh)6
_symmetry_space_group_name_H-M   'P 1'
_cell_length_a   7.56885060
_cell_length_b   7.54742805
_cell_length_c   9.38366100
_cell_angle_alpha   90.00000000
_cell_angle_beta   90.00000000
_cell_angle_gamma   119.43348720
_symmetry_Int_Tables_number   1
_chemical_formula_structural   Tb2ZrPa(Al3Rh)6
_chemical_formula_sum   'Tb2 Zr1 Pa1 Al18 Rh6'
_cell_volume   466.85590185
_cell_formula_units_Z   1
loop_
 _symmetry_equiv_pos_site_id
 _symmetry_equiv_pos_as_xyz
  1  'x, y, z'
loop_
 _atom_site_type_symbol
 _atom_site_label
 _atom_site_symmetry_multiplicity
 _atom_site_fract_x
 _atom_site_fract_y
 _atom_site_fract_z
 _atom_site_occupancy
  Tb  Tb0  1  0.671301  0.993186  0.250000  1
  Tb  Tb1  1  0.328688  0.005127  0.750000  1
  Zr  Zr2  1  0.005859  0.328518  0.750000  1
  Pa  Pa3  1  0.996282  0.673867  0.250000  1
  Al  Al4  1  0.132322  0.133401  0.250000  1
  Al  Al5  1  0.875449  0.879263  0.750000  1
  Al  Al6  1  0.999427  0.332988  0.069763  1
  Al  Al7  1  0.999293  0.660240  0.918587  1
  Al  Al8  1  0.999293  0.660240  0.581413  1
  Al  Al9  1  0.339371  0.004542  0.425233  1
  Al  Al10  1  0.999427  0.332988  0.430237  1
  Al  Al11  1  0.668689  0.003736  0.579100  1
  Al  Al12  1  0.668689  0.003736  0.920900  1
  Al  Al13  1  0.339371  0.004542  0.074767  1
  Al  Al14  1  0.328997  0.332129  0.557933  1
  Al  Al15  1  0.663371  0.665500  0.452710  1
  Al  Al16  1  0.663371  0.665500  0.047290  1
  Al  Al17  1  0.328997  0.332129  0.942067  1
  Al  Al18  1  0.337245  0.546544  0.250000  1
  Al  Al19  1  0.663797  0.447550  0.750000  1
  Al  Al20  1  0.549649  0.343464  0.250000  1
  Al  Al21  1  0.443051  0.655202  0.750000  1
  Rh  Rh22  1  0.672920  0.328951  0.000257  1
  Rh  Rh23  1  0.325762  0.672002  0.000762  1
  Rh  Rh24  1  0.325762  0.672002  0.499238  1
  Rh  Rh25  1  0.672920  0.328951  0.499743  1
  Rh  Rh26  1  0.000349  0.996851  0.001464  1
  Rh  Rh27  1  0.000349  0.996851  0.498536  1
