# generated using pymatgen
data_Ca2Y2HoAgPb3
_symmetry_space_group_name_H-M   'P 1'
_cell_length_a   9.34016419
_cell_length_b   9.34016337
_cell_length_c   6.84722900
_cell_angle_alpha   90.00000000
_cell_angle_beta   90.00000000
_cell_angle_gamma   119.97986905
_symmetry_Int_Tables_number   1
_chemical_formula_structural   Ca2Y2HoAgPb3
_chemical_formula_sum   'Ca4 Y4 Ho2 Ag2 Pb6'
_cell_volume   517.41918759
_cell_formula_units_Z   2
loop_
 _symmetry_equiv_pos_site_id
 _symmetry_equiv_pos_as_xyz
  1  'x, y, z'
loop_
 _atom_site_type_symbol
 _atom_site_label
 _atom_site_symmetry_multiplicity
 _atom_site_fract_x
 _atom_site_fract_y
 _atom_site_fract_z
 _atom_site_occupancy
  Ca  Ca0  1  0.666897  0.333412  0.500139  1
  Ca  Ca1  1  0.333412  0.666897  0.500139  1
  Ca  Ca2  1  0.333412  0.666897  0.999861  1
  Ca  Ca3  1  0.666897  0.333412  0.999861  1
  Y  Y4  1  0.729569  0.729569  0.250000  1
  Y  Y5  1  0.270208  0.000043  0.250000  1
  Y  Y6  1  0.000043  0.270208  0.250000  1
  Y  Y7  1  0.270627  0.270627  0.750000  1
  Ho  Ho8  1  0.730052  0.000160  0.750000  1
  Ho  Ho9  1  0.000160  0.730052  0.750000  1
  Ag  Ag10  1  0.999069  0.999069  0.501684  1
  Ag  Ag11  1  0.999069  0.999069  0.998316  1
  Pb  Pb12  1  0.379713  0.379713  0.250000  1
  Pb  Pb13  1  0.620432  0.000040  0.250000  1
  Pb  Pb14  1  0.000040  0.620432  0.250000  1
  Pb  Pb15  1  0.621083  0.621083  0.750000  1
  Pb  Pb16  1  0.379699  0.999618  0.750000  1
  Pb  Pb17  1  0.999618  0.379699  0.750000  1
