# generated using pymatgen
data_Ce6Dy2Al8Os7Ru
_symmetry_space_group_name_H-M   'P 1'
_cell_length_a   4.10780700
_cell_length_b   7.12536068
_cell_length_c   15.96130778
_cell_angle_alpha   90.44206346
_cell_angle_beta   90.00000000
_cell_angle_gamma   90.00000000
_symmetry_Int_Tables_number   1
_chemical_formula_structural   Ce6Dy2Al8Os7Ru
_chemical_formula_sum   'Ce6 Dy2 Al8 Os7 Ru1'
_cell_volume   467.16729208
_cell_formula_units_Z   1
loop_
 _symmetry_equiv_pos_site_id
 _symmetry_equiv_pos_as_xyz
  1  'x, y, z'
loop_
 _atom_site_type_symbol
 _atom_site_label
 _atom_site_symmetry_multiplicity
 _atom_site_fract_x
 _atom_site_fract_y
 _atom_site_fract_z
 _atom_site_occupancy
  Ce  Ce0  1  0.750000  0.833113  0.438331  1
  Ce  Ce1  1  0.750000  0.461334  0.280866  1
  Ce  Ce2  1  0.750000  0.331815  0.062043  1
  Ce  Ce3  1  0.250000  0.668973  0.938487  1
  Ce  Ce4  1  0.250000  0.043143  0.780685  1
  Ce  Ce5  1  0.250000  0.540360  0.718081  1
  Dy  Dy6  1  0.750000  0.960596  0.218568  1
  Dy  Dy7  1  0.250000  0.162534  0.560708  1
  Al  Al8  1  0.750000  0.494946  0.563017  1
  Al  Al9  1  0.750000  0.367837  0.850981  1
  Al  Al10  1  0.750000  0.002303  0.936406  1
  Al  Al11  1  0.750000  0.871121  0.649589  1
  Al  Al12  1  0.250000  0.490452  0.436613  1
  Al  Al13  1  0.250000  0.997400  0.066274  1
  Al  Al14  1  0.250000  0.636983  0.150290  1
  Al  Al15  1  0.250000  0.129681  0.346585  1
  Os  Os16  1  0.750000  0.744832  0.813115  1
  Os  Os17  1  0.250000  0.235183  0.935574  1
  Os  Os18  1  0.750000  0.261518  0.431112  1
  Os  Os19  1  0.250000  0.751083  0.319495  1
  Os  Os20  1  0.750000  0.762732  0.063422  1
  Os  Os21  1  0.750000  0.252481  0.689150  1
  Os  Os22  1  0.250000  0.266241  0.184896  1
  Ru  Ru23  1  0.250000  0.733337  0.565714  1
