# generated using pymatgen
data_Tb6Dy4(BiPb)3
_symmetry_space_group_name_H-M   'P 1'
_cell_length_a   9.17948200
_cell_length_b   9.17948198
_cell_length_c   6.50263000
_cell_angle_alpha   90.00000000
_cell_angle_beta   90.00000000
_cell_angle_gamma   120.00000730
_symmetry_Int_Tables_number   1
_chemical_formula_structural   Tb6Dy4(BiPb)3
_chemical_formula_sum   'Tb6 Dy4 Bi3 Pb3'
_cell_volume   474.52160545
_cell_formula_units_Z   1
loop_
 _symmetry_equiv_pos_site_id
 _symmetry_equiv_pos_as_xyz
  1  'x, y, z'
loop_
 _atom_site_type_symbol
 _atom_site_label
 _atom_site_symmetry_multiplicity
 _atom_site_fract_x
 _atom_site_fract_y
 _atom_site_fract_z
 _atom_site_occupancy
  Tb  Tb0  1  0.760079  0.760079  0.750000  1
  Tb  Tb1  1  0.239921  0.000000  0.750000  1
  Tb  Tb2  1  0.000000  0.239921  0.750000  1
  Tb  Tb3  1  0.239532  0.239532  0.250000  1
  Tb  Tb4  1  0.760468  0.000000  0.250000  1
  Tb  Tb5  1  0.000000  0.760468  0.250000  1
  Dy  Dy6  1  0.666667  0.333333  0.996979  1
  Dy  Dy7  1  0.333333  0.666667  0.996979  1
  Dy  Dy8  1  0.333333  0.666667  0.503021  1
  Dy  Dy9  1  0.666667  0.333333  0.503021  1
  Bi  Bi10  1  0.606339  0.606339  0.250000  1
  Bi  Bi11  1  0.393661  0.000000  0.250000  1
  Bi  Bi12  1  0.000000  0.393661  0.250000  1
  Pb  Pb13  1  0.392820  0.392820  0.750000  1
  Pb  Pb14  1  0.607180  0.000000  0.750000  1
  Pb  Pb15  1  0.000000  0.607180  0.750000  1
