# generated using pymatgen
data_Ac2As7Rh12
_symmetry_space_group_name_H-M   'P 1'
_cell_length_a   10.11431100
_cell_length_b   10.11431102
_cell_length_c   4.03318600
_cell_angle_alpha   90.00000000
_cell_angle_beta   90.00000000
_cell_angle_gamma   120.00000321
_symmetry_Int_Tables_number   1
_chemical_formula_structural   Ac2As7Rh12
_chemical_formula_sum   'Ac2 As7 Rh12'
_cell_volume   357.31518764
_cell_formula_units_Z   1
loop_
 _symmetry_equiv_pos_site_id
 _symmetry_equiv_pos_as_xyz
  1  'x, y, z'
loop_
 _atom_site_type_symbol
 _atom_site_label
 _atom_site_symmetry_multiplicity
 _atom_site_fract_x
 _atom_site_fract_y
 _atom_site_fract_z
 _atom_site_occupancy
  Ac  Ac0  1  0.333333  0.666667  0.252612  1
  Ac  Ac1  1  0.666667  0.333333  0.747388  1
  As  As2  1  0.000000  0.000000  0.500000  1
  As  As3  1  0.397297  0.109496  0.248335  1
  As  As4  1  0.712199  0.602703  0.248335  1
  As  As5  1  0.890504  0.287801  0.248335  1
  As  As6  1  0.602703  0.890504  0.751665  1
  As  As7  1  0.287801  0.397297  0.751665  1
  As  As8  1  0.109496  0.712199  0.751665  1
  Rh  Rh9  1  0.441820  0.380768  0.248449  1
  Rh  Rh10  1  0.938948  0.558180  0.248449  1
  Rh  Rh11  1  0.619232  0.061052  0.248449  1
  Rh  Rh12  1  0.558180  0.619232  0.751551  1
  Rh  Rh13  1  0.061052  0.441820  0.751551  1
  Rh  Rh14  1  0.380768  0.938948  0.751551  1
  Rh  Rh15  1  0.144874  0.884546  0.248727  1
  Rh  Rh16  1  0.739672  0.855126  0.248727  1
  Rh  Rh17  1  0.115454  0.260328  0.248727  1
  Rh  Rh18  1  0.855126  0.115454  0.751273  1
  Rh  Rh19  1  0.260328  0.144874  0.751273  1
  Rh  Rh20  1  0.884546  0.739672  0.751273  1
