# generated using pymatgen
data_Re(Br2F)2
_symmetry_space_group_name_H-M   'P 1'
_cell_length_a   5.98441300
_cell_length_b   11.52060300
_cell_length_c   12.70688900
_cell_angle_alpha   90.00000000
_cell_angle_beta   90.00000000
_cell_angle_gamma   90.00000000
_symmetry_Int_Tables_number   1
_chemical_formula_structural   Re(Br2F)2
_chemical_formula_sum   'Re4 Br16 F8'
_cell_volume   876.06434432
_cell_formula_units_Z   4
loop_
 _symmetry_equiv_pos_site_id
 _symmetry_equiv_pos_as_xyz
  1  'x, y, z'
loop_
 _atom_site_type_symbol
 _atom_site_label
 _atom_site_symmetry_multiplicity
 _atom_site_fract_x
 _atom_site_fract_y
 _atom_site_fract_z
 _atom_site_occupancy
  Re  Re0  1  0.062478  0.624908  0.746912  1
  Re  Re1  1  0.937522  0.375092  0.246912  1
  Re  Re2  1  0.562478  0.875092  0.246912  1
  Re  Re3  1  0.437522  0.124908  0.746912  1
  Br  Br4  1  0.269259  0.521041  0.608619  1
  Br  Br5  1  0.730741  0.478959  0.108619  1
  Br  Br6  1  0.769259  0.978959  0.108619  1
  Br  Br7  1  0.230741  0.021041  0.608619  1
  Br  Br8  1  0.264837  0.515912  0.883292  1
  Br  Br9  1  0.735163  0.484088  0.383292  1
  Br  Br10  1  0.764837  0.984088  0.383292  1
  Br  Br11  1  0.235163  0.015912  0.883292  1
  Br  Br12  1  0.855428  0.730041  0.883874  1
  Br  Br13  1  0.144572  0.269959  0.383874  1
  Br  Br14  1  0.355428  0.769959  0.383874  1
  Br  Br15  1  0.644572  0.230041  0.883874  1
  Br  Br16  1  0.859956  0.734828  0.611393  1
  Br  Br17  1  0.140044  0.265172  0.111393  1
  Br  Br18  1  0.359956  0.765172  0.111393  1
  Br  Br19  1  0.640044  0.234828  0.611393  1
  F  F20  1  0.841681  0.509529  0.744407  1
  F  F21  1  0.158319  0.490471  0.244407  1
  F  F22  1  0.341681  0.990471  0.244407  1
  F  F23  1  0.658319  0.009529  0.744407  1
  F  F24  1  0.285866  0.739553  0.749404  1
  F  F25  1  0.714134  0.260447  0.249404  1
  F  F26  1  0.785866  0.760447  0.249404  1
  F  F27  1  0.214134  0.239553  0.749404  1
