# generated using pymatgen
data_Lu4Fe3TcOs4
_symmetry_space_group_name_H-M   'P 1'
_cell_length_a   5.21272007
_cell_length_b   5.18702935
_cell_length_c   8.67277300
_cell_angle_alpha   90.00000000
_cell_angle_beta   90.00000000
_cell_angle_gamma   120.77093705
_symmetry_Int_Tables_number   1
_chemical_formula_structural   Lu4Fe3TcOs4
_chemical_formula_sum   'Lu4 Fe3 Tc1 Os4'
_cell_volume   201.48616062
_cell_formula_units_Z   1
loop_
 _symmetry_equiv_pos_site_id
 _symmetry_equiv_pos_as_xyz
  1  'x, y, z'
loop_
 _atom_site_type_symbol
 _atom_site_label
 _atom_site_symmetry_multiplicity
 _atom_site_fract_x
 _atom_site_fract_y
 _atom_site_fract_z
 _atom_site_occupancy
  Lu  Lu0  1  0.331934  0.668564  0.435126  1
  Lu  Lu1  1  0.665771  0.336174  0.561610  1
  Lu  Lu2  1  0.665771  0.336174  0.938390  1
  Lu  Lu3  1  0.331934  0.668564  0.064874  1
  Fe  Fe4  1  0.169367  0.828709  0.750000  1
  Fe  Fe5  1  0.343493  0.167097  0.250000  1
  Fe  Fe6  1  0.831613  0.655574  0.250000  1
  Tc  Tc7  1  0.171432  0.336935  0.750000  1
  Os  Os8  1  0.657501  0.825554  0.750000  1
  Os  Os9  1  0.000965  0.003952  0.004960  1
  Os  Os10  1  0.829255  0.168751  0.250000  1
  Os  Os11  1  0.000965  0.003952  0.495040  1
