# generated using pymatgen
data_Eu2Pa(SnRh)3
_symmetry_space_group_name_H-M   'P 1'
_cell_length_a   7.69250490
_cell_length_b   7.82054673
_cell_length_c   3.92625700
_cell_angle_alpha   90.00000000
_cell_angle_beta   90.00000000
_cell_angle_gamma   120.55216439
_symmetry_Int_Tables_number   1
_chemical_formula_structural   Eu2Pa(SnRh)3
_chemical_formula_sum   'Eu2 Pa1 Sn3 Rh3'
_cell_volume   203.40932522
_cell_formula_units_Z   1
loop_
 _symmetry_equiv_pos_site_id
 _symmetry_equiv_pos_as_xyz
  1  'x, y, z'
loop_
 _atom_site_type_symbol
 _atom_site_label
 _atom_site_symmetry_multiplicity
 _atom_site_fract_x
 _atom_site_fract_y
 _atom_site_fract_z
 _atom_site_occupancy
  Eu  Eu0  1  0.593156  0.589857  0.000000  1
  Eu  Eu1  1  0.406844  0.996701  0.000000  1
  Pa  Pa2  1  0.000000  0.413672  0.000000  1
  Sn  Sn3  1  0.264352  0.255055  0.500000  1
  Sn  Sn4  1  0.000000  0.760648  0.500000  1
  Sn  Sn5  1  0.735648  0.990703  0.500000  1
  Rh  Rh6  1  0.721870  0.343767  0.500000  1
  Rh  Rh7  1  0.278130  0.621898  0.500000  1
  Rh  Rh8  1  0.000000  0.027697  0.000000  1
