# generated using pymatgen
data_Yb5Pr2Ni4Sn13
_symmetry_space_group_name_H-M   'P 1'
_cell_length_a   11.21814100
_cell_length_b   11.21814100
_cell_length_c   4.56469100
_cell_angle_alpha   90.00000000
_cell_angle_beta   90.00000000
_cell_angle_gamma   90.00000000
_symmetry_Int_Tables_number   1
_chemical_formula_structural   Yb5Pr2Ni4Sn13
_chemical_formula_sum   'Yb5 Pr2 Ni4 Sn13'
_cell_volume   574.45124179
_cell_formula_units_Z   1
loop_
 _symmetry_equiv_pos_site_id
 _symmetry_equiv_pos_as_xyz
  1  'x, y, z'
loop_
 _atom_site_type_symbol
 _atom_site_label
 _atom_site_symmetry_multiplicity
 _atom_site_fract_x
 _atom_site_fract_y
 _atom_site_fract_z
 _atom_site_occupancy
  Yb  Yb0  1  0.000000  0.000000  0.000000  1
  Yb  Yb1  1  0.337645  0.671522  0.500000  1
  Yb  Yb2  1  0.662355  0.328478  0.500000  1
  Yb  Yb3  1  0.328478  0.337645  0.500000  1
  Yb  Yb4  1  0.671522  0.662355  0.500000  1
  Pr  Pr5  1  0.500000  0.000000  0.500000  1
  Pr  Pr6  1  0.000000  0.500000  0.500000  1
  Ni  Ni7  1  0.120299  0.723563  0.000000  1
  Ni  Ni8  1  0.879701  0.276437  0.000000  1
  Ni  Ni9  1  0.276437  0.120299  0.000000  1
  Ni  Ni10  1  0.723563  0.879701  0.000000  1
  Sn  Sn11  1  0.284875  0.888954  0.000000  1
  Sn  Sn12  1  0.715125  0.111046  0.000000  1
  Sn  Sn13  1  0.111046  0.284875  0.000000  1
  Sn  Sn14  1  0.888954  0.715125  0.000000  1
  Sn  Sn15  1  0.075447  0.809213  0.500000  1
  Sn  Sn16  1  0.924553  0.190787  0.500000  1
  Sn  Sn17  1  0.190787  0.075447  0.500000  1
  Sn  Sn18  1  0.809213  0.924553  0.500000  1
  Sn  Sn19  1  0.518972  0.783067  0.000000  1
  Sn  Sn20  1  0.481028  0.216933  0.000000  1
  Sn  Sn21  1  0.216933  0.518972  0.000000  1
  Sn  Sn22  1  0.783067  0.481028  0.000000  1
  Sn  Sn23  1  0.500000  0.500000  0.000000  1
