# generated using pymatgen
data_U6ZnCo12SiB4
_symmetry_space_group_name_H-M   'P 1'
_cell_length_a   5.14554900
_cell_length_b   5.14554862
_cell_length_c   13.19445100
_cell_angle_alpha   90.00000000
_cell_angle_beta   90.00000000
_cell_angle_gamma   119.99999602
_symmetry_Int_Tables_number   1
_chemical_formula_structural   U6ZnCo12SiB4
_chemical_formula_sum   'U6 Zn1 Co12 Si1 B4'
_cell_volume   302.54179424
_cell_formula_units_Z   1
loop_
 _symmetry_equiv_pos_site_id
 _symmetry_equiv_pos_as_xyz
  1  'x, y, z'
loop_
 _atom_site_type_symbol
 _atom_site_label
 _atom_site_symmetry_multiplicity
 _atom_site_fract_x
 _atom_site_fract_y
 _atom_site_fract_z
 _atom_site_occupancy
  U  U0  1  0.333333  0.666667  0.249196  1
  U  U1  1  0.666667  0.333333  0.750804  1
  U  U2  1  0.333333  0.666667  0.036435  1
  U  U3  1  0.666667  0.333333  0.540112  1
  U  U4  1  0.666667  0.333333  0.963565  1
  U  U5  1  0.333333  0.666667  0.459888  1
  Zn  Zn6  1  0.000000  0.000000  0.000000  1
  Co  Co7  1  0.831425  0.662849  0.148395  1
  Co  Co8  1  0.166442  0.833558  0.642686  1
  Co  Co9  1  0.667116  0.833558  0.642686  1
  Co  Co10  1  0.337151  0.168575  0.148395  1
  Co  Co11  1  0.831425  0.168575  0.148395  1
  Co  Co12  1  0.168575  0.337151  0.851605  1
  Co  Co13  1  0.168575  0.831425  0.851605  1
  Co  Co14  1  0.166442  0.332884  0.642686  1
  Co  Co15  1  0.662849  0.831425  0.851605  1
  Co  Co16  1  0.332884  0.166442  0.357314  1
  Co  Co17  1  0.833558  0.667116  0.357314  1
  Co  Co18  1  0.833558  0.166442  0.357314  1
  Si  Si19  1  0.000000  0.000000  0.500000  1
  B  B20  1  0.000000  0.000000  0.250865  1
  B  B21  1  0.000000  0.000000  0.749135  1
  B  B22  1  0.333333  0.666667  0.747154  1
  B  B23  1  0.666667  0.333333  0.252846  1
