# generated using pymatgen
data_Ce2Tm3Ru2
_symmetry_space_group_name_H-M   'P 1'
_cell_length_a   6.33293590
_cell_length_b   7.00173196
_cell_length_c   8.71393193
_cell_angle_alpha   95.75572439
_cell_angle_beta   111.30791697
_cell_angle_gamma   90.00000203
_symmetry_Int_Tables_number   1
_chemical_formula_structural   Ce2Tm3Ru2
_chemical_formula_sum   'Ce4 Tm6 Ru4'
_cell_volume   357.88411096
_cell_formula_units_Z   2
loop_
 _symmetry_equiv_pos_site_id
 _symmetry_equiv_pos_as_xyz
  1  'x, y, z'
loop_
 _atom_site_type_symbol
 _atom_site_label
 _atom_site_symmetry_multiplicity
 _atom_site_fract_x
 _atom_site_fract_y
 _atom_site_fract_z
 _atom_site_occupancy
  Ce  Ce0  1  0.788266  0.094708  0.808884  1
  Ce  Ce1  1  0.979382  0.405292  0.191116  1
  Ce  Ce2  1  0.211734  0.905292  0.191116  1
  Ce  Ce3  1  0.020618  0.594708  0.808884  1
  Tm  Tm4  1  0.206017  0.184983  0.566352  1
  Tm  Tm5  1  0.639665  0.315017  0.433648  1
  Tm  Tm6  1  0.793983  0.815017  0.433648  1
  Tm  Tm7  1  0.360335  0.684983  0.566352  1
  Tm  Tm8  1  0.417845  0.250000  0.000000  1
  Tm  Tm9  1  0.582155  0.750000  0.000000  1
  Ru  Ru10  1  0.623452  0.407060  0.778279  1
  Ru  Ru11  1  0.845172  0.092940  0.221721  1
  Ru  Ru12  1  0.376548  0.592940  0.221721  1
  Ru  Ru13  1  0.154828  0.907060  0.778279  1
