# generated using pymatgen
data_Tb3ThMgCo
_symmetry_space_group_name_H-M   'P 1'
_cell_length_a   9.68171686
_cell_length_b   9.68171580
_cell_length_c   9.68171700
_cell_angle_alpha   59.99999931
_cell_angle_beta   60.00000293
_cell_angle_gamma   60.00000425
_symmetry_Int_Tables_number   1
_chemical_formula_structural   Tb3ThMgCo
_chemical_formula_sum   'Tb12 Th4 Mg4 Co4'
_cell_volume   641.71488761
_cell_formula_units_Z   4
loop_
 _symmetry_equiv_pos_site_id
 _symmetry_equiv_pos_as_xyz
  1  'x, y, z'
loop_
 _atom_site_type_symbol
 _atom_site_label
 _atom_site_symmetry_multiplicity
 _atom_site_fract_x
 _atom_site_fract_y
 _atom_site_fract_z
 _atom_site_occupancy
  Tb  Tb0  1  0.813007  0.186993  0.186993  1
  Tb  Tb1  1  0.186993  0.813007  0.813007  1
  Tb  Tb2  1  0.186993  0.813007  0.186993  1
  Tb  Tb3  1  0.813007  0.186993  0.813007  1
  Tb  Tb4  1  0.186993  0.186993  0.813007  1
  Tb  Tb5  1  0.813007  0.813007  0.186993  1
  Tb  Tb6  1  0.935763  0.564237  0.564237  1
  Tb  Tb7  1  0.564237  0.935763  0.935763  1
  Tb  Tb8  1  0.564237  0.935763  0.564237  1
  Tb  Tb9  1  0.935763  0.564237  0.935763  1
  Tb  Tb10  1  0.564237  0.564237  0.935763  1
  Tb  Tb11  1  0.935763  0.935763  0.564237  1
  Th  Th12  1  0.343817  0.343817  0.343817  1
  Th  Th13  1  0.343817  0.343817  0.968551  1
  Th  Th14  1  0.343817  0.968551  0.343817  1
  Th  Th15  1  0.968551  0.343817  0.343817  1
  Mg  Mg16  1  0.579803  0.579803  0.579803  1
  Mg  Mg17  1  0.579803  0.579803  0.260590  1
  Mg  Mg18  1  0.579803  0.260590  0.579803  1
  Mg  Mg19  1  0.260590  0.579803  0.579803  1
  Co  Co20  1  0.145531  0.145531  0.145531  1
  Co  Co21  1  0.145531  0.145531  0.563406  1
  Co  Co22  1  0.145531  0.563406  0.145531  1
  Co  Co23  1  0.563406  0.145531  0.145531  1
