# generated using pymatgen
data_Tb2Dy(In2Ru)2
_symmetry_space_group_name_H-M   'P 1'
_cell_length_a   8.05212600
_cell_length_b   8.05276905
_cell_length_c   3.66049200
_cell_angle_alpha   90.00000000
_cell_angle_beta   90.00000000
_cell_angle_gamma   119.99388878
_symmetry_Int_Tables_number   1
_chemical_formula_structural   Tb2Dy(In2Ru)2
_chemical_formula_sum   'Tb2 Dy1 In4 Ru2'
_cell_volume   205.56664176
_cell_formula_units_Z   1
loop_
 _symmetry_equiv_pos_site_id
 _symmetry_equiv_pos_as_xyz
  1  'x, y, z'
loop_
 _atom_site_type_symbol
 _atom_site_label
 _atom_site_symmetry_multiplicity
 _atom_site_fract_x
 _atom_site_fract_y
 _atom_site_fract_z
 _atom_site_occupancy
  Tb  Tb0  1  0.040850  0.294333  0.500000  1
  Tb  Tb1  1  0.705675  0.746498  0.500000  1
  Dy  Dy2  1  0.253482  0.959255  0.500000  1
  In  In3  1  0.664754  0.067839  0.000000  1
  In  In4  1  0.932224  0.597029  0.000000  1
  In  In5  1  0.402998  0.335076  0.000000  1
  In  In6  1  0.333297  0.666724  0.000000  1
  Ru  Ru7  1  0.666613  0.333272  0.500000  1
  Ru  Ru8  1  0.000108  0.999974  0.000000  1
