# generated using pymatgen
data_Np2Cr3P7Ir9
_symmetry_space_group_name_H-M   'P 1'
_cell_length_a   9.59074000
_cell_length_b   9.59073958
_cell_length_c   3.95705900
_cell_angle_alpha   90.00000000
_cell_angle_beta   90.00000000
_cell_angle_gamma   120.00000144
_symmetry_Int_Tables_number   1
_chemical_formula_structural   Np2Cr3P7Ir9
_chemical_formula_sum   'Np2 Cr3 P7 Ir9'
_cell_volume   315.21535683
_cell_formula_units_Z   1
loop_
 _symmetry_equiv_pos_site_id
 _symmetry_equiv_pos_as_xyz
  1  'x, y, z'
loop_
 _atom_site_type_symbol
 _atom_site_label
 _atom_site_symmetry_multiplicity
 _atom_site_fract_x
 _atom_site_fract_y
 _atom_site_fract_z
 _atom_site_occupancy
  Np  Np0  1  0.333333  0.666667  0.000000  1
  Np  Np1  1  0.000000  0.000000  0.500000  1
  Cr  Cr2  1  0.810125  0.234466  0.500000  1
  Cr  Cr3  1  0.765534  0.575660  0.500000  1
  Cr  Cr4  1  0.424340  0.189875  0.500000  1
  P  P5  1  0.787548  0.040584  0.000000  1
  P  P6  1  0.959416  0.746963  0.000000  1
  P  P7  1  0.253037  0.212452  0.000000  1
  P  P8  1  0.379797  0.930017  0.500000  1
  P  P9  1  0.069983  0.449782  0.500000  1
  P  P10  1  0.550218  0.620203  0.500000  1
  P  P11  1  0.666667  0.333333  0.000000  1
  Ir  Ir12  1  0.039005  0.266348  0.000000  1
  Ir  Ir13  1  0.733652  0.772657  0.000000  1
  Ir  Ir14  1  0.227343  0.960995  0.000000  1
  Ir  Ir15  1  0.557824  0.064576  0.000000  1
  Ir  Ir16  1  0.935424  0.493248  0.000000  1
  Ir  Ir17  1  0.506752  0.442176  0.000000  1
  Ir  Ir18  1  0.609744  0.890861  0.500000  1
  Ir  Ir19  1  0.109139  0.718881  0.500000  1
  Ir  Ir20  1  0.281119  0.390256  0.500000  1
