# generated using pymatgen
data_Tb4Ga18Co5Ni
_symmetry_space_group_name_H-M   'P 1'
_cell_length_a   7.39279219
_cell_length_b   7.39279190
_cell_length_c   9.41418623
_cell_angle_alpha   89.94569513
_cell_angle_beta   89.94569940
_cell_angle_gamma   119.83645169
_symmetry_Int_Tables_number   1
_chemical_formula_structural   Tb4Ga18Co5Ni
_chemical_formula_sum   'Tb4 Ga18 Co5 Ni1'
_cell_volume   446.31654937
_cell_formula_units_Z   1
loop_
 _symmetry_equiv_pos_site_id
 _symmetry_equiv_pos_as_xyz
  1  'x, y, z'
loop_
 _atom_site_type_symbol
 _atom_site_label
 _atom_site_symmetry_multiplicity
 _atom_site_fract_x
 _atom_site_fract_y
 _atom_site_fract_z
 _atom_site_occupancy
  Tb  Tb0  1  0.331875  0.003278  0.250312  1
  Tb  Tb1  1  0.996722  0.668125  0.749688  1
  Tb  Tb2  1  0.668125  0.996722  0.749688  1
  Tb  Tb3  1  0.003278  0.331875  0.250312  1
  Ga  Ga4  1  0.335752  0.999887  0.927064  1
  Ga  Ga5  1  0.000113  0.664248  0.072936  1
  Ga  Ga6  1  0.333910  0.999811  0.571917  1
  Ga  Ga7  1  0.000189  0.666090  0.428083  1
  Ga  Ga8  1  0.664248  0.000113  0.072936  1
  Ga  Ga9  1  0.999887  0.335752  0.927064  1
  Ga  Ga10  1  0.666090  0.000189  0.428083  1
  Ga  Ga11  1  0.999811  0.333910  0.571917  1
  Ga  Ga12  1  0.663703  0.663703  0.941836  1
  Ga  Ga13  1  0.336297  0.336297  0.058164  1
  Ga  Ga14  1  0.665942  0.665942  0.557383  1
  Ga  Ga15  1  0.334058  0.334058  0.442617  1
  Ga  Ga16  1  0.121994  0.121994  0.748520  1
  Ga  Ga17  1  0.878006  0.878006  0.251480  1
  Ga  Ga18  1  0.450093  0.664352  0.250036  1
  Ga  Ga19  1  0.335648  0.549907  0.749964  1
  Ga  Ga20  1  0.549907  0.335648  0.749964  1
  Ga  Ga21  1  0.664352  0.450093  0.250036  1
  Co  Co22  1  0.000000  0.000000  0.500000  1
  Co  Co23  1  0.328799  0.671201  0.000000  1
  Co  Co24  1  0.328767  0.671233  0.500000  1
  Co  Co25  1  0.671201  0.328799  0.000000  1
  Co  Co26  1  0.671233  0.328767  0.500000  1
  Ni  Ni27  1  0.000000  0.000000  0.000000  1
