# generated using pymatgen
data_Tm3Mg3Ge2Pt
_symmetry_space_group_name_H-M   'P 1'
_cell_length_a   7.15783700
_cell_length_b   7.15783803
_cell_length_c   4.28791200
_cell_angle_alpha   90.00000000
_cell_angle_beta   90.00000000
_cell_angle_gamma   120.00000911
_symmetry_Int_Tables_number   1
_chemical_formula_structural   Tm3Mg3Ge2Pt
_chemical_formula_sum   'Tm3 Mg3 Ge2 Pt1'
_cell_volume   190.25677318
_cell_formula_units_Z   1
loop_
 _symmetry_equiv_pos_site_id
 _symmetry_equiv_pos_as_xyz
  1  'x, y, z'
loop_
 _atom_site_type_symbol
 _atom_site_label
 _atom_site_symmetry_multiplicity
 _atom_site_fract_x
 _atom_site_fract_y
 _atom_site_fract_z
 _atom_site_occupancy
  Tm  Tm0  1  0.413672  0.000000  0.000000  1
  Tm  Tm1  1  0.000000  0.413672  0.000000  1
  Tm  Tm2  1  0.586328  0.586328  0.000000  1
  Mg  Mg3  1  0.759882  0.000000  0.499999  1
  Mg  Mg4  1  0.240118  0.240117  0.499999  1
  Mg  Mg5  1  0.000000  0.759883  0.499999  1
  Ge  Ge6  1  0.666666  0.333333  0.499999  1
  Ge  Ge7  1  0.333333  0.666667  0.499999  1
  Pt  Pt8  1  0.000000  0.000000  0.000000  1
