# generated using pymatgen
data_HoRe6BiO24
_symmetry_space_group_name_H-M   'P 1'
_cell_length_a   10.36006900
_cell_length_b   10.36006794
_cell_length_c   6.22706800
_cell_angle_alpha   90.00000000
_cell_angle_beta   90.00000000
_cell_angle_gamma   119.99999467
_symmetry_Int_Tables_number   1
_chemical_formula_structural   HoRe6BiO24
_chemical_formula_sum   'Ho1 Re6 Bi1 O24'
_cell_volume   578.81464972
_cell_formula_units_Z   1
loop_
 _symmetry_equiv_pos_site_id
 _symmetry_equiv_pos_as_xyz
  1  'x, y, z'
loop_
 _atom_site_type_symbol
 _atom_site_label
 _atom_site_symmetry_multiplicity
 _atom_site_fract_x
 _atom_site_fract_y
 _atom_site_fract_z
 _atom_site_occupancy
  Ho  Ho0  1  0.666667  0.333333  0.750000  1
  Re  Re1  1  0.084844  0.393278  0.750000  1
  Re  Re2  1  0.401041  0.304217  0.250000  1
  Re  Re3  1  0.606722  0.691565  0.750000  1
  Re  Re4  1  0.903175  0.598959  0.250000  1
  Re  Re5  1  0.308435  0.915156  0.750000  1
  Re  Re6  1  0.695783  0.096825  0.250000  1
  Bi  Bi7  1  0.333333  0.666667  0.250000  1
  O  O8  1  0.492217  0.646288  0.520407  1
  O  O9  1  0.353712  0.845929  0.520407  1
  O  O10  1  0.836938  0.722295  0.250000  1
  O  O11  1  0.120242  0.855333  0.750000  1
  O  O12  1  0.277705  0.114643  0.250000  1
  O  O13  1  0.144667  0.264909  0.750000  1
  O  O14  1  0.515065  0.351938  0.019439  1
  O  O15  1  0.885357  0.163062  0.250000  1
  O  O16  1  0.098694  0.697940  0.250000  1
  O  O17  1  0.154071  0.507783  0.979593  1
  O  O18  1  0.154071  0.507783  0.520407  1
  O  O19  1  0.889406  0.302057  0.750000  1
  O  O20  1  0.302060  0.400756  0.250000  1
  O  O21  1  0.697943  0.587349  0.750000  1
  O  O22  1  0.836874  0.484935  0.480561  1
  O  O23  1  0.412651  0.110594  0.750000  1
  O  O24  1  0.648062  0.163126  0.019439  1
  O  O25  1  0.492217  0.646288  0.979593  1
  O  O26  1  0.353712  0.845929  0.979593  1
  O  O27  1  0.648062  0.163126  0.480561  1
  O  O28  1  0.515065  0.351938  0.480561  1
  O  O29  1  0.836874  0.484935  0.019439  1
  O  O30  1  0.735091  0.879758  0.750000  1
  O  O31  1  0.599244  0.901306  0.250000  1
