# generated using pymatgen
data_YbNp5(TiSb5)2
_symmetry_space_group_name_H-M   'P 1'
_cell_length_a   9.26544721
_cell_length_b   9.17740445
_cell_length_c   6.13558900
_cell_angle_alpha   90.00000000
_cell_angle_beta   90.00000000
_cell_angle_gamma   119.94702885
_symmetry_Int_Tables_number   1
_chemical_formula_structural   YbNp5(TiSb5)2
_chemical_formula_sum   'Yb1 Np5 Ti2 Sb10'
_cell_volume   452.06898868
_cell_formula_units_Z   1
loop_
 _symmetry_equiv_pos_site_id
 _symmetry_equiv_pos_as_xyz
  1  'x, y, z'
loop_
 _atom_site_type_symbol
 _atom_site_label
 _atom_site_symmetry_multiplicity
 _atom_site_fract_x
 _atom_site_fract_y
 _atom_site_fract_z
 _atom_site_occupancy
  Yb  Yb0  1  0.383706  0.001664  0.750000  1
  Np  Np1  1  0.384743  0.380389  0.250000  1
  Np  Np2  1  0.001254  0.616672  0.250000  1
  Np  Np3  1  0.001348  0.388320  0.750000  1
  Np  Np4  1  0.610591  0.612479  0.750000  1
  Np  Np5  1  0.617043  0.999592  0.250000  1
  Ti  Ti6  1  0.999701  0.000472  0.996918  1
  Ti  Ti7  1  0.999701  0.000472  0.503082  1
  Sb  Sb8  1  0.672551  0.336489  0.498716  1
  Sb  Sb9  1  0.332936  0.665040  0.001338  1
  Sb  Sb10  1  0.740777  0.001254  0.750000  1
  Sb  Sb11  1  0.742770  0.739566  0.250000  1
  Sb  Sb12  1  0.332936  0.665040  0.498662  1
  Sb  Sb13  1  0.672551  0.336489  0.001284  1
  Sb  Sb14  1  0.253087  0.995283  0.250000  1
  Sb  Sb15  1  0.257559  0.261446  0.750000  1
  Sb  Sb16  1  0.996114  0.736935  0.750000  1
  Sb  Sb17  1  0.000635  0.262398  0.250000  1
