# generated using pymatgen
data_Ce2Sm4OsI10
_symmetry_space_group_name_H-M   'P 1'
_cell_length_a   7.94428475
_cell_length_b   9.99094896
_cell_length_c   9.89568000
_cell_angle_alpha   107.30103199
_cell_angle_beta   96.62537217
_cell_angle_gamma   105.30265768
_symmetry_Int_Tables_number   1
_chemical_formula_structural   Ce2Sm4OsI10
_chemical_formula_sum   'Ce2 Sm4 Os1 I10'
_cell_volume   707.09692754
_cell_formula_units_Z   1
loop_
 _symmetry_equiv_pos_site_id
 _symmetry_equiv_pos_as_xyz
  1  'x, y, z'
loop_
 _atom_site_type_symbol
 _atom_site_label
 _atom_site_symmetry_multiplicity
 _atom_site_fract_x
 _atom_site_fract_y
 _atom_site_fract_z
 _atom_site_occupancy
  Ce  Ce0  1  0.388067  0.959644  0.727164  1
  Ce  Ce1  1  0.611933  0.040356  0.272836  1
  Sm  Sm2  1  0.470495  0.293476  0.590321  1
  Sm  Sm3  1  0.529505  0.706524  0.409679  1
  Sm  Sm4  1  0.858265  0.131257  0.674110  1
  Sm  Sm5  1  0.141735  0.868743  0.325890  1
  Os  Os6  1  0.500000  0.000000  0.500000  1
  I  I7  1  0.415205  0.629804  0.678118  1
  I  I8  1  0.584795  0.370196  0.321882  1
  I  I9  1  0.287294  0.262808  0.850138  1
  I  I10  1  0.712706  0.737192  0.149862  1
  I  I11  1  0.855319  0.454721  0.772488  1
  I  I12  1  0.144681  0.545279  0.227512  1
  I  I13  1  0.046456  0.181692  0.411154  1
  I  I14  1  0.238613  0.912485  0.040517  1
  I  I15  1  0.761387  0.087515  0.959483  1
  I  I16  1  0.953544  0.818308  0.588846  1
