# generated using pymatgen
data_NdGd16Tm3Sn16
_symmetry_space_group_name_H-M   'P 1'
_cell_length_a   8.04102215
_cell_length_b   8.19374675
_cell_length_c   15.51296100
_cell_angle_alpha   89.98060946
_cell_angle_beta   89.75394373
_cell_angle_gamma   90.13353764
_symmetry_Int_Tables_number   1
_chemical_formula_structural   NdGd16Tm3Sn16
_chemical_formula_sum   'Nd1 Gd16 Tm3 Sn16'
_cell_volume   1022.07622295
_cell_formula_units_Z   1
loop_
 _symmetry_equiv_pos_site_id
 _symmetry_equiv_pos_as_xyz
  1  'x, y, z'
loop_
 _atom_site_type_symbol
 _atom_site_label
 _atom_site_symmetry_multiplicity
 _atom_site_fract_x
 _atom_site_fract_y
 _atom_site_fract_z
 _atom_site_occupancy
  Nd  Nd0  1  0.516200  0.319808  0.403307  1
  Gd  Gd1  1  0.019166  0.178702  0.403138  1
  Gd  Gd2  1  0.366302  0.837797  0.121499  1
  Gd  Gd3  1  0.136007  0.337185  0.622157  1
  Gd  Gd4  1  0.480657  0.679722  0.904040  1
  Gd  Gd5  1  0.866481  0.662046  0.122380  1
  Gd  Gd6  1  0.133752  0.338125  0.878799  1
  Gd  Gd7  1  0.482547  0.681226  0.595917  1
  Gd  Gd8  1  0.635576  0.162107  0.621505  1
  Gd  Gd9  1  0.803888  0.497164  0.750652  1
  Gd  Gd10  1  0.864351  0.662406  0.376699  1
  Gd  Gd11  1  0.019181  0.179690  0.096265  1
  Gd  Gd12  1  0.980619  0.820391  0.903813  1
  Gd  Gd13  1  0.633689  0.161647  0.878767  1
  Gd  Gd14  1  0.520731  0.320751  0.098074  1
  Gd  Gd15  1  0.364869  0.837722  0.377792  1
  Gd  Gd16  1  0.981642  0.821014  0.596144  1
  Tm  Tm17  1  0.196411  0.502990  0.249281  1
  Tm  Tm18  1  0.696623  0.997140  0.249441  1
  Tm  Tm19  1  0.303059  0.003066  0.750395  1
  Sn  Sn20  1  0.799149  0.464585  0.542338  1
  Sn  Sn21  1  0.705547  0.961660  0.457023  1
  Sn  Sn22  1  0.671851  0.854703  0.750030  1
  Sn  Sn23  1  0.200273  0.539013  0.457709  1
  Sn  Sn24  1  0.294225  0.035640  0.957064  1
  Sn  Sn25  1  0.828519  0.350568  0.249753  1
  Sn  Sn26  1  0.793897  0.463309  0.958693  1
  Sn  Sn27  1  0.561374  0.618186  0.249699  1
  Sn  Sn28  1  0.206002  0.535732  0.043522  1
  Sn  Sn29  1  0.436226  0.381804  0.750047  1
  Sn  Sn30  1  0.175144  0.649226  0.749680  1
  Sn  Sn31  1  0.938209  0.115081  0.750037  1
  Sn  Sn32  1  0.295141  0.036702  0.542760  1
  Sn  Sn33  1  0.705947  0.963072  0.043171  1
  Sn  Sn34  1  0.324802  0.147113  0.248831  1
  Sn  Sn35  1  0.061946  0.882911  0.249578  1
