# generated using pymatgen
data_Ce4Nd7Ho5(CdIr)4
_symmetry_space_group_name_H-M   'P 1'
_cell_length_a   9.78999513
_cell_length_b   9.78999599
_cell_length_c   9.75378500
_cell_angle_alpha   60.12228261
_cell_angle_beta   60.12227973
_cell_angle_gamma   60.26888160
_symmetry_Int_Tables_number   1
_chemical_formula_structural   Ce4Nd7Ho5(CdIr)4
_chemical_formula_sum   'Ce4 Nd7 Ho5 Cd4 Ir4'
_cell_volume   663.59242016
_cell_formula_units_Z   1
loop_
 _symmetry_equiv_pos_site_id
 _symmetry_equiv_pos_as_xyz
  1  'x, y, z'
loop_
 _atom_site_type_symbol
 _atom_site_label
 _atom_site_symmetry_multiplicity
 _atom_site_fract_x
 _atom_site_fract_y
 _atom_site_fract_z
 _atom_site_occupancy
  Ce  Ce0  1  0.348800  0.348800  0.347898  1
  Ce  Ce1  1  0.348800  0.348800  0.954502  1
  Ce  Ce2  1  0.346445  0.953989  0.349782  1
  Ce  Ce3  1  0.953989  0.346445  0.349782  1
  Nd  Nd4  1  0.813657  0.813657  0.186343  1
  Nd  Nd5  1  0.944020  0.556546  0.560069  1
  Nd  Nd6  1  0.556546  0.944020  0.939365  1
  Nd  Nd7  1  0.556546  0.944020  0.560069  1
  Nd  Nd8  1  0.944020  0.556546  0.939365  1
  Nd  Nd9  1  0.559250  0.559250  0.940750  1
  Nd  Nd10  1  0.940519  0.940519  0.559481  1
  Ho  Ho11  1  0.813146  0.188535  0.185933  1
  Ho  Ho12  1  0.188535  0.813146  0.812386  1
  Ho  Ho13  1  0.188535  0.813146  0.185933  1
  Ho  Ho14  1  0.813146  0.188535  0.812386  1
  Ho  Ho15  1  0.185243  0.185243  0.814757  1
  Cd  Cd16  1  0.578914  0.578914  0.580716  1
  Cd  Cd17  1  0.578914  0.578914  0.261456  1
  Cd  Cd18  1  0.580275  0.260771  0.579476  1
  Cd  Cd19  1  0.260771  0.580275  0.579476  1
  Ir  Ir20  1  0.142035  0.142035  0.144083  1
  Ir  Ir21  1  0.142035  0.142035  0.571845  1
  Ir  Ir22  1  0.148122  0.567733  0.142071  1
  Ir  Ir23  1  0.567733  0.148122  0.142071  1
