# generated using pymatgen
data_Zr4Mn3Ga2Os3
_symmetry_space_group_name_H-M   'P 1'
_cell_length_a   5.13789027
_cell_length_b   5.08476315
_cell_length_c   8.53932500
_cell_angle_alpha   90.00000000
_cell_angle_beta   90.00000000
_cell_angle_gamma   118.98006029
_symmetry_Int_Tables_number   1
_chemical_formula_structural   Zr4Mn3Ga2Os3
_chemical_formula_sum   'Zr4 Mn3 Ga2 Os3'
_cell_volume   195.15608549
_cell_formula_units_Z   1
loop_
 _symmetry_equiv_pos_site_id
 _symmetry_equiv_pos_as_xyz
  1  'x, y, z'
loop_
 _atom_site_type_symbol
 _atom_site_label
 _atom_site_symmetry_multiplicity
 _atom_site_fract_x
 _atom_site_fract_y
 _atom_site_fract_z
 _atom_site_occupancy
  Zr  Zr0  1  0.324144  0.667138  0.444162  1
  Zr  Zr1  1  0.664818  0.333209  0.566328  1
  Zr  Zr2  1  0.664818  0.333209  0.933672  1
  Zr  Zr3  1  0.324144  0.667138  0.055838  1
  Mn  Mn4  1  0.841254  0.162806  0.250000  1
  Mn  Mn5  1  0.170747  0.830243  0.750000  1
  Mn  Mn6  1  0.171003  0.339490  0.750000  1
  Ga  Ga7  1  0.831656  0.656912  0.250000  1
  Ga  Ga8  1  0.346992  0.168996  0.250000  1
  Os  Os9  1  0.003222  0.006673  0.503883  1
  Os  Os10  1  0.003222  0.006673  0.996117  1
  Os  Os11  1  0.653982  0.827511  0.750000  1
