# generated using pymatgen
data_RbMn(CO3)2
_symmetry_space_group_name_H-M   'P 1'
_cell_length_a   6.46487954
_cell_length_b   6.46460644
_cell_length_c   6.91301722
_cell_angle_alpha   106.19488609
_cell_angle_beta   106.19918378
_cell_angle_gamma   94.33089295
_symmetry_Int_Tables_number   1
_chemical_formula_structural   RbMn(CO3)2
_chemical_formula_sum   'Rb2 Mn2 C4 O12'
_cell_volume   262.72674812
_cell_formula_units_Z   2
loop_
 _symmetry_equiv_pos_site_id
 _symmetry_equiv_pos_as_xyz
  1  'x, y, z'
loop_
 _atom_site_type_symbol
 _atom_site_label
 _atom_site_symmetry_multiplicity
 _atom_site_fract_x
 _atom_site_fract_y
 _atom_site_fract_z
 _atom_site_occupancy
  Rb  Rb0  1  0.896735  0.103266  0.250003  1
  Rb  Rb1  1  0.103265  0.896734  0.749997  1
  Mn  Mn2  1  0.346213  0.653795  0.249990  1
  Mn  Mn3  1  0.653787  0.346205  0.750010  1
  C  C4  1  0.400668  0.191839  0.297315  1
  C  C5  1  0.808178  0.599344  0.202704  1
  C  C6  1  0.191822  0.400656  0.797297  1
  C  C7  1  0.599332  0.808161  0.702686  1
  O  O8  1  0.720008  0.412648  0.051739  1
  O  O9  1  0.292130  0.313427  0.200166  1
  O  O10  1  0.327528  0.986771  0.235350  1
  O  O11  1  0.013252  0.672467  0.264645  1
  O  O12  1  0.686571  0.707887  0.299824  1
  O  O13  1  0.587332  0.279998  0.448323  1
  O  O14  1  0.412667  0.720002  0.551677  1
  O  O15  1  0.313428  0.292113  0.700177  1
  O  O16  1  0.986748  0.327533  0.735356  1
  O  O17  1  0.672472  0.013229  0.764651  1
  O  O18  1  0.707870  0.686573  0.799835  1
  O  O19  1  0.279992  0.587352  0.948261  1
