# generated using pymatgen
data_Er17Th3(Bi2Ru)4
_symmetry_space_group_name_H-M   'P 1'
_cell_length_a   8.08803130
_cell_length_b   8.88290505
_cell_length_c   12.42207549
_cell_angle_alpha   90.32295309
_cell_angle_beta   89.87562703
_cell_angle_gamma   90.11278055
_symmetry_Int_Tables_number   1
_chemical_formula_structural   Er17Th3(Bi2Ru)4
_chemical_formula_sum   'Er17 Th3 Bi8 Ru4'
_cell_volume   892.44868472
_cell_formula_units_Z   1
loop_
 _symmetry_equiv_pos_site_id
 _symmetry_equiv_pos_as_xyz
  1  'x, y, z'
loop_
 _atom_site_type_symbol
 _atom_site_label
 _atom_site_symmetry_multiplicity
 _atom_site_fract_x
 _atom_site_fract_y
 _atom_site_fract_z
 _atom_site_occupancy
  Er  Er0  1  0.661613  0.752257  0.706532  1
  Er  Er1  1  0.339113  0.249696  0.296072  1
  Er  Er2  1  0.166087  0.248113  0.790860  1
  Er  Er3  1  0.834958  0.752521  0.208720  1
  Er  Er4  1  0.122035  0.753116  0.802538  1
  Er  Er5  1  0.879879  0.244701  0.197557  1
  Er  Er6  1  0.623287  0.248891  0.695591  1
  Er  Er7  1  0.382599  0.752861  0.303346  1
  Er  Er8  1  0.551073  0.751777  0.000628  1
  Er  Er9  1  0.450106  0.248488  0.999716  1
  Er  Er10  1  0.049109  0.247802  0.501163  1
  Er  Er11  1  0.939204  0.751330  0.499174  1
  Er  Er12  1  0.172868  0.955476  0.064723  1
  Er  Er13  1  0.680794  0.451906  0.432169  1
  Er  Er14  1  0.827464  0.044397  0.935870  1
  Er  Er15  1  0.671065  0.045111  0.435081  1
  Er  Er16  1  0.326147  0.957687  0.563827  1
  Th  Th17  1  0.818979  0.459429  0.934852  1
  Th  Th18  1  0.182163  0.540020  0.065216  1
  Th  Th19  1  0.327539  0.539852  0.558620  1
  Bi  Bi20  1  0.930630  0.010559  0.674064  1
  Bi  Bi21  1  0.069664  0.987534  0.327758  1
  Bi  Bi22  1  0.432174  0.988736  0.827315  1
  Bi  Bi23  1  0.067923  0.511950  0.328163  1
  Bi  Bi24  1  0.568667  0.012393  0.172755  1
  Bi  Bi25  1  0.927903  0.489047  0.671913  1
  Bi  Bi26  1  0.576129  0.486304  0.175035  1
  Bi  Bi27  1  0.426462  0.513210  0.825982  1
  Ru  Ru28  1  0.927600  0.735705  0.987879  1
  Ru  Ru29  1  0.074857  0.264178  0.012073  1
  Ru  Ru30  1  0.421187  0.258653  0.515179  1
  Ru  Ru31  1  0.570724  0.746299  0.489627  1
