# generated using pymatgen
data_GaAg(PO3)6
_symmetry_space_group_name_H-M   'P 1'
_cell_length_a   5.12319649
_cell_length_b   7.10359828
_cell_length_c   10.65274016
_cell_angle_alpha   98.52558913
_cell_angle_beta   91.93722883
_cell_angle_gamma   90.64874285
_symmetry_Int_Tables_number   1
_chemical_formula_structural   GaAg(PO3)6
_chemical_formula_sum   'Ga1 Ag1 P6 O18'
_cell_volume   383.13106431
_cell_formula_units_Z   1
loop_
 _symmetry_equiv_pos_site_id
 _symmetry_equiv_pos_as_xyz
  1  'x, y, z'
loop_
 _atom_site_type_symbol
 _atom_site_label
 _atom_site_symmetry_multiplicity
 _atom_site_fract_x
 _atom_site_fract_y
 _atom_site_fract_z
 _atom_site_occupancy
  Ga  Ga0  1  0.000000  0.500000  0.500000  1
  Ag  Ag1  1  0.000000  0.000000  0.000000  1
  P  P2  1  0.524839  0.954629  0.189467  1
  P  P3  1  0.236321  0.318340  0.233395  1
  P  P4  1  0.510199  0.333702  0.635424  1
  P  P5  1  0.475161  0.045371  0.810533  1
  P  P6  1  0.763679  0.681660  0.766605  1
  P  P7  1  0.489801  0.666298  0.364576  1
  O  O8  1  0.476736  0.174313  0.238558  1
  O  O9  1  0.096728  0.282926  0.105022  1
  O  O10  1  0.348438  0.877112  0.076761  1
  O  O11  1  0.223341  0.357255  0.609819  1
  O  O12  1  0.692990  0.338850  0.528305  1
  O  O13  1  0.185922  0.074475  0.828895  1
  O  O14  1  0.607237  0.482931  0.758853  1
  O  O15  1  0.903272  0.717074  0.894978  1
  O  O16  1  0.551485  0.134377  0.685723  1
  O  O17  1  0.776659  0.642745  0.390181  1
  O  O18  1  0.918683  0.684638  0.649391  1
  O  O19  1  0.814078  0.925525  0.171105  1
  O  O20  1  0.523264  0.825687  0.761442  1
  O  O21  1  0.651562  0.122888  0.923239  1
  O  O22  1  0.448515  0.865623  0.314277  1
  O  O23  1  0.081317  0.315362  0.350609  1
  O  O24  1  0.392763  0.517069  0.241147  1
  O  O25  1  0.307010  0.661150  0.471695  1
