# generated using pymatgen
data_Y3Ho5Np4O24
_symmetry_space_group_name_H-M   'P 1'
_cell_length_a   5.52492300
_cell_length_b   7.82842315
_cell_length_c   11.82599115
_cell_angle_alpha   73.83706723
_cell_angle_beta   90.00000000
_cell_angle_gamma   90.00000000
_symmetry_Int_Tables_number   1
_chemical_formula_structural   Y3Ho5Np4O24
_chemical_formula_sum   'Y3 Ho5 Np4 O24'
_cell_volume   491.27388001
_cell_formula_units_Z   1
loop_
 _symmetry_equiv_pos_site_id
 _symmetry_equiv_pos_as_xyz
  1  'x, y, z'
loop_
 _atom_site_type_symbol
 _atom_site_label
 _atom_site_symmetry_multiplicity
 _atom_site_fract_x
 _atom_site_fract_y
 _atom_site_fract_z
 _atom_site_occupancy
  Y  Y0  1  0.744618  0.000000  0.750000  1
  Y  Y1  1  0.255500  0.000000  0.250000  1
  Y  Y2  1  0.698162  0.500000  0.750000  1
  Ho  Ho3  1  0.186468  0.794895  0.579543  1
  Ho  Ho4  1  0.813701  0.794530  0.079822  1
  Ho  Ho5  1  0.300913  0.500000  0.250000  1
  Ho  Ho6  1  0.186468  0.205105  0.920457  1
  Ho  Ho7  1  0.813701  0.205470  0.420178  1
  Np  Np8  1  0.255458  0.719925  0.887318  1
  Np  Np9  1  0.744471  0.719641  0.386893  1
  Np  Np10  1  0.255458  0.280075  0.612682  1
  Np  Np11  1  0.744471  0.280359  0.113107  1
  O  O12  1  0.045383  0.943509  0.897610  1
  O  O13  1  0.553369  0.848252  0.932459  1
  O  O14  1  0.954528  0.943562  0.397279  1
  O  O15  1  0.448401  0.800587  0.726569  1
  O  O16  1  0.447038  0.848263  0.432319  1
  O  O17  1  0.964917  0.714129  0.766142  1
  O  O18  1  0.551661  0.800357  0.226541  1
  O  O19  1  0.876538  0.626424  0.554816  1
  O  O20  1  0.387784  0.480071  0.883997  1
  O  O21  1  0.036450  0.712820  0.266142  1
  O  O22  1  0.387784  0.519929  0.616003  1
  O  O23  1  0.876538  0.373576  0.945184  1
  O  O24  1  0.123993  0.626229  0.055627  1
  O  O25  1  0.610244  0.480255  0.383176  1
  O  O26  1  0.964917  0.285871  0.733858  1
  O  O27  1  0.610244  0.519745  0.116824  1
  O  O28  1  0.123993  0.373771  0.444373  1
  O  O29  1  0.448401  0.199413  0.773431  1
  O  O30  1  0.036450  0.287180  0.233858  1
  O  O31  1  0.553369  0.151748  0.567541  1
  O  O32  1  0.551661  0.199643  0.273459  1
  O  O33  1  0.045383  0.056491  0.602390  1
  O  O34  1  0.447038  0.151737  0.067681  1
  O  O35  1  0.954528  0.056438  0.102721  1
