# generated using pymatgen
data_Dy5Si10GePIr19
_symmetry_space_group_name_H-M   'P 1'
_cell_length_a   12.89422940
_cell_length_b   12.85553129
_cell_length_c   3.97605800
_cell_angle_alpha   90.00000000
_cell_angle_beta   90.00000000
_cell_angle_gamma   120.13269704
_symmetry_Int_Tables_number   1
_chemical_formula_structural   Dy5Si10GePIr19
_chemical_formula_sum   'Dy5 Si10 Ge1 P1 Ir19'
_cell_volume   570.01527837
_cell_formula_units_Z   1
loop_
 _symmetry_equiv_pos_site_id
 _symmetry_equiv_pos_as_xyz
  1  'x, y, z'
loop_
 _atom_site_type_symbol
 _atom_site_label
 _atom_site_symmetry_multiplicity
 _atom_site_fract_x
 _atom_site_fract_y
 _atom_site_fract_z
 _atom_site_occupancy
  Dy  Dy0  1  0.332912  0.666650  0.500000  1
  Dy  Dy1  1  0.666908  0.333064  0.500000  1
  Dy  Dy2  1  0.000859  0.812496  0.000000  1
  Dy  Dy3  1  0.186307  0.187308  0.000000  1
  Dy  Dy4  1  0.813922  0.001987  0.000000  1
  Si  Si5  1  0.999333  0.631156  0.500000  1
  Si  Si6  1  0.367578  0.367923  0.500000  1
  Si  Si7  1  0.631036  0.999652  0.500000  1
  Si  Si8  1  0.517823  0.687674  0.000000  1
  Si  Si9  1  0.312689  0.831705  0.000000  1
  Si  Si10  1  0.168794  0.481132  0.000000  1
  Si  Si11  1  0.481372  0.168064  0.000000  1
  Si  Si12  1  0.687752  0.517563  0.000000  1
  Si  Si13  1  0.831385  0.311791  0.000000  1
  Si  Si14  1  0.999555  0.181161  0.500000  1
  Ge  Ge15  1  0.823065  0.824234  0.500000  1
  P  P16  1  0.183279  0.000486  0.500000  1
  Ir  Ir17  1  0.510895  0.873503  0.000000  1
  Ir  Ir18  1  0.127410  0.639849  0.000000  1
  Ir  Ir19  1  0.361020  0.487381  0.000000  1
  Ir  Ir20  1  0.487375  0.359746  0.000000  1
  Ir  Ir21  1  0.873874  0.511290  0.000000  1
  Ir  Ir22  1  0.638635  0.126663  0.000000  1
  Ir  Ir23  1  0.000559  0.447400  0.500000  1
  Ir  Ir24  1  0.552606  0.551576  0.500000  1
  Ir  Ir25  1  0.446383  0.999701  0.500000  1
  Ir  Ir26  1  0.999537  0.282621  0.000000  1
  Ir  Ir27  1  0.712893  0.713104  0.000000  1
  Ir  Ir28  1  0.280600  0.999889  0.000000  1
  Ir  Ir29  1  0.619985  0.804613  0.500000  1
  Ir  Ir30  1  0.193054  0.819457  0.500000  1
  Ir  Ir31  1  0.182266  0.376983  0.500000  1
  Ir  Ir32  1  0.374509  0.180656  0.500000  1
  Ir  Ir33  1  0.804813  0.620633  0.500000  1
  Ir  Ir34  1  0.817348  0.193797  0.500000  1
  Ir  Ir35  1  0.011668  0.007090  0.500000  1
