# generated using pymatgen
data_Er4Al4PdRh3
_symmetry_space_group_name_H-M   'P 1'
_cell_length_a   4.20882200
_cell_length_b   6.88430860
_cell_length_c   7.91146273
_cell_angle_alpha   89.95134417
_cell_angle_beta   90.00000000
_cell_angle_gamma   90.00000000
_symmetry_Int_Tables_number   1
_chemical_formula_structural   Er4Al4PdRh3
_chemical_formula_sum   'Er4 Al4 Pd1 Rh3'
_cell_volume   229.23320117
_cell_formula_units_Z   1
loop_
 _symmetry_equiv_pos_site_id
 _symmetry_equiv_pos_as_xyz
  1  'x, y, z'
loop_
 _atom_site_type_symbol
 _atom_site_label
 _atom_site_symmetry_multiplicity
 _atom_site_fract_x
 _atom_site_fract_y
 _atom_site_fract_z
 _atom_site_occupancy
  Er  Er0  1  0.250000  0.030430  0.323477  1
  Er  Er1  1  0.250000  0.539243  0.180910  1
  Er  Er2  1  0.750000  0.967752  0.679372  1
  Er  Er3  1  0.750000  0.469060  0.817179  1
  Al  Al4  1  0.250000  0.135567  0.936084  1
  Al  Al5  1  0.250000  0.637165  0.561281  1
  Al  Al6  1  0.750000  0.858630  0.060808  1
  Al  Al7  1  0.750000  0.365403  0.440740  1
  Pd  Pd8  1  0.750000  0.230700  0.121545  1
  Rh  Rh9  1  0.250000  0.265255  0.619762  1
  Rh  Rh10  1  0.250000  0.764464  0.880229  1
  Rh  Rh11  1  0.750000  0.736333  0.378613  1
