# generated using pymatgen
data_Er6Sc2CdAu9
_symmetry_space_group_name_H-M   'P 1'
_cell_length_a   7.91655599
_cell_length_b   7.91655662
_cell_length_c   7.91655581
_cell_angle_alpha   65.88816477
_cell_angle_beta   65.88816054
_cell_angle_gamma   65.88815600
_symmetry_Int_Tables_number   1
_chemical_formula_structural   Er6Sc2CdAu9
_chemical_formula_sum   'Er6 Sc2 Cd1 Au9'
_cell_volume   395.57756406
_cell_formula_units_Z   1
loop_
 _symmetry_equiv_pos_site_id
 _symmetry_equiv_pos_as_xyz
  1  'x, y, z'
loop_
 _atom_site_type_symbol
 _atom_site_label
 _atom_site_symmetry_multiplicity
 _atom_site_fract_x
 _atom_site_fract_y
 _atom_site_fract_z
 _atom_site_occupancy
  Er  Er0  1  0.897677  0.186115  0.618821  1
  Er  Er1  1  0.618821  0.897677  0.186115  1
  Er  Er2  1  0.186115  0.618821  0.897677  1
  Er  Er3  1  0.102323  0.813885  0.381179  1
  Er  Er4  1  0.381179  0.102323  0.813885  1
  Er  Er5  1  0.813885  0.381179  0.102323  1
  Sc  Sc6  1  0.662910  0.662910  0.662910  1
  Sc  Sc7  1  0.337090  0.337090  0.337090  1
  Cd  Cd8  1  0.500000  0.500000  0.500000  1
  Au  Au9  1  0.000000  0.000000  0.000000  1
  Au  Au10  1  0.808698  0.808698  0.808698  1
  Au  Au11  1  0.191302  0.191302  0.191302  1
  Au  Au12  1  0.931405  0.550595  0.320518  1
  Au  Au13  1  0.320518  0.931405  0.550595  1
  Au  Au14  1  0.550595  0.320518  0.931405  1
  Au  Au15  1  0.068595  0.449405  0.679482  1
  Au  Au16  1  0.679482  0.068595  0.449405  1
  Au  Au17  1  0.449405  0.679482  0.068595  1
