# generated using pymatgen
data_Pa4Al18MoRh5
_symmetry_space_group_name_H-M   'P 1'
_cell_length_a   7.61077267
_cell_length_b   7.61077230
_cell_length_c   9.35095071
_cell_angle_alpha   89.43171479
_cell_angle_beta   89.43171082
_cell_angle_gamma   118.17220486
_symmetry_Int_Tables_number   1
_chemical_formula_structural   Pa4Al18MoRh5
_chemical_formula_sum   'Pa4 Al18 Mo1 Rh5'
_cell_volume   477.38709109
_cell_formula_units_Z   1
loop_
 _symmetry_equiv_pos_site_id
 _symmetry_equiv_pos_as_xyz
  1  'x, y, z'
loop_
 _atom_site_type_symbol
 _atom_site_label
 _atom_site_symmetry_multiplicity
 _atom_site_fract_x
 _atom_site_fract_y
 _atom_site_fract_z
 _atom_site_occupancy
  Pa  Pa0  1  0.994284  0.692004  0.744212  1
  Pa  Pa1  1  0.005716  0.307996  0.255788  1
  Pa  Pa2  1  0.692004  0.994284  0.744212  1
  Pa  Pa3  1  0.307996  0.005716  0.255788  1
  Al  Al4  1  0.145933  0.145933  0.752510  1
  Al  Al5  1  0.854067  0.854067  0.247490  1
  Al  Al6  1  0.009079  0.348371  0.582672  1
  Al  Al7  1  0.990921  0.651629  0.417328  1
  Al  Al8  1  0.997701  0.655844  0.078727  1
  Al  Al9  1  0.344156  0.002299  0.921273  1
  Al  Al10  1  0.002299  0.344156  0.921273  1
  Al  Al11  1  0.655844  0.997701  0.078727  1
  Al  Al12  1  0.651629  0.990921  0.417328  1
  Al  Al13  1  0.348371  0.009079  0.582672  1
  Al  Al14  1  0.334491  0.334491  0.046668  1
  Al  Al15  1  0.665509  0.665509  0.953332  1
  Al  Al16  1  0.660735  0.660735  0.545033  1
  Al  Al17  1  0.339265  0.339265  0.454967  1
  Al  Al18  1  0.346735  0.560476  0.751290  1
  Al  Al19  1  0.653265  0.439524  0.248710  1
  Al  Al20  1  0.560476  0.346735  0.751290  1
  Al  Al21  1  0.439524  0.653265  0.248710  1
  Mo  Mo22  1  0.000000  0.000000  0.500000  1
  Rh  Rh23  1  0.674742  0.325258  0.500000  1
  Rh  Rh24  1  0.325258  0.674742  0.500000  1
  Rh  Rh25  1  0.327335  0.672665  0.000000  1
  Rh  Rh26  1  0.672665  0.327335  0.000000  1
  Rh  Rh27  1  0.000000  0.000000  0.000000  1
