# generated using pymatgen
data_KZrCdF7
_symmetry_space_group_name_H-M   'P 1'
_cell_length_a   6.61149835
_cell_length_b   6.61149835
_cell_length_c   8.61125600
_cell_angle_alpha   90.00000000
_cell_angle_beta   90.00000000
_cell_angle_gamma   116.83043701
_symmetry_Int_Tables_number   1
_chemical_formula_structural   KZrCdF7
_chemical_formula_sum   'K2 Zr2 Cd2 F14'
_cell_volume   335.89199553
_cell_formula_units_Z   2
loop_
 _symmetry_equiv_pos_site_id
 _symmetry_equiv_pos_as_xyz
  1  'x, y, z'
loop_
 _atom_site_type_symbol
 _atom_site_label
 _atom_site_symmetry_multiplicity
 _atom_site_fract_x
 _atom_site_fract_y
 _atom_site_fract_z
 _atom_site_occupancy
  K  K0  1  0.000000  0.000000  0.000000  1
  K  K1  1  0.000000  0.000000  0.500000  1
  Zr  Zr2  1  0.692971  0.307029  0.750000  1
  Zr  Zr3  1  0.307029  0.692971  0.250000  1
  Cd  Cd4  1  0.308404  0.691596  0.750000  1
  Cd  Cd5  1  0.691596  0.308404  0.250000  1
  F  F6  1  0.344714  0.063035  0.750000  1
  F  F7  1  0.655286  0.936965  0.250000  1
  F  F8  1  0.936965  0.655286  0.750000  1
  F  F9  1  0.063035  0.344714  0.250000  1
  F  F10  1  0.509846  0.490154  0.750000  1
  F  F11  1  0.490154  0.509846  0.250000  1
  F  F12  1  0.703264  0.296736  0.987213  1
  F  F13  1  0.296736  0.703264  0.012787  1
  F  F14  1  0.296736  0.703264  0.487213  1
  F  F15  1  0.703264  0.296736  0.512787  1
  F  F16  1  0.672875  0.974766  0.750000  1
  F  F17  1  0.327125  0.025234  0.250000  1
  F  F18  1  0.025234  0.327125  0.750000  1
  F  F19  1  0.974766  0.672875  0.250000  1
