# generated using pymatgen
data_DyLu9Cd3Os
_symmetry_space_group_name_H-M   'P 1'
_cell_length_a   9.40224600
_cell_length_b   9.40224617
_cell_length_c   9.69652500
_cell_angle_alpha   90.00000000
_cell_angle_beta   90.00000000
_cell_angle_gamma   119.99199213
_symmetry_Int_Tables_number   1
_chemical_formula_structural   DyLu9Cd3Os
_chemical_formula_sum   'Dy2 Lu18 Cd6 Os2'
_cell_volume   742.41206213
_cell_formula_units_Z   2
loop_
 _symmetry_equiv_pos_site_id
 _symmetry_equiv_pos_as_xyz
  1  'x, y, z'
loop_
 _atom_site_type_symbol
 _atom_site_label
 _atom_site_symmetry_multiplicity
 _atom_site_fract_x
 _atom_site_fract_y
 _atom_site_fract_z
 _atom_site_occupancy
  Dy  Dy0  1  0.461249  0.921240  0.750000  1
  Dy  Dy1  1  0.078760  0.538751  0.750000  1
  Lu  Lu2  1  0.999782  0.000218  0.499830  1
  Lu  Lu3  1  0.999782  0.000218  0.000170  1
  Lu  Lu4  1  0.209628  0.790372  0.440927  1
  Lu  Lu5  1  0.210814  0.420011  0.441209  1
  Lu  Lu6  1  0.579989  0.789186  0.441209  1
  Lu  Lu7  1  0.789410  0.210590  0.556958  1
  Lu  Lu8  1  0.788936  0.579734  0.557091  1
  Lu  Lu9  1  0.420266  0.211064  0.557091  1
  Lu  Lu10  1  0.789410  0.210590  0.943042  1
  Lu  Lu11  1  0.788936  0.579734  0.942909  1
  Lu  Lu12  1  0.420266  0.211064  0.942909  1
  Lu  Lu13  1  0.209628  0.790372  0.059073  1
  Lu  Lu14  1  0.210814  0.420011  0.058791  1
  Lu  Lu15  1  0.579989  0.789186  0.058791  1
  Lu  Lu16  1  0.540670  0.459330  0.250000  1
  Lu  Lu17  1  0.539762  0.078975  0.250000  1
  Lu  Lu18  1  0.921025  0.460238  0.250000  1
  Lu  Lu19  1  0.461669  0.538331  0.750000  1
  Cd  Cd20  1  0.886102  0.113898  0.250000  1
  Cd  Cd21  1  0.885607  0.771914  0.250000  1
  Cd  Cd22  1  0.228086  0.114393  0.250000  1
  Cd  Cd23  1  0.112334  0.887666  0.750000  1
  Cd  Cd24  1  0.114649  0.226072  0.750000  1
  Cd  Cd25  1  0.773928  0.885351  0.750000  1
  Os  Os26  1  0.332533  0.667467  0.250000  1
  Os  Os27  1  0.665973  0.334027  0.750000  1
