# generated using pymatgen
data_Rb16ZrTi3S16
_symmetry_space_group_name_H-M   'P 1'
_cell_length_a   8.31624632
_cell_length_b   9.94894800
_cell_length_c   14.57490300
_cell_angle_alpha   90.00000000
_cell_angle_beta   90.15472039
_cell_angle_gamma   90.00000000
_symmetry_Int_Tables_number   1
_chemical_formula_structural   Rb16ZrTi3S16
_chemical_formula_sum   'Rb16 Zr1 Ti3 S16'
_cell_volume   1205.89250233
_cell_formula_units_Z   1
loop_
 _symmetry_equiv_pos_site_id
 _symmetry_equiv_pos_as_xyz
  1  'x, y, z'
loop_
 _atom_site_type_symbol
 _atom_site_label
 _atom_site_symmetry_multiplicity
 _atom_site_fract_x
 _atom_site_fract_y
 _atom_site_fract_z
 _atom_site_occupancy
  Rb  Rb0  1  0.000018  0.997705  0.000071  1
  Rb  Rb1  1  0.498437  0.004659  0.498816  1
  Rb  Rb2  1  0.000018  0.502295  0.000071  1
  Rb  Rb3  1  0.498437  0.495341  0.498816  1
  Rb  Rb4  1  0.995438  0.750000  0.422194  1
  Rb  Rb5  1  0.492488  0.250000  0.076755  1
  Rb  Rb6  1  0.013572  0.250000  0.573815  1
  Rb  Rb7  1  0.504670  0.750000  0.926413  1
  Rb  Rb8  1  0.833271  0.055373  0.281049  1
  Rb  Rb9  1  0.334028  0.944809  0.218597  1
  Rb  Rb10  1  0.165088  0.551354  0.720217  1
  Rb  Rb11  1  0.666774  0.441168  0.782708  1
  Rb  Rb12  1  0.165088  0.948646  0.720217  1
  Rb  Rb13  1  0.666774  0.058832  0.782708  1
  Rb  Rb14  1  0.833271  0.444627  0.281049  1
  Rb  Rb15  1  0.334028  0.555191  0.218597  1
  Zr  Zr16  1  0.758726  0.750000  0.665254  1
  Ti  Ti17  1  0.239297  0.250000  0.332037  1
  Ti  Ti18  1  0.739577  0.750000  0.166221  1
  Ti  Ti19  1  0.261593  0.250000  0.835734  1
  S  S20  1  0.986452  0.250000  0.826626  1
  S  S21  1  0.514381  0.250000  0.324339  1
  S  S22  1  0.468572  0.750000  0.673824  1
  S  S23  1  0.014833  0.750000  0.175279  1
  S  S24  1  0.655847  0.562467  0.092001  1
  S  S25  1  0.156071  0.437464  0.406376  1
  S  S26  1  0.345577  0.062633  0.909757  1
  S  S27  1  0.846892  0.949310  0.587183  1
  S  S28  1  0.345577  0.437367  0.909757  1
  S  S29  1  0.846892  0.550690  0.587183  1
  S  S30  1  0.655847  0.937533  0.092001  1
  S  S31  1  0.156071  0.062536  0.406376  1
  S  S32  1  0.632251  0.750000  0.311680  1
  S  S33  1  0.131367  0.250000  0.186811  1
  S  S34  1  0.369039  0.250000  0.690077  1
  S  S35  1  0.873734  0.750000  0.819391  1
