# generated using pymatgen
data_TbYb2Ho(Al3Pd)6
_symmetry_space_group_name_H-M   'P 1'
_cell_length_a   7.63907811
_cell_length_b   7.63730812
_cell_length_c   9.47690200
_cell_angle_alpha   90.00000000
_cell_angle_beta   90.00000000
_cell_angle_gamma   119.64638688
_symmetry_Int_Tables_number   1
_chemical_formula_structural   TbYb2Ho(Al3Pd)6
_chemical_formula_sum   'Tb1 Yb2 Ho1 Al18 Pd6'
_cell_volume   480.52366205
_cell_formula_units_Z   1
loop_
 _symmetry_equiv_pos_site_id
 _symmetry_equiv_pos_as_xyz
  1  'x, y, z'
loop_
 _atom_site_type_symbol
 _atom_site_label
 _atom_site_symmetry_multiplicity
 _atom_site_fract_x
 _atom_site_fract_y
 _atom_site_fract_z
 _atom_site_occupancy
  Tb  Tb0  1  0.330642  0.003617  0.750000  1
  Yb  Yb1  1  0.995479  0.668405  0.250000  1
  Yb  Yb2  1  0.004493  0.331601  0.750000  1
  Ho  Ho3  1  0.669386  0.996351  0.250000  1
  Al  Al4  1  0.129276  0.130945  0.250000  1
  Al  Al5  1  0.870588  0.868999  0.750000  1
  Al  Al6  1  0.000925  0.334881  0.076057  1
  Al  Al7  1  0.998959  0.664998  0.924031  1
  Al  Al8  1  0.998959  0.664998  0.575969  1
  Al  Al9  1  0.334268  0.999664  0.423930  1
  Al  Al10  1  0.000925  0.334881  0.423943  1
  Al  Al11  1  0.665853  0.000333  0.575879  1
  Al  Al12  1  0.665853  0.000333  0.924121  1
  Al  Al13  1  0.334268  0.999664  0.076070  1
  Al  Al14  1  0.333068  0.333046  0.557975  1
  Al  Al15  1  0.666935  0.667061  0.441921  1
  Al  Al16  1  0.666935  0.667061  0.058079  1
  Al  Al17  1  0.333068  0.333046  0.942025  1
  Al  Al18  1  0.342244  0.548036  0.250000  1
  Al  Al19  1  0.657830  0.452099  0.750000  1
  Al  Al20  1  0.543456  0.335523  0.250000  1
  Al  Al21  1  0.456627  0.664482  0.750000  1
  Pd  Pd22  1  0.672255  0.328545  0.000328  1
  Pd  Pd23  1  0.327767  0.671428  0.999719  1
  Pd  Pd24  1  0.327767  0.671428  0.500281  1
  Pd  Pd25  1  0.672255  0.328545  0.499672  1
  Pd  Pd26  1  0.999960  0.000015  0.000029  1
  Pd  Pd27  1  0.999960  0.000015  0.499971  1
