# generated using pymatgen
data_Tb7Y3Si5P
_symmetry_space_group_name_H-M   'P 1'
_cell_length_a   8.45497500
_cell_length_b   8.46027006
_cell_length_c   6.34750800
_cell_angle_alpha   90.00000000
_cell_angle_beta   90.00000000
_cell_angle_gamma   119.97929451
_symmetry_Int_Tables_number   1
_chemical_formula_structural   Tb7Y3Si5P
_chemical_formula_sum   'Tb7 Y3 Si5 P1'
_cell_volume   393.29734733
_cell_formula_units_Z   1
loop_
 _symmetry_equiv_pos_site_id
 _symmetry_equiv_pos_as_xyz
  1  'x, y, z'
loop_
 _atom_site_type_symbol
 _atom_site_label
 _atom_site_symmetry_multiplicity
 _atom_site_fract_x
 _atom_site_fract_y
 _atom_site_fract_z
 _atom_site_occupancy
  Tb  Tb0  1  0.001018  0.756435  0.750000  1
  Tb  Tb1  1  0.754464  0.000000  0.750000  1
  Tb  Tb2  1  0.244582  0.243565  0.750000  1
  Tb  Tb3  1  0.333715  0.667509  0.500479  1
  Tb  Tb4  1  0.666207  0.332491  0.999521  1
  Tb  Tb5  1  0.666207  0.332491  0.500479  1
  Tb  Tb6  1  0.333715  0.667509  0.999521  1
  Y  Y7  1  0.000936  0.244696  0.250000  1
  Y  Y8  1  0.756239  0.755304  0.250000  1
  Y  Y9  1  0.244502  0.000000  0.250000  1
  Si  Si10  1  0.393778  0.393136  0.250000  1
  Si  Si11  1  0.000643  0.606864  0.250000  1
  Si  Si12  1  0.000132  0.393310  0.750000  1
  Si  Si13  1  0.606822  0.606690  0.750000  1
  Si  Si14  1  0.607718  0.000000  0.250000  1
  P  P15  1  0.389320  0.000000  0.750000  1
