# generated using pymatgen
data_SmI16
_symmetry_space_group_name_H-M   'P 1'
_cell_length_a   9.06615157
_cell_length_b   10.44840046
_cell_length_c   13.97010119
_cell_angle_alpha   101.50382188
_cell_angle_beta   94.98585788
_cell_angle_gamma   121.99382792
_symmetry_Int_Tables_number   1
_chemical_formula_structural   SmI16
_chemical_formula_sum   'Sm1 I16'
_cell_volume   1069.85422959
_cell_formula_units_Z   1
loop_
 _symmetry_equiv_pos_site_id
 _symmetry_equiv_pos_as_xyz
  1  'x, y, z'
loop_
 _atom_site_type_symbol
 _atom_site_label
 _atom_site_symmetry_multiplicity
 _atom_site_fract_x
 _atom_site_fract_y
 _atom_site_fract_z
 _atom_site_occupancy
  Sm  Sm0  1  0.000000  0.000000  0.000000  1
  I  I1  1  0.775011  0.935815  0.164332  1
  I  I2  1  0.224989  0.064185  0.835668  1
  I  I3  1  0.331992  0.206014  0.176326  1
  I  I4  1  0.668008  0.793986  0.823674  1
  I  I5  1  0.973991  0.281687  0.980658  1
  I  I6  1  0.026009  0.718313  0.019342  1
  I  I7  1  0.361228  0.486566  0.306970  1
  I  I8  1  0.638772  0.513434  0.693030  1
  I  I9  1  0.929222  0.586300  0.264596  1
  I  I10  1  0.070778  0.413700  0.735404  1
  I  I11  1  0.407143  0.833210  0.088257  1
  I  I12  1  0.592857  0.166790  0.911743  1
  I  I13  1  0.602941  0.248657  0.554719  1
  I  I14  1  0.397059  0.751343  0.445281  1
  I  I15  1  0.788222  0.429201  0.405632  1
  I  I16  1  0.211778  0.570799  0.594368  1
