# generated using pymatgen
data_Tm5Lu3Sc11Si16Ru
_symmetry_space_group_name_H-M   'P 1'
_cell_length_a   6.94851514
_cell_length_b   7.31875313
_cell_length_c   13.78060447
_cell_angle_alpha   89.99202770
_cell_angle_beta   89.97116949
_cell_angle_gamma   90.05582939
_symmetry_Int_Tables_number   1
_chemical_formula_structural   Tm5Lu3Sc11Si16Ru
_chemical_formula_sum   'Tm5 Lu3 Sc11 Si16 Ru1'
_cell_volume   700.80486580
_cell_formula_units_Z   1
loop_
 _symmetry_equiv_pos_site_id
 _symmetry_equiv_pos_as_xyz
  1  'x, y, z'
loop_
 _atom_site_type_symbol
 _atom_site_label
 _atom_site_symmetry_multiplicity
 _atom_site_fract_x
 _atom_site_fract_y
 _atom_site_fract_z
 _atom_site_occupancy
  Tm  Tm0  1  0.991168  0.817037  0.598462  1
  Tm  Tm1  1  0.511847  0.321887  0.093373  1
  Tm  Tm2  1  0.012907  0.179762  0.407218  1
  Tm  Tm3  1  0.511613  0.322377  0.405620  1
  Tm  Tm4  1  0.488841  0.674446  0.596583  1
  Lu  Lu5  1  0.013161  0.180012  0.092381  1
  Lu  Lu6  1  0.991296  0.816330  0.901698  1
  Lu  Lu7  1  0.488885  0.674527  0.903638  1
  Sc  Sc8  1  0.842957  0.495524  0.249621  1
  Sc  Sc9  1  0.344169  0.004410  0.249602  1
  Sc  Sc10  1  0.654168  0.994758  0.750226  1
  Sc  Sc11  1  0.323179  0.175895  0.628007  1
  Sc  Sc12  1  0.673756  0.825724  0.373757  1
  Sc  Sc13  1  0.174191  0.673017  0.376256  1
  Sc  Sc14  1  0.673833  0.825515  0.125545  1
  Sc  Sc15  1  0.825380  0.330888  0.629687  1
  Sc  Sc16  1  0.323363  0.175635  0.872703  1
  Sc  Sc17  1  0.825002  0.330284  0.871242  1
  Sc  Sc18  1  0.174192  0.672988  0.123015  1
  Si  Si19  1  0.024924  0.106487  0.750677  1
  Si  Si20  1  0.976099  0.889242  0.249507  1
  Si  Si21  1  0.471569  0.612475  0.249564  1
  Si  Si22  1  0.512296  0.399464  0.750705  1
  Si  Si23  1  0.282652  0.856858  0.750775  1
  Si  Si24  1  0.719123  0.133161  0.249346  1
  Si  Si25  1  0.215778  0.367821  0.249329  1
  Si  Si26  1  0.792434  0.632497  0.750803  1
  Si  Si27  1  0.157483  0.466357  0.547769  1
  Si  Si28  1  0.842517  0.535736  0.463918  1
  Si  Si29  1  0.344462  0.965178  0.462891  1
  Si  Si30  1  0.842899  0.535485  0.036003  1
  Si  Si31  1  0.659646  0.034983  0.539803  1
  Si  Si32  1  0.157941  0.467332  0.951492  1
  Si  Si33  1  0.660122  0.033276  0.959944  1
  Si  Si34  1  0.343748  0.964669  0.036773  1
  Ru  Ru35  1  0.152397  0.507964  0.752070  1
