# generated using pymatgen
data_YAl10ReRh
_symmetry_space_group_name_H-M   'P 1'
_cell_length_a   6.88353089
_cell_length_b   6.89312646
_cell_length_c   9.18971000
_cell_angle_alpha   90.00000000
_cell_angle_beta   90.00000000
_cell_angle_gamma   96.58811912
_symmetry_Int_Tables_number   1
_chemical_formula_structural   YAl10ReRh
_chemical_formula_sum   'Y2 Al20 Re2 Rh2'
_cell_volume   433.16362376
_cell_formula_units_Z   2
loop_
 _symmetry_equiv_pos_site_id
 _symmetry_equiv_pos_as_xyz
  1  'x, y, z'
loop_
 _atom_site_type_symbol
 _atom_site_label
 _atom_site_symmetry_multiplicity
 _atom_site_fract_x
 _atom_site_fract_y
 _atom_site_fract_z
 _atom_site_occupancy
  Y  Y0  1  0.865421  0.122154  0.750000  1
  Y  Y1  1  0.134579  0.877846  0.250000  1
  Al  Al2  1  0.620464  0.375799  0.548302  1
  Al  Al3  1  0.379536  0.624201  0.451698  1
  Al  Al4  1  0.379536  0.624201  0.048302  1
  Al  Al5  1  0.620464  0.375799  0.951698  1
  Al  Al6  1  0.224386  0.224102  0.498499  1
  Al  Al7  1  0.775614  0.775898  0.501501  1
  Al  Al8  1  0.775614  0.775898  0.998499  1
  Al  Al9  1  0.224386  0.224102  0.001501  1
  Al  Al10  1  0.843860  0.156494  0.100604  1
  Al  Al11  1  0.156140  0.843506  0.899396  1
  Al  Al12  1  0.156140  0.843506  0.600604  1
  Al  Al13  1  0.843860  0.156494  0.399396  1
  Al  Al14  1  0.858132  0.588131  0.750000  1
  Al  Al15  1  0.141868  0.411869  0.250000  1
  Al  Al16  1  0.410098  0.141507  0.750000  1
  Al  Al17  1  0.589902  0.858493  0.250000  1
  Al  Al18  1  0.221665  0.479948  0.750000  1
  Al  Al19  1  0.778335  0.520052  0.250000  1
  Al  Al20  1  0.519331  0.780499  0.750000  1
  Al  Al21  1  0.480669  0.219501  0.250000  1
  Re  Re22  1  0.500000  0.000000  0.000000  1
  Re  Re23  1  0.500000  0.000000  0.500000  1
  Rh  Rh24  1  0.000000  0.500000  0.500000  1
  Rh  Rh25  1  0.000000  0.500000  0.000000  1
