# generated using pymatgen
data_KRb(PrB12)2
_symmetry_space_group_name_H-M   'P 1'
_cell_length_a   7.27285819
_cell_length_b   7.27285862
_cell_length_c   5.93786600
_cell_angle_alpha   90.00000000
_cell_angle_beta   90.00000000
_cell_angle_gamma   109.44903557
_symmetry_Int_Tables_number   1
_chemical_formula_structural   KRb(PrB12)2
_chemical_formula_sum   'K1 Rb1 Pr2 B24'
_cell_volume   296.15823470
_cell_formula_units_Z   1
loop_
 _symmetry_equiv_pos_site_id
 _symmetry_equiv_pos_as_xyz
  1  'x, y, z'
loop_
 _atom_site_type_symbol
 _atom_site_label
 _atom_site_symmetry_multiplicity
 _atom_site_fract_x
 _atom_site_fract_y
 _atom_site_fract_z
 _atom_site_occupancy
  K  K0  1  0.996887  0.003113  0.000000  1
  Rb  Rb1  1  0.752897  0.247103  0.500000  1
  Pr  Pr2  1  0.505397  0.494603  0.000000  1
  Pr  Pr3  1  0.244773  0.755227  0.500000  1
  B  B4  1  0.178953  0.327286  0.648474  1
  B  B5  1  0.927348  0.575966  0.148547  1
  B  B6  1  0.672714  0.821047  0.648474  1
  B  B7  1  0.424034  0.072652  0.148547  1
  B  B8  1  0.178953  0.327286  0.351526  1
  B  B9  1  0.927348  0.575966  0.851453  1
  B  B10  1  0.672714  0.821047  0.351526  1
  B  B11  1  0.424034  0.072652  0.851453  1
  B  B12  1  0.401878  0.397386  0.500000  1
  B  B13  1  0.147763  0.652278  0.000000  1
  B  B14  1  0.895945  0.898766  0.500000  1
  B  B15  1  0.648542  0.145558  0.000000  1
  B  B16  1  0.324719  0.176473  0.648806  1
  B  B17  1  0.077743  0.429084  0.148212  1
  B  B18  1  0.823527  0.675281  0.648806  1
  B  B19  1  0.570916  0.922257  0.148212  1
  B  B20  1  0.101234  0.104055  0.500000  1
  B  B21  1  0.854442  0.351458  0.000000  1
  B  B22  1  0.602614  0.598122  0.500000  1
  B  B23  1  0.347722  0.852237  0.000000  1
  B  B24  1  0.324719  0.176473  0.351194  1
  B  B25  1  0.077743  0.429084  0.851788  1
  B  B26  1  0.823527  0.675281  0.351194  1
  B  B27  1  0.570916  0.922257  0.851788  1
