# generated using pymatgen
data_Tb4TmInGa2
_symmetry_space_group_name_H-M   'P 1'
_cell_length_a   7.76159200
_cell_length_b   7.76159200
_cell_length_c   14.39933800
_cell_angle_alpha   90.00000000
_cell_angle_beta   90.00000000
_cell_angle_gamma   90.00000000
_symmetry_Int_Tables_number   1
_chemical_formula_structural   Tb4TmInGa2
_chemical_formula_sum   'Tb16 Tm4 In4 Ga8'
_cell_volume   867.44938898
_cell_formula_units_Z   4
loop_
 _symmetry_equiv_pos_site_id
 _symmetry_equiv_pos_as_xyz
  1  'x, y, z'
loop_
 _atom_site_type_symbol
 _atom_site_label
 _atom_site_symmetry_multiplicity
 _atom_site_fract_x
 _atom_site_fract_y
 _atom_site_fract_z
 _atom_site_occupancy
  Tb  Tb0  1  0.673419  0.661768  0.606284  1
  Tb  Tb1  1  0.673419  0.338232  0.106284  1
  Tb  Tb2  1  0.826581  0.838232  0.393716  1
  Tb  Tb3  1  0.173419  0.838232  0.893716  1
  Tb  Tb4  1  0.326581  0.338232  0.606284  1
  Tb  Tb5  1  0.326581  0.661768  0.106284  1
  Tb  Tb6  1  0.173419  0.161768  0.393716  1
  Tb  Tb7  1  0.826581  0.161768  0.893716  1
  Tb  Tb8  1  0.661768  0.326581  0.393716  1
  Tb  Tb9  1  0.338232  0.326581  0.893716  1
  Tb  Tb10  1  0.161768  0.826581  0.606284  1
  Tb  Tb11  1  0.838232  0.826581  0.106284  1
  Tb  Tb12  1  0.338232  0.673419  0.393716  1
  Tb  Tb13  1  0.661768  0.673419  0.893716  1
  Tb  Tb14  1  0.838232  0.173419  0.606284  1
  Tb  Tb15  1  0.161768  0.173419  0.106284  1
  Tm  Tm16  1  0.000000  0.500000  0.759717  1
  Tm  Tm17  1  0.000000  0.500000  0.259717  1
  Tm  Tm18  1  0.500000  0.000000  0.240283  1
  Tm  Tm19  1  0.500000  0.000000  0.740283  1
  In  In20  1  0.000000  0.500000  0.495794  1
  In  In21  1  0.000000  0.500000  0.995794  1
  In  In22  1  0.500000  0.000000  0.504206  1
  In  In23  1  0.500000  0.000000  0.004206  1
  Ga  Ga24  1  0.875515  0.875515  0.750000  1
  Ga  Ga25  1  0.875515  0.124485  0.250000  1
  Ga  Ga26  1  0.624485  0.624485  0.250000  1
  Ga  Ga27  1  0.375515  0.624485  0.750000  1
  Ga  Ga28  1  0.124485  0.124485  0.750000  1
  Ga  Ga29  1  0.124485  0.875515  0.250000  1
  Ga  Ga30  1  0.375515  0.375515  0.250000  1
  Ga  Ga31  1  0.624485  0.375515  0.750000  1
