# generated using pymatgen
data_Sm3Tm3(RuI3)2
_symmetry_space_group_name_H-M   'P 1'
_cell_length_a   4.25135300
_cell_length_b   8.94701998
_cell_length_c   12.36326606
_cell_angle_alpha   85.99101598
_cell_angle_beta   90.00000000
_cell_angle_gamma   90.00000000
_symmetry_Int_Tables_number   1
_chemical_formula_structural   Sm3Tm3(RuI3)2
_chemical_formula_sum   'Sm3 Tm3 Ru2 I6'
_cell_volume   469.11013075
_cell_formula_units_Z   1
loop_
 _symmetry_equiv_pos_site_id
 _symmetry_equiv_pos_as_xyz
  1  'x, y, z'
loop_
 _atom_site_type_symbol
 _atom_site_label
 _atom_site_symmetry_multiplicity
 _atom_site_fract_x
 _atom_site_fract_y
 _atom_site_fract_z
 _atom_site_occupancy
  Sm  Sm0  1  0.250000  0.904472  0.318554  1
  Sm  Sm1  1  0.250000  0.266927  0.897054  1
  Sm  Sm2  1  0.750000  0.732488  0.100345  1
  Tm  Tm3  1  0.750000  0.123981  0.123245  1
  Tm  Tm4  1  0.250000  0.876614  0.874849  1
  Tm  Tm5  1  0.750000  0.096616  0.688106  1
  Ru  Ru6  1  0.750000  0.053756  0.906479  1
  Ru  Ru7  1  0.250000  0.946248  0.091806  1
  I  I8  1  0.250000  0.345359  0.635368  1
  I  I9  1  0.750000  0.644838  0.363262  1
  I  I10  1  0.750000  0.149104  0.391809  1
  I  I11  1  0.250000  0.861021  0.610891  1
  I  I12  1  0.250000  0.420198  0.134751  1
  I  I13  1  0.750000  0.578377  0.863481  1
