# generated using pymatgen
data_Y6Lu4CdIn7
_symmetry_space_group_name_H-M   'P 1'
_cell_length_a   9.23085200
_cell_length_b   9.23085171
_cell_length_c   6.65445000
_cell_angle_alpha   90.00000000
_cell_angle_beta   90.00000000
_cell_angle_gamma   120.00000103
_symmetry_Int_Tables_number   1
_chemical_formula_structural   Y6Lu4CdIn7
_chemical_formula_sum   'Y6 Lu4 Cd1 In7'
_cell_volume   491.05072406
_cell_formula_units_Z   1
loop_
 _symmetry_equiv_pos_site_id
 _symmetry_equiv_pos_as_xyz
  1  'x, y, z'
loop_
 _atom_site_type_symbol
 _atom_site_label
 _atom_site_symmetry_multiplicity
 _atom_site_fract_x
 _atom_site_fract_y
 _atom_site_fract_z
 _atom_site_occupancy
  Y  Y0  1  0.289520  0.000000  0.750066  1
  Y  Y1  1  0.710480  0.000000  0.249934  1
  Y  Y2  1  0.000000  0.289520  0.750066  1
  Y  Y3  1  0.000000  0.710480  0.249934  1
  Y  Y4  1  0.710480  0.710480  0.750066  1
  Y  Y5  1  0.289520  0.289520  0.249934  1
  Lu  Lu6  1  0.333333  0.666667  0.500000  1
  Lu  Lu7  1  0.666667  0.333333  0.500000  1
  Lu  Lu8  1  0.666667  0.333333  0.000000  1
  Lu  Lu9  1  0.333333  0.666667  0.000000  1
  Cd  Cd10  1  0.000000  0.000000  0.500000  1
  In  In11  1  0.000000  0.000000  0.000000  1
  In  In12  1  0.627358  0.000000  0.748355  1
  In  In13  1  0.372642  0.000000  0.251645  1
  In  In14  1  0.000000  0.627358  0.748355  1
  In  In15  1  0.000000  0.372642  0.251645  1
  In  In16  1  0.372642  0.372642  0.748355  1
  In  In17  1  0.627358  0.627358  0.251645  1
