# generated using pymatgen
data_Hf4Ta5NbN12
_symmetry_space_group_name_H-M   'P 1'
_cell_length_a   5.31050801
_cell_length_b   5.31050720
_cell_length_c   10.57228500
_cell_angle_alpha   90.00000000
_cell_angle_beta   90.00000000
_cell_angle_gamma   120.11701307
_symmetry_Int_Tables_number   1
_chemical_formula_structural   Hf4Ta5NbN12
_chemical_formula_sum   'Hf4 Ta5 Nb1 N12'
_cell_volume   257.90411896
_cell_formula_units_Z   1
loop_
 _symmetry_equiv_pos_site_id
 _symmetry_equiv_pos_as_xyz
  1  'x, y, z'
loop_
 _atom_site_type_symbol
 _atom_site_label
 _atom_site_symmetry_multiplicity
 _atom_site_fract_x
 _atom_site_fract_y
 _atom_site_fract_z
 _atom_site_occupancy
  Hf  Hf0  1  0.666907  0.334556  0.000015  1
  Hf  Hf1  1  0.334556  0.666907  0.000015  1
  Hf  Hf2  1  0.334556  0.666907  0.499985  1
  Hf  Hf3  1  0.666907  0.334556  0.499985  1
  Ta  Ta4  1  0.318274  0.999266  0.750000  1
  Ta  Ta5  1  0.999266  0.318274  0.750000  1
  Ta  Ta6  1  0.318920  0.318920  0.250000  1
  Ta  Ta7  1  0.681692  0.000530  0.250000  1
  Ta  Ta8  1  0.000530  0.681692  0.250000  1
  Nb  Nb9  1  0.679626  0.679626  0.750000  1
  N  N10  1  0.654956  0.654956  0.373261  1
  N  N11  1  0.346741  0.000356  0.373190  1
  N  N12  1  0.000356  0.346741  0.373190  1
  N  N13  1  0.340641  0.340641  0.625813  1
  N  N14  1  0.653242  0.003447  0.626567  1
  N  N15  1  0.003447  0.653242  0.626567  1
  N  N16  1  0.340641  0.340641  0.874187  1
  N  N17  1  0.653242  0.003447  0.873433  1
  N  N18  1  0.003447  0.653242  0.873433  1
  N  N19  1  0.654956  0.654956  0.126739  1
  N  N20  1  0.346741  0.000356  0.126810  1
  N  N21  1  0.000356  0.346741  0.126810  1
