# generated using pymatgen
data_Zr12Al4VRh7N4
_symmetry_space_group_name_H-M   'P 1'
_cell_length_a   8.59642372
_cell_length_b   8.57855877
_cell_length_c   8.57855900
_cell_angle_alpha   60.00000296
_cell_angle_beta   60.06872494
_cell_angle_gamma   60.06872466
_symmetry_Int_Tables_number   1
_chemical_formula_structural   Zr12Al4VRh7N4
_chemical_formula_sum   'Zr12 Al4 V1 Rh7 N4'
_cell_volume   447.79769413
_cell_formula_units_Z   1
loop_
 _symmetry_equiv_pos_site_id
 _symmetry_equiv_pos_as_xyz
  1  'x, y, z'
loop_
 _atom_site_type_symbol
 _atom_site_label
 _atom_site_symmetry_multiplicity
 _atom_site_fract_x
 _atom_site_fract_y
 _atom_site_fract_z
 _atom_site_occupancy
  Zr  Zr0  1  0.812985  0.809539  0.188738  1
  Zr  Zr1  1  0.192697  0.191849  0.807727  1
  Zr  Zr2  1  0.812985  0.188738  0.809539  1
  Zr  Zr3  1  0.192697  0.807727  0.191849  1
  Zr  Zr4  1  0.192697  0.807727  0.807727  1
  Zr  Zr5  1  0.812985  0.188738  0.188738  1
  Zr  Zr6  1  0.438348  0.439621  0.061016  1
  Zr  Zr7  1  0.051987  0.068108  0.439952  1
  Zr  Zr8  1  0.438348  0.061016  0.439621  1
  Zr  Zr9  1  0.051987  0.439952  0.068108  1
  Zr  Zr10  1  0.051987  0.439952  0.439952  1
  Zr  Zr11  1  0.438348  0.061016  0.061016  1
  Al  Al12  1  0.129530  0.623490  0.623490  1
  Al  Al13  1  0.625730  0.116561  0.628854  1
  Al  Al14  1  0.625730  0.628854  0.116561  1
  Al  Al15  1  0.625730  0.628854  0.628854  1
  V  V16  1  0.730444  0.423185  0.423185  1
  Rh  Rh17  1  0.418888  0.751047  0.415032  1
  Rh  Rh18  1  0.418888  0.415032  0.751047  1
  Rh  Rh19  1  0.418888  0.415032  0.415032  1
  Rh  Rh20  1  0.497115  0.834296  0.834296  1
  Rh  Rh21  1  0.838320  0.494544  0.833569  1
  Rh  Rh22  1  0.838320  0.833569  0.494544  1
  Rh  Rh23  1  0.838320  0.833569  0.833569  1
  N  N24  1  0.623150  0.125617  0.125617  1
  N  N25  1  0.127631  0.624661  0.123854  1
  N  N26  1  0.127631  0.123854  0.624661  1
  N  N27  1  0.127631  0.123854  0.123854  1
