# generated using pymatgen
data_Gd6Zn23O
_symmetry_space_group_name_H-M   'P 1'
_cell_length_a   9.06037396
_cell_length_b   9.06037295
_cell_length_c   9.06037400
_cell_angle_alpha   59.99999618
_cell_angle_beta   59.99999984
_cell_angle_gamma   59.99999413
_symmetry_Int_Tables_number   1
_chemical_formula_structural   Gd6Zn23O
_chemical_formula_sum   'Gd6 Zn23 O1'
_cell_volume   525.92436704
_cell_formula_units_Z   1
loop_
 _symmetry_equiv_pos_site_id
 _symmetry_equiv_pos_as_xyz
  1  'x, y, z'
loop_
 _atom_site_type_symbol
 _atom_site_label
 _atom_site_symmetry_multiplicity
 _atom_site_fract_x
 _atom_site_fract_y
 _atom_site_fract_z
 _atom_site_occupancy
  Gd  Gd0  1  0.699350  0.300650  0.300650  1
  Gd  Gd1  1  0.699350  0.300650  0.699350  1
  Gd  Gd2  1  0.699350  0.699350  0.300650  1
  Gd  Gd3  1  0.300650  0.699350  0.699350  1
  Gd  Gd4  1  0.300650  0.699350  0.300650  1
  Gd  Gd5  1  0.300650  0.300650  0.699350  1
  Zn  Zn6  1  0.629649  0.123451  0.123451  1
  Zn  Zn7  1  0.123451  0.629649  0.123451  1
  Zn  Zn8  1  0.123451  0.123451  0.629649  1
  Zn  Zn9  1  0.123451  0.123451  0.123451  1
  Zn  Zn10  1  0.370351  0.876549  0.876549  1
  Zn  Zn11  1  0.876549  0.370351  0.876549  1
  Zn  Zn12  1  0.876549  0.876549  0.370351  1
  Zn  Zn13  1  0.876549  0.876549  0.876549  1
  Zn  Zn14  1  0.500000  0.000000  0.000000  1
  Zn  Zn15  1  0.500000  0.000000  0.500000  1
  Zn  Zn16  1  0.500000  0.500000  0.000000  1
  Zn  Zn17  1  0.000000  0.500000  0.500000  1
  Zn  Zn18  1  0.000000  0.500000  0.000000  1
  Zn  Zn19  1  0.000000  0.000000  0.500000  1
  Zn  Zn20  1  0.000000  0.000000  0.000000  1
  Zn  Zn21  1  0.016140  0.327954  0.327954  1
  Zn  Zn22  1  0.327954  0.016140  0.327954  1
  Zn  Zn23  1  0.327954  0.327954  0.016140  1
  Zn  Zn24  1  0.327954  0.327954  0.327954  1
  Zn  Zn25  1  0.983860  0.672046  0.672046  1
  Zn  Zn26  1  0.672046  0.983860  0.672046  1
  Zn  Zn27  1  0.672046  0.672046  0.983860  1
  Zn  Zn28  1  0.672046  0.672046  0.672046  1
  O  O29  1  0.500000  0.500000  0.500000  1
