# generated using pymatgen
data_Lu5Tl2Ir
_symmetry_space_group_name_H-M   'P 1'
_cell_length_a   7.69892400
_cell_length_b   8.81835300
_cell_length_c   12.04133200
_cell_angle_alpha   90.00000000
_cell_angle_beta   90.00000000
_cell_angle_gamma   90.00000000
_symmetry_Int_Tables_number   1
_chemical_formula_structural   Lu5Tl2Ir
_chemical_formula_sum   'Lu20 Tl8 Ir4'
_cell_volume   817.50805973
_cell_formula_units_Z   4
loop_
 _symmetry_equiv_pos_site_id
 _symmetry_equiv_pos_as_xyz
  1  'x, y, z'
loop_
 _atom_site_type_symbol
 _atom_site_label
 _atom_site_symmetry_multiplicity
 _atom_site_fract_x
 _atom_site_fract_y
 _atom_site_fract_z
 _atom_site_occupancy
  Lu  Lu0  1  0.158022  0.750000  0.218960  1
  Lu  Lu1  1  0.341978  0.750000  0.718960  1
  Lu  Lu2  1  0.841978  0.250000  0.781040  1
  Lu  Lu3  1  0.658022  0.250000  0.281040  1
  Lu  Lu4  1  0.455782  0.750000  0.998261  1
  Lu  Lu5  1  0.044218  0.750000  0.498261  1
  Lu  Lu6  1  0.544218  0.250000  0.001739  1
  Lu  Lu7  1  0.955782  0.250000  0.501739  1
  Lu  Lu8  1  0.620978  0.750000  0.305764  1
  Lu  Lu9  1  0.879022  0.750000  0.805764  1
  Lu  Lu10  1  0.379022  0.250000  0.694236  1
  Lu  Lu11  1  0.120978  0.250000  0.194236  1
  Lu  Lu12  1  0.825031  0.539956  0.073075  1
  Lu  Lu13  1  0.674969  0.960044  0.573075  1
  Lu  Lu14  1  0.174969  0.039956  0.926925  1
  Lu  Lu15  1  0.325031  0.460044  0.426925  1
  Lu  Lu16  1  0.174969  0.460044  0.926925  1
  Lu  Lu17  1  0.325031  0.039956  0.426925  1
  Lu  Lu18  1  0.825031  0.960044  0.073075  1
  Lu  Lu19  1  0.674969  0.539956  0.573075  1
  Tl  Tl20  1  0.924570  0.506600  0.331181  1
  Tl  Tl21  1  0.575430  0.993400  0.831181  1
  Tl  Tl22  1  0.075430  0.006600  0.668819  1
  Tl  Tl23  1  0.424570  0.493400  0.168819  1
  Tl  Tl24  1  0.075430  0.493400  0.668819  1
  Tl  Tl25  1  0.424570  0.006600  0.168819  1
  Tl  Tl26  1  0.924570  0.993400  0.331181  1
  Tl  Tl27  1  0.575430  0.506600  0.831181  1
  Ir  Ir28  1  0.422698  0.750000  0.494837  1
  Ir  Ir29  1  0.077302  0.750000  0.994837  1
  Ir  Ir30  1  0.577302  0.250000  0.505163  1
  Ir  Ir31  1  0.922698  0.250000  0.005163  1
