# generated using pymatgen
data_Ac3Pr(InIr)4
_symmetry_space_group_name_H-M   'P 1'
_cell_length_a   7.53972869
_cell_length_b   4.45423300
_cell_length_c   8.79406183
_cell_angle_alpha   90.00000000
_cell_angle_beta   89.63589338
_cell_angle_gamma   90.00000000
_symmetry_Int_Tables_number   1
_chemical_formula_structural   Ac3Pr(InIr)4
_chemical_formula_sum   'Ac3 Pr1 In4 Ir4'
_cell_volume   295.33124408
_cell_formula_units_Z   1
loop_
 _symmetry_equiv_pos_site_id
 _symmetry_equiv_pos_as_xyz
  1  'x, y, z'
loop_
 _atom_site_type_symbol
 _atom_site_label
 _atom_site_symmetry_multiplicity
 _atom_site_fract_x
 _atom_site_fract_y
 _atom_site_fract_z
 _atom_site_occupancy
  Ac  Ac0  1  0.535463  0.250000  0.176822  1
  Ac  Ac1  1  0.036184  0.250000  0.318441  1
  Ac  Ac2  1  0.964558  0.750001  0.681752  1
  Pr  Pr3  1  0.461301  0.750001  0.818673  1
  In  In4  1  0.859659  0.750001  0.060300  1
  In  In5  1  0.362512  0.750001  0.441330  1
  In  In6  1  0.634969  0.250000  0.566574  1
  In  In7  1  0.144150  0.250000  0.935370  1
  Ir  Ir8  1  0.243008  0.750001  0.123558  1
  Ir  Ir9  1  0.739557  0.750001  0.374815  1
  Ir  Ir10  1  0.262221  0.250000  0.627789  1
  Ir  Ir11  1  0.756417  0.250000  0.874576  1
