# generated using pymatgen
data_Eu2Ta5MoSe12
_symmetry_space_group_name_H-M   'P 1'
_cell_length_a   6.07084500
_cell_length_b   6.07111894
_cell_length_c   15.81335700
_cell_angle_alpha   90.00000000
_cell_angle_beta   90.00000000
_cell_angle_gamma   119.99668215
_symmetry_Int_Tables_number   1
_chemical_formula_structural   Eu2Ta5MoSe12
_chemical_formula_sum   'Eu2 Ta5 Mo1 Se12'
_cell_volume   504.76253368
_cell_formula_units_Z   1
loop_
 _symmetry_equiv_pos_site_id
 _symmetry_equiv_pos_as_xyz
  1  'x, y, z'
loop_
 _atom_site_type_symbol
 _atom_site_label
 _atom_site_symmetry_multiplicity
 _atom_site_fract_x
 _atom_site_fract_y
 _atom_site_fract_z
 _atom_site_occupancy
  Eu  Eu0  1  0.000034  0.000093  0.251695  1
  Eu  Eu1  1  0.000034  0.000093  0.748305  1
  Ta  Ta2  1  0.333202  0.666551  0.000000  1
  Ta  Ta3  1  0.999859  0.999836  0.000000  1
  Ta  Ta4  1  0.000116  0.000054  0.500000  1
  Ta  Ta5  1  0.666806  0.333529  0.500000  1
  Ta  Ta6  1  0.333376  0.666744  0.500000  1
  Mo  Mo7  1  0.666592  0.333206  0.000000  1
  Se  Se8  1  0.996417  0.659929  0.104415  1
  Se  Se9  1  0.663404  0.003325  0.104411  1
  Se  Se10  1  0.339854  0.336334  0.104392  1
  Se  Se11  1  0.663605  0.663601  0.394156  1
  Se  Se12  1  0.336716  0.000124  0.394163  1
  Se  Se13  1  0.999993  0.336640  0.394163  1
  Se  Se14  1  0.336716  0.000124  0.605837  1
  Se  Se15  1  0.999993  0.336640  0.605837  1
  Se  Se16  1  0.663605  0.663601  0.605844  1
  Se  Se17  1  0.339854  0.336334  0.895608  1
  Se  Se18  1  0.996417  0.659929  0.895584  1
  Se  Se19  1  0.663404  0.003325  0.895588  1
