# generated using pymatgen
data_HfTaNb6O12
_symmetry_space_group_name_H-M   'P 1'
_cell_length_a   6.81597148
_cell_length_b   6.81597318
_cell_length_c   6.81597314
_cell_angle_alpha   73.81076559
_cell_angle_beta   73.81074774
_cell_angle_gamma   73.81075418
_symmetry_Int_Tables_number   1
_chemical_formula_structural   HfTaNb6O12
_chemical_formula_sum   'Hf1 Ta1 Nb6 O12'
_cell_volume   285.01235911
_cell_formula_units_Z   1
loop_
 _symmetry_equiv_pos_site_id
 _symmetry_equiv_pos_as_xyz
  1  'x, y, z'
loop_
 _atom_site_type_symbol
 _atom_site_label
 _atom_site_symmetry_multiplicity
 _atom_site_fract_x
 _atom_site_fract_y
 _atom_site_fract_z
 _atom_site_occupancy
  Hf  Hf0  1  0.274240  0.274240  0.274240  1
  Ta  Ta1  1  0.725388  0.725388  0.725388  1
  Nb  Nb2  1  0.945270  0.112713  0.713029  1
  Nb  Nb3  1  0.713029  0.945270  0.112713  1
  Nb  Nb4  1  0.112713  0.713029  0.945270  1
  Nb  Nb5  1  0.057632  0.888344  0.286574  1
  Nb  Nb6  1  0.286574  0.057632  0.888344  1
  Nb  Nb7  1  0.888344  0.286574  0.057632  1
  O  O8  1  0.171707  0.583429  0.251170  1
  O  O9  1  0.251170  0.171707  0.583429  1
  O  O10  1  0.583429  0.251170  0.171707  1
  O  O11  1  0.826315  0.427042  0.744557  1
  O  O12  1  0.744557  0.826315  0.427042  1
  O  O13  1  0.427042  0.744557  0.826315  1
  O  O14  1  0.648309  0.023909  0.801687  1
  O  O15  1  0.801687  0.648309  0.023909  1
  O  O16  1  0.967228  0.195808  0.355647  1
  O  O17  1  0.195808  0.355647  0.967228  1
  O  O18  1  0.355647  0.967228  0.195808  1
  O  O19  1  0.023909  0.801687  0.648309  1
