# generated using pymatgen
data_Hf16FeCo2NiRh4
_symmetry_space_group_name_H-M   'P 1'
_cell_length_a   8.58572598
_cell_length_b   8.58213697
_cell_length_c   8.58213741
_cell_angle_alpha   60.08649943
_cell_angle_beta   60.11052968
_cell_angle_gamma   60.11053899
_symmetry_Int_Tables_number   1
_chemical_formula_structural   Hf16FeCo2NiRh4
_chemical_formula_sum   'Hf16 Fe1 Co2 Ni1 Rh4'
_cell_volume   448.18833621
_cell_formula_units_Z   1
loop_
 _symmetry_equiv_pos_site_id
 _symmetry_equiv_pos_as_xyz
  1  'x, y, z'
loop_
 _atom_site_type_symbol
 _atom_site_label
 _atom_site_symmetry_multiplicity
 _atom_site_fract_x
 _atom_site_fract_y
 _atom_site_fract_z
 _atom_site_occupancy
  Hf  Hf0  1  0.678887  0.107889  0.107889  1
  Hf  Hf1  1  0.107898  0.679365  0.107591  1
  Hf  Hf2  1  0.107898  0.107591  0.679365  1
  Hf  Hf3  1  0.105353  0.105034  0.105034  1
  Hf  Hf4  1  0.313461  0.312170  0.687800  1
  Hf  Hf5  1  0.686958  0.686410  0.313944  1
  Hf  Hf6  1  0.313461  0.687800  0.312170  1
  Hf  Hf7  1  0.686958  0.313944  0.686410  1
  Hf  Hf8  1  0.687357  0.313520  0.313520  1
  Hf  Hf9  1  0.313991  0.687357  0.687357  1
  Hf  Hf10  1  0.944677  0.944553  0.552148  1
  Hf  Hf11  1  0.556071  0.559165  0.942688  1
  Hf  Hf12  1  0.944677  0.552148  0.944553  1
  Hf  Hf13  1  0.556071  0.942688  0.559165  1
  Hf  Hf14  1  0.551633  0.943795  0.943795  1
  Hf  Hf15  1  0.943222  0.557134  0.557134  1
  Fe  Fe16  1  0.319407  0.893180  0.893180  1
  Co  Co17  1  0.893709  0.319282  0.892960  1
  Co  Co18  1  0.893709  0.892960  0.319282  1
  Ni  Ni19  1  0.894290  0.894070  0.894070  1
  Rh  Rh20  1  0.994238  0.335061  0.335061  1
  Rh  Rh21  1  0.335138  0.994169  0.335135  1
  Rh  Rh22  1  0.335138  0.335135  0.994169  1
  Rh  Rh23  1  0.335795  0.335579  0.335579  1
