# generated using pymatgen
data_DyHo4Co16(TcP4)3
_symmetry_space_group_name_H-M   'P 1'
_cell_length_a   12.01887200
_cell_length_b   12.01887295
_cell_length_c   3.70029000
_cell_angle_alpha   90.00000000
_cell_angle_beta   90.00000000
_cell_angle_gamma   120.00000288
_symmetry_Int_Tables_number   1
_chemical_formula_structural   DyHo4Co16(TcP4)3
_chemical_formula_sum   'Dy1 Ho4 Co16 Tc3 P12'
_cell_volume   462.90709315
_cell_formula_units_Z   1
loop_
 _symmetry_equiv_pos_site_id
 _symmetry_equiv_pos_as_xyz
  1  'x, y, z'
loop_
 _atom_site_type_symbol
 _atom_site_label
 _atom_site_symmetry_multiplicity
 _atom_site_fract_x
 _atom_site_fract_y
 _atom_site_fract_z
 _atom_site_occupancy
  Dy  Dy0  1  0.666667  0.333333  0.000000  1
  Ho  Ho1  1  0.333333  0.666667  0.000000  1
  Ho  Ho2  1  0.815299  0.815304  0.500000  1
  Ho  Ho3  1  0.184696  0.999995  0.500000  1
  Ho  Ho4  1  0.000005  0.184701  0.500000  1
  Co  Co5  1  0.873900  0.356689  0.500000  1
  Co  Co6  1  0.643311  0.517212  0.500000  1
  Co  Co7  1  0.482788  0.126100  0.500000  1
  Co  Co8  1  0.356681  0.873816  0.500000  1
  Co  Co9  1  0.517136  0.643319  0.500000  1
  Co  Co10  1  0.126184  0.482864  0.500000  1
  Co  Co11  1  0.803328  0.178957  0.000000  1
  Co  Co12  1  0.821043  0.624371  0.000000  1
  Co  Co13  1  0.375629  0.196672  0.000000  1
  Co  Co14  1  0.178989  0.803312  0.000000  1
  Co  Co15  1  0.624323  0.821011  0.000000  1
  Co  Co16  1  0.196688  0.375677  0.000000  1
  Co  Co17  1  0.282042  0.282050  0.500000  1
  Co  Co18  1  0.717950  0.999992  0.500000  1
  Co  Co19  1  0.000008  0.717958  0.500000  1
  Co  Co20  1  0.000000  0.000000  0.000000  1
  Tc  Tc21  1  0.445532  0.445544  0.000000  1
  Tc  Tc22  1  0.554456  0.999988  0.000000  1
  Tc  Tc23  1  0.000012  0.554468  0.000000  1
  P  P24  1  0.686020  0.164995  0.500000  1
  P  P25  1  0.835005  0.521026  0.500000  1
  P  P26  1  0.478974  0.313980  0.500000  1
  P  P27  1  0.165093  0.686005  0.500000  1
  P  P28  1  0.520912  0.834907  0.500000  1
  P  P29  1  0.313995  0.479088  0.500000  1
  P  P30  1  0.178683  0.178685  0.000000  1
  P  P31  1  0.821315  0.999998  0.000000  1
  P  P32  1  0.000002  0.821317  0.000000  1
  P  P33  1  0.636987  0.636979  0.000000  1
  P  P34  1  0.363021  0.000008  0.000000  1
  P  P35  1  0.999992  0.363013  0.000000  1
