# generated using pymatgen
data_YbTh3Al4(Ga7Ir3)2
_symmetry_space_group_name_H-M   'P 1'
_cell_length_a   7.66188655
_cell_length_b   7.68349105
_cell_length_c   9.51046600
_cell_angle_alpha   90.00000000
_cell_angle_beta   90.00000000
_cell_angle_gamma   119.64780663
_symmetry_Int_Tables_number   1
_chemical_formula_structural   YbTh3Al4(Ga7Ir3)2
_chemical_formula_sum   'Yb1 Th3 Al4 Ga14 Ir6'
_cell_volume   486.58319335
_cell_formula_units_Z   1
loop_
 _symmetry_equiv_pos_site_id
 _symmetry_equiv_pos_as_xyz
  1  'x, y, z'
loop_
 _atom_site_type_symbol
 _atom_site_label
 _atom_site_symmetry_multiplicity
 _atom_site_fract_x
 _atom_site_fract_y
 _atom_site_fract_z
 _atom_site_occupancy
  Yb  Yb0  1  0.328178  0.999536  0.750000  1
  Th  Th1  1  0.000067  0.671145  0.250000  1
  Th  Th2  1  0.998463  0.329776  0.750000  1
  Th  Th3  1  0.669483  0.997322  0.250000  1
  Al  Al4  1  0.334605  0.330706  0.556120  1
  Al  Al5  1  0.665012  0.664487  0.452800  1
  Al  Al6  1  0.665012  0.664487  0.047200  1
  Al  Al7  1  0.334605  0.330706  0.943880  1
  Ga  Ga8  1  0.135932  0.131654  0.250000  1
  Ga  Ga9  1  0.873611  0.871306  0.750000  1
  Ga  Ga10  1  0.005618  0.335407  0.079880  1
  Ga  Ga11  1  0.003327  0.672502  0.915562  1
  Ga  Ga12  1  0.003327  0.672502  0.584438  1
  Ga  Ga13  1  0.335546  0.004651  0.429492  1
  Ga  Ga14  1  0.005618  0.335407  0.420120  1
  Ga  Ga15  1  0.655889  0.995476  0.584747  1
  Ga  Ga16  1  0.655889  0.995476  0.915253  1
  Ga  Ga17  1  0.335546  0.004651  0.070508  1
  Ga  Ga18  1  0.349842  0.545801  0.250000  1
  Ga  Ga19  1  0.646669  0.444945  0.750000  1
  Ga  Ga20  1  0.546453  0.345053  0.250000  1
  Ga  Ga21  1  0.451054  0.653767  0.750000  1
  Ir  Ir22  1  0.674447  0.333435  0.000910  1
  Ir  Ir23  1  0.329398  0.667555  0.001812  1
  Ir  Ir24  1  0.329398  0.667555  0.498188  1
  Ir  Ir25  1  0.674447  0.333435  0.499090  1
  Ir  Ir26  1  0.996280  0.000627  0.001578  1
  Ir  Ir27  1  0.996280  0.000627  0.498422  1
