# generated using pymatgen
data_NpUTeN2
_symmetry_space_group_name_H-M   'P 1'
_cell_length_a   6.86039418
_cell_length_b   6.86039352
_cell_length_c   6.86039329
_cell_angle_alpha   147.08343188
_cell_angle_beta   147.08342597
_cell_angle_gamma   47.24026730
_symmetry_Int_Tables_number   1
_chemical_formula_structural   NpUTeN2
_chemical_formula_sum   'Np1 U1 Te1 N2'
_cell_volume   94.98470655
_cell_formula_units_Z   1
loop_
 _symmetry_equiv_pos_site_id
 _symmetry_equiv_pos_as_xyz
  1  'x, y, z'
loop_
 _atom_site_type_symbol
 _atom_site_label
 _atom_site_symmetry_multiplicity
 _atom_site_fract_x
 _atom_site_fract_y
 _atom_site_fract_z
 _atom_site_occupancy
  Np  Np0  1  0.341630  0.341630  0.000000  1
  U  U1  1  0.661847  0.661847  0.000000  1
  Te  Te2  1  0.001001  0.001001  0.000000  1
  N  N3  1  0.747761  0.247761  0.500000  1
  N  N4  1  0.247761  0.747761  0.500000  1
