# generated using pymatgen
data_Th3Cd3PtAu2
_symmetry_space_group_name_H-M   'P 1'
_cell_length_a   7.95016600
_cell_length_b   7.95016611
_cell_length_c   3.95518100
_cell_angle_alpha   90.00000000
_cell_angle_beta   90.00000000
_cell_angle_gamma   119.99998291
_symmetry_Int_Tables_number   1
_chemical_formula_structural   Th3Cd3PtAu2
_chemical_formula_sum   'Th3 Cd3 Pt1 Au2'
_cell_volume   216.49579672
_cell_formula_units_Z   1
loop_
 _symmetry_equiv_pos_site_id
 _symmetry_equiv_pos_as_xyz
  1  'x, y, z'
loop_
 _atom_site_type_symbol
 _atom_site_label
 _atom_site_symmetry_multiplicity
 _atom_site_fract_x
 _atom_site_fract_y
 _atom_site_fract_z
 _atom_site_occupancy
  Th  Th0  1  0.403531  0.416540  0.000000  1
  Th  Th1  1  0.583460  0.986992  0.000000  1
  Th  Th2  1  0.013008  0.596469  0.000000  1
  Cd  Cd3  1  0.743871  0.740103  0.500000  1
  Cd  Cd4  1  0.259897  0.003768  0.500000  1
  Cd  Cd5  1  0.996232  0.256129  0.500000  1
  Pt  Pt6  1  0.333333  0.666667  0.500000  1
  Au  Au7  1  0.666667  0.333333  0.500000  1
  Au  Au8  1  0.000000  0.000000  0.000000  1
