# generated using pymatgen
data_Y2Zr4PdPtF30
_symmetry_space_group_name_H-M   'P 1'
_cell_length_a   8.15998875
_cell_length_b   8.15998796
_cell_length_c   8.15662381
_cell_angle_alpha   79.50153907
_cell_angle_beta   79.50154362
_cell_angle_gamma   99.46948382
_symmetry_Int_Tables_number   1
_chemical_formula_structural   Y2Zr4PdPtF30
_chemical_formula_sum   'Y2 Zr4 Pd1 Pt1 F30'
_cell_volume   513.98263235
_cell_formula_units_Z   1
loop_
 _symmetry_equiv_pos_site_id
 _symmetry_equiv_pos_as_xyz
  1  'x, y, z'
loop_
 _atom_site_type_symbol
 _atom_site_label
 _atom_site_symmetry_multiplicity
 _atom_site_fract_x
 _atom_site_fract_y
 _atom_site_fract_z
 _atom_site_occupancy
  Y  Y0  1  0.177748  0.822252  0.250000  1
  Y  Y1  1  0.821749  0.178251  0.750000  1
  Zr  Zr2  1  0.742671  0.678878  0.670616  1
  Zr  Zr3  1  0.321122  0.257329  0.829384  1
  Zr  Zr4  1  0.256144  0.321240  0.329013  1
  Zr  Zr5  1  0.678760  0.743856  0.170987  1
  Pd  Pd6  1  0.250397  0.749603  0.750000  1
  Pt  Pt7  1  0.749972  0.250028  0.250000  1
  F  F8  1  0.313978  0.350622  0.057441  1
  F  F9  1  0.934590  0.810343  0.154743  1
  F  F10  1  0.839574  0.461637  0.687546  1
  F  F11  1  0.460717  0.839582  0.188488  1
  F  F12  1  0.809384  0.934437  0.655118  1
  F  F13  1  0.349808  0.312144  0.557645  1
  F  F14  1  0.687856  0.650192  0.942354  1
  F  F15  1  0.065563  0.190616  0.844882  1
  F  F16  1  0.160418  0.539283  0.311512  1
  F  F17  1  0.538363  0.160426  0.812454  1
  F  F18  1  0.189657  0.065410  0.345257  1
  F  F19  1  0.649378  0.686022  0.442559  1
  F  F20  1  0.771420  0.283912  0.001369  1
  F  F21  1  0.999182  0.274004  0.209483  1
  F  F22  1  0.787837  0.502337  0.220818  1
  F  F23  1  0.501534  0.787339  0.721681  1
  F  F24  1  0.272634  0.995973  0.709486  1
  F  F25  1  0.283893  0.769962  0.503593  1
  F  F26  1  0.230038  0.716107  0.996407  1
  F  F27  1  0.004027  0.727366  0.790514  1
  F  F28  1  0.212661  0.498466  0.778319  1
  F  F29  1  0.497663  0.212163  0.279182  1
  F  F30  1  0.725996  0.000818  0.290517  1
  F  F31  1  0.716088  0.228580  0.498631  1
  F  F32  1  0.473940  0.526060  0.250000  1
  F  F33  1  0.746505  0.955452  0.974187  1
  F  F34  1  0.044548  0.253495  0.525813  1
  F  F35  1  0.253125  0.045233  0.025852  1
  F  F36  1  0.954767  0.746875  0.474148  1
  F  F37  1  0.526293  0.473707  0.750000  1
