# generated using pymatgen
data_CeZn2HgPd2
_symmetry_space_group_name_H-M   'P 1'
_cell_length_a   5.25280811
_cell_length_b   5.29647022
_cell_length_c   5.29647100
_cell_angle_alpha   63.21895906
_cell_angle_beta   60.27232388
_cell_angle_gamma   60.27232415
_symmetry_Int_Tables_number   1
_chemical_formula_structural   CeZn2HgPd2
_chemical_formula_sum   'Ce1 Zn2 Hg1 Pd2'
_cell_volume   106.94936329
_cell_formula_units_Z   1
loop_
 _symmetry_equiv_pos_site_id
 _symmetry_equiv_pos_as_xyz
  1  'x, y, z'
loop_
 _atom_site_type_symbol
 _atom_site_label
 _atom_site_symmetry_multiplicity
 _atom_site_fract_x
 _atom_site_fract_y
 _atom_site_fract_z
 _atom_site_occupancy
  Ce  Ce0  1  0.744598  0.755402  0.755402  1
  Zn  Zn1  1  0.379533  0.370049  0.370049  1
  Zn  Zn2  1  0.880368  0.370049  0.370049  1
  Hg  Hg3  1  0.992680  0.007320  0.007320  1
  Pd  Pd4  1  0.376411  0.373958  0.873221  1
  Pd  Pd5  1  0.376411  0.873221  0.373958  1
