# generated using pymatgen
data_Yb3Tm5(Si4W3)4
_symmetry_space_group_name_H-M   'P 1'
_cell_length_a   6.71968389
_cell_length_b   6.89897364
_cell_length_c   12.90939945
_cell_angle_alpha   90.09501580
_cell_angle_beta   90.04707129
_cell_angle_gamma   90.06198053
_symmetry_Int_Tables_number   1
_chemical_formula_structural   Yb3Tm5(Si4W3)4
_chemical_formula_sum   'Yb3 Tm5 Si16 W12'
_cell_volume   598.46446658
_cell_formula_units_Z   1
loop_
 _symmetry_equiv_pos_site_id
 _symmetry_equiv_pos_as_xyz
  1  'x, y, z'
loop_
 _atom_site_type_symbol
 _atom_site_label
 _atom_site_symmetry_multiplicity
 _atom_site_fract_x
 _atom_site_fract_y
 _atom_site_fract_z
 _atom_site_occupancy
  Yb  Yb0  1  0.002987  0.833093  0.590535  1
  Yb  Yb1  1  0.497502  0.331794  0.409262  1
  Yb  Yb2  1  0.997149  0.168041  0.091201  1
  Tm  Tm3  1  0.497347  0.329637  0.093606  1
  Tm  Tm4  1  0.997538  0.169007  0.407327  1
  Tm  Tm5  1  0.503640  0.668456  0.592398  1
  Tm  Tm6  1  0.004028  0.831426  0.907481  1
  Tm  Tm7  1  0.503851  0.669212  0.906608  1
  Si  Si8  1  0.662283  0.042791  0.545917  1
  Si  Si9  1  0.163404  0.457208  0.954975  1
  Si  Si10  1  0.336305  0.956856  0.044352  1
  Si  Si11  1  0.837893  0.542974  0.454729  1
  Si  Si12  1  0.337685  0.957532  0.455228  1
  Si  Si13  1  0.836379  0.542452  0.044815  1
  Si  Si14  1  0.663042  0.043270  0.955248  1
  Si  Si15  1  0.162168  0.457980  0.545711  1
  Si  Si16  1  0.533089  0.374194  0.749458  1
  Si  Si17  1  0.032549  0.125882  0.750180  1
  Si  Si18  1  0.466871  0.622493  0.250754  1
  Si  Si19  1  0.966574  0.875417  0.249812  1
  Si  Si20  1  0.802639  0.638573  0.749225  1
  Si  Si21  1  0.299571  0.863604  0.748770  1
  Si  Si22  1  0.199392  0.362415  0.250329  1
  Si  Si23  1  0.699879  0.136305  0.249983  1
  W  W24  1  0.831460  0.338543  0.626117  1
  W  W25  1  0.331191  0.161687  0.874837  1
  W  W26  1  0.168876  0.662088  0.125598  1
  W  W27  1  0.667207  0.837569  0.373954  1
  W  W28  1  0.168687  0.662611  0.374113  1
  W  W29  1  0.666338  0.835693  0.125157  1
  W  W30  1  0.828879  0.340188  0.874840  1
  W  W31  1  0.331061  0.162591  0.626192  1
  W  W32  1  0.661657  0.003830  0.750853  1
  W  W33  1  0.162821  0.496007  0.751072  1
  W  W34  1  0.339323  0.992216  0.249417  1
  W  W35  1  0.838732  0.506364  0.249947  1
