# generated using pymatgen
data_La3Y5(TmSb)12
_symmetry_space_group_name_H-M   'P 1'
_cell_length_a   8.09790144
_cell_length_b   9.26784500
_cell_length_c   11.86032000
_cell_angle_alpha   90.00000000
_cell_angle_beta   89.98101674
_cell_angle_gamma   90.00000000
_symmetry_Int_Tables_number   1
_chemical_formula_structural   La3Y5(TmSb)12
_chemical_formula_sum   'La3 Y5 Tm12 Sb12'
_cell_volume   890.11809877
_cell_formula_units_Z   1
loop_
 _symmetry_equiv_pos_site_id
 _symmetry_equiv_pos_as_xyz
  1  'x, y, z'
loop_
 _atom_site_type_symbol
 _atom_site_label
 _atom_site_symmetry_multiplicity
 _atom_site_fract_x
 _atom_site_fract_y
 _atom_site_fract_z
 _atom_site_occupancy
  La  La0  1  0.180455  0.750000  0.721576  1
  La  La1  1  0.681934  0.750000  0.777759  1
  La  La2  1  0.818302  0.250000  0.278836  1
  Y  Y3  1  0.316630  0.250000  0.219847  1
  Y  Y4  1  0.351572  0.750000  0.215994  1
  Y  Y5  1  0.851713  0.750000  0.282252  1
  Y  Y6  1  0.648616  0.250000  0.785305  1
  Y  Y7  1  0.149494  0.250000  0.715701  1
  Tm  Tm8  1  0.026769  0.750000  0.989344  1
  Tm  Tm9  1  0.523565  0.750000  0.510434  1
  Tm  Tm10  1  0.974639  0.250000  0.013824  1
  Tm  Tm11  1  0.475009  0.250000  0.488495  1
  Tm  Tm12  1  0.307948  0.438736  0.939942  1
  Tm  Tm13  1  0.809652  0.062370  0.560740  1
  Tm  Tm14  1  0.692721  0.938747  0.060928  1
  Tm  Tm15  1  0.190071  0.561515  0.437608  1
  Tm  Tm16  1  0.692721  0.561253  0.060928  1
  Tm  Tm17  1  0.190071  0.938485  0.437608  1
  Tm  Tm18  1  0.307948  0.061264  0.939942  1
  Tm  Tm19  1  0.809652  0.437630  0.560740  1
  Sb  Sb20  1  0.435364  0.010109  0.668946  1
  Sb  Sb21  1  0.934997  0.489239  0.832180  1
  Sb  Sb22  1  0.560855  0.506863  0.329635  1
  Sb  Sb23  1  0.070506  0.993069  0.170112  1
  Sb  Sb24  1  0.560855  0.993137  0.329635  1
  Sb  Sb25  1  0.070506  0.506931  0.170112  1
  Sb  Sb26  1  0.435364  0.489891  0.668946  1
  Sb  Sb27  1  0.934997  0.010761  0.832180  1
  Sb  Sb28  1  0.407367  0.750000  0.965254  1
  Sb  Sb29  1  0.904863  0.750000  0.533588  1
  Sb  Sb30  1  0.587870  0.250000  0.038530  1
  Sb  Sb31  1  0.096977  0.250000  0.463080  1
