# generated using pymatgen
data_Tb6Yb(CCl5)2
_symmetry_space_group_name_H-M   'P 1'
_cell_length_a   10.14943272
_cell_length_b   10.14943255
_cell_length_c   12.70795550
_cell_angle_alpha   80.85093212
_cell_angle_beta   80.85093175
_cell_angle_gamma   21.73403081
_symmetry_Int_Tables_number   1
_chemical_formula_structural   Tb6Yb(CCl5)2
_chemical_formula_sum   'Tb6 Yb1 C2 Cl10'
_cell_volume   478.34695644
_cell_formula_units_Z   1
loop_
 _symmetry_equiv_pos_site_id
 _symmetry_equiv_pos_as_xyz
  1  'x, y, z'
loop_
 _atom_site_type_symbol
 _atom_site_label
 _atom_site_symmetry_multiplicity
 _atom_site_fract_x
 _atom_site_fract_y
 _atom_site_fract_z
 _atom_site_occupancy
  Tb  Tb0  1  0.819960  0.819960  0.507669  1
  Tb  Tb1  1  0.180040  0.180040  0.492331  1
  Tb  Tb2  1  0.696987  0.696987  0.727404  1
  Tb  Tb3  1  0.303013  0.303013  0.272596  1
  Tb  Tb4  1  0.348585  0.348585  0.737596  1
  Tb  Tb5  1  0.651415  0.651415  0.262404  1
  Yb  Yb6  1  0.000000  0.000000  0.000000  1
  C  C7  1  0.262387  0.262387  0.629060  1
  C  C8  1  0.737613  0.737613  0.370940  1
  Cl  Cl9  1  0.450909  0.450909  0.882056  1
  Cl  Cl10  1  0.549091  0.549091  0.117944  1
  Cl  Cl11  1  0.787376  0.787376  0.872897  1
  Cl  Cl12  1  0.212624  0.212624  0.127103  1
  Cl  Cl13  1  0.123653  0.123653  0.863673  1
  Cl  Cl14  1  0.073158  0.073158  0.370494  1
  Cl  Cl15  1  0.926842  0.926842  0.629506  1
  Cl  Cl16  1  0.404567  0.404567  0.387694  1
  Cl  Cl17  1  0.595433  0.595433  0.612306  1
  Cl  Cl18  1  0.876347  0.876347  0.136327  1
