# generated using pymatgen
data_LaI2Br
_symmetry_space_group_name_H-M   'P 1'
_cell_length_a   7.85871438
_cell_length_b   7.85871404
_cell_length_c   10.10044900
_cell_angle_alpha   90.00000000
_cell_angle_beta   90.00000000
_cell_angle_gamma   147.53898932
_symmetry_Int_Tables_number   1
_chemical_formula_structural   LaI2Br
_chemical_formula_sum   'La2 I4 Br2'
_cell_volume   334.80809583
_cell_formula_units_Z   2
loop_
 _symmetry_equiv_pos_site_id
 _symmetry_equiv_pos_as_xyz
  1  'x, y, z'
loop_
 _atom_site_type_symbol
 _atom_site_label
 _atom_site_symmetry_multiplicity
 _atom_site_fract_x
 _atom_site_fract_y
 _atom_site_fract_z
 _atom_site_occupancy
  La  La0  1  0.260101  0.739899  0.250000  1
  La  La1  1  0.739899  0.260101  0.750000  1
  I  I2  1  0.649379  0.350621  0.435398  1
  I  I3  1  0.350621  0.649379  0.564602  1
  I  I4  1  0.649379  0.350621  0.064602  1
  I  I5  1  0.350621  0.649379  0.935398  1
  Br  Br6  1  0.107414  0.892586  0.750000  1
  Br  Br7  1  0.892586  0.107414  0.250000  1
