# generated using pymatgen
data_TbLu4Mn2O12
_symmetry_space_group_name_H-M   'P 1'
_cell_length_a   6.71660730
_cell_length_b   6.71660867
_cell_length_c   7.11394105
_cell_angle_alpha   74.61499683
_cell_angle_beta   74.61499389
_cell_angle_gamma   49.95361059
_symmetry_Int_Tables_number   1
_chemical_formula_structural   TbLu4Mn2O12
_chemical_formula_sum   'Tb1 Lu4 Mn2 O12'
_cell_volume   234.92168248
_cell_formula_units_Z   1
loop_
 _symmetry_equiv_pos_site_id
 _symmetry_equiv_pos_as_xyz
  1  'x, y, z'
loop_
 _atom_site_type_symbol
 _atom_site_label
 _atom_site_symmetry_multiplicity
 _atom_site_fract_x
 _atom_site_fract_y
 _atom_site_fract_z
 _atom_site_occupancy
  Tb  Tb0  1  0.000000  0.000000  0.000000  1
  Lu  Lu1  1  0.693205  0.693205  0.664404  1
  Lu  Lu2  1  0.695493  0.695493  0.142819  1
  Lu  Lu3  1  0.304507  0.304507  0.857181  1
  Lu  Lu4  1  0.306795  0.306795  0.335596  1
  Mn  Mn5  1  0.246832  0.753168  0.500000  1
  Mn  Mn6  1  0.753168  0.246832  0.500000  1
  O  O7  1  0.409043  0.903044  0.923158  1
  O  O8  1  0.574417  0.098380  0.582283  1
  O  O9  1  0.901620  0.425583  0.417717  1
  O  O10  1  0.096956  0.590957  0.076842  1
  O  O11  1  0.999806  0.999806  0.320613  1
  O  O12  1  0.500158  0.500158  0.686716  1
  O  O13  1  0.903044  0.409043  0.923158  1
  O  O14  1  0.098380  0.574417  0.582283  1
  O  O15  1  0.425583  0.901620  0.417717  1
  O  O16  1  0.590957  0.096956  0.076842  1
  O  O17  1  0.499842  0.499842  0.313284  1
  O  O18  1  0.000194  0.000194  0.679387  1
