# generated using pymatgen
data_Mg7Sc(B6Ir)4
_symmetry_space_group_name_H-M   'P 1'
_cell_length_a   3.46663400
_cell_length_b   8.87211583
_cell_length_c   11.15787196
_cell_angle_alpha   89.81262035
_cell_angle_beta   90.00000000
_cell_angle_gamma   90.00000000
_symmetry_Int_Tables_number   1
_chemical_formula_structural   Mg7Sc(B6Ir)4
_chemical_formula_sum   'Mg7 Sc1 B24 Ir4'
_cell_volume   343.17389670
_cell_formula_units_Z   1
loop_
 _symmetry_equiv_pos_site_id
 _symmetry_equiv_pos_as_xyz
  1  'x, y, z'
loop_
 _atom_site_type_symbol
 _atom_site_label
 _atom_site_symmetry_multiplicity
 _atom_site_fract_x
 _atom_site_fract_y
 _atom_site_fract_z
 _atom_site_occupancy
  Mg  Mg0  1  0.500000  0.315796  0.418032  1
  Mg  Mg1  1  0.500000  0.683293  0.587401  1
  Mg  Mg2  1  0.500000  0.176612  0.910384  1
  Mg  Mg3  1  0.500000  0.822453  0.083651  1
  Mg  Mg4  1  0.500000  0.445199  0.125155  1
  Mg  Mg5  1  0.500000  0.555607  0.872553  1
  Mg  Mg6  1  0.500000  0.054136  0.624795  1
  Sc  Sc7  1  0.500000  0.944808  0.373374  1
  B  B8  1  0.000000  0.098856  0.474349  1
  B  B9  1  0.000000  0.902069  0.527892  1
  B  B10  1  0.000000  0.407250  0.974248  1
  B  B11  1  0.000000  0.592847  0.025360  1
  B  B12  1  0.000000  0.131982  0.318185  1
  B  B13  1  0.000000  0.870123  0.682824  1
  B  B14  1  0.000000  0.370934  0.819028  1
  B  B15  1  0.000000  0.629027  0.180356  1
  B  B16  1  0.000000  0.055369  0.063686  1
  B  B17  1  0.000000  0.944900  0.935812  1
  B  B18  1  0.000000  0.445798  0.565758  1
  B  B19  1  0.000000  0.553108  0.435407  1
  B  B20  1  0.000000  0.479012  0.287731  1
  B  B21  1  0.000000  0.521161  0.712359  1
  B  B22  1  0.000000  0.019662  0.788072  1
  B  B23  1  0.000000  0.981338  0.211910  1
  B  B24  1  0.000000  0.255323  0.077670  1
  B  B25  1  0.000000  0.745118  0.922097  1
  B  B26  1  0.000000  0.246716  0.580441  1
  B  B27  1  0.000000  0.751949  0.421473  1
  B  B28  1  0.000000  0.295647  0.237281  1
  B  B29  1  0.000000  0.705499  0.762836  1
  B  B30  1  0.000000  0.205092  0.737972  1
  B  B31  1  0.000000  0.794039  0.262543  1
  Ir  Ir32  1  0.500000  0.141751  0.178037  1
  Ir  Ir33  1  0.500000  0.859171  0.821424  1
  Ir  Ir34  1  0.500000  0.360372  0.681845  1
  Ir  Ir35  1  0.500000  0.637985  0.318059  1
