# generated using pymatgen
data_Li2Ho16In2Ir3Pd
_symmetry_space_group_name_H-M   'P 1'
_cell_length_a   9.59330968
_cell_length_b   9.64428435
_cell_length_c   9.64830200
_cell_angle_alpha   59.98621855
_cell_angle_beta   59.81019314
_cell_angle_gamma   59.58371101
_symmetry_Int_Tables_number   1
_chemical_formula_structural   Li2Ho16In2Ir3Pd
_chemical_formula_sum   'Li2 Ho16 In2 Ir3 Pd1'
_cell_volume   628.23417201
_cell_formula_units_Z   1
loop_
 _symmetry_equiv_pos_site_id
 _symmetry_equiv_pos_as_xyz
  1  'x, y, z'
loop_
 _atom_site_type_symbol
 _atom_site_label
 _atom_site_symmetry_multiplicity
 _atom_site_fract_x
 _atom_site_fract_y
 _atom_site_fract_z
 _atom_site_occupancy
  Li  Li0  1  0.425835  0.426193  0.423351  1
  Li  Li1  1  0.425835  0.426193  0.724622  1
  Ho  Ho2  1  0.440858  0.434201  0.062471  1
  Ho  Ho3  1  0.653248  0.648087  0.052264  1
  Ho  Ho4  1  0.184990  0.810583  0.194956  1
  Ho  Ho5  1  0.063485  0.437664  0.062162  1
  Ho  Ho6  1  0.184990  0.810583  0.809471  1
  Ho  Ho7  1  0.063485  0.437664  0.436690  1
  Ho  Ho8  1  0.812373  0.188618  0.189462  1
  Ho  Ho9  1  0.653248  0.648087  0.646403  1
  Ho  Ho10  1  0.812373  0.188618  0.809548  1
  Ho  Ho11  1  0.180586  0.188315  0.815549  1
  Ho  Ho12  1  0.040336  0.653583  0.653041  1
  Ho  Ho13  1  0.440718  0.062398  0.063237  1
  Ho  Ho14  1  0.063434  0.062966  0.436800  1
  Ho  Ho15  1  0.654425  0.048173  0.648702  1
  Ho  Ho16  1  0.809103  0.807625  0.191636  1
  Ho  Ho17  1  0.440718  0.062398  0.433648  1
  In  In18  1  0.415262  0.743580  0.420579  1
  In  In19  1  0.744449  0.415656  0.419948  1
  Ir  Ir20  1  0.854287  0.857860  0.861107  1
  Ir  Ir21  1  0.852909  0.426863  0.860113  1
  Ir  Ir22  1  0.854287  0.857860  0.426743  1
  Pd  Pd23  1  0.428767  0.856236  0.857498  1
