# generated using pymatgen
data_Yb5HoAl24(OsRh)4
_symmetry_space_group_name_H-M   'P 1'
_cell_length_a   8.78357300
_cell_length_b   8.81781187
_cell_length_c   9.58047600
_cell_angle_alpha   90.00000000
_cell_angle_beta   90.00000000
_cell_angle_gamma   119.35462707
_symmetry_Int_Tables_number   1
_chemical_formula_structural   Yb5HoAl24(OsRh)4
_chemical_formula_sum   'Yb5 Ho1 Al24 Os4 Rh4'
_cell_volume   646.75157157
_cell_formula_units_Z   1
loop_
 _symmetry_equiv_pos_site_id
 _symmetry_equiv_pos_as_xyz
  1  'x, y, z'
loop_
 _atom_site_type_symbol
 _atom_site_label
 _atom_site_symmetry_multiplicity
 _atom_site_fract_x
 _atom_site_fract_y
 _atom_site_fract_z
 _atom_site_occupancy
  Yb  Yb0  1  0.192856  0.385913  0.250000  1
  Yb  Yb1  1  0.808108  0.613356  0.750000  1
  Yb  Yb2  1  0.609712  0.809038  0.250000  1
  Yb  Yb3  1  0.392094  0.191400  0.750000  1
  Yb  Yb4  1  0.197168  0.809295  0.250000  1
  Ho  Ho5  1  0.802483  0.185625  0.750000  1
  Al  Al6  1  0.333192  0.668703  0.002093  1
  Al  Al7  1  0.666936  0.333503  0.992027  1
  Al  Al8  1  0.666936  0.333503  0.507973  1
  Al  Al9  1  0.333192  0.668703  0.497907  1
  Al  Al10  1  0.161628  0.322477  0.578410  1
  Al  Al11  1  0.838036  0.677668  0.421555  1
  Al  Al12  1  0.676284  0.838390  0.576168  1
  Al  Al13  1  0.838036  0.677668  0.078445  1
  Al  Al14  1  0.324158  0.160428  0.424489  1
  Al  Al15  1  0.161628  0.322477  0.921590  1
  Al  Al16  1  0.164746  0.841044  0.575288  1
  Al  Al17  1  0.324158  0.160428  0.075511  1
  Al  Al18  1  0.835516  0.160604  0.423405  1
  Al  Al19  1  0.676284  0.838390  0.923832  1
  Al  Al20  1  0.835516  0.160604  0.076595  1
  Al  Al21  1  0.164746  0.841044  0.924712  1
  Al  Al22  1  0.560695  0.126109  0.250000  1
  Al  Al23  1  0.436872  0.873800  0.750000  1
  Al  Al24  1  0.876838  0.440520  0.250000  1
  Al  Al25  1  0.120645  0.558751  0.750000  1
  Al  Al26  1  0.562289  0.438088  0.250000  1
  Al  Al27  1  0.438315  0.560158  0.750000  1
  Al  Al28  1  0.998156  0.999952  0.250000  1
  Al  Al29  1  0.002983  0.998518  0.750000  1
  Os  Os30  1  0.502004  0.001374  0.998680  1
  Os  Os31  1  0.502004  0.001374  0.501320  1
  Os  Os32  1  0.999537  0.000610  0.000137  1
  Os  Os33  1  0.999537  0.000610  0.499863  1
  Rh  Rh34  1  0.999517  0.499276  0.999786  1
  Rh  Rh35  1  0.498839  0.500661  0.001024  1
  Rh  Rh36  1  0.999517  0.499276  0.500214  1
  Rh  Rh37  1  0.498839  0.500661  0.498976  1
