# generated using pymatgen
data_ErTmGa2CuIr
_symmetry_space_group_name_H-M   'P 1'
_cell_length_a   4.33394200
_cell_length_b   6.83994600
_cell_length_c   7.57146900
_cell_angle_alpha   90.00000000
_cell_angle_beta   90.00000000
_cell_angle_gamma   90.00000000
_symmetry_Int_Tables_number   1
_chemical_formula_structural   ErTmGa2CuIr
_chemical_formula_sum   'Er2 Tm2 Ga4 Cu2 Ir2'
_cell_volume   224.44809133
_cell_formula_units_Z   2
loop_
 _symmetry_equiv_pos_site_id
 _symmetry_equiv_pos_as_xyz
  1  'x, y, z'
loop_
 _atom_site_type_symbol
 _atom_site_label
 _atom_site_symmetry_multiplicity
 _atom_site_fract_x
 _atom_site_fract_y
 _atom_site_fract_z
 _atom_site_occupancy
  Er  Er0  1  0.750000  0.022647  0.688278  1
  Er  Er1  1  0.750000  0.522647  0.811722  1
  Tm  Tm2  1  0.250000  0.989592  0.297090  1
  Tm  Tm3  1  0.250000  0.489592  0.202910  1
  Ga  Ga4  1  0.250000  0.326517  0.580052  1
  Ga  Ga5  1  0.250000  0.826517  0.919948  1
  Ga  Ga6  1  0.750000  0.672698  0.432626  1
  Ga  Ga7  1  0.750000  0.172698  0.067374  1
  Cu  Cu8  1  0.250000  0.214845  0.898939  1
  Cu  Cu9  1  0.250000  0.714845  0.601061  1
  Ir  Ir10  1  0.750000  0.773699  0.102628  1
  Ir  Ir11  1  0.750000  0.273699  0.397372  1
