# generated using pymatgen
data_Eu2Y3Sn4
_symmetry_space_group_name_H-M   'P 1'
_cell_length_a   8.13910200
_cell_length_b   8.36333600
_cell_length_c   15.78224600
_cell_angle_alpha   90.00000000
_cell_angle_beta   90.00000000
_cell_angle_gamma   90.00000000
_symmetry_Int_Tables_number   1
_chemical_formula_structural   Eu2Y3Sn4
_chemical_formula_sum   'Eu8 Y12 Sn16'
_cell_volume   1074.29819170
_cell_formula_units_Z   4
loop_
 _symmetry_equiv_pos_site_id
 _symmetry_equiv_pos_as_xyz
  1  'x, y, z'
loop_
 _atom_site_type_symbol
 _atom_site_label
 _atom_site_symmetry_multiplicity
 _atom_site_fract_x
 _atom_site_fract_y
 _atom_site_fract_z
 _atom_site_occupancy
  Eu  Eu0  1  0.500306  0.676257  0.592938  1
  Eu  Eu1  1  0.000306  0.823743  0.907062  1
  Eu  Eu2  1  0.499694  0.323743  0.092938  1
  Eu  Eu3  1  0.999694  0.176257  0.407062  1
  Eu  Eu4  1  0.499694  0.323743  0.407062  1
  Eu  Eu5  1  0.999694  0.176257  0.092938  1
  Eu  Eu6  1  0.500306  0.676257  0.907062  1
  Eu  Eu7  1  0.000306  0.823743  0.592938  1
  Y  Y8  1  0.666775  0.165939  0.624109  1
  Y  Y9  1  0.166775  0.334061  0.875891  1
  Y  Y10  1  0.333225  0.834061  0.124109  1
  Y  Y11  1  0.833225  0.665939  0.375891  1
  Y  Y12  1  0.333225  0.834061  0.375891  1
  Y  Y13  1  0.833225  0.665939  0.124109  1
  Y  Y14  1  0.666775  0.165939  0.875891  1
  Y  Y15  1  0.166775  0.334061  0.624109  1
  Y  Y16  1  0.829509  0.507440  0.750000  1
  Y  Y17  1  0.329509  0.992560  0.750000  1
  Y  Y18  1  0.170491  0.492560  0.250000  1
  Y  Y19  1  0.670491  0.007440  0.250000  1
  Sn  Sn20  1  0.667736  0.961929  0.457823  1
  Sn  Sn21  1  0.167736  0.538071  0.042177  1
  Sn  Sn22  1  0.332264  0.038071  0.957823  1
  Sn  Sn23  1  0.832264  0.461929  0.542177  1
  Sn  Sn24  1  0.332264  0.038071  0.542177  1
  Sn  Sn25  1  0.832264  0.461929  0.957823  1
  Sn  Sn26  1  0.667736  0.961929  0.042177  1
  Sn  Sn27  1  0.167736  0.538071  0.457823  1
  Sn  Sn28  1  0.466836  0.378479  0.750000  1
  Sn  Sn29  1  0.966836  0.121521  0.750000  1
  Sn  Sn30  1  0.533164  0.621521  0.250000  1
  Sn  Sn31  1  0.033164  0.878479  0.250000  1
  Sn  Sn32  1  0.699381  0.864432  0.750000  1
  Sn  Sn33  1  0.199381  0.635568  0.750000  1
  Sn  Sn34  1  0.300619  0.135568  0.250000  1
  Sn  Sn35  1  0.800619  0.364432  0.250000  1
