# generated using pymatgen
data_Pr8Dy12Ga11Si4Ge
_symmetry_space_group_name_H-M   'P 1'
_cell_length_a   7.59986664
_cell_length_b   8.01357962
_cell_length_c   15.20991311
_cell_angle_alpha   89.95768513
_cell_angle_beta   90.06931256
_cell_angle_gamma   90.22915724
_symmetry_Int_Tables_number   1
_chemical_formula_structural   Pr8Dy12Ga11Si4Ge
_chemical_formula_sum   'Pr8 Dy12 Ga11 Si4 Ge1'
_cell_volume   926.30786742
_cell_formula_units_Z   1
loop_
 _symmetry_equiv_pos_site_id
 _symmetry_equiv_pos_as_xyz
  1  'x, y, z'
loop_
 _atom_site_type_symbol
 _atom_site_label
 _atom_site_symmetry_multiplicity
 _atom_site_fract_x
 _atom_site_fract_y
 _atom_site_fract_z
 _atom_site_occupancy
  Pr  Pr0  1  0.016839  0.180801  0.405102  1
  Pr  Pr1  1  0.517256  0.322942  0.406365  1
  Pr  Pr2  1  0.485434  0.679765  0.905472  1
  Pr  Pr3  1  0.485407  0.682385  0.594356  1
  Pr  Pr4  1  0.983499  0.814512  0.594546  1
  Pr  Pr5  1  0.981819  0.821822  0.905178  1
  Pr  Pr6  1  0.514190  0.319602  0.095087  1
  Pr  Pr7  1  0.014890  0.182377  0.095366  1
  Dy  Dy8  1  0.327807  0.174383  0.621088  1
  Dy  Dy9  1  0.674363  0.821894  0.378974  1
  Dy  Dy10  1  0.665903  0.982618  0.751946  1
  Dy  Dy11  1  0.174328  0.674438  0.377394  1
  Dy  Dy12  1  0.822429  0.325091  0.878167  1
  Dy  Dy13  1  0.824486  0.328756  0.621863  1
  Dy  Dy14  1  0.838116  0.486828  0.250851  1
  Dy  Dy15  1  0.335536  0.016598  0.250122  1
  Dy  Dy16  1  0.328416  0.176149  0.877114  1
  Dy  Dy17  1  0.174621  0.671491  0.123063  1
  Dy  Dy18  1  0.673087  0.825220  0.121655  1
  Dy  Dy19  1  0.160512  0.512596  0.750969  1
  Ga  Ga20  1  0.274802  0.878300  0.749219  1
  Ga  Ga21  1  0.467708  0.608036  0.251205  1
  Ga  Ga22  1  0.032722  0.114646  0.748225  1
  Ga  Ga23  1  0.531812  0.393258  0.749041  1
  Ga  Ga24  1  0.154287  0.467802  0.539930  1
  Ga  Ga25  1  0.966855  0.885976  0.249977  1
  Ga  Ga26  1  0.724431  0.121926  0.251286  1
  Ga  Ga27  1  0.844477  0.531726  0.041050  1
  Ga  Ga28  1  0.344469  0.966029  0.040083  1
  Ga  Ga29  1  0.154136  0.468167  0.958049  1
  Ga  Ga30  1  0.659230  0.034552  0.540610  1
  Si  Si31  1  0.850204  0.530640  0.457905  1
  Si  Si32  1  0.776162  0.617985  0.749393  1
  Si  Si33  1  0.224386  0.381605  0.251447  1
  Si  Si34  1  0.651625  0.032751  0.959602  1
  Ge  Ge35  1  0.343756  0.966330  0.458301  1
