# generated using pymatgen
data_ZnPd2PbO7
_symmetry_space_group_name_H-M   'P 1'
_cell_length_a   7.25645766
_cell_length_b   7.13438493
_cell_length_c   7.13438507
_cell_angle_alpha   59.06360377
_cell_angle_beta   59.43234406
_cell_angle_gamma   59.43235282
_symmetry_Int_Tables_number   1
_chemical_formula_structural   ZnPd2PbO7
_chemical_formula_sum   'Zn2 Pd4 Pb2 O14'
_cell_volume   257.05597800
_cell_formula_units_Z   2
loop_
 _symmetry_equiv_pos_site_id
 _symmetry_equiv_pos_as_xyz
  1  'x, y, z'
loop_
 _atom_site_type_symbol
 _atom_site_label
 _atom_site_symmetry_multiplicity
 _atom_site_fract_x
 _atom_site_fract_y
 _atom_site_fract_z
 _atom_site_occupancy
  Zn  Zn0  1  0.625000  0.125000  0.625000  1
  Zn  Zn1  1  0.625000  0.625000  0.125000  1
  Pd  Pd2  1  0.625000  0.125000  0.125000  1
  Pd  Pd3  1  0.125000  0.625000  0.125000  1
  Pd  Pd4  1  0.125000  0.125000  0.625000  1
  Pd  Pd5  1  0.125000  0.125000  0.125000  1
  Pb  Pb6  1  0.125000  0.625000  0.625000  1
  Pb  Pb7  1  0.625000  0.625000  0.625000  1
  O  O8  1  0.786445  0.783625  0.213537  1
  O  O9  1  0.216394  0.213537  0.783625  1
  O  O10  1  0.786445  0.213537  0.783625  1
  O  O11  1  0.216394  0.783625  0.213537  1
  O  O12  1  0.214744  0.785256  0.785256  1
  O  O13  1  0.783665  0.216335  0.216335  1
  O  O14  1  0.463555  0.466375  0.036463  1
  O  O15  1  0.033606  0.036463  0.466375  1
  O  O16  1  0.463555  0.036463  0.466375  1
  O  O17  1  0.033606  0.466375  0.036463  1
  O  O18  1  0.035256  0.464744  0.464744  1
  O  O19  1  0.466335  0.033665  0.033665  1
  O  O20  1  0.507101  0.492899  0.492899  1
  O  O21  1  0.742899  0.757101  0.757101  1
