# generated using pymatgen
data_Sc2(Ga3Co)3
_symmetry_space_group_name_H-M   'P 1'
_cell_length_a   7.28376053
_cell_length_b   7.28376063
_cell_length_c   9.22745700
_cell_angle_alpha   90.00000000
_cell_angle_beta   90.00000000
_cell_angle_gamma   120.03168658
_symmetry_Int_Tables_number   1
_chemical_formula_structural   Sc2(Ga3Co)3
_chemical_formula_sum   'Sc4 Ga18 Co6'
_cell_volume   423.82369081
_cell_formula_units_Z   2
loop_
 _symmetry_equiv_pos_site_id
 _symmetry_equiv_pos_as_xyz
  1  'x, y, z'
loop_
 _atom_site_type_symbol
 _atom_site_label
 _atom_site_symmetry_multiplicity
 _atom_site_fract_x
 _atom_site_fract_y
 _atom_site_fract_z
 _atom_site_occupancy
  Sc  Sc0  1  0.331389  0.002201  0.750000  1
  Sc  Sc1  1  0.002201  0.331389  0.750000  1
  Sc  Sc2  1  0.668611  0.997799  0.250000  1
  Sc  Sc3  1  0.997799  0.668611  0.250000  1
  Ga  Ga4  1  0.666068  0.003861  0.925384  1
  Ga  Ga5  1  0.333932  0.996139  0.425384  1
  Ga  Ga6  1  0.996139  0.333932  0.425383  1
  Ga  Ga7  1  0.333932  0.996139  0.074616  1
  Ga  Ga8  1  0.003861  0.666068  0.925384  1
  Ga  Ga9  1  0.996139  0.333932  0.074616  1
  Ga  Ga10  1  0.330522  0.330522  0.562284  1
  Ga  Ga11  1  0.330522  0.330522  0.937716  1
  Ga  Ga12  1  0.669478  0.669478  0.062284  1
  Ga  Ga13  1  0.669478  0.669478  0.437716  1
  Ga  Ga14  1  0.886248  0.886248  0.750000  1
  Ga  Ga15  1  0.113752  0.113752  0.250000  1
  Ga  Ga16  1  0.336667  0.557423  0.250000  1
  Ga  Ga17  1  0.557423  0.336667  0.250000  1
  Ga  Ga18  1  0.663333  0.442577  0.750000  1
  Ga  Ga19  1  0.442577  0.663333  0.750000  1
  Ga  Ga20  1  0.666068  0.003861  0.574617  1
  Ga  Ga21  1  0.003861  0.666068  0.574616  1
  Co  Co22  1  0.328744  0.671256  0.000000  1
  Co  Co23  1  0.671256  0.328744  0.500000  1
  Co  Co24  1  0.671256  0.328744  0.000000  1
  Co  Co25  1  0.328744  0.671256  0.500000  1
  Co  Co26  1  0.000000  0.000000  0.000000  1
  Co  Co27  1  0.000000  0.000000  0.500000  1
