# generated using pymatgen
data_TbTmFe6(SiB)2
_symmetry_space_group_name_H-M   'P 1'
_cell_length_a   5.13094300
_cell_length_b   5.13180622
_cell_length_c   6.63831400
_cell_angle_alpha   90.00000000
_cell_angle_beta   90.00000000
_cell_angle_gamma   119.99442940
_symmetry_Int_Tables_number   1
_chemical_formula_structural   TbTmFe6(SiB)2
_chemical_formula_sum   'Tb1 Tm1 Fe6 Si2 B2'
_cell_volume   151.38409084
_cell_formula_units_Z   1
loop_
 _symmetry_equiv_pos_site_id
 _symmetry_equiv_pos_as_xyz
  1  'x, y, z'
loop_
 _atom_site_type_symbol
 _atom_site_label
 _atom_site_symmetry_multiplicity
 _atom_site_fract_x
 _atom_site_fract_y
 _atom_site_fract_z
 _atom_site_occupancy
  Tb  Tb0  1  0.999983  0.000000  0.000000  1
  Tm  Tm1  1  0.999984  0.000000  0.500000  1
  Fe  Fe2  1  0.499984  0.000000  0.283200  1
  Fe  Fe3  1  0.499983  0.500000  0.283447  1
  Fe  Fe4  1  0.999983  0.500000  0.283447  1
  Fe  Fe5  1  0.499984  0.000000  0.716800  1
  Fe  Fe6  1  0.499983  0.500000  0.716553  1
  Fe  Fe7  1  0.999983  0.500000  0.716553  1
  Si  Si8  1  0.333110  0.666250  0.000000  1
  Si  Si9  1  0.666858  0.333750  0.000000  1
  B  B10  1  0.333242  0.666518  0.500000  1
  B  B11  1  0.666724  0.333482  0.500000  1
