# generated using pymatgen
data_Ho3Al12Os3Rh
_symmetry_space_group_name_H-M   'P 1'
_cell_length_a   8.80642159
_cell_length_b   8.78087453
_cell_length_c   9.57902597
_cell_angle_alpha   90.00000122
_cell_angle_beta   90.18354975
_cell_angle_gamma   119.90408504
_symmetry_Int_Tables_number   1
_chemical_formula_structural   Ho3Al12Os3Rh
_chemical_formula_sum   'Ho6 Al24 Os6 Rh2'
_cell_volume   642.10373594
_cell_formula_units_Z   2
loop_
 _symmetry_equiv_pos_site_id
 _symmetry_equiv_pos_as_xyz
  1  'x, y, z'
loop_
 _atom_site_type_symbol
 _atom_site_label
 _atom_site_symmetry_multiplicity
 _atom_site_fract_x
 _atom_site_fract_y
 _atom_site_fract_z
 _atom_site_occupancy
  Ho  Ho0  1  0.190958  0.387660  0.252692  1
  Ho  Ho1  1  0.809042  0.612340  0.747308  1
  Ho  Ho2  1  0.613937  0.806968  0.251950  1
  Ho  Ho3  1  0.386063  0.193032  0.748050  1
  Ho  Ho4  1  0.190958  0.803299  0.252692  1
  Ho  Ho5  1  0.809042  0.196701  0.747308  1
  Al  Al6  1  0.332547  0.666274  0.022589  1
  Al  Al7  1  0.667453  0.333726  0.977411  1
  Al  Al8  1  0.666236  0.333117  0.520384  1
  Al  Al9  1  0.333764  0.666883  0.479616  1
  Al  Al10  1  0.164780  0.327341  0.576173  1
  Al  Al11  1  0.835220  0.672659  0.423827  1
  Al  Al12  1  0.673396  0.836698  0.575872  1
  Al  Al13  1  0.838452  0.673752  0.076884  1
  Al  Al14  1  0.326604  0.163302  0.424128  1
  Al  Al15  1  0.161548  0.326248  0.923116  1
  Al  Al16  1  0.164780  0.837438  0.576173  1
  Al  Al17  1  0.325126  0.162563  0.078386  1
  Al  Al18  1  0.835220  0.162562  0.423827  1
  Al  Al19  1  0.674874  0.837437  0.921614  1
  Al  Al20  1  0.838452  0.164701  0.076884  1
  Al  Al21  1  0.161548  0.835299  0.923116  1
  Al  Al22  1  0.560494  0.122749  0.249701  1
  Al  Al23  1  0.439506  0.877251  0.750299  1
  Al  Al24  1  0.874958  0.437480  0.249422  1
  Al  Al25  1  0.125042  0.562520  0.750578  1
  Al  Al26  1  0.560494  0.437746  0.249701  1
  Al  Al27  1  0.439506  0.562254  0.750299  1
  Al  Al28  1  0.998581  0.999290  0.250063  1
  Al  Al29  1  0.001419  0.000710  0.749937  1
  Os  Os30  1  0.000000  0.500000  0.000000  1
  Os  Os31  1  0.500000  0.000000  0.500000  1
  Os  Os32  1  0.000000  0.500000  0.500000  1
  Os  Os33  1  0.500000  0.500000  0.500000  1
  Os  Os34  1  0.000000  0.000000  0.000000  1
  Os  Os35  1  0.000000  0.000000  0.500000  1
  Rh  Rh36  1  0.500000  0.000000  0.000000  1
  Rh  Rh37  1  0.500000  0.500000  0.000000  1
