# generated using pymatgen
data_CaAc8YbIr6
_symmetry_space_group_name_H-M   'P 1'
_cell_length_a   6.91677800
_cell_length_b   11.62392300
_cell_length_c   11.62392300
_cell_angle_alpha   90.00000000
_cell_angle_beta   90.00000000
_cell_angle_gamma   90.00000000
_symmetry_Int_Tables_number   1
_chemical_formula_structural   CaAc8YbIr6
_chemical_formula_sum   'Ca2 Ac16 Yb2 Ir12'
_cell_volume   934.56451208
_cell_formula_units_Z   2
loop_
 _symmetry_equiv_pos_site_id
 _symmetry_equiv_pos_as_xyz
  1  'x, y, z'
loop_
 _atom_site_type_symbol
 _atom_site_label
 _atom_site_symmetry_multiplicity
 _atom_site_fract_x
 _atom_site_fract_y
 _atom_site_fract_z
 _atom_site_occupancy
  Ca  Ca0  1  0.500000  0.750000  0.250000  1
  Ca  Ca1  1  0.000000  0.750000  0.250000  1
  Ac  Ac2  1  0.394631  0.838414  0.538954  1
  Ac  Ac3  1  0.894631  0.661586  0.538954  1
  Ac  Ac4  1  0.894631  0.838414  0.961046  1
  Ac  Ac5  1  0.394631  0.661586  0.961046  1
  Ac  Ac6  1  0.895153  0.538081  0.838154  1
  Ac  Ac7  1  0.395153  0.961919  0.838154  1
  Ac  Ac8  1  0.395153  0.538081  0.661846  1
  Ac  Ac9  1  0.895153  0.961919  0.661846  1
  Ac  Ac10  1  0.604847  0.161846  0.461920  1
  Ac  Ac11  1  0.104847  0.338154  0.461920  1
  Ac  Ac12  1  0.104847  0.161846  0.038081  1
  Ac  Ac13  1  0.604847  0.338154  0.038081  1
  Ac  Ac14  1  0.105369  0.461047  0.161586  1
  Ac  Ac15  1  0.605369  0.038954  0.161586  1
  Ac  Ac16  1  0.605369  0.461047  0.338414  1
  Ac  Ac17  1  0.105369  0.038954  0.338414  1
  Yb  Yb18  1  0.000000  0.250000  0.750000  1
  Yb  Yb19  1  0.500000  0.250000  0.750000  1
  Ir  Ir20  1  0.250000  0.905222  0.094778  1
  Ir  Ir21  1  0.750000  0.594778  0.094778  1
  Ir  Ir22  1  0.750000  0.905222  0.405222  1
  Ir  Ir23  1  0.250000  0.594778  0.405222  1
  Ir  Ir24  1  0.750000  0.098048  0.901952  1
  Ir  Ir25  1  0.250000  0.401952  0.901952  1
  Ir  Ir26  1  0.250000  0.098048  0.598048  1
  Ir  Ir27  1  0.750000  0.401952  0.598048  1
  Ir  Ir28  1  0.128389  0.750000  0.750000  1
  Ir  Ir29  1  0.628389  0.750000  0.750000  1
  Ir  Ir30  1  0.871611  0.250000  0.250000  1
  Ir  Ir31  1  0.371611  0.250000  0.250000  1
