# generated using pymatgen
data_Zr6Zn16CdSbPt6
_symmetry_space_group_name_H-M   'P 1'
_cell_length_a   8.92023961
_cell_length_b   8.92023977
_cell_length_c   8.92024000
_cell_angle_alpha   59.99999916
_cell_angle_beta   59.99999856
_cell_angle_gamma   59.99999536
_symmetry_Int_Tables_number   1
_chemical_formula_structural   Zr6Zn16CdSbPt6
_chemical_formula_sum   'Zr6 Zn16 Cd1 Sb1 Pt6'
_cell_volume   501.89696249
_cell_formula_units_Z   1
loop_
 _symmetry_equiv_pos_site_id
 _symmetry_equiv_pos_as_xyz
  1  'x, y, z'
loop_
 _atom_site_type_symbol
 _atom_site_label
 _atom_site_symmetry_multiplicity
 _atom_site_fract_x
 _atom_site_fract_y
 _atom_site_fract_z
 _atom_site_occupancy
  Zr  Zr0  1  0.729758  0.270242  0.270242  1
  Zr  Zr1  1  0.270242  0.729758  0.729758  1
  Zr  Zr2  1  0.270242  0.729758  0.270242  1
  Zr  Zr3  1  0.729758  0.270242  0.729758  1
  Zr  Zr4  1  0.270242  0.270242  0.729758  1
  Zr  Zr5  1  0.729758  0.729758  0.270242  1
  Zn  Zn6  1  0.131740  0.131740  0.131740  1
  Zn  Zn7  1  0.868260  0.868260  0.868260  1
  Zn  Zn8  1  0.131740  0.131740  0.604783  1
  Zn  Zn9  1  0.131740  0.604783  0.131740  1
  Zn  Zn10  1  0.868260  0.868260  0.395217  1
  Zn  Zn11  1  0.868260  0.395217  0.868260  1
  Zn  Zn12  1  0.604783  0.131740  0.131740  1
  Zn  Zn13  1  0.395217  0.868260  0.868260  1
  Zn  Zn14  1  0.344917  0.344917  0.344917  1
  Zn  Zn15  1  0.655083  0.655083  0.655083  1
  Zn  Zn16  1  0.344917  0.344917  0.965251  1
  Zn  Zn17  1  0.344917  0.965251  0.344917  1
  Zn  Zn18  1  0.655083  0.655083  0.034749  1
  Zn  Zn19  1  0.655083  0.034749  0.655083  1
  Zn  Zn20  1  0.965251  0.344917  0.344917  1
  Zn  Zn21  1  0.034749  0.655083  0.655083  1
  Cd  Cd22  1  0.000000  0.000000  0.000000  1
  Sb  Sb23  1  0.500000  0.500000  0.500000  1
  Pt  Pt24  1  0.500000  0.000000  0.000000  1
  Pt  Pt25  1  0.000000  0.500000  0.500000  1
  Pt  Pt26  1  0.000000  0.500000  0.000000  1
  Pt  Pt27  1  0.500000  0.000000  0.500000  1
  Pt  Pt28  1  0.000000  0.000000  0.500000  1
  Pt  Pt29  1  0.500000  0.500000  0.000000  1
