# generated using pymatgen
data_La4Dy2Zn4Pt13
_symmetry_space_group_name_H-M   'P 1'
_cell_length_a   8.40075410
_cell_length_b   8.40484498
_cell_length_c   8.40484542
_cell_angle_alpha   109.91988462
_cell_angle_beta   109.25709899
_cell_angle_gamma   109.25709366
_symmetry_Int_Tables_number   1
_chemical_formula_structural   La4Dy2Zn4Pt13
_chemical_formula_sum   'La4 Dy2 Zn4 Pt13'
_cell_volume   456.70082476
_cell_formula_units_Z   1
loop_
 _symmetry_equiv_pos_site_id
 _symmetry_equiv_pos_as_xyz
  1  'x, y, z'
loop_
 _atom_site_type_symbol
 _atom_site_label
 _atom_site_symmetry_multiplicity
 _atom_site_fract_x
 _atom_site_fract_y
 _atom_site_fract_z
 _atom_site_occupancy
  La  La0  1  0.000000  0.300440  0.300651  1
  La  La1  1  0.299594  0.299111  0.000483  1
  La  La2  1  0.700406  0.999517  0.700889  1
  La  La3  1  0.000000  0.699349  0.699560  1
  Dy  Dy4  1  0.692728  0.692697  0.000032  1
  Dy  Dy5  1  0.307272  0.999968  0.307303  1
  Zn  Zn6  1  0.000000  0.000779  0.492353  1
  Zn  Zn7  1  0.000000  0.507647  0.999221  1
  Zn  Zn8  1  0.500000  0.000380  0.999620  1
  Zn  Zn9  1  0.500000  0.500380  0.499620  1
  Pt  Pt10  1  0.331420  0.329577  0.658874  1
  Pt  Pt11  1  0.668580  0.998157  0.327453  1
  Pt  Pt12  1  0.000000  0.678340  0.321660  1
  Pt  Pt13  1  0.669493  0.334166  0.001397  1
  Pt  Pt14  1  0.330507  0.664674  0.331903  1
  Pt  Pt15  1  0.000000  0.328317  0.671683  1
  Pt  Pt16  1  0.331420  0.672547  0.001843  1
  Pt  Pt17  1  0.330507  0.998603  0.665834  1
  Pt  Pt18  1  0.650641  0.323790  0.326850  1
  Pt  Pt19  1  0.669493  0.668097  0.335326  1
  Pt  Pt20  1  0.668580  0.341126  0.670423  1
  Pt  Pt21  1  0.349359  0.673150  0.676210  1
  Pt  Pt22  1  0.000000  0.989187  0.010813  1
