# generated using pymatgen
data_Li4CeY3Si8
_symmetry_space_group_name_H-M   'P 1'
_cell_length_a   3.80504300
_cell_length_b   7.60177185
_cell_length_c   10.24899426
_cell_angle_alpha   90.05550886
_cell_angle_beta   90.00000000
_cell_angle_gamma   90.00000000
_symmetry_Int_Tables_number   1
_chemical_formula_structural   Li4CeY3Si8
_chemical_formula_sum   'Li4 Ce1 Y3 Si8'
_cell_volume   296.45272462
_cell_formula_units_Z   1
loop_
 _symmetry_equiv_pos_site_id
 _symmetry_equiv_pos_as_xyz
  1  'x, y, z'
loop_
 _atom_site_type_symbol
 _atom_site_label
 _atom_site_symmetry_multiplicity
 _atom_site_fract_x
 _atom_site_fract_y
 _atom_site_fract_z
 _atom_site_occupancy
  Li  Li0  1  0.250000  0.990816  0.391949  1
  Li  Li1  1  0.250000  0.491340  0.106074  1
  Li  Li2  1  0.750000  0.009244  0.609268  1
  Li  Li3  1  0.750000  0.508811  0.892450  1
  Ce  Ce4  1  0.750000  0.357668  0.362980  1
  Y  Y5  1  0.250000  0.137810  0.864126  1
  Y  Y6  1  0.250000  0.637188  0.635657  1
  Y  Y7  1  0.750000  0.864158  0.134912  1
  Si  Si8  1  0.250000  0.235087  0.568918  1
  Si  Si9  1  0.250000  0.731659  0.932180  1
  Si  Si10  1  0.750000  0.771534  0.431247  1
  Si  Si11  1  0.750000  0.265946  0.067069  1
  Si  Si12  1  0.250000  0.657802  0.320709  1
  Si  Si13  1  0.250000  0.158800  0.179884  1
  Si  Si14  1  0.750000  0.340062  0.682862  1
  Si  Si15  1  0.750000  0.842076  0.819716  1
