# generated using pymatgen
data_MgSc16Co4Ag3
_symmetry_space_group_name_H-M   'P 1'
_cell_length_a   8.86629867
_cell_length_b   8.87592712
_cell_length_c   8.87592700
_cell_angle_alpha   60.00000418
_cell_angle_beta   59.96407438
_cell_angle_gamma   59.96406727
_symmetry_Int_Tables_number   1
_chemical_formula_structural   MgSc16Co4Ag3
_chemical_formula_sum   'Mg1 Sc16 Co4 Ag3'
_cell_volume   493.64956246
_cell_formula_units_Z   1
loop_
 _symmetry_equiv_pos_site_id
 _symmetry_equiv_pos_as_xyz
  1  'x, y, z'
loop_
 _atom_site_type_symbol
 _atom_site_label
 _atom_site_symmetry_multiplicity
 _atom_site_fract_x
 _atom_site_fract_y
 _atom_site_fract_z
 _atom_site_occupancy
  Mg  Mg0  1  0.279518  0.573494  0.573494  1
  Sc  Sc1  1  0.810844  0.188110  0.188110  1
  Sc  Sc2  1  0.185313  0.814646  0.814646  1
  Sc  Sc3  1  0.185313  0.814646  0.185397  1
  Sc  Sc4  1  0.810844  0.188110  0.812935  1
  Sc  Sc5  1  0.185313  0.185397  0.814646  1
  Sc  Sc6  1  0.810844  0.812935  0.188110  1
  Sc  Sc7  1  0.934709  0.563091  0.563092  1
  Sc  Sc8  1  0.561759  0.937288  0.937289  1
  Sc  Sc9  1  0.561760  0.937288  0.563663  1
  Sc  Sc10  1  0.934709  0.563091  0.939106  1
  Sc  Sc11  1  0.561760  0.563662  0.937289  1
  Sc  Sc12  1  0.934709  0.939105  0.563092  1
  Sc  Sc13  1  0.348322  0.346014  0.346014  1
  Sc  Sc14  1  0.348322  0.346014  0.959650  1
  Sc  Sc15  1  0.348322  0.959650  0.346014  1
  Sc  Sc16  1  0.949458  0.350180  0.350180  1
  Co  Co17  1  0.139592  0.142866  0.142866  1
  Co  Co18  1  0.139592  0.142866  0.574677  1
  Co  Co19  1  0.139592  0.574677  0.142866  1
  Co  Co20  1  0.574858  0.141714  0.141714  1
  Ag  Ag21  1  0.584849  0.583758  0.583758  1
  Ag  Ag22  1  0.584849  0.583758  0.247637  1
  Ag  Ag23  1  0.584849  0.247637  0.583758  1
