# generated using pymatgen
data_Pr8Si13Pd3
_symmetry_space_group_name_H-M   'P 1'
_cell_length_a   8.27148500
_cell_length_b   8.27148600
_cell_length_c   8.58030200
_cell_angle_alpha   90.00000000
_cell_angle_beta   90.00000000
_cell_angle_gamma   120.00000001
_symmetry_Int_Tables_number   1
_chemical_formula_structural   Pr8Si13Pd3
_chemical_formula_sum   'Pr8 Si13 Pd3'
_cell_volume   508.39378290
_cell_formula_units_Z   1
loop_
 _symmetry_equiv_pos_site_id
 _symmetry_equiv_pos_as_xyz
  1  'x, y, z'
loop_
 _atom_site_type_symbol
 _atom_site_label
 _atom_site_symmetry_multiplicity
 _atom_site_fract_x
 _atom_site_fract_y
 _atom_site_fract_z
 _atom_site_occupancy
  Pr  Pr0  1  0.502156  0.497844  0.752201  1
  Pr  Pr1  1  0.503164  0.496836  0.247608  1
  Pr  Pr2  1  0.995690  0.497844  0.752201  1
  Pr  Pr3  1  0.993673  0.496836  0.247608  1
  Pr  Pr4  1  0.502156  0.004310  0.752201  1
  Pr  Pr5  1  0.503164  0.006327  0.247608  1
  Pr  Pr6  1  0.000000  0.000000  0.750201  1
  Pr  Pr7  1  0.000000  0.000000  0.250004  1
  Si  Si8  1  0.835608  0.164392  0.000495  1
  Si  Si9  1  0.167655  0.832345  0.999467  1
  Si  Si10  1  0.328784  0.164392  0.000495  1
  Si  Si11  1  0.166257  0.833743  0.500287  1
  Si  Si12  1  0.664689  0.832345  0.999467  1
  Si  Si13  1  0.834363  0.165637  0.499605  1
  Si  Si14  1  0.835608  0.671216  0.000495  1
  Si  Si15  1  0.667487  0.833743  0.500287  1
  Si  Si16  1  0.167655  0.335311  0.999467  1
  Si  Si17  1  0.331274  0.165637  0.499605  1
  Si  Si18  1  0.166257  0.332513  0.500287  1
  Si  Si19  1  0.834363  0.668726  0.499605  1
  Si  Si20  1  0.666667  0.333333  0.997963  1
  Pd  Pd21  1  0.333333  0.666667  0.002439  1
  Pd  Pd22  1  0.333333  0.666667  0.498466  1
  Pd  Pd23  1  0.666667  0.333333  0.501937  1
