# generated using pymatgen
data_Ti12Al8BPt4N3
_symmetry_space_group_name_H-M   'P 1'
_cell_length_a   8.21097840
_cell_length_b   8.21097839
_cell_length_c   8.23982320
_cell_angle_alpha   60.11573789
_cell_angle_beta   60.11573500
_cell_angle_gamma   60.00000335
_symmetry_Int_Tables_number   1
_chemical_formula_structural   Ti12Al8BPt4N3
_chemical_formula_sum   'Ti12 Al8 B1 Pt4 N3'
_cell_volume   393.50499519
_cell_formula_units_Z   1
loop_
 _symmetry_equiv_pos_site_id
 _symmetry_equiv_pos_as_xyz
  1  'x, y, z'
loop_
 _atom_site_type_symbol
 _atom_site_label
 _atom_site_symmetry_multiplicity
 _atom_site_fract_x
 _atom_site_fract_y
 _atom_site_fract_z
 _atom_site_occupancy
  Ti  Ti0  1  0.817637  0.817637  0.182926  1
  Ti  Ti1  1  0.064708  0.443459  0.427124  1
  Ti  Ti2  1  0.432363  0.068199  0.067074  1
  Ti  Ti3  1  0.064708  0.064708  0.427124  1
  Ti  Ti4  1  0.068199  0.432363  0.067074  1
  Ti  Ti5  1  0.443459  0.064708  0.427124  1
  Ti  Ti6  1  0.181801  0.817637  0.182926  1
  Ti  Ti7  1  0.185292  0.806541  0.822876  1
  Ti  Ti8  1  0.817637  0.181801  0.182926  1
  Ti  Ti9  1  0.806541  0.185292  0.822876  1
  Ti  Ti10  1  0.432363  0.432363  0.067074  1
  Ti  Ti11  1  0.185292  0.185292  0.822876  1
  Al  Al12  1  0.413333  0.757918  0.415413  1
  Al  Al13  1  0.835226  0.835226  0.494325  1
  Al  Al14  1  0.492082  0.836667  0.834587  1
  Al  Al15  1  0.836667  0.836667  0.834587  1
  Al  Al16  1  0.757918  0.413333  0.415413  1
  Al  Al17  1  0.413333  0.413333  0.415413  1
  Al  Al18  1  0.414774  0.414774  0.755675  1
  Al  Al19  1  0.836667  0.492082  0.834587  1
  B  B20  1  0.125000  0.125000  0.625000  1
  Pt  Pt21  1  0.625000  0.125000  0.625000  1
  Pt  Pt22  1  0.625000  0.625000  0.125000  1
  Pt  Pt23  1  0.125000  0.625000  0.625000  1
  Pt  Pt24  1  0.625000  0.625000  0.625000  1
  N  N25  1  0.125000  0.625000  0.125000  1
  N  N26  1  0.625000  0.125000  0.125000  1
  N  N27  1  0.125000  0.125000  0.125000  1
