# generated using pymatgen
data_TbEr19Rh12
_symmetry_space_group_name_H-M   'P 1'
_cell_length_a   10.83464162
_cell_length_b   10.84635646
_cell_length_c   6.33133300
_cell_angle_alpha   89.92354120
_cell_angle_beta   90.03982017
_cell_angle_gamma   90.04802343
_symmetry_Int_Tables_number   1
_chemical_formula_structural   TbEr19Rh12
_chemical_formula_sum   'Tb1 Er19 Rh12'
_cell_volume   744.03426395
_cell_formula_units_Z   1
loop_
 _symmetry_equiv_pos_site_id
 _symmetry_equiv_pos_as_xyz
  1  'x, y, z'
loop_
 _atom_site_type_symbol
 _atom_site_label
 _atom_site_symmetry_multiplicity
 _atom_site_fract_x
 _atom_site_fract_y
 _atom_site_fract_z
 _atom_site_occupancy
  Tb  Tb0  1  0.089782  0.289847  0.120269  1
  Er  Er1  1  0.292182  0.087457  0.382063  1
  Er  Er2  1  0.291224  0.910922  0.881719  1
  Er  Er3  1  0.708525  0.088669  0.881112  1
  Er  Er4  1  0.708698  0.911294  0.381259  1
  Er  Er5  1  0.588836  0.791161  0.881475  1
  Er  Er6  1  0.588777  0.208680  0.381517  1
  Er  Er7  1  0.411505  0.790792  0.381085  1
  Er  Er8  1  0.411204  0.208759  0.880742  1
  Er  Er9  1  0.208724  0.411750  0.618879  1
  Er  Er10  1  0.208708  0.589839  0.119100  1
  Er  Er11  1  0.791003  0.411139  0.119432  1
  Er  Er12  1  0.791159  0.589305  0.619613  1
  Er  Er13  1  0.910727  0.708847  0.119241  1
  Er  Er14  1  0.910228  0.291662  0.619236  1
  Er  Er15  1  0.088907  0.708974  0.619321  1
  Er  Er16  1  0.000012  0.000187  0.499821  1
  Er  Er17  1  0.999709  0.999339  0.999600  1
  Er  Er18  1  0.499907  0.500206  0.999274  1
  Er  Er19  1  0.500384  0.499922  0.499718  1
  Rh  Rh20  1  0.844387  0.152880  0.250607  1
  Rh  Rh21  1  0.845983  0.847130  0.749649  1
  Rh  Rh22  1  0.153873  0.153453  0.747931  1
  Rh  Rh23  1  0.153999  0.846090  0.249390  1
  Rh  Rh24  1  0.653716  0.346269  0.750070  1
  Rh  Rh25  1  0.654084  0.654209  0.249607  1
  Rh  Rh26  1  0.347829  0.345545  0.250584  1
  Rh  Rh27  1  0.346286  0.653683  0.749610  1
  Rh  Rh28  1  0.500629  0.999815  0.128280  1
  Rh  Rh29  1  0.500219  0.000039  0.628146  1
  Rh  Rh30  1  0.999623  0.500631  0.870217  1
  Rh  Rh31  1  0.999170  0.501506  0.371434  1
