# generated using pymatgen
data_HoScSi(PRu2)6
_symmetry_space_group_name_H-M   'P 1'
_cell_length_a   9.40006100
_cell_length_b   9.40006058
_cell_length_c   3.93663400
_cell_angle_alpha   90.00000000
_cell_angle_beta   90.00000000
_cell_angle_gamma   119.99999093
_symmetry_Int_Tables_number   1
_chemical_formula_structural   HoScSi(PRu2)6
_chemical_formula_sum   'Ho1 Sc1 Si1 P6 Ru12'
_cell_volume   301.24304902
_cell_formula_units_Z   1
loop_
 _symmetry_equiv_pos_site_id
 _symmetry_equiv_pos_as_xyz
  1  'x, y, z'
loop_
 _atom_site_type_symbol
 _atom_site_label
 _atom_site_symmetry_multiplicity
 _atom_site_fract_x
 _atom_site_fract_y
 _atom_site_fract_z
 _atom_site_occupancy
  Ho  Ho0  1  0.333333  0.666667  0.000000  1
  Sc  Sc1  1  0.666667  0.333333  0.500000  1
  Si  Si2  1  0.000000  0.000000  0.000000  1
  P  P3  1  0.602003  0.719839  0.500000  1
  P  P4  1  0.280161  0.882164  0.500000  1
  P  P5  1  0.117836  0.397997  0.500000  1
  P  P6  1  0.884545  0.572640  0.000000  1
  P  P7  1  0.427360  0.311904  0.000000  1
  P  P8  1  0.688096  0.115455  0.000000  1
  Ru  Ru9  1  0.555309  0.952756  0.500000  1
  Ru  Ru10  1  0.397448  0.444691  0.500000  1
  Ru  Ru11  1  0.912320  0.120103  0.500000  1
  Ru  Ru12  1  0.207783  0.087680  0.500000  1
  Ru  Ru13  1  0.879897  0.792217  0.500000  1
  Ru  Ru14  1  0.719518  0.886580  0.000000  1
  Ru  Ru15  1  0.113420  0.832938  0.000000  1
  Ru  Ru16  1  0.167062  0.280482  0.000000  1
  Ru  Ru17  1  0.426342  0.071066  0.000000  1
  Ru  Ru18  1  0.928934  0.355277  0.000000  1
  Ru  Ru19  1  0.644723  0.573658  0.000000  1
  Ru  Ru20  1  0.047244  0.602552  0.500000  1
