# generated using pymatgen
data_Ca2Cu3P4
_symmetry_space_group_name_H-M   'P 1'
_cell_length_a   7.96830015
_cell_length_b   7.96830060
_cell_length_c   7.96829976
_cell_angle_alpha   138.58540120
_cell_angle_beta   106.13496088
_cell_angle_gamma   88.40448034
_symmetry_Int_Tables_number   1
_chemical_formula_structural   Ca2Cu3P4
_chemical_formula_sum   'Ca4 Cu6 P8'
_cell_volume   308.24345668
_cell_formula_units_Z   2
loop_
 _symmetry_equiv_pos_site_id
 _symmetry_equiv_pos_as_xyz
  1  'x, y, z'
loop_
 _atom_site_type_symbol
 _atom_site_label
 _atom_site_symmetry_multiplicity
 _atom_site_fract_x
 _atom_site_fract_y
 _atom_site_fract_z
 _atom_site_occupancy
  Ca  Ca0  1  0.114441  0.882417  0.232024  1
  Ca  Ca1  1  0.885559  0.117583  0.767976  1
  Ca  Ca2  1  0.349607  0.617583  0.732024  1
  Ca  Ca3  1  0.650393  0.382417  0.267976  1
  Cu  Cu4  1  0.500000  0.750000  0.250000  1
  Cu  Cu5  1  0.500000  0.250000  0.750000  1
  Cu  Cu6  1  0.253789  0.003789  0.750000  1
  Cu  Cu7  1  0.746211  0.496211  0.750000  1
  Cu  Cu8  1  0.253789  0.503789  0.250000  1
  Cu  Cu9  1  0.746211  0.996211  0.250000  1
  P  P10  1  0.491653  0.125801  0.365852  1
  P  P11  1  0.508347  0.874199  0.634148  1
  P  P12  1  0.240051  0.374199  0.865852  1
  P  P13  1  0.759949  0.625801  0.134148  1
  P  P14  1  0.004810  0.372600  0.632210  1
  P  P15  1  0.995190  0.627400  0.367790  1
  P  P16  1  0.740390  0.872600  0.867790  1
  P  P17  1  0.259610  0.127400  0.132210  1
