# generated using pymatgen
data_Pr8DyYIn6
_symmetry_space_group_name_H-M   'P 1'
_cell_length_a   6.24938850
_cell_length_b   9.45134565
_cell_length_c   9.45134500
_cell_angle_alpha   83.72427902
_cell_angle_beta   70.63909888
_cell_angle_gamma   70.63910541
_symmetry_Int_Tables_number   1
_chemical_formula_structural   Pr8DyYIn6
_chemical_formula_sum   'Pr8 Dy1 Y1 In6'
_cell_volume   496.89160969
_cell_formula_units_Z   1
loop_
 _symmetry_equiv_pos_site_id
 _symmetry_equiv_pos_as_xyz
  1  'x, y, z'
loop_
 _atom_site_type_symbol
 _atom_site_label
 _atom_site_symmetry_multiplicity
 _atom_site_fract_x
 _atom_site_fract_y
 _atom_site_fract_z
 _atom_site_occupancy
  Pr  Pr0  1  0.721451  0.865258  0.692114  1
  Pr  Pr1  1  0.278247  0.134507  0.308185  1
  Pr  Pr2  1  0.778549  0.307886  0.134742  1
  Pr  Pr3  1  0.221753  0.691815  0.865493  1
  Pr  Pr4  1  0.586093  0.692305  0.134716  1
  Pr  Pr5  1  0.413383  0.307943  0.865223  1
  Pr  Pr6  1  0.086617  0.134777  0.692057  1
  Pr  Pr7  1  0.913907  0.865284  0.307695  1
  Dy  Dy8  1  0.750000  0.500647  0.499353  1
  Y  Y9  1  0.250000  0.499769  0.500231  1
  In  In10  1  0.158112  0.499782  0.185396  1
  In  In11  1  0.842328  0.499910  0.814480  1
  In  In12  1  0.341888  0.814604  0.500218  1
  In  In13  1  0.657672  0.185520  0.500090  1
  In  In14  1  0.250000  0.000006  0.999994  1
  In  In15  1  0.750000  0.999987  0.000013  1
