# generated using pymatgen
data_Nd2Eu4Cd23Sb
_symmetry_space_group_name_H-M   'P 1'
_cell_length_a   10.27393792
_cell_length_b   10.27393778
_cell_length_c   10.22550500
_cell_angle_alpha   60.15582356
_cell_angle_beta   60.15582401
_cell_angle_gamma   60.20326799
_symmetry_Int_Tables_number   1
_chemical_formula_structural   Nd2Eu4Cd23Sb
_chemical_formula_sum   'Nd2 Eu4 Cd23 Sb1'
_cell_volume   766.17569915
_cell_formula_units_Z   1
loop_
 _symmetry_equiv_pos_site_id
 _symmetry_equiv_pos_as_xyz
  1  'x, y, z'
loop_
 _atom_site_type_symbol
 _atom_site_label
 _atom_site_symmetry_multiplicity
 _atom_site_fract_x
 _atom_site_fract_y
 _atom_site_fract_z
 _atom_site_occupancy
  Nd  Nd0  1  0.781570  0.218430  0.780692  1
  Nd  Nd1  1  0.218430  0.781570  0.780692  1
  Eu  Eu2  1  0.781596  0.781596  0.218393  1
  Eu  Eu3  1  0.216303  0.783697  0.216935  1
  Eu  Eu4  1  0.783697  0.216303  0.216935  1
  Eu  Eu5  1  0.218404  0.218404  0.781586  1
  Cd  Cd6  1  0.834225  0.834225  0.499176  1
  Cd  Cd7  1  0.834461  0.494186  0.834896  1
  Cd  Cd8  1  0.494186  0.834461  0.834896  1
  Cd  Cd9  1  0.836803  0.836803  0.834454  1
  Cd  Cd10  1  0.163197  0.163197  0.508059  1
  Cd  Cd11  1  0.165539  0.505814  0.163543  1
  Cd  Cd12  1  0.505814  0.165539  0.163543  1
  Cd  Cd13  1  0.165775  0.165775  0.167626  1
  Cd  Cd14  1  0.622944  0.622944  0.130865  1
  Cd  Cd15  1  0.623309  0.131207  0.623923  1
  Cd  Cd16  1  0.131207  0.623309  0.623923  1
  Cd  Cd17  1  0.622013  0.622013  0.623246  1
  Cd  Cd18  1  0.377987  0.377987  0.867272  1
  Cd  Cd19  1  0.376691  0.868793  0.378438  1
  Cd  Cd20  1  0.868793  0.376691  0.378438  1
  Cd  Cd21  1  0.377056  0.377056  0.376752  1
  Cd  Cd22  1  0.000000  0.000000  0.502033  1
  Cd  Cd23  1  0.498737  0.999717  0.500676  1
  Cd  Cd24  1  0.999717  0.498737  0.500676  1
  Cd  Cd25  1  0.500000  0.500000  0.999379  1
  Cd  Cd26  1  0.000283  0.501263  0.999130  1
  Cd  Cd27  1  0.501263  0.000283  0.999130  1
  Cd  Cd28  1  0.500000  0.500000  0.499834  1
  Sb  Sb29  1  0.000000  0.000000  0.994857  1
