# generated using pymatgen
data_TbDy2U5(ReB6)4
_symmetry_space_group_name_H-M   'P 1'
_cell_length_a   3.64080800
_cell_length_b   9.30661745
_cell_length_c   11.41333404
_cell_angle_alpha   89.98673888
_cell_angle_beta   90.00000000
_cell_angle_gamma   90.00000000
_symmetry_Int_Tables_number   1
_chemical_formula_structural   TbDy2U5(ReB6)4
_chemical_formula_sum   'Tb1 Dy2 U5 Re4 B24'
_cell_volume   386.72491752
_cell_formula_units_Z   1
loop_
 _symmetry_equiv_pos_site_id
 _symmetry_equiv_pos_as_xyz
  1  'x, y, z'
loop_
 _atom_site_type_symbol
 _atom_site_label
 _atom_site_symmetry_multiplicity
 _atom_site_fract_x
 _atom_site_fract_y
 _atom_site_fract_z
 _atom_site_occupancy
  Tb  Tb0  1  0.000000  0.336868  0.407708  1
  Dy  Dy1  1  0.000000  0.663360  0.591874  1
  Dy  Dy2  1  0.000000  0.835621  0.093000  1
  U  U3  1  0.000000  0.163322  0.907196  1
  U  U4  1  0.000000  0.956161  0.396953  1
  U  U5  1  0.000000  0.042648  0.603410  1
  U  U6  1  0.000000  0.457767  0.103782  1
  U  U7  1  0.000000  0.543618  0.897015  1
  Re  Re8  1  0.000000  0.645872  0.318833  1
  Re  Re9  1  0.000000  0.352222  0.683884  1
  Re  Re10  1  0.000000  0.146068  0.177922  1
  Re  Re11  1  0.000000  0.857309  0.819521  1
  B  B12  1  0.500000  0.551870  0.431239  1
  B  B13  1  0.500000  0.447652  0.569800  1
  B  B14  1  0.500000  0.052550  0.067572  1
  B  B15  1  0.500000  0.950192  0.930468  1
  B  B16  1  0.500000  0.743006  0.423219  1
  B  B17  1  0.500000  0.256913  0.576956  1
  B  B18  1  0.500000  0.242890  0.075848  1
  B  B19  1  0.500000  0.756539  0.922711  1
  B  B20  1  0.500000  0.802268  0.275142  1
  B  B21  1  0.500000  0.196485  0.726394  1
  B  B22  1  0.500000  0.302303  0.224805  1
  B  B23  1  0.500000  0.697999  0.774844  1
  B  B24  1  0.500000  0.643935  0.188675  1
  B  B25  1  0.500000  0.354774  0.812157  1
  B  B26  1  0.500000  0.144198  0.310929  1
  B  B27  1  0.500000  0.855229  0.688369  1
  B  B28  1  0.500000  0.989331  0.219458  1
  B  B29  1  0.500000  0.013020  0.781078  1
  B  B30  1  0.500000  0.488967  0.280734  1
  B  B31  1  0.500000  0.511134  0.719576  1
  B  B32  1  0.500000  0.640792  0.038738  1
  B  B33  1  0.500000  0.357270  0.960446  1
  B  B34  1  0.500000  0.139924  0.460894  1
  B  B35  1  0.500000  0.859924  0.538853  1
