# generated using pymatgen
data_K2Sr(TcO3)2
_symmetry_space_group_name_H-M   'P 1'
_cell_length_a   6.23873322
_cell_length_b   6.23873324
_cell_length_c   6.99420097
_cell_angle_alpha   63.51309519
_cell_angle_beta   116.48689472
_cell_angle_gamma   119.99999685
_symmetry_Int_Tables_number   1
_chemical_formula_structural   K2Sr(TcO3)2
_chemical_formula_sum   'K2 Sr1 Tc2 O6'
_cell_volume   202.08880057
_cell_formula_units_Z   1
loop_
 _symmetry_equiv_pos_site_id
 _symmetry_equiv_pos_as_xyz
  1  'x, y, z'
loop_
 _atom_site_type_symbol
 _atom_site_label
 _atom_site_symmetry_multiplicity
 _atom_site_fract_x
 _atom_site_fract_y
 _atom_site_fract_z
 _atom_site_occupancy
  K  K0  1  0.791661  0.208340  0.374982  1
  K  K1  1  0.208340  0.791660  0.625018  1
  Sr  Sr2  1  0.000000  0.000000  0.000000  1
  Tc  Tc3  1  0.438575  0.561425  0.315726  1
  Tc  Tc4  1  0.561425  0.438575  0.684274  1
  O  O5  1  0.254667  0.250665  0.258668  1
  O  O6  1  0.749335  0.745333  0.258668  1
  O  O7  1  0.254667  0.745334  0.258668  1
  O  O8  1  0.745334  0.254665  0.741332  1
  O  O9  1  0.250666  0.254666  0.741332  1
  O  O10  1  0.745334  0.749335  0.741332  1
