# generated using pymatgen
data_KIn6PtAu3
_symmetry_space_group_name_H-M   'P 1'
_cell_length_a   8.31105300
_cell_length_b   8.31105186
_cell_length_c   4.37258600
_cell_angle_alpha   90.00000000
_cell_angle_beta   90.00000000
_cell_angle_gamma   120.00000057
_symmetry_Int_Tables_number   1
_chemical_formula_structural   KIn6PtAu3
_chemical_formula_sum   'K1 In6 Pt1 Au3'
_cell_volume   261.56584471
_cell_formula_units_Z   1
loop_
 _symmetry_equiv_pos_site_id
 _symmetry_equiv_pos_as_xyz
  1  'x, y, z'
loop_
 _atom_site_type_symbol
 _atom_site_label
 _atom_site_symmetry_multiplicity
 _atom_site_fract_x
 _atom_site_fract_y
 _atom_site_fract_z
 _atom_site_occupancy
  K  K0  1  0.000000  0.000000  0.000000  1
  In  In1  1  0.939247  0.469624  0.000000  1
  In  In2  1  0.200193  0.799807  0.500000  1
  In  In3  1  0.530376  0.060753  0.000000  1
  In  In4  1  0.530376  0.469624  0.000000  1
  In  In5  1  0.200193  0.400385  0.500000  1
  In  In6  1  0.599615  0.799807  0.500000  1
  Pt  Pt7  1  0.333333  0.666667  0.000000  1
  Au  Au8  1  0.403739  0.201869  0.500000  1
  Au  Au9  1  0.798131  0.201869  0.500000  1
  Au  Au10  1  0.798131  0.596261  0.500000  1
