# generated using pymatgen
data_Hf16ZrFe4Pd3
_symmetry_space_group_name_H-M   'P 1'
_cell_length_a   8.76988181
_cell_length_b   8.62750282
_cell_length_c   8.62750300
_cell_angle_alpha   60.00000316
_cell_angle_beta   60.53561480
_cell_angle_gamma   60.53561823
_symmetry_Int_Tables_number   1
_chemical_formula_structural   Hf16ZrFe4Pd3
_chemical_formula_sum   'Hf16 Zr1 Fe4 Pd3'
_cell_volume   465.28379157
_cell_formula_units_Z   1
loop_
 _symmetry_equiv_pos_site_id
 _symmetry_equiv_pos_as_xyz
  1  'x, y, z'
loop_
 _atom_site_type_symbol
 _atom_site_label
 _atom_site_symmetry_multiplicity
 _atom_site_fract_x
 _atom_site_fract_y
 _atom_site_fract_z
 _atom_site_occupancy
  Hf  Hf0  1  0.176564  0.607812  0.607812  1
  Hf  Hf1  1  0.599318  0.211954  0.594364  1
  Hf  Hf2  1  0.599318  0.594364  0.211954  1
  Hf  Hf3  1  0.599318  0.594364  0.594364  1
  Hf  Hf4  1  0.812878  0.812508  0.187307  1
  Hf  Hf5  1  0.195688  0.179844  0.812234  1
  Hf  Hf6  1  0.812878  0.187307  0.812508  1
  Hf  Hf7  1  0.195688  0.812234  0.179844  1
  Hf  Hf8  1  0.195688  0.812234  0.812234  1
  Hf  Hf9  1  0.812878  0.187307  0.187307  1
  Hf  Hf10  1  0.434575  0.441013  0.062206  1
  Hf  Hf11  1  0.054485  0.055152  0.445181  1
  Hf  Hf12  1  0.434575  0.062206  0.441013  1
  Hf  Hf13  1  0.054485  0.445181  0.055152  1
  Hf  Hf14  1  0.054485  0.445181  0.445181  1
  Hf  Hf15  1  0.434575  0.062206  0.062206  1
  Zr  Zr16  1  0.530261  0.823247  0.823247  1
  Fe  Fe17  1  0.834610  0.388463  0.388463  1
  Fe  Fe18  1  0.381965  0.825726  0.396154  1
  Fe  Fe19  1  0.381965  0.396154  0.825726  1
  Fe  Fe20  1  0.381965  0.396154  0.396154  1
  Pd  Pd21  1  0.840614  0.484001  0.837693  1
  Pd  Pd22  1  0.840614  0.837693  0.484001  1
  Pd  Pd23  1  0.840614  0.837693  0.837693  1
