# generated using pymatgen
data_Nd4Al19Rh5
_symmetry_space_group_name_H-M   'P 1'
_cell_length_a   7.64857086
_cell_length_b   7.64857191
_cell_length_c   9.62241975
_cell_angle_alpha   89.72887466
_cell_angle_beta   89.72888512
_cell_angle_gamma   119.10468325
_symmetry_Int_Tables_number   1
_chemical_formula_structural   Nd4Al19Rh5
_chemical_formula_sum   'Nd4 Al19 Rh5'
_cell_volume   491.81807587
_cell_formula_units_Z   1
loop_
 _symmetry_equiv_pos_site_id
 _symmetry_equiv_pos_as_xyz
  1  'x, y, z'
loop_
 _atom_site_type_symbol
 _atom_site_label
 _atom_site_symmetry_multiplicity
 _atom_site_fract_x
 _atom_site_fract_y
 _atom_site_fract_z
 _atom_site_occupancy
  Nd  Nd0  1  0.995304  0.679596  0.746802  1
  Nd  Nd1  1  0.004696  0.320404  0.253198  1
  Nd  Nd2  1  0.679596  0.995304  0.746802  1
  Nd  Nd3  1  0.320404  0.004696  0.253198  1
  Al  Al4  1  0.140942  0.140942  0.762645  1
  Al  Al5  1  0.859058  0.859058  0.237355  1
  Al  Al6  1  0.006524  0.349997  0.579180  1
  Al  Al7  1  0.993476  0.650003  0.420820  1
  Al  Al8  1  0.000011  0.663403  0.068461  1
  Al  Al9  1  0.336597  0.999989  0.931539  1
  Al  Al10  1  0.999989  0.336597  0.931539  1
  Al  Al11  1  0.663403  0.000011  0.068461  1
  Al  Al12  1  0.650003  0.993476  0.420820  1
  Al  Al13  1  0.349997  0.006524  0.579180  1
  Al  Al14  1  0.333287  0.333287  0.044442  1
  Al  Al15  1  0.666713  0.666713  0.955558  1
  Al  Al16  1  0.652589  0.652589  0.557055  1
  Al  Al17  1  0.347411  0.347411  0.442945  1
  Al  Al18  1  0.339013  0.550868  0.752859  1
  Al  Al19  1  0.660987  0.449132  0.247141  1
  Al  Al20  1  0.550868  0.339013  0.752859  1
  Al  Al21  1  0.449132  0.660987  0.247141  1
  Al  Al22  1  0.000000  0.000000  0.500000  1
  Rh  Rh23  1  0.671289  0.328711  0.500000  1
  Rh  Rh24  1  0.328711  0.671289  0.500000  1
  Rh  Rh25  1  0.329483  0.670517  0.000000  1
  Rh  Rh26  1  0.670517  0.329483  0.000000  1
  Rh  Rh27  1  0.000000  0.000000  0.000000  1
