# generated using pymatgen
data_Ti5Al17Pt7
_symmetry_space_group_name_H-M   'P 1'
_cell_length_a   8.61291700
_cell_length_b   8.67932076
_cell_length_c   8.67986647
_cell_angle_alpha   59.49321169
_cell_angle_beta   60.24740879
_cell_angle_gamma   60.26074939
_symmetry_Int_Tables_number   1
_chemical_formula_structural   Ti5Al17Pt7
_chemical_formula_sum   'Ti5 Al17 Pt7'
_cell_volume   458.76230868
_cell_formula_units_Z   1
loop_
 _symmetry_equiv_pos_site_id
 _symmetry_equiv_pos_as_xyz
  1  'x, y, z'
loop_
 _atom_site_type_symbol
 _atom_site_label
 _atom_site_symmetry_multiplicity
 _atom_site_fract_x
 _atom_site_fract_y
 _atom_site_fract_z
 _atom_site_occupancy
  Ti  Ti0  1  0.810400  0.189607  0.189613  1
  Ti  Ti1  1  0.789734  0.210273  0.787484  1
  Ti  Ti2  1  0.789655  0.787551  0.210351  1
  Ti  Ti3  1  0.212455  0.787562  0.210264  1
  Ti  Ti4  1  0.212486  0.210329  0.787549  1
  Al  Al5  1  0.878706  0.843979  0.843988  1
  Al  Al6  1  0.854295  0.833840  0.457646  1
  Al  Al7  1  0.433248  0.843983  0.843986  1
  Al  Al8  1  0.854246  0.457616  0.833843  1
  Al  Al9  1  0.166222  0.145694  0.145766  1
  Al  Al10  1  0.156015  0.121254  0.566774  1
  Al  Al11  1  0.156014  0.566796  0.121234  1
  Al  Al12  1  0.542403  0.145738  0.145677  1
  Al  Al13  1  0.621968  0.617240  0.617321  1
  Al  Al14  1  0.630653  0.617585  0.121066  1
  Al  Al15  1  0.143492  0.617297  0.617223  1
  Al  Al16  1  0.630664  0.121060  0.617595  1
  Al  Al17  1  0.382360  0.369349  0.369327  1
  Al  Al18  1  0.382745  0.378097  0.856468  1
  Al  Al19  1  0.382670  0.856463  0.378100  1
  Al  Al20  1  0.878917  0.369343  0.369344  1
  Al  Al21  1  0.031979  0.968044  0.968010  1
  Pt  Pt22  1  0.010643  0.489348  0.489374  1
  Pt  Pt23  1  0.510664  0.989333  0.989355  1
  Pt  Pt24  1  0.509253  0.996277  0.490736  1
  Pt  Pt25  1  0.509266  0.490741  0.996310  1
  Pt  Pt26  1  0.003722  0.490736  0.996286  1
  Pt  Pt27  1  0.003684  0.996332  0.490754  1
  Pt  Pt28  1  0.511445  0.488529  0.488555  1
