# generated using pymatgen
data_Ce5Al2Tc2Ir
_symmetry_space_group_name_H-M   'P 1'
_cell_length_a   8.40893014
_cell_length_b   8.47183060
_cell_length_c   8.41084866
_cell_angle_alpha   110.22120728
_cell_angle_beta   109.47793840
_cell_angle_gamma   109.23287338
_symmetry_Int_Tables_number   1
_chemical_formula_structural   Ce5Al2Tc2Ir
_chemical_formula_sum   'Ce10 Al4 Tc4 Ir2'
_cell_volume   458.24734299
_cell_formula_units_Z   2
loop_
 _symmetry_equiv_pos_site_id
 _symmetry_equiv_pos_as_xyz
  1  'x, y, z'
loop_
 _atom_site_type_symbol
 _atom_site_label
 _atom_site_symmetry_multiplicity
 _atom_site_fract_x
 _atom_site_fract_y
 _atom_site_fract_z
 _atom_site_occupancy
  Ce  Ce0  1  0.788604  0.781704  0.783008  1
  Ce  Ce1  1  0.307422  0.555994  0.751414  1
  Ce  Ce2  1  0.748163  0.309298  0.551050  1
  Ce  Ce3  1  0.550676  0.749292  0.310648  1
  Ce  Ce4  1  0.711396  0.493869  0.999108  1
  Ce  Ce5  1  0.001174  0.711890  0.500562  1
  Ce  Ce6  1  0.492239  0.999083  0.710735  1
  Ce  Ce7  1  0.258975  0.197594  0.949464  1
  Ce  Ce8  1  0.949123  0.257055  0.196147  1
  Ce  Ce9  1  0.193041  0.944187  0.248669  1
  Al  Al10  1  0.407491  0.407592  0.408627  1
  Al  Al11  1  0.091079  0.498181  0.996930  1
  Al  Al12  1  0.998085  0.093022  0.499984  1
  Al  Al13  1  0.502297  0.999237  0.093084  1
  Tc  Tc14  1  0.123330  0.748654  0.873833  1
  Tc  Tc15  1  0.249823  0.626526  0.377150  1
  Tc  Tc16  1  0.375100  0.248802  0.625408  1
  Tc  Tc17  1  0.628416  0.377497  0.249190  1
  Ir  Ir18  1  0.874661  0.124728  0.748629  1
  Ir  Ir19  1  0.748904  0.875794  0.126359  1
