# generated using pymatgen
data_NpU3Co3NiAs4
_symmetry_space_group_name_H-M   'P 1'
_cell_length_a   4.07323400
_cell_length_b   4.07323353
_cell_length_c   14.88717300
_cell_angle_alpha   90.00000000
_cell_angle_beta   90.00000000
_cell_angle_gamma   120.00002006
_symmetry_Int_Tables_number   1
_chemical_formula_structural   NpU3Co3NiAs4
_chemical_formula_sum   'Np1 U3 Co3 Ni1 As4'
_cell_volume   213.90525282
_cell_formula_units_Z   1
loop_
 _symmetry_equiv_pos_site_id
 _symmetry_equiv_pos_as_xyz
  1  'x, y, z'
loop_
 _atom_site_type_symbol
 _atom_site_label
 _atom_site_symmetry_multiplicity
 _atom_site_fract_x
 _atom_site_fract_y
 _atom_site_fract_z
 _atom_site_occupancy
  Np  Np0  1  0.000000  0.000000  0.997537  1
  U  U1  1  0.000000  0.000000  0.254332  1
  U  U2  1  0.000000  0.000000  0.749923  1
  U  U3  1  0.000000  0.000000  0.500876  1
  Co  Co4  1  0.666667  0.333333  0.841596  1
  Co  Co5  1  0.666667  0.333333  0.651589  1
  Co  Co6  1  0.333333  0.666667  0.348255  1
  Ni  Ni7  1  0.333333  0.666667  0.155057  1
  As  As8  1  0.333333  0.666667  0.619691  1
  As  As9  1  0.666667  0.333333  0.382123  1
  As  As10  1  0.666667  0.333333  0.119513  1
  As  As11  1  0.333333  0.666667  0.879510  1
