# generated using pymatgen
data_TbYb3Tm4(B6Ru)4
_symmetry_space_group_name_H-M   'P 1'
_cell_length_a   3.63317500
_cell_length_b   9.10436977
_cell_length_c   11.49444000
_cell_angle_alpha   89.94017450
_cell_angle_beta   90.00000000
_cell_angle_gamma   90.00000000
_symmetry_Int_Tables_number   1
_chemical_formula_structural   TbYb3Tm4(B6Ru)4
_chemical_formula_sum   'Tb1 Yb3 Tm4 B24 Ru4'
_cell_volume   380.21021983
_cell_formula_units_Z   1
loop_
 _symmetry_equiv_pos_site_id
 _symmetry_equiv_pos_as_xyz
  1  'x, y, z'
loop_
 _atom_site_type_symbol
 _atom_site_label
 _atom_site_symmetry_multiplicity
 _atom_site_fract_x
 _atom_site_fract_y
 _atom_site_fract_z
 _atom_site_occupancy
  Tb  Tb0  1  0.000000  0.175866  0.915087  1
  Yb  Yb1  1  0.000000  0.324834  0.414672  1
  Yb  Yb2  1  0.000000  0.675118  0.584732  1
  Yb  Yb3  1  0.000000  0.823402  0.085975  1
  Tm  Tm4  1  0.000000  0.940926  0.366619  1
  Tm  Tm5  1  0.000000  0.058055  0.631411  1
  Tm  Tm6  1  0.000000  0.443141  0.133190  1
  Tm  Tm7  1  0.000000  0.558887  0.867799  1
  B  B8  1  0.500000  0.553510  0.432778  1
  B  B9  1  0.500000  0.445908  0.567926  1
  B  B10  1  0.500000  0.053906  0.067352  1
  B  B11  1  0.500000  0.945394  0.933031  1
  B  B12  1  0.500000  0.748956  0.417314  1
  B  B13  1  0.500000  0.250869  0.582712  1
  B  B14  1  0.500000  0.249607  0.082621  1
  B  B15  1  0.500000  0.751096  0.917697  1
  B  B16  1  0.500000  0.791064  0.264137  1
  B  B17  1  0.500000  0.208559  0.735720  1
  B  B18  1  0.500000  0.291307  0.235202  1
  B  B19  1  0.500000  0.709653  0.764700  1
  B  B20  1  0.500000  0.630640  0.185609  1
  B  B21  1  0.500000  0.369657  0.815154  1
  B  B22  1  0.500000  0.130762  0.313917  1
  B  B23  1  0.500000  0.869531  0.684979  1
  B  B24  1  0.500000  0.982820  0.210909  1
  B  B25  1  0.500000  0.016657  0.788207  1
  B  B26  1  0.500000  0.483531  0.288947  1
  B  B27  1  0.500000  0.516463  0.711792  1
  B  B28  1  0.500000  0.598487  0.027172  1
  B  B29  1  0.500000  0.401661  0.973146  1
  B  B30  1  0.500000  0.096448  0.472919  1
  B  B31  1  0.500000  0.903221  0.526034  1
  Ru  Ru32  1  0.000000  0.639352  0.319941  1
  Ru  Ru33  1  0.000000  0.359657  0.681288  1
  Ru  Ru34  1  0.000000  0.139006  0.179771  1
  Ru  Ru35  1  0.000000  0.862052  0.819536  1
