# generated using pymatgen
data_Ba9SrBi8
_symmetry_space_group_name_H-M   'P 1'
_cell_length_a   10.12033947
_cell_length_b   9.32011060
_cell_length_c   9.28807047
_cell_angle_alpha   89.49958292
_cell_angle_beta   115.99714458
_cell_angle_gamma   90.34380726
_symmetry_Int_Tables_number   1
_chemical_formula_structural   Ba9SrBi8
_chemical_formula_sum   'Ba9 Sr1 Bi8'
_cell_volume   787.39845388
_cell_formula_units_Z   1
loop_
 _symmetry_equiv_pos_site_id
 _symmetry_equiv_pos_as_xyz
  1  'x, y, z'
loop_
 _atom_site_type_symbol
 _atom_site_label
 _atom_site_symmetry_multiplicity
 _atom_site_fract_x
 _atom_site_fract_y
 _atom_site_fract_z
 _atom_site_occupancy
  Ba  Ba0  1  0.705936  0.168666  0.029534  1
  Ba  Ba1  1  0.712049  0.659883  0.195507  1
  Ba  Ba2  1  0.285577  0.159975  0.301396  1
  Ba  Ba3  1  0.296391  0.668458  0.467874  1
  Ba  Ba4  1  0.000000  0.000000  0.500000  1
  Ba  Ba5  1  0.703609  0.331541  0.532126  1
  Ba  Ba6  1  0.714422  0.840024  0.698605  1
  Ba  Ba7  1  0.287951  0.340117  0.804492  1
  Ba  Ba8  1  0.294064  0.831333  0.970466  1
  Sr  Sr9  1  0.000000  0.500000  0.000000  1
  Bi  Bi10  1  0.000333  0.874595  0.113671  1
  Bi  Bi11  1  0.390701  0.490896  0.188653  1
  Bi  Bi12  1  0.601932  0.989846  0.307618  1
  Bi  Bi13  1  0.002462  0.388102  0.375619  1
  Bi  Bi14  1  0.997538  0.611898  0.624380  1
  Bi  Bi15  1  0.398069  0.010153  0.692381  1
  Bi  Bi16  1  0.609298  0.509103  0.811347  1
  Bi  Bi17  1  0.999668  0.125406  0.886330  1
