# generated using pymatgen
data_Nd5Pd13Au2
_symmetry_space_group_name_H-M   'P 1'
_cell_length_a   4.28472300
_cell_length_b   4.25347700
_cell_length_c   21.17667800
_cell_angle_alpha   90.00000000
_cell_angle_beta   90.00000000
_cell_angle_gamma   90.00000000
_symmetry_Int_Tables_number   1
_chemical_formula_structural   Nd5Pd13Au2
_chemical_formula_sum   'Nd5 Pd13 Au2'
_cell_volume   385.94433675
_cell_formula_units_Z   1
loop_
 _symmetry_equiv_pos_site_id
 _symmetry_equiv_pos_as_xyz
  1  'x, y, z'
loop_
 _atom_site_type_symbol
 _atom_site_label
 _atom_site_symmetry_multiplicity
 _atom_site_fract_x
 _atom_site_fract_y
 _atom_site_fract_z
 _atom_site_occupancy
  Nd  Nd0  1  0.000000  0.000000  0.198037  1
  Nd  Nd1  1  0.000000  0.000000  0.396628  1
  Nd  Nd2  1  0.000000  0.000000  0.605399  1
  Nd  Nd3  1  0.000000  0.000000  0.801721  1
  Nd  Nd4  1  0.000000  0.000000  0.998125  1
  Pd  Pd5  1  0.500000  0.500000  0.000881  1
  Pd  Pd6  1  0.500000  0.500000  0.397925  1
  Pd  Pd7  1  0.500000  0.500000  0.600850  1
  Pd  Pd8  1  0.500000  0.500000  0.800730  1
  Pd  Pd9  1  0.500000  0.000000  0.099927  1
  Pd  Pd10  1  0.500000  0.000000  0.298647  1
  Pd  Pd11  1  0.500000  0.000000  0.701006  1
  Pd  Pd12  1  0.500000  0.000000  0.900645  1
  Pd  Pd13  1  0.000000  0.500000  0.099872  1
  Pd  Pd14  1  0.000000  0.500000  0.298623  1
  Pd  Pd15  1  0.000000  0.500000  0.499685  1
  Pd  Pd16  1  0.000000  0.500000  0.701183  1
  Pd  Pd17  1  0.000000  0.500000  0.900601  1
  Au  Au18  1  0.500000  0.500000  0.199178  1
  Au  Au19  1  0.500000  0.000000  0.500338  1
