# generated using pymatgen
data_NdMnF7
_symmetry_space_group_name_H-M   'P 1'
_cell_length_a   5.60908900
_cell_length_b   6.02580116
_cell_length_c   8.18132000
_cell_angle_alpha   101.65846134
_cell_angle_beta   90.00000000
_cell_angle_gamma   90.00000000
_symmetry_Int_Tables_number   1
_chemical_formula_structural   NdMnF7
_chemical_formula_sum   'Nd2 Mn2 F14'
_cell_volume   270.81774264
_cell_formula_units_Z   2
loop_
 _symmetry_equiv_pos_site_id
 _symmetry_equiv_pos_as_xyz
  1  'x, y, z'
loop_
 _atom_site_type_symbol
 _atom_site_label
 _atom_site_symmetry_multiplicity
 _atom_site_fract_x
 _atom_site_fract_y
 _atom_site_fract_z
 _atom_site_occupancy
  Nd  Nd0  1  0.702261  0.663825  0.691885  1
  Nd  Nd1  1  0.202261  0.336175  0.308115  1
  Mn  Mn2  1  0.712087  0.809634  0.222930  1
  Mn  Mn3  1  0.212087  0.190366  0.777070  1
  F  F4  1  0.876146  0.435705  0.472283  1
  F  F5  1  0.376146  0.564295  0.527717  1
  F  F6  1  0.413336  0.949322  0.776266  1
  F  F7  1  0.913336  0.050678  0.223734  1
  F  F8  1  0.955833  0.992859  0.763818  1
  F  F9  1  0.455833  0.007141  0.236182  1
  F  F10  1  0.012571  0.435830  0.788795  1
  F  F11  1  0.512571  0.564170  0.211205  1
  F  F12  1  0.704076  0.763497  0.993294  1
  F  F13  1  0.204076  0.236503  0.006706  1
  F  F14  1  0.722764  0.863515  0.452256  1
  F  F15  1  0.222764  0.136485  0.547744  1
  F  F16  1  0.477286  0.375417  0.791460  1
  F  F17  1  0.977286  0.624583  0.208540  1
