# generated using pymatgen
data_Th14ReRu3Rh2
_symmetry_space_group_name_H-M   'P 1'
_cell_length_a   9.94502041
_cell_length_b   10.00645716
_cell_length_c   6.34985217
_cell_angle_alpha   89.56992643
_cell_angle_beta   90.02358817
_cell_angle_gamma   119.66908379
_symmetry_Int_Tables_number   1
_chemical_formula_structural   Th14ReRu3Rh2
_chemical_formula_sum   'Th14 Re1 Ru3 Rh2'
_cell_volume   549.03928877
_cell_formula_units_Z   1
loop_
 _symmetry_equiv_pos_site_id
 _symmetry_equiv_pos_as_xyz
  1  'x, y, z'
loop_
 _atom_site_type_symbol
 _atom_site_label
 _atom_site_symmetry_multiplicity
 _atom_site_fract_x
 _atom_site_fract_y
 _atom_site_fract_z
 _atom_site_occupancy
  Th  Th0  1  0.461559  0.541502  0.295768  1
  Th  Th1  1  0.082628  0.545159  0.295975  1
  Th  Th2  1  0.918644  0.458746  0.797470  1
  Th  Th3  1  0.250678  0.126118  0.502651  1
  Th  Th4  1  0.537739  0.081200  0.796820  1
  Th  Th5  1  0.750337  0.872843  0.005025  1
  Th  Th6  1  0.664894  0.333388  0.291940  1
  Th  Th7  1  0.124102  0.874930  0.004205  1
  Th  Th8  1  0.455001  0.916879  0.296714  1
  Th  Th9  1  0.538807  0.455978  0.798186  1
  Th  Th10  1  0.876547  0.130158  0.502697  1
  Th  Th11  1  0.130406  0.255651  0.001124  1
  Th  Th12  1  0.876382  0.747332  0.508495  1
  Th  Th13  1  0.331509  0.666053  0.794272  1
  Re  Re14  1  0.812084  0.624309  0.055313  1
  Ru  Ru15  1  0.371407  0.181675  0.045051  1
  Ru  Ru16  1  0.186767  0.373403  0.543160  1
  Ru  Ru17  1  0.191696  0.816116  0.549460  1
  Rh  Rh18  1  0.812082  0.182328  0.048355  1
  Rh  Rh19  1  0.626731  0.816233  0.551318  1
