# generated using pymatgen
data_Ca3ScBi3
_symmetry_space_group_name_H-M   'P 1'
_cell_length_a   8.02634429
_cell_length_b   8.30036941
_cell_length_c   8.30037011
_cell_angle_alpha   110.13029785
_cell_angle_beta   108.80381468
_cell_angle_gamma   108.80381518
_symmetry_Int_Tables_number   1
_chemical_formula_structural   Ca3ScBi3
_chemical_formula_sum   'Ca6 Sc2 Bi6'
_cell_volume   429.14279151
_cell_formula_units_Z   2
loop_
 _symmetry_equiv_pos_site_id
 _symmetry_equiv_pos_as_xyz
  1  'x, y, z'
loop_
 _atom_site_type_symbol
 _atom_site_label
 _atom_site_symmetry_multiplicity
 _atom_site_fract_x
 _atom_site_fract_y
 _atom_site_fract_z
 _atom_site_occupancy
  Ca  Ca0  1  0.502118  0.002767  0.648291  1
  Ca  Ca1  1  0.353827  0.354476  0.351709  1
  Ca  Ca2  1  0.499350  0.997233  0.145524  1
  Ca  Ca3  1  0.999350  0.645524  0.497233  1
  Ca  Ca4  1  0.853827  0.851709  0.854476  1
  Ca  Ca5  1  0.002118  0.148291  0.502767  1
  Sc  Sc6  1  0.140408  0.500000  0.000000  1
  Sc  Sc7  1  0.640408  0.500000  0.000000  1
  Bi  Bi8  1  0.378000  0.616995  0.762706  1
  Bi  Bi9  1  0.878000  0.262706  0.116995  1
  Bi  Bi10  1  0.615294  0.737294  0.354290  1
  Bi  Bi11  1  0.115294  0.854290  0.237294  1
  Bi  Bi12  1  0.261004  0.145710  0.883005  1
  Bi  Bi13  1  0.761004  0.383005  0.645710  1
