# generated using pymatgen
data_Ti12MnFe5Os6
_symmetry_space_group_name_H-M   'P 1'
_cell_length_a   4.28872600
_cell_length_b   6.07610400
_cell_length_c   12.90003400
_cell_angle_alpha   90.00000000
_cell_angle_beta   89.99991551
_cell_angle_gamma   90.00000000
_symmetry_Int_Tables_number   1
_chemical_formula_structural   Ti12MnFe5Os6
_chemical_formula_sum   'Ti12 Mn1 Fe5 Os6'
_cell_volume   336.15869912
_cell_formula_units_Z   1
loop_
 _symmetry_equiv_pos_site_id
 _symmetry_equiv_pos_as_xyz
  1  'x, y, z'
loop_
 _atom_site_type_symbol
 _atom_site_label
 _atom_site_symmetry_multiplicity
 _atom_site_fract_x
 _atom_site_fract_y
 _atom_site_fract_z
 _atom_site_occupancy
  Ti  Ti0  1  0.500000  0.250554  0.998788  1
  Ti  Ti1  1  0.500000  0.749446  0.998788  1
  Ti  Ti2  1  0.999848  0.250248  0.166327  1
  Ti  Ti3  1  0.999848  0.749752  0.166327  1
  Ti  Ti4  1  0.499847  0.249839  0.333327  1
  Ti  Ti5  1  0.499847  0.750161  0.333327  1
  Ti  Ti6  1  0.999998  0.250204  0.500351  1
  Ti  Ti7  1  0.999998  0.749796  0.500351  1
  Ti  Ti8  1  0.500143  0.250510  0.667888  1
  Ti  Ti9  1  0.500143  0.749490  0.667888  1
  Ti  Ti10  1  0.000142  0.252265  0.833325  1
  Ti  Ti11  1  0.000142  0.747735  0.833325  1
  Mn  Mn12  1  0.500127  0.499999  0.833309  1
  Fe  Fe13  1  0.000003  0.000000  0.000829  1
  Fe  Fe14  1  0.499903  0.499999  0.167432  1
  Fe  Fe15  1  0.999906  0.000000  0.333340  1
  Fe  Fe16  1  0.500001  0.499999  0.499237  1
  Fe  Fe17  1  0.000100  0.000000  0.665835  1
  Os  Os18  1  0.000001  0.499999  0.001162  1
  Os  Os19  1  0.499868  0.000000  0.167009  1
  Os  Os20  1  0.999867  0.499999  0.333333  1
  Os  Os21  1  0.500000  0.000000  0.499672  1
  Os  Os22  1  0.000133  0.499999  0.665504  1
  Os  Os23  1  0.500136  0.000000  0.833323  1
