# generated using pymatgen
data_DyY2Hf(Al3Ir)6
_symmetry_space_group_name_H-M   'P 1'
_cell_length_a   7.54116801
_cell_length_b   7.53180029
_cell_length_c   9.41379600
_cell_angle_alpha   90.00000000
_cell_angle_beta   90.00000000
_cell_angle_gamma   119.58841714
_symmetry_Int_Tables_number   1
_chemical_formula_structural   DyY2Hf(Al3Ir)6
_chemical_formula_sum   'Dy1 Y2 Hf1 Al18 Ir6'
_cell_volume   464.96376834
_cell_formula_units_Z   1
loop_
 _symmetry_equiv_pos_site_id
 _symmetry_equiv_pos_as_xyz
  1  'x, y, z'
loop_
 _atom_site_type_symbol
 _atom_site_label
 _atom_site_symmetry_multiplicity
 _atom_site_fract_x
 _atom_site_fract_y
 _atom_site_fract_z
 _atom_site_occupancy
  Dy  Dy0  1  0.671297  0.995772  0.750000  1
  Y  Y1  1  0.005558  0.327268  0.250000  1
  Y  Y2  1  0.328968  0.006424  0.250000  1
  Hf  Hf3  1  0.997797  0.673576  0.750000  1
  Al  Al4  1  0.126232  0.123618  0.750000  1
  Al  Al5  1  0.870723  0.869336  0.250000  1
  Al  Al6  1  0.000143  0.338144  0.579504  1
  Al  Al7  1  0.999070  0.664874  0.429597  1
  Al  Al8  1  0.999070  0.664874  0.070403  1
  Al  Al9  1  0.332488  0.998162  0.920391  1
  Al  Al10  1  0.000143  0.338144  0.920496  1
  Al  Al11  1  0.664488  0.998025  0.074366  1
  Al  Al12  1  0.664488  0.998025  0.425634  1
  Al  Al13  1  0.332488  0.998162  0.579609  1
  Al  Al14  1  0.333762  0.333876  0.049972  1
  Al  Al15  1  0.669021  0.666824  0.942985  1
  Al  Al16  1  0.669021  0.666824  0.557015  1
  Al  Al17  1  0.333762  0.333876  0.450028  1
  Al  Al18  1  0.335960  0.549295  0.750000  1
  Al  Al19  1  0.660740  0.452216  0.250000  1
  Al  Al20  1  0.555379  0.344890  0.750000  1
  Al  Al21  1  0.450790  0.659392  0.250000  1
  Ir  Ir22  1  0.672704  0.328609  0.501265  1
  Ir  Ir23  1  0.327458  0.672217  0.501999  1
  Ir  Ir24  1  0.327458  0.672217  0.998001  1
  Ir  Ir25  1  0.672704  0.328609  0.998735  1
  Ir  Ir26  1  0.999145  0.998376  0.501568  1
  Ir  Ir27  1  0.999145  0.998376  0.998432  1
