# generated using pymatgen
data_YbY5Al18(Si3Os4)2
_symmetry_space_group_name_H-M   'P 1'
_cell_length_a   8.71711900
_cell_length_b   8.67971041
_cell_length_c   9.57944800
_cell_angle_alpha   90.00000000
_cell_angle_beta   90.00000000
_cell_angle_gamma   120.14266888
_symmetry_Int_Tables_number   1
_chemical_formula_structural   YbY5Al18(Si3Os4)2
_chemical_formula_sum   'Yb1 Y5 Al18 Si6 Os8'
_cell_volume   626.79161251
_cell_formula_units_Z   1
loop_
 _symmetry_equiv_pos_site_id
 _symmetry_equiv_pos_as_xyz
  1  'x, y, z'
loop_
 _atom_site_type_symbol
 _atom_site_label
 _atom_site_symmetry_multiplicity
 _atom_site_fract_x
 _atom_site_fract_y
 _atom_site_fract_z
 _atom_site_occupancy
  Yb  Yb0  1  0.193817  0.387635  0.250000  1
  Y  Y1  1  0.806038  0.612075  0.750000  1
  Y  Y2  1  0.609997  0.806990  0.250000  1
  Y  Y3  1  0.390307  0.192598  0.750000  1
  Y  Y4  1  0.196993  0.806990  0.250000  1
  Y  Y5  1  0.802290  0.192598  0.750000  1
  Al  Al6  1  0.165578  0.331156  0.576885  1
  Al  Al7  1  0.834435  0.668872  0.420952  1
  Al  Al8  1  0.669491  0.834705  0.576668  1
  Al  Al9  1  0.834435  0.668872  0.079048  1
  Al  Al10  1  0.329959  0.165838  0.422983  1
  Al  Al11  1  0.165578  0.331156  0.923115  1
  Al  Al12  1  0.165214  0.834705  0.576668  1
  Al  Al13  1  0.329959  0.165838  0.077017  1
  Al  Al14  1  0.835879  0.165838  0.422983  1
  Al  Al15  1  0.669491  0.834705  0.923332  1
  Al  Al16  1  0.835879  0.165838  0.077017  1
  Al  Al17  1  0.165214  0.834705  0.923332  1
  Al  Al18  1  0.873589  0.432650  0.250000  1
  Al  Al19  1  0.127875  0.566899  0.750000  1
  Al  Al20  1  0.559061  0.432650  0.250000  1
  Al  Al21  1  0.439024  0.566899  0.750000  1
  Al  Al22  1  0.000294  0.000587  0.250000  1
  Al  Al23  1  0.000744  0.001488  0.750000  1
  Si  Si24  1  0.331396  0.662793  0.039743  1
  Si  Si25  1  0.667878  0.335753  0.961178  1
  Si  Si26  1  0.667878  0.335753  0.538822  1
  Si  Si27  1  0.331396  0.662793  0.460257  1
  Si  Si28  1  0.563981  0.127962  0.250000  1
  Si  Si29  1  0.436232  0.872464  0.750000  1
  Os  Os30  1  0.500191  0.000381  0.999254  1
  Os  Os31  1  0.999242  0.500328  0.999016  1
  Os  Os32  1  0.500191  0.000381  0.500746  1
  Os  Os33  1  0.501086  0.500328  0.999016  1
  Os  Os34  1  0.999242  0.500328  0.500984  1
  Os  Os35  1  0.501086  0.500328  0.500984  1
  Os  Os36  1  0.999531  0.999061  0.999836  1
  Os  Os37  1  0.999531  0.999061  0.500164  1
