# generated using pymatgen
data_Rb4ZrU7Se16
_symmetry_space_group_name_H-M   'P 1'
_cell_length_a   7.11747153
_cell_length_b   8.19316774
_cell_length_c   17.04535436
_cell_angle_alpha   89.93586670
_cell_angle_beta   90.03347106
_cell_angle_gamma   90.06767125
_symmetry_Int_Tables_number   1
_chemical_formula_structural   Rb4ZrU7Se16
_chemical_formula_sum   'Rb4 Zr1 U7 Se16'
_cell_volume   993.99218698
_cell_formula_units_Z   1
loop_
 _symmetry_equiv_pos_site_id
 _symmetry_equiv_pos_as_xyz
  1  'x, y, z'
loop_
 _atom_site_type_symbol
 _atom_site_label
 _atom_site_symmetry_multiplicity
 _atom_site_fract_x
 _atom_site_fract_y
 _atom_site_fract_z
 _atom_site_occupancy
  Rb  Rb0  1  0.348638  0.001079  0.999874  1
  Rb  Rb1  1  0.651361  0.498899  0.500177  1
  Rb  Rb2  1  0.029596  0.000693  0.500411  1
  Rb  Rb3  1  0.970453  0.499305  0.999607  1
  Zr  Zr4  1  0.500345  0.249795  0.749941  1
  U  U5  1  0.999357  0.999998  0.247562  1
  U  U6  1  0.999784  0.005502  0.752527  1
  U  U7  1  0.000673  0.499987  0.252451  1
  U  U8  1  0.000059  0.493741  0.747499  1
  U  U9  1  0.499999  0.250032  0.250002  1
  U  U10  1  0.499668  0.750706  0.750059  1
  U  U11  1  0.499992  0.749925  0.250004  1
  Se  Se12  1  0.833715  0.247476  0.346134  1
  Se  Se13  1  0.828769  0.752058  0.655454  1
  Se  Se14  1  0.166465  0.747503  0.153999  1
  Se  Se15  1  0.181989  0.253573  0.844766  1
  Se  Se16  1  0.166326  0.252944  0.153872  1
  Se  Se17  1  0.171017  0.746985  0.844640  1
  Se  Se18  1  0.833539  0.752049  0.346003  1
  Se  Se19  1  0.818249  0.247145  0.655127  1
  Se  Se20  1  0.666566  0.000287  0.154748  1
  Se  Se21  1  0.656179  0.007351  0.841635  1
  Se  Se22  1  0.333138  0.499695  0.345169  1
  Se  Se23  1  0.343249  0.493074  0.658747  1
  Se  Se24  1  0.332083  0.999618  0.343164  1
  Se  Se25  1  0.342150  0.007522  0.659735  1
  Se  Se26  1  0.668216  0.500382  0.156934  1
  Se  Se27  1  0.658426  0.492678  0.839759  1
