# generated using pymatgen
data_DyEr3Ga12Fe
_symmetry_space_group_name_H-M   'P 1'
_cell_length_a   7.41141212
_cell_length_b   7.41141140
_cell_length_c   7.39424300
_cell_angle_alpha   109.42430490
_cell_angle_beta   109.42430296
_cell_angle_gamma   109.51809562
_symmetry_Int_Tables_number   1
_chemical_formula_structural   DyEr3Ga12Fe
_chemical_formula_sum   'Dy1 Er3 Ga12 Fe1'
_cell_volume   312.84185561
_cell_formula_units_Z   1
loop_
 _symmetry_equiv_pos_site_id
 _symmetry_equiv_pos_as_xyz
  1  'x, y, z'
loop_
 _atom_site_type_symbol
 _atom_site_label
 _atom_site_symmetry_multiplicity
 _atom_site_fract_x
 _atom_site_fract_y
 _atom_site_fract_z
 _atom_site_occupancy
  Dy  Dy0  1  0.000000  0.000000  0.500000  1
  Er  Er1  1  0.000000  0.500000  0.000000  1
  Er  Er2  1  0.500000  0.000000  0.000000  1
  Er  Er3  1  0.500000  0.500000  0.500000  1
  Ga  Ga4  1  0.749827  0.250173  0.500000  1
  Ga  Ga5  1  0.749827  0.499654  0.249827  1
  Ga  Ga6  1  0.500346  0.250173  0.750173  1
  Ga  Ga7  1  0.250173  0.500346  0.750173  1
  Ga  Ga8  1  0.250173  0.749827  0.500000  1
  Ga  Ga9  1  0.499654  0.749827  0.249827  1
  Ga  Ga10  1  0.716569  0.716569  0.999695  1
  Ga  Ga11  1  0.283431  0.000000  0.283126  1
  Ga  Ga12  1  0.000000  0.283431  0.283126  1
  Ga  Ga13  1  0.283431  0.283431  0.000305  1
  Ga  Ga14  1  0.716569  0.000000  0.716874  1
  Ga  Ga15  1  0.000000  0.716569  0.716874  1
  Fe  Fe16  1  0.000000  0.000000  0.000000  1
