# generated using pymatgen
data_SmHo3(SiAu2)8
_symmetry_space_group_name_H-M   'P 1'
_cell_length_a   4.41101400
_cell_length_b   4.41101400
_cell_length_c   27.06945600
_cell_angle_alpha   90.00000000
_cell_angle_beta   90.00000000
_cell_angle_gamma   90.00000000
_symmetry_Int_Tables_number   1
_chemical_formula_structural   SmHo3(SiAu2)8
_chemical_formula_sum   'Sm1 Ho3 Si8 Au16'
_cell_volume   526.69161020
_cell_formula_units_Z   1
loop_
 _symmetry_equiv_pos_site_id
 _symmetry_equiv_pos_as_xyz
  1  'x, y, z'
loop_
 _atom_site_type_symbol
 _atom_site_label
 _atom_site_symmetry_multiplicity
 _atom_site_fract_x
 _atom_site_fract_y
 _atom_site_fract_z
 _atom_site_occupancy
  Sm  Sm0  1  0.500000  0.500000  0.500000  1
  Ho  Ho1  1  0.000000  0.500000  0.749398  1
  Ho  Ho2  1  0.500000  0.000000  0.250602  1
  Ho  Ho3  1  0.500000  0.500000  0.000000  1
  Si  Si4  1  0.000000  0.000000  0.956979  1
  Si  Si5  1  0.000000  0.000000  0.456697  1
  Si  Si6  1  0.500000  0.000000  0.792603  1
  Si  Si7  1  0.500000  0.000000  0.706349  1
  Si  Si8  1  0.000000  0.500000  0.207397  1
  Si  Si9  1  0.000000  0.500000  0.293651  1
  Si  Si10  1  0.000000  0.000000  0.043021  1
  Si  Si11  1  0.000000  0.000000  0.543303  1
  Au  Au12  1  0.500000  0.000000  0.085624  1
  Au  Au13  1  0.500000  0.500000  0.663663  1
  Au  Au14  1  0.500000  0.500000  0.835329  1
  Au  Au15  1  0.000000  0.500000  0.085442  1
  Au  Au16  1  0.500000  0.000000  0.914558  1
  Au  Au17  1  0.000000  0.000000  0.664540  1
  Au  Au18  1  0.000000  0.500000  0.414026  1
  Au  Au19  1  0.500000  0.500000  0.336337  1
  Au  Au20  1  0.500000  0.000000  0.413659  1
  Au  Au21  1  0.000000  0.000000  0.335460  1
  Au  Au22  1  0.000000  0.000000  0.165245  1
  Au  Au23  1  0.500000  0.000000  0.585974  1
  Au  Au24  1  0.000000  0.000000  0.834755  1
  Au  Au25  1  0.500000  0.500000  0.164671  1
  Au  Au26  1  0.000000  0.500000  0.586341  1
  Au  Au27  1  0.000000  0.500000  0.914376  1
