# generated using pymatgen
data_MgSi(PRh2)3
_symmetry_space_group_name_H-M   'P 1'
_cell_length_a   7.13762800
_cell_length_b   7.13762958
_cell_length_c   3.52884800
_cell_angle_alpha   90.00000000
_cell_angle_beta   90.00000000
_cell_angle_gamma   119.99999266
_symmetry_Int_Tables_number   1
_chemical_formula_structural   MgSi(PRh2)3
_chemical_formula_sum   'Mg1 Si1 P3 Rh6'
_cell_volume   155.69387636
_cell_formula_units_Z   1
loop_
 _symmetry_equiv_pos_site_id
 _symmetry_equiv_pos_as_xyz
  1  'x, y, z'
loop_
 _atom_site_type_symbol
 _atom_site_label
 _atom_site_symmetry_multiplicity
 _atom_site_fract_x
 _atom_site_fract_y
 _atom_site_fract_z
 _atom_site_occupancy
  Mg  Mg0  1  0.000000  0.000000  0.000000  1
  Si  Si1  1  0.333333  0.666667  0.000000  1
  P  P2  1  0.810755  0.189245  0.500000  1
  P  P3  1  0.378490  0.189245  0.500000  1
  P  P4  1  0.810755  0.621510  0.500000  1
  Rh  Rh5  1  0.188801  0.811199  0.500000  1
  Rh  Rh6  1  0.188801  0.377604  0.500000  1
  Rh  Rh7  1  0.535995  0.071991  0.000000  1
  Rh  Rh8  1  0.928009  0.464005  0.000000  1
  Rh  Rh9  1  0.535995  0.464005  0.000000  1
  Rh  Rh10  1  0.622396  0.811199  0.500000  1
