# generated using pymatgen
data_Na3Er(PS4)2
_symmetry_space_group_name_H-M   'P 1'
_cell_length_a   10.28996181
_cell_length_b   10.28996194
_cell_length_c   9.24414422
_cell_angle_alpha   64.44948174
_cell_angle_beta   64.44948124
_cell_angle_gamma   55.76762195
_symmetry_Int_Tables_number   1
_chemical_formula_structural   Na3Er(PS4)2
_chemical_formula_sum   'Na6 Er2 P4 S16'
_cell_volume   706.35456289
_cell_formula_units_Z   2
loop_
 _symmetry_equiv_pos_site_id
 _symmetry_equiv_pos_as_xyz
  1  'x, y, z'
loop_
 _atom_site_type_symbol
 _atom_site_label
 _atom_site_symmetry_multiplicity
 _atom_site_fract_x
 _atom_site_fract_y
 _atom_site_fract_z
 _atom_site_occupancy
  Na  Na0  1  0.804640  0.534658  0.210608  1
  Na  Na1  1  0.465342  0.195360  0.289392  1
  Na  Na2  1  0.195360  0.465342  0.789392  1
  Na  Na3  1  0.534658  0.804640  0.710608  1
  Na  Na4  1  0.416082  0.583918  0.250000  1
  Na  Na5  1  0.583918  0.416082  0.750000  1
  Er  Er6  1  0.024639  0.975361  0.250000  1
  Er  Er7  1  0.975361  0.024639  0.750000  1
  P  P8  1  0.858968  0.329234  0.933949  1
  P  P9  1  0.670766  0.141032  0.566051  1
  P  P10  1  0.141032  0.670766  0.066051  1
  P  P11  1  0.329234  0.858968  0.433949  1
  S  S12  1  0.206912  0.857668  0.936038  1
  S  S13  1  0.658051  0.088108  0.810690  1
  S  S14  1  0.318451  0.449472  0.022100  1
  S  S15  1  0.088108  0.658051  0.310690  1
  S  S16  1  0.750003  0.940931  0.493227  1
  S  S17  1  0.793088  0.142332  0.063962  1
  S  S18  1  0.059069  0.249997  0.006773  1
  S  S19  1  0.249997  0.059069  0.506773  1
  S  S20  1  0.940931  0.750003  0.993227  1
  S  S21  1  0.857668  0.206912  0.436038  1
  S  S22  1  0.911892  0.341949  0.689310  1
  S  S23  1  0.341949  0.911892  0.189310  1
  S  S24  1  0.681549  0.550528  0.977900  1
  S  S25  1  0.449472  0.318451  0.522100  1
  S  S26  1  0.142332  0.793088  0.563962  1
  S  S27  1  0.550528  0.681549  0.477900  1
