# generated using pymatgen
data_Tm19ScRh12
_symmetry_space_group_name_H-M   'P 1'
_cell_length_a   10.73011600
_cell_length_b   10.73011600
_cell_length_c   6.25688600
_cell_angle_alpha   90.00000000
_cell_angle_beta   90.00000000
_cell_angle_gamma   90.00000000
_symmetry_Int_Tables_number   1
_chemical_formula_structural   Tm19ScRh12
_chemical_formula_sum   'Tm19 Sc1 Rh12'
_cell_volume   720.38900588
_cell_formula_units_Z   1
loop_
 _symmetry_equiv_pos_site_id
 _symmetry_equiv_pos_as_xyz
  1  'x, y, z'
loop_
 _atom_site_type_symbol
 _atom_site_label
 _atom_site_symmetry_multiplicity
 _atom_site_fract_x
 _atom_site_fract_y
 _atom_site_fract_z
 _atom_site_occupancy
  Tm  Tm0  1  0.286988  0.086210  0.377920  1
  Tm  Tm1  1  0.291087  0.912067  0.877685  1
  Tm  Tm2  1  0.708913  0.087933  0.877685  1
  Tm  Tm3  1  0.713012  0.913790  0.377920  1
  Tm  Tm4  1  0.588459  0.791607  0.877494  1
  Tm  Tm5  1  0.586819  0.208585  0.377120  1
  Tm  Tm6  1  0.413181  0.791415  0.377120  1
  Tm  Tm7  1  0.411541  0.208393  0.877494  1
  Tm  Tm8  1  0.208585  0.413181  0.622880  1
  Tm  Tm9  1  0.208393  0.588459  0.122506  1
  Tm  Tm10  1  0.791607  0.411541  0.122506  1
  Tm  Tm11  1  0.791415  0.586819  0.622880  1
  Tm  Tm12  1  0.912067  0.708913  0.122315  1
  Tm  Tm13  1  0.913790  0.286988  0.622080  1
  Tm  Tm14  1  0.086210  0.713012  0.622080  1
  Tm  Tm15  1  0.087933  0.291087  0.122315  1
  Tm  Tm16  1  0.000000  0.000000  0.000000  1
  Tm  Tm17  1  0.500000  0.500000  0.000000  1
  Tm  Tm18  1  0.500000  0.500000  0.500000  1
  Sc  Sc19  1  0.000000  0.000000  0.500000  1
  Rh  Rh20  1  0.848835  0.151574  0.252682  1
  Rh  Rh21  1  0.848426  0.848835  0.747318  1
  Rh  Rh22  1  0.151574  0.151165  0.747318  1
  Rh  Rh23  1  0.151165  0.848426  0.252682  1
  Rh  Rh24  1  0.654560  0.345559  0.749638  1
  Rh  Rh25  1  0.654441  0.654560  0.250362  1
  Rh  Rh26  1  0.345559  0.345440  0.250362  1
  Rh  Rh27  1  0.345440  0.654441  0.749638  1
  Rh  Rh28  1  0.500000  0.000000  0.126015  1
  Rh  Rh29  1  0.500000  0.000000  0.623882  1
  Rh  Rh30  1  0.000000  0.500000  0.873985  1
  Rh  Rh31  1  0.000000  0.500000  0.376118  1
