# generated using pymatgen
data_Dy12ZnCuNi3Sn
_symmetry_space_group_name_H-M   'P 1'
_cell_length_a   8.37582663
_cell_length_b   8.37582849
_cell_length_c   8.37582863
_cell_angle_alpha   112.87357484
_cell_angle_beta   109.38824112
_cell_angle_gamma   106.22042695
_symmetry_Int_Tables_number   1
_chemical_formula_structural   Dy12ZnCuNi3Sn
_chemical_formula_sum   'Dy12 Zn1 Cu1 Ni3 Sn1'
_cell_volume   450.80812419
_cell_formula_units_Z   1
loop_
 _symmetry_equiv_pos_site_id
 _symmetry_equiv_pos_as_xyz
  1  'x, y, z'
loop_
 _atom_site_type_symbol
 _atom_site_label
 _atom_site_symmetry_multiplicity
 _atom_site_fract_x
 _atom_site_fract_y
 _atom_site_fract_z
 _atom_site_occupancy
  Dy  Dy0  1  0.683108  0.875941  0.197083  1
  Dy  Dy1  1  0.321142  0.513975  0.197083  1
  Dy  Dy2  1  0.819480  0.786592  0.606074  1
  Dy  Dy3  1  0.178833  0.791250  0.970084  1
  Dy  Dy4  1  0.819480  0.213408  0.032887  1
  Dy  Dy5  1  0.178833  0.208750  0.387582  1
  Dy  Dy6  1  0.683108  0.486025  0.807167  1
  Dy  Dy7  1  0.321142  0.124059  0.807167  1
  Dy  Dy8  1  0.575916  0.274020  0.301894  1
  Dy  Dy9  1  0.430898  0.733142  0.697757  1
  Dy  Dy10  1  0.027876  0.725980  0.301894  1
  Dy  Dy11  1  0.964614  0.266858  0.697757  1
  Zn  Zn12  1  0.004483  0.500000  0.504483  1
  Cu  Cu13  1  0.357591  0.500000  0.857591  1
  Ni  Ni14  1  0.643704  0.500000  0.143704  1
  Ni  Ni15  1  0.873119  0.877103  0.996016  1
  Ni  Ni16  1  0.118913  0.122897  0.996016  1
  Sn  Sn17  1  0.497760  0.000000  0.497760  1
