# generated using pymatgen
data_LuCd(NiPt)2
_symmetry_space_group_name_H-M   'P 1'
_cell_length_a   4.99741445
_cell_length_b   5.13780551
_cell_length_c   5.13780604
_cell_angle_alpha   63.29204178
_cell_angle_beta   60.89986985
_cell_angle_gamma   60.89986901
_symmetry_Int_Tables_number   1
_chemical_formula_structural   LuCd(NiPt)2
_chemical_formula_sum   'Lu1 Cd1 Ni2 Pt2'
_cell_volume   96.71962866
_cell_formula_units_Z   1
loop_
 _symmetry_equiv_pos_site_id
 _symmetry_equiv_pos_as_xyz
  1  'x, y, z'
loop_
 _atom_site_type_symbol
 _atom_site_label
 _atom_site_symmetry_multiplicity
 _atom_site_fract_x
 _atom_site_fract_y
 _atom_site_fract_z
 _atom_site_occupancy
  Lu  Lu0  1  0.248521  0.251479  0.251479  1
  Cd  Cd1  1  0.005745  0.994255  0.994255  1
  Ni  Ni2  1  0.122079  0.626655  0.626655  1
  Ni  Ni3  1  0.624611  0.626655  0.626655  1
  Pt  Pt4  1  0.624522  0.625976  0.124981  1
  Pt  Pt5  1  0.624522  0.124981  0.625976  1
