# generated using pymatgen
data_YbDy6Co2Sn23Rh4
_symmetry_space_group_name_H-M   'P 1'
_cell_length_a   9.81303919
_cell_length_b   9.81179749
_cell_length_c   10.05711831
_cell_angle_alpha   89.99999794
_cell_angle_beta   89.99819377
_cell_angle_gamma   119.99580583
_symmetry_Int_Tables_number   1
_chemical_formula_structural   YbDy6Co2Sn23Rh4
_chemical_formula_sum   'Yb1 Dy6 Co2 Sn23 Rh4'
_cell_volume   838.63822411
_cell_formula_units_Z   1
loop_
 _symmetry_equiv_pos_site_id
 _symmetry_equiv_pos_as_xyz
  1  'x, y, z'
loop_
 _atom_site_type_symbol
 _atom_site_label
 _atom_site_symmetry_multiplicity
 _atom_site_fract_x
 _atom_site_fract_y
 _atom_site_fract_z
 _atom_site_occupancy
  Yb  Yb0  1  0.000000  0.000000  0.000000  1
  Dy  Dy1  1  0.479271  0.521141  0.307635  1
  Dy  Dy2  1  0.520729  0.478859  0.692365  1
  Dy  Dy3  1  0.479271  0.958130  0.307635  1
  Dy  Dy4  1  0.520729  0.041870  0.692365  1
  Dy  Dy5  1  0.041486  0.520743  0.307144  1
  Dy  Dy6  1  0.958514  0.479257  0.692856  1
  Co  Co7  1  0.339992  0.169995  0.200412  1
  Co  Co8  1  0.660008  0.830005  0.799588  1
  Sn  Sn9  1  0.350518  0.004879  0.004727  1
  Sn  Sn10  1  0.649482  0.995121  0.995273  1
  Sn  Sn11  1  0.000000  0.350011  0.000000  1
  Sn  Sn12  1  0.000000  0.649989  0.000000  1
  Sn  Sn13  1  0.649482  0.654360  0.995273  1
  Sn  Sn14  1  0.350518  0.345640  0.004727  1
  Sn  Sn15  1  0.339092  0.669546  0.816734  1
  Sn  Sn16  1  0.660908  0.330454  0.183266  1
  Sn  Sn17  1  0.000000  0.000000  0.500000  1
  Sn  Sn18  1  0.778694  0.221184  0.457099  1
  Sn  Sn19  1  0.221306  0.778816  0.542901  1
  Sn  Sn20  1  0.778694  0.557509  0.457099  1
  Sn  Sn21  1  0.221306  0.442491  0.542901  1
  Sn  Sn22  1  0.438662  0.219330  0.451226  1
  Sn  Sn23  1  0.561338  0.780670  0.548774  1
  Sn  Sn24  1  0.333377  0.666689  0.118571  1
  Sn  Sn25  1  0.666623  0.333311  0.881429  1
  Sn  Sn26  1  0.123102  0.887353  0.276399  1
  Sn  Sn27  1  0.876898  0.112647  0.723601  1
  Sn  Sn28  1  0.123102  0.235749  0.276399  1
  Sn  Sn29  1  0.876898  0.764251  0.723601  1
  Sn  Sn30  1  0.760803  0.880401  0.281521  1
  Sn  Sn31  1  0.239197  0.119599  0.718479  1
  Rh  Rh32  1  0.829621  0.168457  0.199393  1
  Rh  Rh33  1  0.170379  0.831543  0.800607  1
  Rh  Rh34  1  0.829621  0.661164  0.199393  1
  Rh  Rh35  1  0.170379  0.338836  0.800607  1
