# generated using pymatgen
data_Ta12Ga8Co3NiC4
_symmetry_space_group_name_H-M   'P 1'
_cell_length_a   8.20107553
_cell_length_b   8.20171125
_cell_length_c   8.20171000
_cell_angle_alpha   59.99999698
_cell_angle_beta   59.99743271
_cell_angle_gamma   59.99743086
_symmetry_Int_Tables_number   1
_chemical_formula_structural   Ta12Ga8Co3NiC4
_chemical_formula_sum   'Ta12 Ga8 Co3 Ni1 C4'
_cell_volume   390.07474104
_cell_formula_units_Z   1
loop_
 _symmetry_equiv_pos_site_id
 _symmetry_equiv_pos_as_xyz
  1  'x, y, z'
loop_
 _atom_site_type_symbol
 _atom_site_label
 _atom_site_symmetry_multiplicity
 _atom_site_fract_x
 _atom_site_fract_y
 _atom_site_fract_z
 _atom_site_occupancy
  Ta  Ta0  1  0.560263  0.937384  0.564970  1
  Ta  Ta1  1  0.310522  0.688817  0.688817  1
  Ta  Ta2  1  0.689737  0.312616  0.312616  1
  Ta  Ta3  1  0.310522  0.688817  0.311844  1
  Ta  Ta4  1  0.689737  0.685030  0.312616  1
  Ta  Ta5  1  0.310522  0.311844  0.688817  1
  Ta  Ta6  1  0.560263  0.564970  0.937384  1
  Ta  Ta7  1  0.939478  0.561183  0.561183  1
  Ta  Ta8  1  0.560263  0.937384  0.937384  1
  Ta  Ta9  1  0.939478  0.938156  0.561183  1
  Ta  Ta10  1  0.689737  0.312616  0.685030  1
  Ta  Ta11  1  0.939478  0.561183  0.938156  1
  Ga  Ga12  1  0.916770  0.916173  0.916173  1
  Ga  Ga13  1  0.002510  0.332496  0.332496  1
  Ga  Ga14  1  0.333230  0.999115  0.333827  1
  Ga  Ga15  1  0.333230  0.333827  0.999115  1
  Ga  Ga16  1  0.916770  0.250885  0.916173  1
  Ga  Ga17  1  0.916770  0.916173  0.250885  1
  Ga  Ga18  1  0.247490  0.917504  0.917504  1
  Ga  Ga19  1  0.333230  0.333827  0.333827  1
  Co  Co20  1  0.125000  0.125000  0.125000  1
  Co  Co21  1  0.125000  0.625000  0.125000  1
  Co  Co22  1  0.125000  0.125000  0.625000  1
  Ni  Ni23  1  0.625000  0.125000  0.125000  1
  C  C24  1  0.625000  0.625000  0.625000  1
  C  C25  1  0.125000  0.625000  0.625000  1
  C  C26  1  0.625000  0.125000  0.625000  1
  C  C27  1  0.625000  0.625000  0.125000  1
