# generated using pymatgen
data_Pr2Nd3GaBi3
_symmetry_space_group_name_H-M   'P 1'
_cell_length_a   9.72789700
_cell_length_b   9.72789768
_cell_length_c   6.64246800
_cell_angle_alpha   90.00000000
_cell_angle_beta   90.00000000
_cell_angle_gamma   119.99999429
_symmetry_Int_Tables_number   1
_chemical_formula_structural   Pr2Nd3GaBi3
_chemical_formula_sum   'Pr4 Nd6 Ga2 Bi6'
_cell_volume   544.37489059
_cell_formula_units_Z   2
loop_
 _symmetry_equiv_pos_site_id
 _symmetry_equiv_pos_as_xyz
  1  'x, y, z'
loop_
 _atom_site_type_symbol
 _atom_site_label
 _atom_site_symmetry_multiplicity
 _atom_site_fract_x
 _atom_site_fract_y
 _atom_site_fract_z
 _atom_site_occupancy
  Pr  Pr0  1  0.666667  0.333333  0.000000  1
  Pr  Pr1  1  0.333333  0.666667  0.000000  1
  Pr  Pr2  1  0.333333  0.666667  0.500000  1
  Pr  Pr3  1  0.666667  0.333333  0.500000  1
  Nd  Nd4  1  0.742615  0.742615  0.750000  1
  Nd  Nd5  1  0.257385  0.000000  0.750000  1
  Nd  Nd6  1  0.000000  0.257385  0.750000  1
  Nd  Nd7  1  0.257385  0.257385  0.250000  1
  Nd  Nd8  1  0.742615  0.000000  0.250000  1
  Nd  Nd9  1  0.000000  0.742615  0.250000  1
  Ga  Ga10  1  0.000000  0.000000  0.000000  1
  Ga  Ga11  1  0.000000  0.000000  0.500000  1
  Bi  Bi12  1  0.385220  0.385220  0.750000  1
  Bi  Bi13  1  0.614780  0.000000  0.750000  1
  Bi  Bi14  1  0.000000  0.614780  0.750000  1
  Bi  Bi15  1  0.614780  0.614780  0.250000  1
  Bi  Bi16  1  0.385220  0.000000  0.250000  1
  Bi  Bi17  1  0.000000  0.385220  0.250000  1
