# generated using pymatgen
data_Y2Th2(Ga8Pd3)3
_symmetry_space_group_name_H-M   'P 1'
_cell_length_a   7.62378997
_cell_length_b   7.64310326
_cell_length_c   13.32271100
_cell_angle_alpha   84.54157749
_cell_angle_beta   79.15043166
_cell_angle_gamma   59.89714070
_symmetry_Int_Tables_number   1
_chemical_formula_structural   Y2Th2(Ga8Pd3)3
_chemical_formula_sum   'Y2 Th2 Ga24 Pd9'
_cell_volume   659.59800058
_cell_formula_units_Z   1
loop_
 _symmetry_equiv_pos_site_id
 _symmetry_equiv_pos_as_xyz
  1  'x, y, z'
loop_
 _atom_site_type_symbol
 _atom_site_label
 _atom_site_symmetry_multiplicity
 _atom_site_fract_x
 _atom_site_fract_y
 _atom_site_fract_z
 _atom_site_occupancy
  Y  Y0  1  0.732762  0.497326  0.808806  1
  Y  Y1  1  0.267238  0.502674  0.191194  1
  Th  Th2  1  0.395185  0.168410  0.808082  1
  Th  Th3  1  0.604815  0.831590  0.191918  1
  Ga  Ga4  1  0.689995  0.830033  0.939569  1
  Ga  Ga5  1  0.310005  0.169967  0.060431  1
  Ga  Ga6  1  0.143208  0.834993  0.559782  1
  Ga  Ga7  1  0.856792  0.165007  0.440218  1
  Ga  Ga8  1  0.479849  0.167269  0.556696  1
  Ga  Ga9  1  0.520151  0.832731  0.443304  1
  Ga  Ga10  1  0.217288  0.168355  0.329746  1
  Ga  Ga11  1  0.782712  0.831645  0.670254  1
  Ga  Ga12  1  0.437545  0.507728  0.670942  1
  Ga  Ga13  1  0.562455  0.492272  0.329058  1
  Ga  Ga14  1  0.105877  0.162574  0.669121  1
  Ga  Ga15  1  0.894123  0.837426  0.330879  1
  Ga  Ga16  1  0.354813  0.502630  0.942110  1
  Ga  Ga17  1  0.645187  0.497370  0.057890  1
  Ga  Ga18  1  0.014766  0.168388  0.947440  1
  Ga  Ga19  1  0.985234  0.831612  0.052560  1
  Ga  Ga20  1  0.186315  0.501732  0.441600  1
  Ga  Ga21  1  0.813685  0.498268  0.558400  1
  Ga  Ga22  1  0.734741  0.165606  0.182830  1
  Ga  Ga23  1  0.265259  0.834394  0.817170  1
  Ga  Ga24  1  0.060524  0.633396  0.815505  1
  Ga  Ga25  1  0.939476  0.366604  0.184495  1
  Ga  Ga26  1  0.861638  0.040347  0.816225  1
  Ga  Ga27  1  0.138362  0.959653  0.183775  1
  Pd  Pd28  1  0.119600  0.495156  0.637573  1
  Pd  Pd29  1  0.880400  0.504844  0.362427  1
  Pd  Pd30  1  0.658194  0.168715  0.999432  1
  Pd  Pd31  1  0.341806  0.831285  0.000568  1
  Pd  Pd32  1  0.541196  0.166903  0.361687  1
  Pd  Pd33  1  0.458804  0.833097  0.638313  1
  Pd  Pd34  1  0.779748  0.172854  0.637991  1
  Pd  Pd35  1  0.220252  0.827146  0.362009  1
  Pd  Pd36  1  0.000000  0.500000  0.000000  1
