# generated using pymatgen
data_HoLu3(Al8Pt3)3
_symmetry_space_group_name_H-M   'P 1'
_cell_length_a   7.50479762
_cell_length_b   7.52836241
_cell_length_c   13.12938234
_cell_angle_alpha   84.60741841
_cell_angle_beta   79.12628315
_cell_angle_gamma   59.98450356
_symmetry_Int_Tables_number   1
_chemical_formula_structural   HoLu3(Al8Pt3)3
_chemical_formula_sum   'Ho1 Lu3 Al24 Pt9'
_cell_volume   630.78025772
_cell_formula_units_Z   1
loop_
 _symmetry_equiv_pos_site_id
 _symmetry_equiv_pos_as_xyz
  1  'x, y, z'
loop_
 _atom_site_type_symbol
 _atom_site_label
 _atom_site_symmetry_multiplicity
 _atom_site_fract_x
 _atom_site_fract_y
 _atom_site_fract_z
 _atom_site_occupancy
  Ho  Ho0  1  0.393655  0.168805  0.807875  1
  Lu  Lu1  1  0.606266  0.830922  0.192928  1
  Lu  Lu2  1  0.734433  0.498799  0.806922  1
  Lu  Lu3  1  0.265422  0.501376  0.193078  1
  Al  Al4  1  0.684323  0.833277  0.944156  1
  Al  Al5  1  0.316091  0.166123  0.056528  1
  Al  Al6  1  0.146485  0.832428  0.561531  1
  Al  Al7  1  0.853597  0.167562  0.438370  1
  Al  Al8  1  0.479265  0.166688  0.558597  1
  Al  Al9  1  0.520742  0.833273  0.441238  1
  Al  Al10  1  0.218076  0.165354  0.328147  1
  Al  Al11  1  0.782369  0.834293  0.671517  1
  Al  Al12  1  0.437439  0.506408  0.671602  1
  Al  Al13  1  0.562673  0.493963  0.328037  1
  Al  Al14  1  0.108882  0.160203  0.670441  1
  Al  Al15  1  0.890878  0.839815  0.329137  1
  Al  Al16  1  0.353937  0.499397  0.944229  1
  Al  Al17  1  0.646005  0.501195  0.056088  1
  Al  Al18  1  0.015515  0.168272  0.951769  1
  Al  Al19  1  0.983772  0.831788  0.048613  1
  Al  Al20  1  0.186843  0.499392  0.441209  1
  Al  Al21  1  0.813147  0.500641  0.558696  1
  Al  Al22  1  0.733257  0.163943  0.183155  1
  Al  Al23  1  0.266740  0.835398  0.816805  1
  Al  Al24  1  0.061099  0.631224  0.815685  1
  Al  Al25  1  0.938317  0.369389  0.184250  1
  Al  Al26  1  0.855347  0.042320  0.816202  1
  Al  Al27  1  0.145252  0.957623  0.183773  1
  Pt  Pt28  1  0.119341  0.491508  0.639404  1
  Pt  Pt29  1  0.880355  0.508931  0.360304  1
  Pt  Pt30  1  0.657070  0.171458  0.999793  1
  Pt  Pt31  1  0.342973  0.828540  0.000330  1
  Pt  Pt32  1  0.537613  0.166866  0.360482  1
  Pt  Pt33  1  0.462430  0.832769  0.639299  1
  Pt  Pt34  1  0.778288  0.175408  0.637643  1
  Pt  Pt35  1  0.222145  0.824571  0.362108  1
  Pt  Pt36  1  0.999957  0.500076  0.000061  1
