# generated using pymatgen
data_Cs6ErTmBr12
_symmetry_space_group_name_H-M   'P 1'
_cell_length_a   9.95362531
_cell_length_b   9.95039131
_cell_length_c   8.25349100
_cell_angle_alpha   90.00000000
_cell_angle_beta   90.00000000
_cell_angle_gamma   90.02851545
_symmetry_Int_Tables_number   1
_chemical_formula_structural   Cs6ErTmBr12
_chemical_formula_sum   'Cs6 Er1 Tm1 Br12'
_cell_volume   817.44600670
_cell_formula_units_Z   1
loop_
 _symmetry_equiv_pos_site_id
 _symmetry_equiv_pos_as_xyz
  1  'x, y, z'
loop_
 _atom_site_type_symbol
 _atom_site_label
 _atom_site_symmetry_multiplicity
 _atom_site_fract_x
 _atom_site_fract_y
 _atom_site_fract_z
 _atom_site_occupancy
  Cs  Cs0  1  0.000000  0.000000  0.500000  1
  Cs  Cs1  1  0.000000  0.000000  0.000000  1
  Cs  Cs2  1  0.234961  0.583922  0.500000  1
  Cs  Cs3  1  0.765039  0.416078  0.500000  1
  Cs  Cs4  1  0.416196  0.234966  0.000000  1
  Cs  Cs5  1  0.583804  0.765034  0.000000  1
  Er  Er6  1  0.000000  0.500000  0.000000  1
  Tm  Tm7  1  0.500000  0.000000  0.500000  1
  Br  Br8  1  0.690463  0.057641  0.738608  1
  Br  Br9  1  0.309537  0.942359  0.738608  1
  Br  Br10  1  0.942053  0.691690  0.240136  1
  Br  Br11  1  0.057947  0.308310  0.240136  1
  Br  Br12  1  0.309537  0.942359  0.261392  1
  Br  Br13  1  0.690463  0.057641  0.261392  1
  Br  Br14  1  0.057947  0.308310  0.759864  1
  Br  Br15  1  0.942053  0.691690  0.759864  1
  Br  Br16  1  0.571379  0.731189  0.500000  1
  Br  Br17  1  0.428621  0.268811  0.500000  1
  Br  Br18  1  0.270582  0.571914  0.000000  1
  Br  Br19  1  0.729418  0.428086  0.000000  1
