# generated using pymatgen
data_Na2Ga3SiPd6
_symmetry_space_group_name_H-M   'P 1'
_cell_length_a   6.80219692
_cell_length_b   6.82981203
_cell_length_c   6.80219707
_cell_angle_alpha   129.28031709
_cell_angle_beta   113.88585988
_cell_angle_gamma   87.68248777
_symmetry_Int_Tables_number   1
_chemical_formula_structural   Na2Ga3SiPd6
_chemical_formula_sum   'Na2 Ga3 Si1 Pd6'
_cell_volume   213.00091175
_cell_formula_units_Z   1
loop_
 _symmetry_equiv_pos_site_id
 _symmetry_equiv_pos_as_xyz
  1  'x, y, z'
loop_
 _atom_site_type_symbol
 _atom_site_label
 _atom_site_symmetry_multiplicity
 _atom_site_fract_x
 _atom_site_fract_y
 _atom_site_fract_z
 _atom_site_occupancy
  Na  Na0  1  0.000552  0.977358  0.976806  1
  Na  Na1  1  0.498662  0.045910  0.547248  1
  Ga  Ga2  1  0.352872  0.404398  0.051526  1
  Ga  Ga3  1  0.804630  0.237407  0.432777  1
  Ga  Ga4  1  0.651729  0.698589  0.046859  1
  Si  Si5  1  0.186260  0.624889  0.438629  1
  Pd  Pd6  1  0.970265  0.503930  0.971209  1
  Pd  Pd7  1  0.532720  0.503930  0.533665  1
  Pd  Pd8  1  0.049358  0.995427  0.544431  1
  Pd  Pd9  1  0.788511  0.498868  0.285425  1
  Pd  Pd10  1  0.213444  0.498868  0.710357  1
  Pd  Pd11  1  0.450997  0.995427  0.946069  1
