# generated using pymatgen
data_La10AlSi4Sn
_symmetry_space_group_name_H-M   'P 1'
_cell_length_a   8.04537400
_cell_length_b   9.30705890
_cell_length_c   8.04537400
_cell_angle_alpha   115.60846822
_cell_angle_beta   90.00000000
_cell_angle_gamma   115.60846822
_symmetry_Int_Tables_number   1
_chemical_formula_structural   La10AlSi4Sn
_chemical_formula_sum   'La10 Al1 Si4 Sn1'
_cell_volume   476.78391523
_cell_formula_units_Z   1
loop_
 _symmetry_equiv_pos_site_id
 _symmetry_equiv_pos_as_xyz
  1  'x, y, z'
loop_
 _atom_site_type_symbol
 _atom_site_label
 _atom_site_symmetry_multiplicity
 _atom_site_fract_x
 _atom_site_fract_y
 _atom_site_fract_z
 _atom_site_occupancy
  La  La0  1  0.975709  0.951417  0.975709  1
  La  La1  1  0.524291  0.048583  0.524291  1
  La  La2  1  0.533135  0.721229  0.681182  1
  La  La3  1  0.188096  0.721229  0.040049  1
  La  La4  1  0.681182  0.721229  0.188096  1
  La  La5  1  0.040049  0.721229  0.533135  1
  La  La6  1  0.459951  0.278771  0.311904  1
  La  La7  1  0.818818  0.278771  0.966865  1
  La  La8  1  0.311904  0.278771  0.818818  1
  La  La9  1  0.966865  0.278771  0.459951  1
  Al  Al10  1  0.750000  0.500000  0.750000  1
  Si  Si11  1  0.886347  0.000000  0.613653  1
  Si  Si12  1  0.113653  0.000000  0.386347  1
  Si  Si13  1  0.613653  0.000000  0.113653  1
  Si  Si14  1  0.386347  0.000000  0.886347  1
  Sn  Sn15  1  0.250000  0.500000  0.250000  1
