# generated using pymatgen
data_VI13
_symmetry_space_group_name_H-M   'P 1'
_cell_length_a   12.39988194
_cell_length_b   11.19578499
_cell_length_c   15.09033328
_cell_angle_alpha   119.75280580
_cell_angle_beta   89.18607223
_cell_angle_gamma   106.98889365
_symmetry_Int_Tables_number   1
_chemical_formula_structural   VI13
_chemical_formula_sum   'V2 I26'
_cell_volume   1717.68451746
_cell_formula_units_Z   2
loop_
 _symmetry_equiv_pos_site_id
 _symmetry_equiv_pos_as_xyz
  1  'x, y, z'
loop_
 _atom_site_type_symbol
 _atom_site_label
 _atom_site_symmetry_multiplicity
 _atom_site_fract_x
 _atom_site_fract_y
 _atom_site_fract_z
 _atom_site_occupancy
  V  V0  1  0.334567  0.873079  0.931672  1
  V  V1  1  0.665433  0.126921  0.068328  1
  I  I2  1  0.372227  0.664734  0.965988  1
  I  I3  1  0.627773  0.335266  0.034012  1
  I  I4  1  0.569563  0.805518  0.393872  1
  I  I5  1  0.430437  0.194482  0.606128  1
  I  I6  1  0.726058  0.690227  0.005739  1
  I  I7  1  0.273942  0.309773  0.994261  1
  I  I8  1  0.704077  0.963493  0.148732  1
  I  I9  1  0.295923  0.036507  0.851268  1
  I  I10  1  0.447272  0.106435  0.120769  1
  I  I11  1  0.552728  0.893565  0.879231  1
  I  I12  1  0.237508  0.664144  0.725447  1
  I  I13  1  0.762492  0.335856  0.274553  1
  I  I14  1  0.132938  0.834982  0.995756  1
  I  I15  1  0.867062  0.165018  0.004244  1
  I  I16  1  0.102603  0.084111  0.207668  1
  I  I17  1  0.897397  0.915889  0.792332  1
  I  I18  1  0.273802  0.908491  0.453511  1
  I  I19  1  0.726198  0.091509  0.546489  1
  I  I20  1  0.333368  0.426011  0.658127  1
  I  I21  1  0.666632  0.573989  0.341873  1
  I  I22  1  0.862596  0.390419  0.704365  1
  I  I23  1  0.137404  0.609581  0.295635  1
  I  I24  1  0.946480  0.710527  0.607990  1
  I  I25  1  0.053520  0.289473  0.392010  1
  I  I26  1  0.248571  0.627322  0.122825  1
  I  I27  1  0.751429  0.372678  0.877175  1
