# generated using pymatgen
data_Dy12Y8Co3Bi8Ru
_symmetry_space_group_name_H-M   'P 1'
_cell_length_a   8.02731425
_cell_length_b   8.90474700
_cell_length_c   12.47658410
_cell_angle_alpha   90.00000000
_cell_angle_beta   90.20164306
_cell_angle_gamma   90.00000000
_symmetry_Int_Tables_number   1
_chemical_formula_structural   Dy12Y8Co3Bi8Ru
_chemical_formula_sum   'Dy12 Y8 Co3 Bi8 Ru1'
_cell_volume   891.83571102
_cell_formula_units_Z   1
loop_
 _symmetry_equiv_pos_site_id
 _symmetry_equiv_pos_as_xyz
  1  'x, y, z'
loop_
 _atom_site_type_symbol
 _atom_site_label
 _atom_site_symmetry_multiplicity
 _atom_site_fract_x
 _atom_site_fract_y
 _atom_site_fract_z
 _atom_site_occupancy
  Dy  Dy0  1  0.378508  0.750000  0.692997  1
  Dy  Dy1  1  0.118320  0.750000  0.187268  1
  Dy  Dy2  1  0.949474  0.750000  0.503695  1
  Dy  Dy3  1  0.549211  0.750000  0.002453  1
  Dy  Dy4  1  0.676681  0.041704  0.564455  1
  Dy  Dy5  1  0.324046  0.965615  0.436446  1
  Dy  Dy6  1  0.175297  0.965285  0.937033  1
  Dy  Dy7  1  0.324046  0.534385  0.436446  1
  Dy  Dy8  1  0.823996  0.036139  0.063065  1
  Dy  Dy9  1  0.676681  0.458296  0.564455  1
  Dy  Dy10  1  0.823996  0.463861  0.063065  1
  Dy  Dy11  1  0.175297  0.534715  0.937033  1
  Y  Y12  1  0.846404  0.750000  0.799735  1
  Y  Y13  1  0.152632  0.250000  0.199026  1
  Y  Y14  1  0.347221  0.250000  0.699849  1
  Y  Y15  1  0.654332  0.750000  0.295483  1
  Y  Y16  1  0.619059  0.250000  0.309837  1
  Y  Y17  1  0.880511  0.250000  0.810645  1
  Y  Y18  1  0.049754  0.250000  0.496809  1
  Y  Y19  1  0.451937  0.250000  0.997308  1
  Co  Co20  1  0.434304  0.250000  0.490786  1
  Co  Co21  1  0.060915  0.250000  0.991942  1
  Co  Co22  1  0.937191  0.750000  0.008054  1
  Bi  Bi23  1  0.570782  0.491808  0.826915  1
  Bi  Bi24  1  0.428608  0.508025  0.173271  1
  Bi  Bi25  1  0.070933  0.507772  0.674314  1
  Bi  Bi26  1  0.428608  0.991975  0.173271  1
  Bi  Bi27  1  0.930391  0.492231  0.326045  1
  Bi  Bi28  1  0.570782  0.008192  0.826915  1
  Bi  Bi29  1  0.930391  0.007769  0.326045  1
  Bi  Bi30  1  0.070933  0.992228  0.674314  1
  Ru  Ru31  1  0.568756  0.750000  0.511024  1
