# generated using pymatgen
data_Er6Zn21Ag2Se
_symmetry_space_group_name_H-M   'P 1'
_cell_length_a   9.04825198
_cell_length_b   9.04460988
_cell_length_c   9.04461000
_cell_angle_alpha   59.99999957
_cell_angle_beta   60.01331391
_cell_angle_gamma   60.01331544
_symmetry_Int_Tables_number   1
_chemical_formula_structural   Er6Zn21Ag2Se
_chemical_formula_sum   'Er6 Zn21 Ag2 Se1'
_cell_volume   523.50007061
_cell_formula_units_Z   1
loop_
 _symmetry_equiv_pos_site_id
 _symmetry_equiv_pos_as_xyz
  1  'x, y, z'
loop_
 _atom_site_type_symbol
 _atom_site_label
 _atom_site_symmetry_multiplicity
 _atom_site_fract_x
 _atom_site_fract_y
 _atom_site_fract_z
 _atom_site_occupancy
  Er  Er0  1  0.716301  0.283802  0.283802  1
  Er  Er1  1  0.716301  0.283802  0.716095  1
  Er  Er2  1  0.716301  0.716095  0.283802  1
  Er  Er3  1  0.283155  0.716944  0.716944  1
  Er  Er4  1  0.283155  0.716944  0.282957  1
  Er  Er5  1  0.283155  0.282957  0.716944  1
  Zn  Zn6  1  0.125582  0.623102  0.125658  1
  Zn  Zn7  1  0.125582  0.125658  0.623102  1
  Zn  Zn8  1  0.125582  0.125658  0.125658  1
  Zn  Zn9  1  0.377072  0.874309  0.874309  1
  Zn  Zn10  1  0.873414  0.375636  0.875474  1
  Zn  Zn11  1  0.873414  0.875474  0.375636  1
  Zn  Zn12  1  0.873414  0.875474  0.875474  1
  Zn  Zn13  1  0.498431  0.999184  0.999184  1
  Zn  Zn14  1  0.498431  0.999184  0.503202  1
  Zn  Zn15  1  0.498431  0.503202  0.999184  1
  Zn  Zn16  1  0.999581  0.500226  0.500226  1
  Zn  Zn17  1  0.999581  0.500226  0.999967  1
  Zn  Zn18  1  0.999581  0.999967  0.500226  1
  Zn  Zn19  1  0.007891  0.330702  0.330702  1
  Zn  Zn20  1  0.329413  0.007714  0.331436  1
  Zn  Zn21  1  0.329413  0.331436  0.007714  1
  Zn  Zn22  1  0.329413  0.331436  0.331436  1
  Zn  Zn23  1  0.991044  0.669653  0.669653  1
  Zn  Zn24  1  0.669302  0.991629  0.669536  1
  Zn  Zn25  1  0.669302  0.669536  0.991629  1
  Zn  Zn26  1  0.669302  0.669536  0.669536  1
  Ag  Ag27  1  0.629212  0.123596  0.123596  1
  Ag  Ag28  1  0.009367  0.996878  0.996878  1
  Se  Se29  1  0.499879  0.500040  0.500040  1
