# generated using pymatgen
data_Ca8V3GaO16
_symmetry_space_group_name_H-M   'P 1'
_cell_length_a   5.37910957
_cell_length_b   6.82746700
_cell_length_c   11.53009545
_cell_angle_alpha   90.00000000
_cell_angle_beta   90.04636978
_cell_angle_gamma   90.00000000
_symmetry_Int_Tables_number   1
_chemical_formula_structural   Ca8V3GaO16
_chemical_formula_sum   'Ca8 V3 Ga1 O16'
_cell_volume   423.45060828
_cell_formula_units_Z   1
loop_
 _symmetry_equiv_pos_site_id
 _symmetry_equiv_pos_as_xyz
  1  'x, y, z'
loop_
 _atom_site_type_symbol
 _atom_site_label
 _atom_site_symmetry_multiplicity
 _atom_site_fract_x
 _atom_site_fract_y
 _atom_site_fract_z
 _atom_site_occupancy
  Ca  Ca0  1  0.020625  0.750000  0.723702  1
  Ca  Ca1  1  0.018235  0.250000  0.279877  1
  Ca  Ca2  1  0.500132  0.250000  0.772252  1
  Ca  Ca3  1  0.484998  0.750000  0.212904  1
  Ca  Ca4  1  0.487084  0.491992  0.507890  1
  Ca  Ca5  1  0.994098  0.000180  0.000341  1
  Ca  Ca6  1  0.994098  0.499820  0.000341  1
  Ca  Ca7  1  0.487084  0.008008  0.507890  1
  V  V8  1  0.436776  0.250000  0.092092  1
  V  V9  1  0.925445  0.750000  0.403354  1
  V  V10  1  0.563372  0.750000  0.901750  1
  Ga  Ga11  1  0.062676  0.250000  0.597784  1
  O  O12  1  0.790902  0.750000  0.541629  1
  O  O13  1  0.787262  0.549262  0.335792  1
  O  O14  1  0.725689  0.542411  0.837527  1
  O  O15  1  0.721699  0.250000  0.590836  1
  O  O16  1  0.715456  0.750000  0.048272  1
  O  O17  1  0.280283  0.460846  0.161420  1
  O  O18  1  0.227250  0.468266  0.664938  1
  O  O19  1  0.252890  0.750000  0.402730  1
  O  O20  1  0.787262  0.950738  0.335792  1
  O  O21  1  0.228592  0.750000  0.914567  1
  O  O22  1  0.224594  0.250000  0.448052  1
  O  O23  1  0.725689  0.957589  0.837527  1
  O  O24  1  0.227250  0.031734  0.664938  1
  O  O25  1  0.277448  0.250000  0.953203  1
  O  O26  1  0.280283  0.039154  0.161420  1
  O  O27  1  0.772829  0.250000  0.101176  1
