# generated using pymatgen
data_Sr2YTm(Ir2O7)2
_symmetry_space_group_name_H-M   'P 1'
_cell_length_a   7.34850003
_cell_length_b   7.33177100
_cell_length_c   7.34724724
_cell_angle_alpha   60.06965150
_cell_angle_beta   59.74467140
_cell_angle_gamma   60.07527576
_symmetry_Int_Tables_number   1
_chemical_formula_structural   Sr2YTm(Ir2O7)2
_chemical_formula_sum   'Sr2 Y1 Tm1 Ir4 O14'
_cell_volume   279.66955310
_cell_formula_units_Z   1
loop_
 _symmetry_equiv_pos_site_id
 _symmetry_equiv_pos_as_xyz
  1  'x, y, z'
loop_
 _atom_site_type_symbol
 _atom_site_label
 _atom_site_symmetry_multiplicity
 _atom_site_fract_x
 _atom_site_fract_y
 _atom_site_fract_z
 _atom_site_occupancy
  Sr  Sr0  1  0.125000  0.625000  0.125000  1
  Sr  Sr1  1  0.125000  0.125000  0.125000  1
  Y  Y2  1  0.625000  0.125000  0.125000  1
  Tm  Tm3  1  0.125000  0.125000  0.625000  1
  Ir  Ir4  1  0.125000  0.625000  0.625000  1
  Ir  Ir5  1  0.625000  0.125000  0.625000  1
  Ir  Ir6  1  0.625000  0.625000  0.125000  1
  Ir  Ir7  1  0.625000  0.625000  0.625000  1
  O  O8  1  0.690024  0.715498  0.298697  1
  O  O9  1  0.297839  0.294985  0.688748  1
  O  O10  1  0.704822  0.296945  0.701287  1
  O  O11  1  0.301812  0.698084  0.302020  1
  O  O12  1  0.297839  0.718428  0.688748  1
  O  O13  1  0.690024  0.295781  0.298697  1
  O  O14  1  0.559976  0.534502  0.951303  1
  O  O15  1  0.952161  0.955015  0.561252  1
  O  O16  1  0.545178  0.953055  0.548713  1
  O  O17  1  0.948188  0.551916  0.947980  1
  O  O18  1  0.952161  0.531572  0.561252  1
  O  O19  1  0.559976  0.954219  0.951303  1
  O  O20  1  0.264668  0.232139  0.271053  1
  O  O21  1  0.985332  0.017861  0.978947  1
