# generated using pymatgen
data_SrMg4Si12Ir19
_symmetry_space_group_name_H-M   'P 1'
_cell_length_a   12.75899600
_cell_length_b   12.75899679
_cell_length_c   3.98288100
_cell_angle_alpha   90.00000000
_cell_angle_beta   90.00000000
_cell_angle_gamma   120.00000313
_symmetry_Int_Tables_number   1
_chemical_formula_structural   SrMg4Si12Ir19
_chemical_formula_sum   'Sr1 Mg4 Si12 Ir19'
_cell_volume   561.51450360
_cell_formula_units_Z   1
loop_
 _symmetry_equiv_pos_site_id
 _symmetry_equiv_pos_as_xyz
  1  'x, y, z'
loop_
 _atom_site_type_symbol
 _atom_site_label
 _atom_site_symmetry_multiplicity
 _atom_site_fract_x
 _atom_site_fract_y
 _atom_site_fract_z
 _atom_site_occupancy
  Sr  Sr0  1  0.666667  0.333333  0.000000  1
  Mg  Mg1  1  0.997880  0.823130  0.500000  1
  Mg  Mg2  1  0.176870  0.174750  0.500000  1
  Mg  Mg3  1  0.825250  0.002120  0.500000  1
  Mg  Mg4  1  0.333333  0.666667  0.000000  1
  Si  Si5  1  0.004952  0.181307  0.000000  1
  Si  Si6  1  0.818693  0.823645  0.000000  1
  Si  Si7  1  0.176355  0.995048  0.000000  1
  Si  Si8  1  0.520128  0.688307  0.500000  1
  Si  Si9  1  0.311693  0.831821  0.500000  1
  Si  Si10  1  0.168179  0.479872  0.500000  1
  Si  Si11  1  0.474232  0.160202  0.500000  1
  Si  Si12  1  0.685970  0.525768  0.500000  1
  Si  Si13  1  0.839798  0.314030  0.500000  1
  Si  Si14  1  0.000274  0.632103  0.000000  1
  Si  Si15  1  0.367897  0.368171  0.000000  1
  Si  Si16  1  0.631829  0.999726  0.000000  1
  Ir  Ir17  1  0.003976  0.278940  0.500000  1
  Ir  Ir18  1  0.721060  0.725036  0.500000  1
  Ir  Ir19  1  0.274964  0.996024  0.500000  1
  Ir  Ir20  1  0.620878  0.807806  0.000000  1
  Ir  Ir21  1  0.192194  0.813072  0.000000  1
  Ir  Ir22  1  0.186928  0.379122  0.000000  1
  Ir  Ir23  1  0.368726  0.181124  0.000000  1
  Ir  Ir24  1  0.812398  0.631274  0.000000  1
  Ir  Ir25  1  0.818876  0.187602  0.000000  1
  Ir  Ir26  1  0.508708  0.870858  0.500000  1
  Ir  Ir27  1  0.129142  0.637851  0.500000  1
  Ir  Ir28  1  0.362149  0.491292  0.500000  1
  Ir  Ir29  1  0.482378  0.358124  0.500000  1
  Ir  Ir30  1  0.875746  0.517622  0.500000  1
  Ir  Ir31  1  0.641876  0.124254  0.500000  1
  Ir  Ir32  1  0.000000  0.000000  0.000000  1
  Ir  Ir33  1  0.997224  0.445433  0.000000  1
  Ir  Ir34  1  0.554567  0.551792  0.000000  1
  Ir  Ir35  1  0.448208  0.002776  0.000000  1
