# generated using pymatgen
data_ThZnCu4Ru
_symmetry_space_group_name_H-M   'P 1'
_cell_length_a   4.90018700
_cell_length_b   8.30318300
_cell_length_c   10.60557100
_cell_angle_alpha   90.00000000
_cell_angle_beta   90.00000000
_cell_angle_gamma   90.00000000
_symmetry_Int_Tables_number   1
_chemical_formula_structural   ThZnCu4Ru
_chemical_formula_sum   'Th4 Zn4 Cu16 Ru4'
_cell_volume   431.51045170
_cell_formula_units_Z   4
loop_
 _symmetry_equiv_pos_site_id
 _symmetry_equiv_pos_as_xyz
  1  'x, y, z'
loop_
 _atom_site_type_symbol
 _atom_site_label
 _atom_site_symmetry_multiplicity
 _atom_site_fract_x
 _atom_site_fract_y
 _atom_site_fract_z
 _atom_site_occupancy
  Th  Th0  1  0.750000  0.230837  0.940106  1
  Th  Th1  1  0.250000  0.769163  0.059894  1
  Th  Th2  1  0.750000  0.730837  0.559894  1
  Th  Th3  1  0.250000  0.269163  0.440106  1
  Zn  Zn4  1  0.750000  0.353340  0.642527  1
  Zn  Zn5  1  0.250000  0.646660  0.357473  1
  Zn  Zn6  1  0.750000  0.853340  0.857473  1
  Zn  Zn7  1  0.250000  0.146660  0.142527  1
  Cu  Cu8  1  0.003713  0.436303  0.189032  1
  Cu  Cu9  1  0.503713  0.563697  0.810968  1
  Cu  Cu10  1  0.496287  0.936303  0.310968  1
  Cu  Cu11  1  0.996287  0.063697  0.689032  1
  Cu  Cu12  1  0.996287  0.563697  0.810968  1
  Cu  Cu13  1  0.496287  0.436303  0.189032  1
  Cu  Cu14  1  0.503713  0.063697  0.689032  1
  Cu  Cu15  1  0.003713  0.936303  0.310968  1
  Cu  Cu16  1  0.750000  0.190969  0.256496  1
  Cu  Cu17  1  0.250000  0.809031  0.743504  1
  Cu  Cu18  1  0.750000  0.690969  0.243504  1
  Cu  Cu19  1  0.250000  0.309031  0.756496  1
  Cu  Cu20  1  0.750000  0.085912  0.484148  1
  Cu  Cu21  1  0.250000  0.914088  0.515852  1
  Cu  Cu22  1  0.750000  0.585912  0.015852  1
  Cu  Cu23  1  0.250000  0.414088  0.984148  1
  Ru  Ru24  1  0.750000  0.458331  0.406886  1
  Ru  Ru25  1  0.250000  0.541669  0.593114  1
  Ru  Ru26  1  0.750000  0.958331  0.093114  1
  Ru  Ru27  1  0.250000  0.041669  0.906886  1
