# generated using pymatgen
data_Tb11Ho5MgHg3Ir4
_symmetry_space_group_name_H-M   'P 1'
_cell_length_a   9.63952079
_cell_length_b   9.64482544
_cell_length_c   9.64794649
_cell_angle_alpha   59.91375832
_cell_angle_beta   60.00395851
_cell_angle_gamma   59.95037050
_symmetry_Int_Tables_number   1
_chemical_formula_structural   Tb11Ho5MgHg3Ir4
_chemical_formula_sum   'Tb11 Ho5 Mg1 Hg3 Ir4'
_cell_volume   633.63019172
_cell_formula_units_Z   1
loop_
 _symmetry_equiv_pos_site_id
 _symmetry_equiv_pos_as_xyz
  1  'x, y, z'
loop_
 _atom_site_type_symbol
 _atom_site_label
 _atom_site_symmetry_multiplicity
 _atom_site_fract_x
 _atom_site_fract_y
 _atom_site_fract_z
 _atom_site_occupancy
  Tb  Tb0  1  0.062681  0.060408  0.439206  1
  Tb  Tb1  1  0.191907  0.810351  0.191030  1
  Tb  Tb2  1  0.812938  0.809877  0.189408  1
  Tb  Tb3  1  0.812552  0.189632  0.810367  1
  Tb  Tb4  1  0.439317  0.059907  0.438232  1
  Tb  Tb5  1  0.438806  0.438149  0.059850  1
  Tb  Tb6  1  0.439335  0.062017  0.061556  1
  Tb  Tb7  1  0.060888  0.438910  0.438177  1
  Tb  Tb8  1  0.191760  0.191268  0.810616  1
  Tb  Tb9  1  0.649757  0.650012  0.046834  1
  Tb  Tb10  1  0.649620  0.046685  0.650269  1
  Ho  Ho11  1  0.192926  0.807744  0.808284  1
  Ho  Ho12  1  0.815051  0.188649  0.188412  1
  Ho  Ho13  1  0.062778  0.439794  0.059302  1
  Ho  Ho14  1  0.053701  0.648308  0.648681  1
  Ho  Ho15  1  0.650936  0.653055  0.653112  1
  Mg  Mg16  1  0.718302  0.427864  0.427715  1
  Hg  Hg17  1  0.416902  0.413875  0.756277  1
  Hg  Hg18  1  0.417622  0.755472  0.413899  1
  Hg  Hg19  1  0.418231  0.413972  0.414002  1
  Ir  Ir20  1  0.858649  0.856180  0.425384  1
  Ir  Ir21  1  0.858807  0.425619  0.856346  1
  Ir  Ir22  1  0.862210  0.855876  0.856581  1
  Ir  Ir23  1  0.424329  0.856375  0.856457  1
