# generated using pymatgen
data_SmMgNi12P7
_symmetry_space_group_name_H-M   'P 1'
_cell_length_a   9.07298300
_cell_length_b   9.07298259
_cell_length_c   3.63879100
_cell_angle_alpha   90.00000000
_cell_angle_beta   90.00000000
_cell_angle_gamma   120.00000515
_symmetry_Int_Tables_number   1
_chemical_formula_structural   SmMgNi12P7
_chemical_formula_sum   'Sm1 Mg1 Ni12 P7'
_cell_volume   259.41070592
_cell_formula_units_Z   1
loop_
 _symmetry_equiv_pos_site_id
 _symmetry_equiv_pos_as_xyz
  1  'x, y, z'
loop_
 _atom_site_type_symbol
 _atom_site_label
 _atom_site_symmetry_multiplicity
 _atom_site_fract_x
 _atom_site_fract_y
 _atom_site_fract_z
 _atom_site_occupancy
  Sm  Sm0  1  0.666667  0.333333  0.000000  1
  Mg  Mg1  1  0.000000  0.000000  0.500000  1
  Ni  Ni2  1  0.770168  0.037174  0.000000  1
  Ni  Ni3  1  0.962826  0.732994  0.000000  1
  Ni  Ni4  1  0.267006  0.229832  0.000000  1
  Ni  Ni5  1  0.486295  0.544978  0.000000  1
  Ni  Ni6  1  0.455022  0.941317  0.000000  1
  Ni  Ni7  1  0.058683  0.513705  0.000000  1
  Ni  Ni8  1  0.718569  0.624084  0.500000  1
  Ni  Ni9  1  0.375916  0.094484  0.500000  1
  Ni  Ni10  1  0.905516  0.281431  0.500000  1
  Ni  Ni11  1  0.545808  0.786493  0.500000  1
  Ni  Ni12  1  0.213507  0.759316  0.500000  1
  Ni  Ni13  1  0.240684  0.454192  0.500000  1
  P  P14  1  0.745290  0.783330  0.000000  1
  P  P15  1  0.216670  0.961959  0.000000  1
  P  P16  1  0.038041  0.254710  0.000000  1
  P  P17  1  0.442133  0.373451  0.500000  1
  P  P18  1  0.626549  0.068681  0.500000  1
  P  P19  1  0.931319  0.557867  0.500000  1
  P  P20  1  0.333333  0.666667  0.000000  1
