# generated using pymatgen
data_MgV5P6(PbO12)2
_symmetry_space_group_name_H-M   'P 1'
_cell_length_a   9.26002744
_cell_length_b   9.26002652
_cell_length_c   9.26000096
_cell_angle_alpha   137.49072070
_cell_angle_beta   110.29807129
_cell_angle_gamma   85.17752022
_symmetry_Int_Tables_number   1
_chemical_formula_structural   MgV5P6(PbO12)2
_chemical_formula_sum   'Mg1 V5 P6 Pb2 O24'
_cell_volume   484.40278977
_cell_formula_units_Z   1
loop_
 _symmetry_equiv_pos_site_id
 _symmetry_equiv_pos_as_xyz
  1  'x, y, z'
loop_
 _atom_site_type_symbol
 _atom_site_label
 _atom_site_symmetry_multiplicity
 _atom_site_fract_x
 _atom_site_fract_y
 _atom_site_fract_z
 _atom_site_occupancy
  Mg  Mg0  1  0.617404  0.617404  0.500000  1
  V  V1  1  0.880330  0.380330  0.000000  1
  V  V2  1  0.119171  0.619171  0.000000  1
  V  V3  1  0.383047  0.383047  0.500000  1
  V  V4  1  0.499946  0.001058  0.501545  1
  V  V5  1  0.999513  0.498400  0.498455  1
  P  P6  1  0.750225  0.344620  0.592572  1
  P  P7  1  0.252049  0.657654  0.407428  1
  P  P8  1  0.820817  0.820817  0.500000  1
  P  P9  1  0.674949  0.174949  0.000000  1
  P  P10  1  0.324609  0.824609  0.000000  1
  P  P11  1  0.176291  0.176291  0.500000  1
  Pb  Pb12  1  0.751049  0.856541  0.107780  1
  Pb  Pb13  1  0.248761  0.143269  0.892220  1
  O  O14  1  0.655685  0.121018  0.461341  1
  O  O15  1  0.340635  0.884768  0.539821  1
  O  O16  1  0.159678  0.694344  0.538659  1
  O  O17  1  0.844947  0.300815  0.460179  1
  O  O18  1  0.636388  0.488370  0.614533  1
  O  O19  1  0.134243  0.513802  0.147920  1
  O  O20  1  0.373839  0.521857  0.385467  1
  O  O21  1  0.865882  0.486323  0.852080  1
  O  O22  1  0.923427  0.062771  0.719433  1
  O  O23  1  0.652193  0.931589  0.854892  1
  O  O24  1  0.426288  0.706083  0.859786  1
  O  O25  1  0.154075  0.294180  0.719790  1
  O  O26  1  0.074390  0.934286  0.280210  1
  O  O27  1  0.346297  0.066501  0.140214  1
  O  O28  1  0.576696  0.297301  0.145108  1
  O  O29  1  0.843339  0.703995  0.280567  1
  O  O30  1  0.635552  0.794106  0.439405  1
  O  O31  1  0.639432  0.205055  0.843241  1
  O  O32  1  0.138527  0.701682  0.841672  1
  O  O33  1  0.141671  0.299216  0.437087  1
  O  O34  1  0.362129  0.204584  0.562913  1
  O  O35  1  0.360010  0.796855  0.158328  1
  O  O36  1  0.861814  0.296190  0.156759  1
  O  O37  1  0.854701  0.696148  0.560595  1
