# generated using pymatgen
data_Dy5Er11MgAg3Ir4
_symmetry_space_group_name_H-M   'P 1'
_cell_length_a   9.54034691
_cell_length_b   9.54749191
_cell_length_c   9.54749218
_cell_angle_alpha   60.02172774
_cell_angle_beta   59.98689345
_cell_angle_gamma   59.98689477
_symmetry_Int_Tables_number   1
_chemical_formula_structural   Dy5Er11MgAg3Ir4
_chemical_formula_sum   'Dy5 Er11 Mg1 Ag3 Ir4'
_cell_volume   614.91198035
_cell_formula_units_Z   1
loop_
 _symmetry_equiv_pos_site_id
 _symmetry_equiv_pos_as_xyz
  1  'x, y, z'
loop_
 _atom_site_type_symbol
 _atom_site_label
 _atom_site_symmetry_multiplicity
 _atom_site_fract_x
 _atom_site_fract_y
 _atom_site_fract_z
 _atom_site_occupancy
  Dy  Dy0  1  0.563840  0.937330  0.937330  1
  Dy  Dy1  1  0.563739  0.936603  0.563175  1
  Dy  Dy2  1  0.937260  0.561658  0.936646  1
  Dy  Dy3  1  0.563739  0.563175  0.936603  1
  Dy  Dy4  1  0.937260  0.936646  0.561658  1
  Er  Er5  1  0.349936  0.348223  0.348223  1
  Er  Er6  1  0.348517  0.349434  0.956356  1
  Er  Er7  1  0.348517  0.956356  0.349434  1
  Er  Er8  1  0.940565  0.353376  0.353376  1
  Er  Er9  1  0.809456  0.189160  0.189160  1
  Er  Er10  1  0.184145  0.813571  0.813571  1
  Er  Er11  1  0.185555  0.813173  0.187030  1
  Er  Er12  1  0.808295  0.188921  0.810149  1
  Er  Er13  1  0.185555  0.187030  0.813173  1
  Er  Er14  1  0.808295  0.810149  0.188921  1
  Er  Er15  1  0.935221  0.561097  0.561097  1
  Mg  Mg16  1  0.290239  0.569451  0.569451  1
  Ag  Ag17  1  0.583183  0.584069  0.584069  1
  Ag  Ag18  1  0.583322  0.585362  0.248735  1
  Ag  Ag19  1  0.583322  0.248735  0.585362  1
  Ir  Ir20  1  0.138285  0.143819  0.143819  1
  Ir  Ir21  1  0.138448  0.146504  0.573916  1
  Ir  Ir22  1  0.138448  0.573916  0.146504  1
  Ir  Ir23  1  0.574861  0.142243  0.142243  1
