# generated using pymatgen
data_Ac16Rh9
_symmetry_space_group_name_H-M   'P 1'
_cell_length_a   8.71980100
_cell_length_b   10.33028319
_cell_length_c   10.19857649
_cell_angle_alpha   84.46528386
_cell_angle_beta   90.00000000
_cell_angle_gamma   90.00000000
_symmetry_Int_Tables_number   1
_chemical_formula_structural   Ac16Rh9
_chemical_formula_sum   'Ac16 Rh9'
_cell_volume   914.38463052
_cell_formula_units_Z   1
loop_
 _symmetry_equiv_pos_site_id
 _symmetry_equiv_pos_as_xyz
  1  'x, y, z'
loop_
 _atom_site_type_symbol
 _atom_site_label
 _atom_site_symmetry_multiplicity
 _atom_site_fract_x
 _atom_site_fract_y
 _atom_site_fract_z
 _atom_site_occupancy
  Ac  Ac0  1  0.750520  0.045659  0.789907  1
  Ac  Ac1  1  0.000000  0.295994  0.038918  1
  Ac  Ac2  1  0.500000  0.803261  0.528750  1
  Ac  Ac3  1  0.247837  0.558863  0.279985  1
  Ac  Ac4  1  0.249480  0.954341  0.210093  1
  Ac  Ac5  1  0.500000  0.196739  0.471250  1
  Ac  Ac6  1  0.000000  0.704006  0.961082  1
  Ac  Ac7  1  0.752163  0.441137  0.720015  1
  Ac  Ac8  1  0.000000  0.804453  0.523750  1
  Ac  Ac9  1  0.752163  0.558863  0.279985  1
  Ac  Ac10  1  0.500000  0.306349  0.035933  1
  Ac  Ac11  1  0.249480  0.045659  0.789907  1
  Ac  Ac12  1  0.500000  0.693651  0.964067  1
  Ac  Ac13  1  0.247837  0.441137  0.720015  1
  Ac  Ac14  1  0.000000  0.195547  0.476250  1
  Ac  Ac15  1  0.750520  0.954341  0.210093  1
  Rh  Rh16  1  0.500000  0.248406  0.754128  1
  Rh  Rh17  1  0.749644  0.500000  0.000000  1
  Rh  Rh18  1  0.251210  0.000000  0.500000  1
  Rh  Rh19  1  0.000000  0.760189  0.239262  1
  Rh  Rh20  1  0.500000  0.751594  0.245872  1
  Rh  Rh21  1  0.748790  0.000000  0.500000  1
  Rh  Rh22  1  0.250356  0.500000  0.000000  1
  Rh  Rh23  1  0.000000  0.239811  0.760738  1
  Rh  Rh24  1  0.000000  0.000000  0.000000  1
