# generated using pymatgen
data_Sr6HoIn(BO3)6
_symmetry_space_group_name_H-M   'P 1'
_cell_length_a   7.81988031
_cell_length_b   7.81988062
_cell_length_c   7.81988006
_cell_angle_alpha   105.26221114
_cell_angle_beta   105.26221499
_cell_angle_gamma   105.26221262
_symmetry_Int_Tables_number   1
_chemical_formula_structural   Sr6HoIn(BO3)6
_chemical_formula_sum   'Sr6 Ho1 In1 B6 O18'
_cell_volume   415.67810999
_cell_formula_units_Z   1
loop_
 _symmetry_equiv_pos_site_id
 _symmetry_equiv_pos_as_xyz
  1  'x, y, z'
loop_
 _atom_site_type_symbol
 _atom_site_label
 _atom_site_symmetry_multiplicity
 _atom_site_fract_x
 _atom_site_fract_y
 _atom_site_fract_z
 _atom_site_occupancy
  Sr  Sr0  1  0.649245  0.265126  0.159089  1
  Sr  Sr1  1  0.159089  0.649245  0.265126  1
  Sr  Sr2  1  0.734873  0.840912  0.350755  1
  Sr  Sr3  1  0.265127  0.159088  0.649245  1
  Sr  Sr4  1  0.840912  0.350755  0.734874  1
  Sr  Sr5  1  0.350755  0.734874  0.840911  1
  Ho  Ho6  1  0.000000  0.000000  0.000000  1
  In  In7  1  0.500000  0.500000  0.500000  1
  B  B8  1  0.293854  0.378493  0.040324  1
  B  B9  1  0.378492  0.040324  0.293854  1
  B  B10  1  0.040324  0.293854  0.378492  1
  B  B11  1  0.959676  0.706147  0.621508  1
  B  B12  1  0.621508  0.959677  0.706146  1
  B  B13  1  0.706147  0.621508  0.959677  1
  O  O14  1  0.730161  0.813808  0.016016  1
  O  O15  1  0.810997  0.551075  0.073819  1
  O  O16  1  0.983984  0.269839  0.186190  1
  O  O17  1  0.448924  0.926181  0.189002  1
  O  O18  1  0.436108  0.503820  0.213387  1
  O  O19  1  0.186191  0.983984  0.269838  1
  O  O20  1  0.503819  0.213387  0.436108  1
  O  O21  1  0.926181  0.189002  0.448925  1
  O  O22  1  0.213387  0.436108  0.503820  1
  O  O23  1  0.786613  0.563892  0.496181  1
  O  O24  1  0.073819  0.810997  0.551075  1
  O  O25  1  0.496181  0.786613  0.563892  1
  O  O26  1  0.813808  0.016015  0.730161  1
  O  O27  1  0.563892  0.496181  0.786614  1
  O  O28  1  0.551075  0.073819  0.810998  1
  O  O29  1  0.016015  0.730160  0.813809  1
  O  O30  1  0.189002  0.448924  0.926181  1
  O  O31  1  0.269839  0.186191  0.983984  1
