# generated using pymatgen
data_LiTm4Lu2Co17P12
_symmetry_space_group_name_H-M   'P 1'
_cell_length_a   3.67556400
_cell_length_b   10.48940806
_cell_length_c   12.10040506
_cell_angle_alpha   90.01183513
_cell_angle_beta   90.00000000
_cell_angle_gamma   90.00000000
_symmetry_Int_Tables_number   1
_chemical_formula_structural   LiTm4Lu2Co17P12
_chemical_formula_sum   'Li1 Tm4 Lu2 Co17 P12'
_cell_volume   466.52494375
_cell_formula_units_Z   1
loop_
 _symmetry_equiv_pos_site_id
 _symmetry_equiv_pos_as_xyz
  1  'x, y, z'
loop_
 _atom_site_type_symbol
 _atom_site_label
 _atom_site_symmetry_multiplicity
 _atom_site_fract_x
 _atom_site_fract_y
 _atom_site_fract_z
 _atom_site_occupancy
  Li  Li0  1  0.500000  0.500204  0.152729  1
  Tm  Tm1  1  0.000000  0.500061  0.523183  1
  Tm  Tm2  1  0.500000  0.999953  0.477559  1
  Tm  Tm3  1  0.500000  0.179867  0.206417  1
  Tm  Tm4  1  0.000000  0.318411  0.794512  1
  Lu  Lu5  1  0.500000  0.820051  0.206453  1
  Lu  Lu6  1  0.000000  0.681754  0.794234  1
  Co  Co7  1  0.000000  0.999944  0.839641  1
  Co  Co8  1  0.500000  0.500626  0.704345  1
  Co  Co9  1  0.000000  0.999332  0.296646  1
  Co  Co10  1  0.000000  0.500548  0.986181  1
  Co  Co11  1  0.500000  0.999455  0.012277  1
  Co  Co12  1  0.500000  0.331001  0.994911  1
  Co  Co13  1  0.500000  0.669510  0.995047  1
  Co  Co14  1  0.000000  0.164813  0.003448  1
  Co  Co15  1  0.000000  0.834613  0.003231  1
  Co  Co16  1  0.500000  0.296512  0.432249  1
  Co  Co17  1  0.500000  0.703543  0.432215  1
  Co  Co18  1  0.000000  0.202229  0.570117  1
  Co  Co19  1  0.000000  0.797665  0.570238  1
  Co  Co20  1  0.500000  0.878603  0.708863  1
  Co  Co21  1  0.500000  0.120855  0.708627  1
  Co  Co22  1  0.000000  0.623316  0.292782  1
  Co  Co23  1  0.000000  0.377260  0.293084  1
  P  P24  1  0.500000  0.500617  0.883758  1
  P  P25  1  0.000000  0.999366  0.117494  1
  P  P26  1  0.500000  0.499991  0.346779  1
  P  P27  1  0.000000  0.000022  0.654162  1
  P  P28  1  0.500000  0.311552  0.617482  1
  P  P29  1  0.500000  0.688638  0.617813  1
  P  P30  1  0.000000  0.188223  0.384476  1
  P  P31  1  0.000000  0.811573  0.384170  1
  P  P32  1  0.500000  0.846579  0.890386  1
  P  P33  1  0.500000  0.152702  0.890870  1
  P  P34  1  0.000000  0.658375  0.107125  1
  P  P35  1  0.000000  0.342238  0.106494  1
