# generated using pymatgen
data_Y2Tc6Ni6P7
_symmetry_space_group_name_H-M   'P 1'
_cell_length_a   9.40585300
_cell_length_b   9.40585393
_cell_length_c   3.74547000
_cell_angle_alpha   90.00000000
_cell_angle_beta   90.00000000
_cell_angle_gamma   119.99999932
_symmetry_Int_Tables_number   1
_chemical_formula_structural   Y2Tc6Ni6P7
_chemical_formula_sum   'Y2 Tc6 Ni6 P7'
_cell_volume   286.96793621
_cell_formula_units_Z   1
loop_
 _symmetry_equiv_pos_site_id
 _symmetry_equiv_pos_as_xyz
  1  'x, y, z'
loop_
 _atom_site_type_symbol
 _atom_site_label
 _atom_site_symmetry_multiplicity
 _atom_site_fract_x
 _atom_site_fract_y
 _atom_site_fract_z
 _atom_site_occupancy
  Y  Y0  1  0.333333  0.666667  0.500000  1
  Y  Y1  1  0.000000  0.000000  0.000000  1
  Tc  Tc2  1  0.058838  0.768522  0.500000  1
  Tc  Tc3  1  0.231478  0.290316  0.500000  1
  Tc  Tc4  1  0.709684  0.941162  0.500000  1
  Tc  Tc5  1  0.875823  0.419563  0.500000  1
  Tc  Tc6  1  0.580437  0.456259  0.500000  1
  Tc  Tc7  1  0.543741  0.124177  0.500000  1
  Ni  Ni8  1  0.092887  0.397778  0.000000  1
  Ni  Ni9  1  0.602222  0.695109  0.000000  1
  Ni  Ni10  1  0.304891  0.907113  0.000000  1
  Ni  Ni11  1  0.825748  0.609178  0.000000  1
  Ni  Ni12  1  0.390822  0.216570  0.000000  1
  Ni  Ni13  1  0.783430  0.174252  0.000000  1
  P  P14  1  0.787099  0.736975  0.500000  1
  P  P15  1  0.263025  0.050124  0.500000  1
  P  P16  1  0.949876  0.212901  0.500000  1
  P  P17  1  0.666667  0.333333  0.000000  1
  P  P18  1  0.078405  0.629023  0.000000  1
  P  P19  1  0.370977  0.449382  0.000000  1
  P  P20  1  0.550618  0.921595  0.000000  1
