# generated using pymatgen
data_SrAc3Mn4O12
_symmetry_space_group_name_H-M   'P 1'
_cell_length_a   7.95632800
_cell_length_b   7.95632800
_cell_length_c   3.97854700
_cell_angle_alpha   90.00000000
_cell_angle_beta   90.00000000
_cell_angle_gamma   90.00000000
_symmetry_Int_Tables_number   1
_chemical_formula_structural   SrAc3Mn4O12
_chemical_formula_sum   'Sr1 Ac3 Mn4 O12'
_cell_volume   251.85457838
_cell_formula_units_Z   1
loop_
 _symmetry_equiv_pos_site_id
 _symmetry_equiv_pos_as_xyz
  1  'x, y, z'
loop_
 _atom_site_type_symbol
 _atom_site_label
 _atom_site_symmetry_multiplicity
 _atom_site_fract_x
 _atom_site_fract_y
 _atom_site_fract_z
 _atom_site_occupancy
  Sr  Sr0  1  0.500000  0.500000  0.500000  1
  Ac  Ac1  1  0.000000  0.500000  0.500000  1
  Ac  Ac2  1  0.000000  0.000000  0.500000  1
  Ac  Ac3  1  0.500000  0.000000  0.500000  1
  Mn  Mn4  1  0.748247  0.251753  0.000000  1
  Mn  Mn5  1  0.251753  0.251753  0.000000  1
  Mn  Mn6  1  0.748247  0.748247  0.000000  1
  Mn  Mn7  1  0.251753  0.748247  0.000000  1
  O  O8  1  0.754563  0.245437  0.500000  1
  O  O9  1  0.245437  0.245437  0.500000  1
  O  O10  1  0.754563  0.754563  0.500000  1
  O  O11  1  0.245437  0.754563  0.500000  1
  O  O12  1  0.758034  0.500000  0.000000  1
  O  O13  1  0.241966  0.500000  0.000000  1
  O  O14  1  0.751871  0.000000  0.000000  1
  O  O15  1  0.248129  0.000000  0.000000  1
  O  O16  1  0.000000  0.248129  0.000000  1
  O  O17  1  0.500000  0.241966  0.000000  1
  O  O18  1  0.000000  0.751871  0.000000  1
  O  O19  1  0.500000  0.758034  0.000000  1
