# generated using pymatgen
data_RbAl2InI8
_symmetry_space_group_name_H-M   'P 1'
_cell_length_a   12.31749918
_cell_length_b   7.58299428
_cell_length_c   13.06265400
_cell_angle_alpha   83.32495952
_cell_angle_beta   91.11989745
_cell_angle_gamma   90.98807331
_symmetry_Int_Tables_number   1
_chemical_formula_structural   RbAl2InI8
_chemical_formula_sum   'Rb2 Al4 In2 I16'
_cell_volume   1211.45815805
_cell_formula_units_Z   2
loop_
 _symmetry_equiv_pos_site_id
 _symmetry_equiv_pos_as_xyz
  1  'x, y, z'
loop_
 _atom_site_type_symbol
 _atom_site_label
 _atom_site_symmetry_multiplicity
 _atom_site_fract_x
 _atom_site_fract_y
 _atom_site_fract_z
 _atom_site_occupancy
  Rb  Rb0  1  0.489780  0.590269  0.703997  1
  Rb  Rb1  1  0.510220  0.409731  0.296003  1
  Al  Al2  1  0.754363  0.225345  0.554501  1
  Al  Al3  1  0.245637  0.774655  0.445499  1
  Al  Al4  1  0.753512  0.429376  0.026306  1
  Al  Al5  1  0.246488  0.570624  0.973694  1
  In  In6  1  0.976710  0.406321  0.279888  1
  In  In7  1  0.023290  0.593679  0.720112  1
  I  I8  1  0.754656  0.105120  0.377216  1
  I  I9  1  0.922058  0.234831  0.056353  1
  I  I10  1  0.747198  0.565177  0.515884  1
  I  I11  1  0.420026  0.881895  0.350783  1
  I  I12  1  0.760785  0.612970  0.848089  1
  I  I13  1  0.761419  0.649408  0.164270  1
  I  I14  1  0.581711  0.237280  0.042007  1
  I  I15  1  0.077942  0.765169  0.943647  1
  I  I16  1  0.245344  0.894880  0.622784  1
  I  I17  1  0.579974  0.118105  0.649217  1
  I  I18  1  0.074385  0.867362  0.341679  1
  I  I19  1  0.252802  0.434823  0.484116  1
  I  I20  1  0.239215  0.387030  0.151911  1
  I  I21  1  0.925615  0.132638  0.658321  1
  I  I22  1  0.418289  0.762720  0.957993  1
  I  I23  1  0.238581  0.350592  0.835730  1
