# generated using pymatgen
data_Ta16Be2FeCoTe16
_symmetry_space_group_name_H-M   'P 1'
_cell_length_a   4.85496800
_cell_length_b   10.94221000
_cell_length_c   19.25771100
_cell_angle_alpha   90.00077426
_cell_angle_beta   90.00000000
_cell_angle_gamma   90.00000000
_symmetry_Int_Tables_number   1
_chemical_formula_structural   Ta16Be2FeCoTe16
_chemical_formula_sum   'Ta16 Be2 Fe1 Co1 Te16'
_cell_volume   1023.04816817
_cell_formula_units_Z   1
loop_
 _symmetry_equiv_pos_site_id
 _symmetry_equiv_pos_as_xyz
  1  'x, y, z'
loop_
 _atom_site_type_symbol
 _atom_site_label
 _atom_site_symmetry_multiplicity
 _atom_site_fract_x
 _atom_site_fract_y
 _atom_site_fract_z
 _atom_site_occupancy
  Ta  Ta0  1  0.494247  0.594587  0.604317  1
  Ta  Ta1  1  0.494247  0.405413  0.395683  1
  Ta  Ta2  1  0.506355  0.094240  0.895562  1
  Ta  Ta3  1  0.506355  0.905760  0.104438  1
  Ta  Ta4  1  0.009260  0.302382  0.464091  1
  Ta  Ta5  1  0.009260  0.697618  0.535909  1
  Ta  Ta6  1  0.993354  0.802924  0.035961  1
  Ta  Ta7  1  0.993354  0.197076  0.964039  1
  Ta  Ta8  1  0.491544  0.315266  0.553667  1
  Ta  Ta9  1  0.491544  0.684734  0.446333  1
  Ta  Ta10  1  0.506476  0.815834  0.946243  1
  Ta  Ta11  1  0.506476  0.184166  0.053757  1
  Ta  Ta12  1  0.004617  0.436550  0.611583  1
  Ta  Ta13  1  0.004617  0.563450  0.388417  1
  Ta  Ta14  1  0.994267  0.936711  0.888332  1
  Ta  Ta15  1  0.994267  0.063289  0.111668  1
  Be  Be16  1  0.250319  0.500000  0.500000  1
  Be  Be17  1  0.749772  0.000000  0.000000  1
  Fe  Fe18  1  0.249561  0.000000  0.000000  1
  Co  Co19  1  0.750576  0.500000  0.500000  1
  Te  Te20  1  0.991366  0.664474  0.682370  1
  Te  Te21  1  0.991366  0.335526  0.317630  1
  Te  Te22  1  0.005297  0.165000  0.817138  1
  Te  Te23  1  0.005297  0.835000  0.182862  1
  Te  Te24  1  0.507344  0.389712  0.695133  1
  Te  Te25  1  0.507344  0.610288  0.304867  1
  Te  Te26  1  0.495415  0.889197  0.804259  1
  Te  Te27  1  0.495415  0.110803  0.195741  1
  Te  Te28  1  0.509872  0.155607  0.436852  1
  Te  Te29  1  0.509872  0.844393  0.563148  1
  Te  Te30  1  0.494927  0.655488  0.063146  1
  Te  Te31  1  0.494927  0.344512  0.936854  1
  Te  Te32  1  0.005308  0.322307  0.094062  1
  Te  Te33  1  0.005308  0.677693  0.905938  1
  Te  Te34  1  0.990239  0.821943  0.405966  1
  Te  Te35  1  0.990239  0.178057  0.594034  1
