# generated using pymatgen
data_Er12AlGa(NiRu)2
_symmetry_space_group_name_H-M   'P 1'
_cell_length_a   8.30901038
_cell_length_b   8.30896578
_cell_length_c   8.30901100
_cell_angle_alpha   112.99098413
_cell_angle_beta   110.33574407
_cell_angle_gamma   105.18262104
_symmetry_Int_Tables_number   1
_chemical_formula_structural   Er12AlGa(NiRu)2
_chemical_formula_sum   'Er12 Al1 Ga1 Ni2 Ru2'
_cell_volume   439.49985512
_cell_formula_units_Z   1
loop_
 _symmetry_equiv_pos_site_id
 _symmetry_equiv_pos_as_xyz
  1  'x, y, z'
loop_
 _atom_site_type_symbol
 _atom_site_label
 _atom_site_symmetry_multiplicity
 _atom_site_fract_x
 _atom_site_fract_y
 _atom_site_fract_z
 _atom_site_occupancy
  Er  Er0  1  0.434768  0.241006  0.193768  1
  Er  Er1  1  0.565232  0.758994  0.806232  1
  Er  Er2  1  0.047237  0.241006  0.806238  1
  Er  Er3  1  0.952763  0.758994  0.193762  1
  Er  Er4  1  0.180308  0.279430  0.459740  1
  Er  Er5  1  0.819692  0.720570  0.540260  1
  Er  Er6  1  0.180311  0.720570  0.900879  1
  Er  Er7  1  0.819689  0.279430  0.099121  1
  Er  Er8  1  0.329041  0.640755  0.311715  1
  Er  Er9  1  0.670959  0.359245  0.688285  1
  Er  Er10  1  0.329038  0.017324  0.688287  1
  Er  Er11  1  0.670962  0.982676  0.311713  1
  Al  Al12  1  0.500000  0.500000  0.000000  1
  Ga  Ga13  1  0.000000  0.000000  0.000000  1
  Ni  Ni14  1  0.118128  0.618122  0.499994  1
  Ni  Ni15  1  0.881872  0.381878  0.500006  1
  Ru  Ru16  1  0.329481  0.000000  0.329481  1
  Ru  Ru17  1  0.670519  0.000000  0.670519  1
