# generated using pymatgen
data_PrTh7Mn3Si12Pd
_symmetry_space_group_name_H-M   'P 1'
_cell_length_a   8.24939300
_cell_length_b   8.24939333
_cell_length_c   8.35276300
_cell_angle_alpha   90.00000000
_cell_angle_beta   90.00000000
_cell_angle_gamma   120.00000267
_symmetry_Int_Tables_number   1
_chemical_formula_structural   PrTh7Mn3Si12Pd
_chemical_formula_sum   'Pr1 Th7 Mn3 Si12 Pd1'
_cell_volume   492.27160327
_cell_formula_units_Z   1
loop_
 _symmetry_equiv_pos_site_id
 _symmetry_equiv_pos_as_xyz
  1  'x, y, z'
loop_
 _atom_site_type_symbol
 _atom_site_label
 _atom_site_symmetry_multiplicity
 _atom_site_fract_x
 _atom_site_fract_y
 _atom_site_fract_z
 _atom_site_occupancy
  Pr  Pr0  1  0.000000  0.000000  0.250237  1
  Th  Th1  1  0.497769  0.502231  0.756246  1
  Th  Th2  1  0.498476  0.501524  0.243534  1
  Th  Th3  1  0.004462  0.502231  0.756246  1
  Th  Th4  1  0.003048  0.501524  0.243534  1
  Th  Th5  1  0.497769  0.995538  0.756246  1
  Th  Th6  1  0.498476  0.996952  0.243534  1
  Th  Th7  1  0.000000  0.000000  0.750425  1
  Mn  Mn8  1  0.666667  0.333333  0.997927  1
  Mn  Mn9  1  0.333333  0.666667  0.002919  1
  Mn  Mn10  1  0.333333  0.666667  0.499095  1
  Si  Si11  1  0.831111  0.168889  0.999051  1
  Si  Si12  1  0.169797  0.830203  0.999017  1
  Si  Si13  1  0.337780  0.168889  0.999051  1
  Si  Si14  1  0.169945  0.830055  0.500440  1
  Si  Si15  1  0.660405  0.830203  0.999017  1
  Si  Si16  1  0.835896  0.164104  0.500957  1
  Si  Si17  1  0.831111  0.662220  0.999051  1
  Si  Si18  1  0.660108  0.830055  0.500440  1
  Si  Si19  1  0.169797  0.339595  0.999017  1
  Si  Si20  1  0.328208  0.164104  0.500957  1
  Si  Si21  1  0.169945  0.339892  0.500440  1
  Si  Si22  1  0.835896  0.671792  0.500957  1
  Pd  Pd23  1  0.666667  0.333333  0.501661  1
