# generated using pymatgen
data_La9Pr7(HgRu)4
_symmetry_space_group_name_H-M   'P 1'
_cell_length_a   10.02334950
_cell_length_b   10.02334879
_cell_length_c   10.02406000
_cell_angle_alpha   59.99765277
_cell_angle_beta   59.99765514
_cell_angle_gamma   60.34826027
_symmetry_Int_Tables_number   1
_chemical_formula_structural   La9Pr7(HgRu)4
_chemical_formula_sum   'La9 Pr7 Hg4 Ru4'
_cell_volume   713.95185028
_cell_formula_units_Z   1
loop_
 _symmetry_equiv_pos_site_id
 _symmetry_equiv_pos_as_xyz
  1  'x, y, z'
loop_
 _atom_site_type_symbol
 _atom_site_label
 _atom_site_symmetry_multiplicity
 _atom_site_fract_x
 _atom_site_fract_y
 _atom_site_fract_z
 _atom_site_occupancy
  La  La0  1  0.346503  0.346503  0.347960  1
  La  La1  1  0.346503  0.346503  0.959032  1
  La  La2  1  0.346302  0.960364  0.346667  1
  La  La3  1  0.960364  0.346302  0.346667  1
  La  La4  1  0.809357  0.189257  0.189354  1
  La  La5  1  0.189257  0.809357  0.812032  1
  La  La6  1  0.189257  0.809357  0.189354  1
  La  La7  1  0.809357  0.189257  0.812032  1
  La  La8  1  0.189984  0.189984  0.810016  1
  Pr  Pr9  1  0.807356  0.807356  0.192644  1
  Pr  Pr10  1  0.937060  0.563065  0.562615  1
  Pr  Pr11  1  0.563065  0.937060  0.937260  1
  Pr  Pr12  1  0.563065  0.937060  0.562615  1
  Pr  Pr13  1  0.937060  0.563065  0.937260  1
  Pr  Pr14  1  0.561915  0.561915  0.938085  1
  Pr  Pr15  1  0.939219  0.939219  0.560781  1
  Hg  Hg16  1  0.583604  0.583604  0.581189  1
  Hg  Hg17  1  0.583604  0.583604  0.251602  1
  Hg  Hg18  1  0.583089  0.251419  0.582745  1
  Hg  Hg19  1  0.251419  0.583089  0.582745  1
  Ru  Ru20  1  0.135376  0.135376  0.137789  1
  Ru  Ru21  1  0.135376  0.135376  0.591461  1
  Ru  Ru22  1  0.144733  0.587175  0.134046  1
  Ru  Ru23  1  0.587175  0.144733  0.134046  1
