# generated using pymatgen
data_Ho20NiBi8Ru3
_symmetry_space_group_name_H-M   'P 1'
_cell_length_a   7.96822975
_cell_length_b   8.97838300
_cell_length_c   12.39422833
_cell_angle_alpha   90.00000000
_cell_angle_beta   89.70395183
_cell_angle_gamma   90.00000000
_symmetry_Int_Tables_number   1
_chemical_formula_structural   Ho20NiBi8Ru3
_chemical_formula_sum   'Ho20 Ni1 Bi8 Ru3'
_cell_volume   886.69379689
_cell_formula_units_Z   1
loop_
 _symmetry_equiv_pos_site_id
 _symmetry_equiv_pos_as_xyz
  1  'x, y, z'
loop_
 _atom_site_type_symbol
 _atom_site_label
 _atom_site_symmetry_multiplicity
 _atom_site_fract_x
 _atom_site_fract_y
 _atom_site_fract_z
 _atom_site_occupancy
  Ho  Ho0  1  0.342193  0.750000  0.704834  1
  Ho  Ho1  1  0.657378  0.250000  0.293217  1
  Ho  Ho2  1  0.843218  0.250000  0.792160  1
  Ho  Ho3  1  0.155059  0.750000  0.205562  1
  Ho  Ho4  1  0.879036  0.750000  0.805299  1
  Ho  Ho5  1  0.119113  0.250000  0.193590  1
  Ho  Ho6  1  0.379357  0.250000  0.692034  1
  Ho  Ho7  1  0.619805  0.750000  0.309644  1
  Ho  Ho8  1  0.676720  0.541391  0.564870  1
  Ho  Ho9  1  0.324510  0.457902  0.436183  1
  Ho  Ho10  1  0.175223  0.458313  0.935755  1
  Ho  Ho11  1  0.324510  0.042098  0.436183  1
  Ho  Ho12  1  0.823904  0.543406  0.064191  1
  Ho  Ho13  1  0.676720  0.958609  0.564870  1
  Ho  Ho14  1  0.823904  0.956594  0.064191  1
  Ho  Ho15  1  0.175223  0.041687  0.935755  1
  Ho  Ho16  1  0.051952  0.750000  0.497738  1
  Ho  Ho17  1  0.948540  0.250000  0.502371  1
  Ho  Ho18  1  0.555496  0.250000  0.003474  1
  Ho  Ho19  1  0.445125  0.750000  0.996436  1
  Ni  Ni20  1  0.428724  0.750000  0.490563  1
  Bi  Bi21  1  0.569971  0.508488  0.827228  1
  Bi  Bi22  1  0.428963  0.491855  0.173391  1
  Bi  Bi23  1  0.072585  0.491337  0.671924  1
  Bi  Bi24  1  0.428963  0.008145  0.173391  1
  Bi  Bi25  1  0.929032  0.509080  0.328253  1
  Bi  Bi26  1  0.569971  0.991512  0.827228  1
  Bi  Bi27  1  0.929032  0.990920  0.328253  1
  Bi  Bi28  1  0.072585  0.008663  0.671924  1
  Ru  Ru29  1  0.074099  0.750000  0.988449  1
  Ru  Ru30  1  0.925090  0.250000  0.010656  1
  Ru  Ru31  1  0.574002  0.250000  0.510382  1
