# generated using pymatgen
data_LiTa5NbH16
_symmetry_space_group_name_H-M   'P 1'
_cell_length_a   6.38800531
_cell_length_b   6.21520793
_cell_length_c   6.38800602
_cell_angle_alpha   60.89085390
_cell_angle_beta   58.67127541
_cell_angle_gamma   60.89085542
_symmetry_Int_Tables_number   1
_chemical_formula_structural   LiTa5NbH16
_chemical_formula_sum   'Li1 Ta5 Nb1 H16'
_cell_volume   179.77430996
_cell_formula_units_Z   1
loop_
 _symmetry_equiv_pos_site_id
 _symmetry_equiv_pos_as_xyz
  1  'x, y, z'
loop_
 _atom_site_type_symbol
 _atom_site_label
 _atom_site_symmetry_multiplicity
 _atom_site_fract_x
 _atom_site_fract_y
 _atom_site_fract_z
 _atom_site_occupancy
  Li  Li0  1  0.000000  0.500000  0.000000  1
  Ta  Ta1  1  0.000000  0.000000  0.500000  1
  Ta  Ta2  1  0.500000  0.000000  0.500000  1
  Ta  Ta3  1  0.000000  0.500000  0.500000  1
  Ta  Ta4  1  0.500000  0.500000  0.000000  1
  Ta  Ta5  1  0.500000  0.000000  0.000000  1
  Nb  Nb6  1  0.000000  0.000000  0.000000  1
  H  H7  1  0.870820  0.877197  0.374784  1
  H  H8  1  0.876181  0.382336  0.876181  1
  H  H9  1  0.374784  0.877197  0.870820  1
  H  H10  1  0.876181  0.865299  0.876181  1
  H  H11  1  0.129180  0.122803  0.625216  1
  H  H12  1  0.123819  0.617664  0.123819  1
  H  H13  1  0.625216  0.122803  0.129180  1
  H  H14  1  0.123819  0.134701  0.123819  1
  H  H15  1  0.616493  0.627007  0.129492  1
  H  H16  1  0.618829  0.145852  0.618829  1
  H  H17  1  0.129492  0.627007  0.616493  1
  H  H18  1  0.618829  0.616490  0.618829  1
  H  H19  1  0.383507  0.372993  0.870508  1
  H  H20  1  0.381171  0.854148  0.381171  1
  H  H21  1  0.870508  0.372993  0.383507  1
  H  H22  1  0.381171  0.383510  0.381171  1
