# generated using pymatgen
data_DyHo3U2O12
_symmetry_space_group_name_H-M   'P 1'
_cell_length_a   6.49514245
_cell_length_b   6.49514174
_cell_length_c   6.63652304
_cell_angle_alpha   80.59247492
_cell_angle_beta   80.59247885
_cell_angle_gamma   120.62831566
_symmetry_Int_Tables_number   1
_chemical_formula_structural   DyHo3U2O12
_chemical_formula_sum   'Dy1 Ho3 U2 O12'
_cell_volume   227.41496251
_cell_formula_units_Z   1
loop_
 _symmetry_equiv_pos_site_id
 _symmetry_equiv_pos_as_xyz
  1  'x, y, z'
loop_
 _atom_site_type_symbol
 _atom_site_label
 _atom_site_symmetry_multiplicity
 _atom_site_fract_x
 _atom_site_fract_y
 _atom_site_fract_z
 _atom_site_occupancy
  Dy  Dy0  1  0.915103  0.084897  0.750000  1
  Ho  Ho1  1  0.249754  0.750246  0.750000  1
  Ho  Ho2  1  0.084945  0.915055  0.250000  1
  Ho  Ho3  1  0.750234  0.249766  0.250000  1
  U  U4  1  0.586090  0.413910  0.750000  1
  U  U5  1  0.413915  0.586085  0.250000  1
  O  O6  1  0.934805  0.771467  0.628366  1
  O  O7  1  0.626946  0.140381  0.625508  1
  O  O8  1  0.691137  0.535216  0.379418  1
  O  O9  1  0.464784  0.308863  0.120582  1
  O  O10  1  0.309149  0.465046  0.620472  1
  O  O11  1  0.140318  0.627185  0.125602  1
  O  O12  1  0.372815  0.859682  0.374398  1
  O  O13  1  0.228533  0.065195  0.871634  1
  O  O14  1  0.065299  0.228400  0.371295  1
  O  O15  1  0.771600  0.934701  0.128705  1
  O  O16  1  0.859619  0.373054  0.874492  1
  O  O17  1  0.534954  0.690851  0.879528  1
