# generated using pymatgen
data_Tb3ScAl2Ru3
_symmetry_space_group_name_H-M   'P 1'
_cell_length_a   7.12142725
_cell_length_b   7.12142840
_cell_length_c   4.11649600
_cell_angle_alpha   90.00000000
_cell_angle_beta   90.00000000
_cell_angle_gamma   120.34051519
_symmetry_Int_Tables_number   1
_chemical_formula_structural   Tb3ScAl2Ru3
_chemical_formula_sum   'Tb3 Sc1 Al2 Ru3'
_cell_volume   180.17397411
_cell_formula_units_Z   1
loop_
 _symmetry_equiv_pos_site_id
 _symmetry_equiv_pos_as_xyz
  1  'x, y, z'
loop_
 _atom_site_type_symbol
 _atom_site_label
 _atom_site_symmetry_multiplicity
 _atom_site_fract_x
 _atom_site_fract_y
 _atom_site_fract_z
 _atom_site_occupancy
  Tb  Tb0  1  0.008810  0.579062  0.500000  1
  Tb  Tb1  1  0.401496  0.401496  0.500000  1
  Tb  Tb2  1  0.579062  0.008810  0.500000  1
  Sc  Sc3  1  0.760690  0.760690  0.000000  1
  Al  Al4  1  0.243851  0.999176  0.000000  1
  Al  Al5  1  0.999176  0.243851  0.000000  1
  Ru  Ru6  1  0.329385  0.668030  0.000000  1
  Ru  Ru7  1  0.668030  0.329385  0.000000  1
  Ru  Ru8  1  0.009500  0.009500  0.500000  1
