# generated using pymatgen
data_H7ClF6
_symmetry_space_group_name_H-M   'P 1'
_cell_length_a   3.42029040
_cell_length_b   5.73948623
_cell_length_c   9.01683575
_cell_angle_alpha   69.59840668
_cell_angle_beta   82.98724787
_cell_angle_gamma   89.56348337
_symmetry_Int_Tables_number   1
_chemical_formula_structural   H7ClF6
_chemical_formula_sum   'H7 Cl1 F6'
_cell_volume   164.54632558
_cell_formula_units_Z   1
loop_
 _symmetry_equiv_pos_site_id
 _symmetry_equiv_pos_as_xyz
  1  'x, y, z'
loop_
 _atom_site_type_symbol
 _atom_site_label
 _atom_site_symmetry_multiplicity
 _atom_site_fract_x
 _atom_site_fract_y
 _atom_site_fract_z
 _atom_site_occupancy
  H  H0  1  0.301084  0.902552  0.812594  1
  H  H1  1  0.511297  0.121125  0.577446  1
  H  H2  1  0.578739  0.391130  0.351510  1
  H  H3  1  0.981447  0.790188  0.486753  1
  H  H4  1  0.381223  0.530162  0.967312  1
  H  H5  1  0.380623  0.771012  0.236677  1
  H  H6  1  0.430737  0.148026  0.084283  1
  Cl  Cl7  1  0.860002  0.599129  0.610639  1
  F  F8  1  0.546985  0.538454  0.253368  1
  F  F9  1  0.259695  0.693524  0.953923  1
  F  F10  1  0.655839  0.165471  0.465949  1
  F  F11  1  0.264298  0.936817  0.223137  1
  F  F12  1  0.549220  0.291028  0.991384  1
  F  F13  1  0.293778  0.067709  0.725464  1
