# generated using pymatgen
data_La11Yb2Pr3(CdOs)4
_symmetry_space_group_name_H-M   'P 1'
_cell_length_a   10.06498000
_cell_length_b   10.05029984
_cell_length_c   10.05745760
_cell_angle_alpha   60.25424823
_cell_angle_beta   59.99831249
_cell_angle_gamma   59.97920668
_symmetry_Int_Tables_number   1
_chemical_formula_structural   La11Yb2Pr3(CdOs)4
_chemical_formula_sum   'La11 Yb2 Pr3 Cd4 Os4'
_cell_volume   720.64035185
_cell_formula_units_Z   1
loop_
 _symmetry_equiv_pos_site_id
 _symmetry_equiv_pos_as_xyz
  1  'x, y, z'
loop_
 _atom_site_type_symbol
 _atom_site_label
 _atom_site_symmetry_multiplicity
 _atom_site_fract_x
 _atom_site_fract_y
 _atom_site_fract_z
 _atom_site_occupancy
  La  La0  1  0.345700  0.344207  0.343920  1
  La  La1  1  0.345878  0.345066  0.963398  1
  La  La2  1  0.344499  0.965566  0.344082  1
  La  La3  1  0.963274  0.343854  0.345140  1
  La  La4  1  0.810814  0.189246  0.189393  1
  La  La5  1  0.193211  0.808697  0.809537  1
  La  La6  1  0.191931  0.808660  0.189715  1
  La  La7  1  0.811093  0.187331  0.812864  1
  La  La8  1  0.196252  0.185838  0.809569  1
  La  La9  1  0.809435  0.808507  0.191997  1
  La  La10  1  0.942152  0.558509  0.559923  1
  Yb  Yb11  1  0.560427  0.939765  0.941190  1
  Yb  Yb12  1  0.560677  0.939686  0.559481  1
  Pr  Pr13  1  0.939906  0.559736  0.941467  1
  Pr  Pr14  1  0.564680  0.562711  0.933262  1
  Pr  Pr15  1  0.936083  0.942254  0.560998  1
  Cd  Cd16  1  0.577064  0.580688  0.579816  1
  Cd  Cd17  1  0.580118  0.578378  0.261052  1
  Cd  Cd18  1  0.579158  0.261632  0.579077  1
  Cd  Cd19  1  0.261841  0.579641  0.580459  1
  Os  Os20  1  0.133519  0.138140  0.138887  1
  Os  Os21  1  0.132241  0.140965  0.589694  1
  Os  Os22  1  0.132091  0.590719  0.140213  1
  Os  Os23  1  0.587949  0.140207  0.134865  1
