# generated using pymatgen
data_Ho2TmCo7(P3Rh)2
_symmetry_space_group_name_H-M   'P 1'
_cell_length_a   3.71732400
_cell_length_b   10.66344800
_cell_length_c   12.37497400
_cell_angle_alpha   90.00000000
_cell_angle_beta   90.00000000
_cell_angle_gamma   90.00000000
_symmetry_Int_Tables_number   1
_chemical_formula_structural   Ho2TmCo7(P3Rh)2
_chemical_formula_sum   'Ho4 Tm2 Co14 P12 Rh4'
_cell_volume   490.53767264
_cell_formula_units_Z   2
loop_
 _symmetry_equiv_pos_site_id
 _symmetry_equiv_pos_as_xyz
  1  'x, y, z'
loop_
 _atom_site_type_symbol
 _atom_site_label
 _atom_site_symmetry_multiplicity
 _atom_site_fract_x
 _atom_site_fract_y
 _atom_site_fract_z
 _atom_site_occupancy
  Ho  Ho0  1  0.000000  0.500000  0.521017  1
  Ho  Ho1  1  0.500000  0.000000  0.479258  1
  Ho  Ho2  1  0.500000  0.814179  0.205660  1
  Ho  Ho3  1  0.500000  0.185821  0.205660  1
  Tm  Tm4  1  0.000000  0.685602  0.794201  1
  Tm  Tm5  1  0.000000  0.314398  0.794201  1
  Co  Co6  1  0.000000  0.500000  0.988116  1
  Co  Co7  1  0.500000  0.000000  0.010646  1
  Co  Co8  1  0.500000  0.332289  0.993323  1
  Co  Co9  1  0.500000  0.667711  0.993323  1
  Co  Co10  1  0.000000  0.168278  0.005534  1
  Co  Co11  1  0.000000  0.831722  0.005534  1
  Co  Co12  1  0.500000  0.300191  0.430399  1
  Co  Co13  1  0.500000  0.699809  0.430399  1
  Co  Co14  1  0.000000  0.200141  0.570615  1
  Co  Co15  1  0.000000  0.799859  0.570615  1
  Co  Co16  1  0.500000  0.879516  0.709744  1
  Co  Co17  1  0.500000  0.120484  0.709744  1
  Co  Co18  1  0.000000  0.619870  0.290807  1
  Co  Co19  1  0.000000  0.380130  0.290807  1
  P  P20  1  0.500000  0.500000  0.889739  1
  P  P21  1  0.000000  0.000000  0.109401  1
  P  P22  1  0.500000  0.500000  0.350683  1
  P  P23  1  0.000000  0.000000  0.649518  1
  P  P24  1  0.500000  0.302948  0.614275  1
  P  P25  1  0.500000  0.697052  0.614275  1
  P  P26  1  0.000000  0.197508  0.386774  1
  P  P27  1  0.000000  0.802492  0.386774  1
  P  P28  1  0.500000  0.843704  0.893548  1
  P  P29  1  0.500000  0.156296  0.893548  1
  P  P30  1  0.000000  0.655390  0.105677  1
  P  P31  1  0.000000  0.344610  0.105677  1
  Rh  Rh32  1  0.500000  0.500000  0.160450  1
  Rh  Rh33  1  0.000000  0.000000  0.839328  1
  Rh  Rh34  1  0.500000  0.500000  0.704241  1
  Rh  Rh35  1  0.000000  0.000000  0.296491  1
