# generated using pymatgen
data_Eu2PdRhPb
_symmetry_space_group_name_H-M   'P 1'
_cell_length_a   5.96831935
_cell_length_b   5.96831952
_cell_length_c   8.44379189
_cell_angle_alpha   76.96646165
_cell_angle_beta   76.96647450
_cell_angle_gamma   58.75207206
_symmetry_Int_Tables_number   1
_chemical_formula_structural   Eu2PdRhPb
_chemical_formula_sum   'Eu4 Pd2 Rh2 Pb2'
_cell_volume   248.38128239
_cell_formula_units_Z   2
loop_
 _symmetry_equiv_pos_site_id
 _symmetry_equiv_pos_as_xyz
  1  'x, y, z'
loop_
 _atom_site_type_symbol
 _atom_site_label
 _atom_site_symmetry_multiplicity
 _atom_site_fract_x
 _atom_site_fract_y
 _atom_site_fract_z
 _atom_site_occupancy
  Eu  Eu0  1  0.799695  0.500290  0.353604  1
  Eu  Eu1  1  0.499710  0.200305  0.146396  1
  Eu  Eu2  1  0.205755  0.505740  0.649471  1
  Eu  Eu3  1  0.494260  0.794245  0.850529  1
  Pd  Pd4  1  0.997957  0.282396  0.999815  1
  Pd  Pd5  1  0.717604  0.002043  0.500185  1
  Rh  Rh6  1  0.004186  0.728965  0.005664  1
  Rh  Rh7  1  0.271035  0.995814  0.494336  1
  Pb  Pb8  1  0.155679  0.844321  0.250000  1
  Pb  Pb9  1  0.854118  0.145882  0.750000  1
