# generated using pymatgen
data_Tm10BiPb5
_symmetry_space_group_name_H-M   'P 1'
_cell_length_a   6.49137900
_cell_length_b   8.98044746
_cell_length_c   8.97667297
_cell_angle_alpha   120.01391263
_cell_angle_beta   89.99998479
_cell_angle_gamma   90.00001844
_symmetry_Int_Tables_number   1
_chemical_formula_structural   Tm10BiPb5
_chemical_formula_sum   'Tm10 Bi1 Pb5'
_cell_volume   453.12714070
_cell_formula_units_Z   1
loop_
 _symmetry_equiv_pos_site_id
 _symmetry_equiv_pos_as_xyz
  1  'x, y, z'
loop_
 _atom_site_type_symbol
 _atom_site_label
 _atom_site_symmetry_multiplicity
 _atom_site_fract_x
 _atom_site_fract_y
 _atom_site_fract_z
 _atom_site_occupancy
  Tm  Tm0  1  0.498814  0.331551  0.664465  1
  Tm  Tm1  1  0.498814  0.667086  0.335535  1
  Tm  Tm2  1  0.001184  0.667104  0.335542  1
  Tm  Tm3  1  0.001184  0.331562  0.664458  1
  Tm  Tm4  1  0.750006  0.235108  0.000000  1
  Tm  Tm5  1  0.749999  0.764457  0.760905  1
  Tm  Tm6  1  0.749999  0.003552  0.239095  1
  Tm  Tm7  1  0.250001  0.763399  0.000000  1
  Tm  Tm8  1  0.250001  0.236711  0.237309  1
  Tm  Tm9  1  0.250001  0.999402  0.762691  1
  Bi  Bi10  1  0.749994  0.606925  0.000000  1
  Pb  Pb11  1  0.749998  0.394812  0.394316  1
  Pb  Pb12  1  0.749998  0.000496  0.605684  1
  Pb  Pb13  1  0.249988  0.393593  0.000000  1
  Pb  Pb14  1  0.250009  0.605632  0.607022  1
  Pb  Pb15  1  0.250009  0.998610  0.392978  1
