# generated using pymatgen
data_Pr3Nd5MgInIr2
_symmetry_space_group_name_H-M   'P 1'
_cell_length_a   10.03098538
_cell_length_b   10.03098621
_cell_length_c   10.05953900
_cell_angle_alpha   59.90579845
_cell_angle_beta   59.90579569
_cell_angle_gamma   59.97715024
_symmetry_Int_Tables_number   1
_chemical_formula_structural   Pr3Nd5MgInIr2
_chemical_formula_sum   'Pr6 Nd10 Mg2 In2 Ir4'
_cell_volume   714.58783931
_cell_formula_units_Z   2
loop_
 _symmetry_equiv_pos_site_id
 _symmetry_equiv_pos_as_xyz
  1  'x, y, z'
loop_
 _atom_site_type_symbol
 _atom_site_label
 _atom_site_symmetry_multiplicity
 _atom_site_fract_x
 _atom_site_fract_y
 _atom_site_fract_z
 _atom_site_occupancy
  Pr  Pr0  1  0.940578  0.560229  0.561675  1
  Pr  Pr1  1  0.560229  0.940578  0.937517  1
  Pr  Pr2  1  0.560229  0.940578  0.561675  1
  Pr  Pr3  1  0.940578  0.560229  0.937517  1
  Pr  Pr4  1  0.560348  0.560348  0.939652  1
  Pr  Pr5  1  0.939254  0.939254  0.560746  1
  Nd  Nd6  1  0.347346  0.347346  0.345241  1
  Nd  Nd7  1  0.347346  0.347346  0.960068  1
  Nd  Nd8  1  0.349861  0.956742  0.346699  1
  Nd  Nd9  1  0.956742  0.349861  0.346699  1
  Nd  Nd10  1  0.809498  0.188788  0.191380  1
  Nd  Nd11  1  0.188788  0.809498  0.810334  1
  Nd  Nd12  1  0.188788  0.809498  0.191380  1
  Nd  Nd13  1  0.809498  0.188788  0.810334  1
  Nd  Nd14  1  0.186035  0.186035  0.813965  1
  Nd  Nd15  1  0.805361  0.805361  0.194639  1
  Mg  Mg16  1  0.577318  0.270619  0.576031  1
  Mg  Mg17  1  0.270619  0.577318  0.576031  1
  In  In18  1  0.580505  0.580505  0.582882  1
  In  In19  1  0.580505  0.580505  0.256108  1
  Ir  Ir20  1  0.141358  0.141358  0.141584  1
  Ir  Ir21  1  0.141358  0.141358  0.575701  1
  Ir  Ir22  1  0.141753  0.576107  0.141070  1
  Ir  Ir23  1  0.576107  0.141753  0.141070  1
