# generated using pymatgen
data_Lu4Al4Co3Pt
_symmetry_space_group_name_H-M   'P 1'
_cell_length_a   4.10850700
_cell_length_b   6.63307215
_cell_length_c   7.77099584
_cell_angle_alpha   89.83452401
_cell_angle_beta   90.00000000
_cell_angle_gamma   90.00000000
_symmetry_Int_Tables_number   1
_chemical_formula_structural   Lu4Al4Co3Pt
_chemical_formula_sum   'Lu4 Al4 Co3 Pt1'
_cell_volume   211.77447674
_cell_formula_units_Z   1
loop_
 _symmetry_equiv_pos_site_id
 _symmetry_equiv_pos_as_xyz
  1  'x, y, z'
loop_
 _atom_site_type_symbol
 _atom_site_label
 _atom_site_symmetry_multiplicity
 _atom_site_fract_x
 _atom_site_fract_y
 _atom_site_fract_z
 _atom_site_occupancy
  Lu  Lu0  1  0.250000  0.028020  0.668176  1
  Lu  Lu1  1  0.250000  0.544555  0.821907  1
  Lu  Lu2  1  0.750000  0.966051  0.324691  1
  Lu  Lu3  1  0.750000  0.471460  0.180272  1
  Al  Al4  1  0.250000  0.130979  0.066196  1
  Al  Al5  1  0.250000  0.636590  0.442910  1
  Al  Al6  1  0.750000  0.853994  0.945895  1
  Al  Al7  1  0.750000  0.366479  0.550597  1
  Co  Co8  1  0.250000  0.268622  0.371114  1
  Co  Co9  1  0.250000  0.765748  0.127923  1
  Co  Co10  1  0.750000  0.734590  0.627748  1
  Pt  Pt11  1  0.750000  0.232910  0.872573  1
