# generated using pymatgen
data_LiSm(ReH9)2
_symmetry_space_group_name_H-M   'P 1'
_cell_length_a   5.13451050
_cell_length_b   5.13446320
_cell_length_c   8.26562392
_cell_angle_alpha   88.64451038
_cell_angle_beta   91.34716999
_cell_angle_gamma   124.79471917
_symmetry_Int_Tables_number   1
_chemical_formula_structural   LiSm(ReH9)2
_chemical_formula_sum   'Li1 Sm1 Re2 H18'
_cell_volume   178.88164814
_cell_formula_units_Z   1
loop_
 _symmetry_equiv_pos_site_id
 _symmetry_equiv_pos_as_xyz
  1  'x, y, z'
loop_
 _atom_site_type_symbol
 _atom_site_label
 _atom_site_symmetry_multiplicity
 _atom_site_fract_x
 _atom_site_fract_y
 _atom_site_fract_z
 _atom_site_occupancy
  Li  Li0  1  0.000000  0.000000  0.000000  1
  Sm  Sm1  1  0.000000  0.000000  0.500000  1
  Re  Re2  1  0.344263  0.655739  0.738918  1
  Re  Re3  1  0.655737  0.344261  0.261082  1
  H  H4  1  0.401249  0.598729  0.542644  1
  H  H5  1  0.598751  0.401271  0.457356  1
  H  H6  1  0.430593  0.569321  0.918143  1
  H  H7  1  0.569407  0.430679  0.081857  1
  H  H8  1  0.503570  0.953066  0.873259  1
  H  H9  1  0.953149  0.503627  0.126712  1
  H  H10  1  0.576026  0.016596  0.648299  1
  H  H11  1  0.016657  0.576036  0.351664  1
  H  H12  1  0.496430  0.046934  0.126741  1
  H  H13  1  0.046851  0.496373  0.873288  1
  H  H14  1  0.423974  0.983404  0.351701  1
  H  H15  1  0.983343  0.423964  0.648336  1
  H  H16  1  0.721938  0.741460  0.744615  1
  H  H17  1  0.741592  0.722037  0.255360  1
  H  H18  1  0.278062  0.258540  0.255385  1
  H  H19  1  0.258408  0.277963  0.744640  1
  H  H20  1  0.158336  0.841639  0.736803  1
  H  H21  1  0.841664  0.158361  0.263197  1
