# generated using pymatgen
data_Lu3Sn3GeIrRh
_symmetry_space_group_name_H-M   'P 1'
_cell_length_a   7.32582300
_cell_length_b   7.32582427
_cell_length_c   4.11846400
_cell_angle_alpha   90.00000000
_cell_angle_beta   90.00000000
_cell_angle_gamma   119.99999878
_symmetry_Int_Tables_number   1
_chemical_formula_structural   Lu3Sn3GeIrRh
_chemical_formula_sum   'Lu3 Sn3 Ge1 Ir1 Rh1'
_cell_volume   191.41626125
_cell_formula_units_Z   1
loop_
 _symmetry_equiv_pos_site_id
 _symmetry_equiv_pos_as_xyz
  1  'x, y, z'
loop_
 _atom_site_type_symbol
 _atom_site_label
 _atom_site_symmetry_multiplicity
 _atom_site_fract_x
 _atom_site_fract_y
 _atom_site_fract_z
 _atom_site_occupancy
  Lu  Lu0  1  0.399600  0.414897  0.500000  1
  Lu  Lu1  1  0.585103  0.984704  0.500000  1
  Lu  Lu2  1  0.015296  0.600400  0.500000  1
  Sn  Sn3  1  0.741328  0.752622  0.000000  1
  Sn  Sn4  1  0.247378  0.988707  0.000000  1
  Sn  Sn5  1  0.011293  0.258672  0.000000  1
  Ge  Ge6  1  0.666667  0.333333  0.000000  1
  Ir  Ir7  1  0.333333  0.666667  0.000000  1
  Rh  Rh8  1  0.000000  0.000000  0.500000  1
