# generated using pymatgen
data_Dy8ReRu3C8
_symmetry_space_group_name_H-M   'P 1'
_cell_length_a   5.10163500
_cell_length_b   6.50023617
_cell_length_c   9.80778825
_cell_angle_alpha   89.97423457
_cell_angle_beta   90.00000000
_cell_angle_gamma   90.00000000
_symmetry_Int_Tables_number   1
_chemical_formula_structural   Dy8ReRu3C8
_chemical_formula_sum   'Dy8 Re1 Ru3 C8'
_cell_volume   325.24419646
_cell_formula_units_Z   1
loop_
 _symmetry_equiv_pos_site_id
 _symmetry_equiv_pos_as_xyz
  1  'x, y, z'
loop_
 _atom_site_type_symbol
 _atom_site_label
 _atom_site_symmetry_multiplicity
 _atom_site_fract_x
 _atom_site_fract_y
 _atom_site_fract_z
 _atom_site_occupancy
  Dy  Dy0  1  0.250000  0.824033  0.944540  1
  Dy  Dy1  1  0.250000  0.323320  0.554746  1
  Dy  Dy2  1  0.750000  0.176692  0.054850  1
  Dy  Dy3  1  0.750000  0.682017  0.443934  1
  Dy  Dy4  1  0.250000  0.471904  0.215419  1
  Dy  Dy5  1  0.250000  0.970652  0.282978  1
  Dy  Dy6  1  0.750000  0.527561  0.787072  1
  Dy  Dy7  1  0.750000  0.026859  0.714110  1
  Re  Re8  1  0.750000  0.221233  0.365865  1
  Ru  Ru9  1  0.250000  0.280388  0.863985  1
  Ru  Ru10  1  0.250000  0.779839  0.635626  1
  Ru  Ru11  1  0.750000  0.721884  0.133382  1
  C  C12  1  0.250000  0.044890  0.742264  1
  C  C13  1  0.250000  0.544787  0.757260  1
  C  C14  1  0.750000  0.956211  0.260346  1
  C  C15  1  0.750000  0.455184  0.243127  1
  C  C16  1  0.250000  0.674722  0.448171  1
  C  C17  1  0.250000  0.173760  0.051580  1
  C  C18  1  0.750000  0.321253  0.552937  1
  C  C19  1  0.750000  0.822811  0.947809  1
