# generated using pymatgen
data_La2CeTc4(P2O)2
_symmetry_space_group_name_H-M   'P 1'
_cell_length_a   4.18298119
_cell_length_b   4.18291696
_cell_length_c   13.37288626
_cell_angle_alpha   98.99944762
_cell_angle_beta   98.99969402
_cell_angle_gamma   89.96711871
_symmetry_Int_Tables_number   1
_chemical_formula_structural   La2CeTc4(P2O)2
_chemical_formula_sum   'La2 Ce1 Tc4 P4 O2'
_cell_volume   228.19223524
_cell_formula_units_Z   1
loop_
 _symmetry_equiv_pos_site_id
 _symmetry_equiv_pos_as_xyz
  1  'x, y, z'
loop_
 _atom_site_type_symbol
 _atom_site_label
 _atom_site_symmetry_multiplicity
 _atom_site_fract_x
 _atom_site_fract_y
 _atom_site_fract_z
 _atom_site_occupancy
  La  La0  1  0.705260  0.705258  0.410205  1
  La  La1  1  0.294729  0.294730  0.589811  1
  Ce  Ce2  1  0.000109  0.000078  0.000051  1
  Tc  Tc3  1  0.590423  0.090331  0.180804  1
  Tc  Tc4  1  0.090326  0.590421  0.180799  1
  Tc  Tc5  1  0.909647  0.409572  0.819176  1
  Tc  Tc6  1  0.409560  0.909651  0.819167  1
  P  P7  1  0.548235  0.548236  0.096423  1
  P  P8  1  0.131907  0.131910  0.263731  1
  P  P9  1  0.868067  0.868074  0.736229  1
  P  P10  1  0.451753  0.451755  0.903570  1
  O  O11  1  0.750115  0.249877  0.500015  1
  O  O12  1  0.249877  0.750115  0.500016  1
