# generated using pymatgen
data_Na3Sr2SbO6
_symmetry_space_group_name_H-M   'P 1'
_cell_length_a   11.59184423
_cell_length_b   11.01424329
_cell_length_c   6.05961989
_cell_angle_alpha   79.78966961
_cell_angle_beta   69.24828231
_cell_angle_gamma   30.96204451
_symmetry_Int_Tables_number   1
_chemical_formula_structural   Na3Sr2SbO6
_chemical_formula_sum   'Na6 Sr4 Sb2 O12'
_cell_volume   359.09305294
_cell_formula_units_Z   2
loop_
 _symmetry_equiv_pos_site_id
 _symmetry_equiv_pos_as_xyz
  1  'x, y, z'
loop_
 _atom_site_type_symbol
 _atom_site_label
 _atom_site_symmetry_multiplicity
 _atom_site_fract_x
 _atom_site_fract_y
 _atom_site_fract_z
 _atom_site_occupancy
  Na  Na0  1  0.000000  0.000000  0.000000  1
  Na  Na1  1  0.079447  0.079447  0.420553  1
  Na  Na2  1  0.829447  0.829447  0.170553  1
  Na  Na3  1  0.170553  0.170553  0.829447  1
  Na  Na4  1  0.250000  0.250000  0.250000  1
  Na  Na5  1  0.420553  0.420553  0.079447  1
  Sr  Sr6  1  0.581447  0.581447  0.918553  1
  Sr  Sr7  1  0.918553  0.918553  0.581447  1
  Sr  Sr8  1  0.668553  0.668553  0.331447  1
  Sr  Sr9  1  0.331447  0.331447  0.668553  1
  Sb  Sb10  1  0.750000  0.750000  0.750000  1
  Sb  Sb11  1  0.500000  0.500000  0.500000  1
  O  O12  1  0.294316  0.705684  0.294316  1
  O  O13  1  0.705684  0.294316  0.705684  1
  O  O14  1  0.955684  0.544316  0.955684  1
  O  O15  1  0.544316  0.955684  0.544316  1
  O  O16  1  0.218583  0.641674  0.786508  1
  O  O17  1  0.353236  0.786508  0.641674  1
  O  O18  1  0.786508  0.353236  0.218583  1
  O  O19  1  0.641674  0.218583  0.353236  1
  O  O20  1  0.608326  0.031417  0.896764  1
  O  O21  1  0.896764  0.463492  0.608326  1
  O  O22  1  0.463492  0.896764  0.031417  1
  O  O23  1  0.031417  0.608326  0.463492  1
