# generated using pymatgen
data_La4NdCoTc
_symmetry_space_group_name_H-M   'P 1'
_cell_length_a   9.09516303
_cell_length_b   9.09516401
_cell_length_c   7.27010135
_cell_angle_alpha   86.61207428
_cell_angle_beta   86.61206798
_cell_angle_gamma   43.02694659
_symmetry_Int_Tables_number   1
_chemical_formula_structural   La4NdCoTc
_chemical_formula_sum   'La8 Nd2 Co2 Tc2'
_cell_volume   409.53006546
_cell_formula_units_Z   2
loop_
 _symmetry_equiv_pos_site_id
 _symmetry_equiv_pos_as_xyz
  1  'x, y, z'
loop_
 _atom_site_type_symbol
 _atom_site_label
 _atom_site_symmetry_multiplicity
 _atom_site_fract_x
 _atom_site_fract_y
 _atom_site_fract_z
 _atom_site_occupancy
  La  La0  1  0.014294  0.802550  0.905573  1
  La  La1  1  0.197450  0.985706  0.594427  1
  La  La2  1  0.984361  0.204043  0.105214  1
  La  La3  1  0.795957  0.015639  0.394786  1
  La  La4  1  0.362126  0.210339  0.830731  1
  La  La5  1  0.789661  0.637874  0.669269  1
  La  La6  1  0.643935  0.776513  0.173526  1
  La  La7  1  0.223487  0.356065  0.326474  1
  Nd  Nd8  1  0.574969  0.425031  0.750000  1
  Nd  Nd9  1  0.431846  0.568154  0.250000  1
  Co  Co10  1  0.829936  0.392567  0.411961  1
  Co  Co11  1  0.607433  0.170064  0.088039  1
  Tc  Tc12  1  0.162318  0.617773  0.575088  1
  Tc  Tc13  1  0.382227  0.837682  0.924912  1
