# generated using pymatgen
data_Sm2DyHo(B6Ru)2
_symmetry_space_group_name_H-M   'P 1'
_cell_length_a   3.69610600
_cell_length_b   9.19133406
_cell_length_c   11.59185108
_cell_angle_alpha   90.01330429
_cell_angle_beta   90.00000000
_cell_angle_gamma   90.00000000
_symmetry_Int_Tables_number   1
_chemical_formula_structural   Sm2DyHo(B6Ru)2
_chemical_formula_sum   'Sm4 Dy2 Ho2 B24 Ru4'
_cell_volume   393.80003473
_cell_formula_units_Z   2
loop_
 _symmetry_equiv_pos_site_id
 _symmetry_equiv_pos_as_xyz
  1  'x, y, z'
loop_
 _atom_site_type_symbol
 _atom_site_label
 _atom_site_symmetry_multiplicity
 _atom_site_fract_x
 _atom_site_fract_y
 _atom_site_fract_z
 _atom_site_occupancy
  Sm  Sm0  1  0.000000  0.322981  0.414166  1
  Sm  Sm1  1  0.000000  0.677019  0.585834  1
  Sm  Sm2  1  0.000000  0.822779  0.085741  1
  Sm  Sm3  1  0.000000  0.177221  0.914259  1
  Dy  Dy4  1  0.000000  0.943828  0.371738  1
  Dy  Dy5  1  0.000000  0.056172  0.628262  1
  Ho  Ho6  1  0.000000  0.443897  0.128054  1
  Ho  Ho7  1  0.000000  0.556103  0.871946  1
  B  B8  1  0.500000  0.555402  0.431482  1
  B  B9  1  0.500000  0.444598  0.568518  1
  B  B10  1  0.500000  0.055484  0.068463  1
  B  B11  1  0.500000  0.944516  0.931537  1
  B  B12  1  0.500000  0.748790  0.418279  1
  B  B13  1  0.500000  0.251210  0.581721  1
  B  B14  1  0.500000  0.249171  0.081704  1
  B  B15  1  0.500000  0.750829  0.918296  1
  B  B16  1  0.500000  0.790356  0.266467  1
  B  B17  1  0.500000  0.209644  0.733533  1
  B  B18  1  0.500000  0.290785  0.233400  1
  B  B19  1  0.500000  0.709215  0.766600  1
  B  B20  1  0.500000  0.631110  0.185011  1
  B  B21  1  0.500000  0.368890  0.814989  1
  B  B22  1  0.500000  0.131448  0.314798  1
  B  B23  1  0.500000  0.868552  0.685202  1
  B  B24  1  0.500000  0.985314  0.213313  1
  B  B25  1  0.500000  0.014686  0.786687  1
  B  B26  1  0.500000  0.485062  0.286423  1
  B  B27  1  0.500000  0.514938  0.713577  1
  B  B28  1  0.500000  0.604715  0.028723  1
  B  B29  1  0.500000  0.395285  0.971277  1
  B  B30  1  0.500000  0.105271  0.471133  1
  B  B31  1  0.500000  0.894729  0.528867  1
  Ru  Ru32  1  0.000000  0.638476  0.320093  1
  Ru  Ru33  1  0.000000  0.361524  0.679907  1
  Ru  Ru34  1  0.000000  0.139161  0.179561  1
  Ru  Ru35  1  0.000000  0.860839  0.820439  1
