# generated using pymatgen
data_Tb20Si12C
_symmetry_space_group_name_H-M   'P 1'
_cell_length_a   14.74970000
_cell_length_b   6.42292430
_cell_length_c   8.48178000
_cell_angle_alpha   89.90877383
_cell_angle_beta   90.00000000
_cell_angle_gamma   90.00000000
_symmetry_Int_Tables_number   1
_chemical_formula_structural   Tb20Si12C
_chemical_formula_sum   'Tb20 Si12 C1'
_cell_volume   803.53064341
_cell_formula_units_Z   1
loop_
 _symmetry_equiv_pos_site_id
 _symmetry_equiv_pos_as_xyz
  1  'x, y, z'
loop_
 _atom_site_type_symbol
 _atom_site_label
 _atom_site_symmetry_multiplicity
 _atom_site_fract_x
 _atom_site_fract_y
 _atom_site_fract_z
 _atom_site_occupancy
  Tb  Tb0  1  0.663569  0.500000  0.500000  1
  Tb  Tb1  1  0.170673  0.500000  0.000000  1
  Tb  Tb2  1  0.829327  0.500000  0.000000  1
  Tb  Tb3  1  0.336431  0.500000  0.500000  1
  Tb  Tb4  1  0.838158  0.000000  0.000000  1
  Tb  Tb5  1  0.328476  0.000000  0.500000  1
  Tb  Tb6  1  0.671524  0.000000  0.500000  1
  Tb  Tb7  1  0.161842  0.000000  0.000000  1
  Tb  Tb8  1  0.500000  0.247603  0.754461  1
  Tb  Tb9  1  0.000000  0.275812  0.263817  1
  Tb  Tb10  1  0.620735  0.247990  0.122081  1
  Tb  Tb11  1  0.118634  0.273230  0.620299  1
  Tb  Tb12  1  0.881366  0.273230  0.620299  1
  Tb  Tb13  1  0.379265  0.247990  0.122081  1
  Tb  Tb14  1  0.000000  0.724188  0.736183  1
  Tb  Tb15  1  0.500000  0.752397  0.245539  1
  Tb  Tb16  1  0.881366  0.726770  0.379701  1
  Tb  Tb17  1  0.379265  0.752010  0.877919  1
  Tb  Tb18  1  0.620735  0.752010  0.877919  1
  Tb  Tb19  1  0.118634  0.726770  0.379701  1
  Si  Si20  1  0.000000  0.263864  0.900088  1
  Si  Si21  1  0.500000  0.243058  0.396320  1
  Si  Si22  1  0.800345  0.257064  0.300174  1
  Si  Si23  1  0.302421  0.246789  0.802009  1
  Si  Si24  1  0.697579  0.246789  0.802009  1
  Si  Si25  1  0.199655  0.257064  0.300174  1
  Si  Si26  1  0.500000  0.756942  0.603680  1
  Si  Si27  1  0.000000  0.736136  0.099912  1
  Si  Si28  1  0.697579  0.753211  0.197991  1
  Si  Si29  1  0.199655  0.742936  0.699826  1
  Si  Si30  1  0.800345  0.742936  0.699826  1
  Si  Si31  1  0.302421  0.753211  0.197991  1
  C  C32  1  0.000000  0.500000  0.500000  1
