# generated using pymatgen
data_Li6SiHg5Pd12
_symmetry_space_group_name_H-M   'P 1'
_cell_length_a   4.16036800
_cell_length_b   7.28608300
_cell_length_c   12.55183800
_cell_angle_alpha   90.00000000
_cell_angle_beta   90.00005044
_cell_angle_gamma   90.00000000
_symmetry_Int_Tables_number   1
_chemical_formula_structural   Li6SiHg5Pd12
_chemical_formula_sum   'Li6 Si1 Hg5 Pd12'
_cell_volume   380.48118621
_cell_formula_units_Z   1
loop_
 _symmetry_equiv_pos_site_id
 _symmetry_equiv_pos_as_xyz
  1  'x, y, z'
loop_
 _atom_site_type_symbol
 _atom_site_label
 _atom_site_symmetry_multiplicity
 _atom_site_fract_x
 _atom_site_fract_y
 _atom_site_fract_z
 _atom_site_occupancy
  Li  Li0  1  0.999999  0.500000  0.009447  1
  Li  Li1  1  0.499998  0.000000  0.159066  1
  Li  Li2  1  0.000004  0.500000  0.333318  1
  Li  Li3  1  0.500003  0.000000  0.507613  1
  Li  Li4  1  0.999995  0.500000  0.657243  1
  Li  Li5  1  0.499995  0.000000  0.833336  1
  Si  Si6  1  0.499996  0.500000  0.833350  1
  Hg  Hg7  1  0.999998  0.000000  0.985207  1
  Hg  Hg8  1  0.500008  0.500000  0.167995  1
  Hg  Hg9  1  0.000000  0.000000  0.333341  1
  Hg  Hg10  1  0.500003  0.500000  0.498648  1
  Hg  Hg11  1  0.999996  0.000000  0.681448  1
  Pd  Pd12  1  0.499997  0.275786  0.985459  1
  Pd  Pd13  1  0.499997  0.724214  0.985459  1
  Pd  Pd14  1  0.000007  0.241480  0.159238  1
  Pd  Pd15  1  0.000007  0.758520  0.159238  1
  Pd  Pd16  1  0.500003  0.248709  0.333330  1
  Pd  Pd17  1  0.500003  0.751291  0.333330  1
  Pd  Pd18  1  0.000002  0.241521  0.507436  1
  Pd  Pd19  1  0.000002  0.758479  0.507436  1
  Pd  Pd20  1  0.499996  0.275787  0.681195  1
  Pd  Pd21  1  0.499996  0.724213  0.681195  1
  Pd  Pd22  1  0.999998  0.301111  0.833335  1
  Pd  Pd23  1  0.999998  0.698889  0.833335  1
