# generated using pymatgen
data_Na4DyP12Ru5Rh14
_symmetry_space_group_name_H-M   'P 1'
_cell_length_a   12.55819503
_cell_length_b   12.56074618
_cell_length_c   3.95758800
_cell_angle_alpha   90.00000000
_cell_angle_beta   90.00000000
_cell_angle_gamma   120.15057996
_symmetry_Int_Tables_number   1
_chemical_formula_structural   Na4DyP12Ru5Rh14
_chemical_formula_sum   'Na4 Dy1 P12 Ru5 Rh14'
_cell_volume   539.81245351
_cell_formula_units_Z   1
loop_
 _symmetry_equiv_pos_site_id
 _symmetry_equiv_pos_as_xyz
  1  'x, y, z'
loop_
 _atom_site_type_symbol
 _atom_site_label
 _atom_site_symmetry_multiplicity
 _atom_site_fract_x
 _atom_site_fract_y
 _atom_site_fract_z
 _atom_site_occupancy
  Na  Na0  1  0.666192  0.332072  0.000000  1
  Na  Na1  1  0.817843  0.000124  0.500000  1
  Na  Na2  1  0.180574  0.182666  0.500000  1
  Na  Na3  1  0.999728  0.817047  0.500000  1
  Dy  Dy4  1  0.334607  0.668689  0.000000  1
  P  P5  1  0.633563  0.001016  0.000000  1
  P  P6  1  0.367583  0.365619  0.000000  1
  P  P7  1  0.997670  0.631967  0.000000  1
  P  P8  1  0.688039  0.520086  0.500000  1
  P  P9  1  0.830537  0.307791  0.500000  1
  P  P10  1  0.314730  0.836404  0.500000  1
  P  P11  1  0.524224  0.693067  0.500000  1
  P  P12  1  0.179944  0.999747  0.000000  1
  P  P13  1  0.820424  0.817640  0.000000  1
  P  P14  1  0.993430  0.179779  0.000000  1
  P  P15  1  0.477819  0.166876  0.500000  1
  P  P16  1  0.167880  0.477738  0.500000  1
  Ru  Ru17  1  0.512525  0.872590  0.500000  1
  Ru  Ru18  1  0.717931  0.716341  0.500000  1
  Ru  Ru19  1  0.000977  0.284537  0.500000  1
  Ru  Ru20  1  0.815589  0.195838  0.000000  1
  Ru  Ru21  1  0.281438  0.000111  0.500000  1
  Rh  Rh22  1  0.624255  0.806686  0.000000  1
  Rh  Rh23  1  0.185911  0.377876  0.000000  1
  Rh  Rh24  1  0.376706  0.182737  0.000000  1
  Rh  Rh25  1  0.191506  0.815327  0.000000  1
  Rh  Rh26  1  0.805041  0.620433  0.000000  1
  Rh  Rh27  1  0.874123  0.511731  0.500000  1
  Rh  Rh28  1  0.486720  0.359679  0.500000  1
  Rh  Rh29  1  0.635554  0.126272  0.500000  1
  Rh  Rh30  1  0.131891  0.640193  0.500000  1
  Rh  Rh31  1  0.362973  0.493130  0.500000  1
  Rh  Rh32  1  0.999640  0.000519  0.000000  1
  Rh  Rh33  1  0.449016  0.996147  0.000000  1
  Rh  Rh34  1  0.548208  0.546739  0.000000  1
  Rh  Rh35  1  0.005213  0.454783  0.000000  1
