# generated using pymatgen
data_DyY2TmNi2C5
_symmetry_space_group_name_H-M   'P 1'
_cell_length_a   3.63219100
_cell_length_b   3.69101201
_cell_length_c   11.62619214
_cell_angle_alpha   90.07717078
_cell_angle_beta   90.00000000
_cell_angle_gamma   90.00000000
_symmetry_Int_Tables_number   1
_chemical_formula_structural   DyY2TmNi2C5
_chemical_formula_sum   'Dy1 Y2 Tm1 Ni2 C5'
_cell_volume   155.86594555
_cell_formula_units_Z   1
loop_
 _symmetry_equiv_pos_site_id
 _symmetry_equiv_pos_as_xyz
  1  'x, y, z'
loop_
 _atom_site_type_symbol
 _atom_site_label
 _atom_site_symmetry_multiplicity
 _atom_site_fract_x
 _atom_site_fract_y
 _atom_site_fract_z
 _atom_site_occupancy
  Dy  Dy0  1  0.500000  0.207522  0.500911  1
  Y  Y1  1  0.500000  0.503431  0.202472  1
  Y  Y2  1  0.000000  0.999533  0.997687  1
  Tm  Tm3  1  0.500000  0.502381  0.796114  1
  Ni  Ni4  1  0.000000  0.696878  0.384445  1
  Ni  Ni5  1  0.000000  0.698957  0.617780  1
  C  C6  1  0.000000  0.999814  0.230758  1
  C  C7  1  0.000000  0.000755  0.770665  1
  C  C8  1  0.000000  0.196264  0.332885  1
  C  C9  1  0.000000  0.200046  0.668929  1
  C  C10  1  0.500000  0.495916  0.997354  1
