# generated using pymatgen
data_Er2Sc3S7
_symmetry_space_group_name_H-M   'P 1'
_cell_length_a   6.37036777
_cell_length_b   6.37036779
_cell_length_c   11.24592043
_cell_angle_alpha   76.26548173
_cell_angle_beta   76.26548247
_cell_angle_gamma   33.55590114
_symmetry_Int_Tables_number   1
_chemical_formula_structural   Er2Sc3S7
_chemical_formula_sum   'Er2 Sc3 S7'
_cell_volume   244.38331450
_cell_formula_units_Z   1
loop_
 _symmetry_equiv_pos_site_id
 _symmetry_equiv_pos_as_xyz
  1  'x, y, z'
loop_
 _atom_site_type_symbol
 _atom_site_label
 _atom_site_symmetry_multiplicity
 _atom_site_fract_x
 _atom_site_fract_y
 _atom_site_fract_z
 _atom_site_occupancy
  Er  Er0  1  0.299594  0.299594  0.810027  1
  Er  Er1  1  0.700406  0.700406  0.189973  1
  Sc  Sc2  1  0.000000  0.000000  0.000000  1
  Sc  Sc3  1  0.111162  0.111162  0.575139  1
  Sc  Sc4  1  0.888838  0.888838  0.424861  1
  S  S5  1  0.500000  0.500000  0.500000  1
  S  S6  1  0.654366  0.654366  0.950912  1
  S  S7  1  0.345634  0.345634  0.049088  1
  S  S8  1  0.967102  0.967102  0.783945  1
  S  S9  1  0.032898  0.032898  0.216055  1
  S  S10  1  0.261369  0.261369  0.358701  1
  S  S11  1  0.738631  0.738631  0.641299  1
