# generated using pymatgen
data_Er4Tm4Re3B24Rh
_symmetry_space_group_name_H-M   'P 1'
_cell_length_a   3.64655700
_cell_length_b   9.10728223
_cell_length_c   11.48077004
_cell_angle_alpha   90.14782977
_cell_angle_beta   90.00000000
_cell_angle_gamma   90.00000000
_symmetry_Int_Tables_number   1
_chemical_formula_structural   Er4Tm4Re3B24Rh
_chemical_formula_sum   'Er4 Tm4 Re3 B24 Rh1'
_cell_volume   381.27767295
_cell_formula_units_Z   1
loop_
 _symmetry_equiv_pos_site_id
 _symmetry_equiv_pos_as_xyz
  1  'x, y, z'
loop_
 _atom_site_type_symbol
 _atom_site_label
 _atom_site_symmetry_multiplicity
 _atom_site_fract_x
 _atom_site_fract_y
 _atom_site_fract_z
 _atom_site_occupancy
  Er  Er0  1  0.000000  0.317739  0.415530  1
  Er  Er1  1  0.000000  0.678668  0.591260  1
  Er  Er2  1  0.000000  0.826853  0.081269  1
  Er  Er3  1  0.000000  0.177807  0.912669  1
  Tm  Tm4  1  0.000000  0.943403  0.370327  1
  Tm  Tm5  1  0.000000  0.055800  0.628761  1
  Tm  Tm6  1  0.000000  0.441360  0.128689  1
  Tm  Tm7  1  0.000000  0.556624  0.871743  1
  Re  Re8  1  0.000000  0.362407  0.677868  1
  Re  Re9  1  0.000000  0.138506  0.180241  1
  Re  Re10  1  0.000000  0.861403  0.820567  1
  B  B11  1  0.500000  0.553910  0.433944  1
  B  B12  1  0.500000  0.446770  0.566321  1
  B  B13  1  0.500000  0.053443  0.066360  1
  B  B14  1  0.500000  0.947328  0.932851  1
  B  B15  1  0.500000  0.749574  0.420465  1
  B  B16  1  0.500000  0.249768  0.580650  1
  B  B17  1  0.500000  0.250098  0.081055  1
  B  B18  1  0.500000  0.751040  0.919176  1
  B  B19  1  0.500000  0.791568  0.264845  1
  B  B20  1  0.500000  0.207859  0.734304  1
  B  B21  1  0.500000  0.292433  0.235514  1
  B  B22  1  0.500000  0.707628  0.765633  1
  B  B23  1  0.500000  0.631577  0.183627  1
  B  B24  1  0.500000  0.369688  0.814749  1
  B  B25  1  0.500000  0.130407  0.315458  1
  B  B26  1  0.500000  0.868795  0.684855  1
  B  B27  1  0.500000  0.982090  0.212185  1
  B  B28  1  0.500000  0.018117  0.786782  1
  B  B29  1  0.500000  0.482659  0.287833  1
  B  B30  1  0.500000  0.518806  0.712600  1
  B  B31  1  0.500000  0.603128  0.029130  1
  B  B32  1  0.500000  0.398292  0.972376  1
  B  B33  1  0.500000  0.100685  0.471393  1
  B  B34  1  0.500000  0.895811  0.527969  1
  Rh  Rh35  1  0.000000  0.637958  0.321005  1
