# generated using pymatgen
data_Pa(Pd3Pt)2
_symmetry_space_group_name_H-M   'P 1'
_cell_length_a   6.34799823
_cell_length_b   6.34799819
_cell_length_c   6.32848502
_cell_angle_alpha   96.19768018
_cell_angle_beta   96.19769719
_cell_angle_gamma   141.69713702
_symmetry_Int_Tables_number   1
_chemical_formula_structural   Pa(Pd3Pt)2
_chemical_formula_sum   'Pa1 Pd6 Pt2'
_cell_volume   149.26190500
_cell_formula_units_Z   1
loop_
 _symmetry_equiv_pos_site_id
 _symmetry_equiv_pos_as_xyz
  1  'x, y, z'
loop_
 _atom_site_type_symbol
 _atom_site_label
 _atom_site_symmetry_multiplicity
 _atom_site_fract_x
 _atom_site_fract_y
 _atom_site_fract_z
 _atom_site_occupancy
  Pa  Pa0  1  0.000000  0.000000  0.000000  1
  Pd  Pd1  1  0.331987  0.999830  0.331818  1
  Pd  Pd2  1  0.999830  0.331987  0.331818  1
  Pd  Pd3  1  0.668052  0.668052  0.336104  1
  Pd  Pd4  1  0.331949  0.331949  0.663897  1
  Pd  Pd5  1  0.668013  0.000170  0.668182  1
  Pd  Pd6  1  0.000170  0.668013  0.668182  1
  Pt  Pt7  1  0.666732  0.333269  0.000000  1
  Pt  Pt8  1  0.333269  0.666732  0.000000  1
