# generated using pymatgen
data_La5Er(BiO7)2
_symmetry_space_group_name_H-M   'P 1'
_cell_length_a   6.77997793
_cell_length_b   6.81653463
_cell_length_c   8.00276105
_cell_angle_alpha   106.93738763
_cell_angle_beta   89.89017886
_cell_angle_gamma   98.66475914
_symmetry_Int_Tables_number   1
_chemical_formula_structural   La5Er(BiO7)2
_chemical_formula_sum   'La5 Er1 Bi2 O14'
_cell_volume   349.42947175
_cell_formula_units_Z   1
loop_
 _symmetry_equiv_pos_site_id
 _symmetry_equiv_pos_as_xyz
  1  'x, y, z'
loop_
 _atom_site_type_symbol
 _atom_site_label
 _atom_site_symmetry_multiplicity
 _atom_site_fract_x
 _atom_site_fract_y
 _atom_site_fract_z
 _atom_site_occupancy
  La  La0  1  0.533372  0.996816  0.746403  1
  La  La1  1  0.265931  0.536519  0.884845  1
  La  La2  1  0.731842  0.468631  0.120431  1
  La  La3  1  0.741266  0.482417  0.615804  1
  La  La4  1  0.258860  0.513746  0.378650  1
  Er  Er5  1  0.463018  0.004441  0.253591  1
  Bi  Bi6  1  0.999817  0.000195  0.496762  1
  Bi  Bi7  1  0.999033  0.999862  0.003815  1
  O  O8  1  0.445068  0.659922  0.171539  1
  O  O9  1  0.559169  0.357739  0.834703  1
  O  O10  1  0.299113  0.933479  0.965348  1
  O  O11  1  0.702394  0.064410  0.056149  1
  O  O12  1  0.295520  0.930843  0.501717  1
  O  O13  1  0.705634  0.067143  0.475617  1
  O  O14  1  0.538130  0.349525  0.340302  1
  O  O15  1  0.452395  0.636639  0.653039  1
  O  O16  1  0.923337  0.672790  0.950897  1
  O  O17  1  0.075765  0.326402  0.048421  1
  O  O18  1  0.071566  0.334192  0.613955  1
  O  O19  1  0.922924  0.663738  0.388055  1
  O  O20  1  0.894503  0.921603  0.729648  1
  O  O21  1  0.121341  0.078947  0.270308  1
