# generated using pymatgen
data_Yb4Ga13Si5Rh6
_symmetry_space_group_name_H-M   'P 1'
_cell_length_a   7.49072550
_cell_length_b   7.43418216
_cell_length_c   9.52481649
_cell_angle_alpha   89.97415630
_cell_angle_beta   89.99083079
_cell_angle_gamma   119.89443973
_symmetry_Int_Tables_number   1
_chemical_formula_structural   Yb4Ga13Si5Rh6
_chemical_formula_sum   'Yb4 Ga13 Si5 Rh6'
_cell_volume   459.83838141
_cell_formula_units_Z   1
loop_
 _symmetry_equiv_pos_site_id
 _symmetry_equiv_pos_as_xyz
  1  'x, y, z'
loop_
 _atom_site_type_symbol
 _atom_site_label
 _atom_site_symmetry_multiplicity
 _atom_site_fract_x
 _atom_site_fract_y
 _atom_site_fract_z
 _atom_site_occupancy
  Yb  Yb0  1  0.999593  0.664867  0.251085  1
  Yb  Yb1  1  0.002858  0.337066  0.748957  1
  Yb  Yb2  1  0.671235  0.006313  0.252020  1
  Yb  Yb3  1  0.325609  0.993521  0.749245  1
  Ga  Ga4  1  0.127830  0.128099  0.250190  1
  Ga  Ga5  1  0.874646  0.871902  0.749806  1
  Ga  Ga6  1  0.665885  0.996556  0.580970  1
  Ga  Ga7  1  0.662069  0.997714  0.920820  1
  Ga  Ga8  1  0.338529  0.001775  0.078305  1
  Ga  Ga9  1  0.338075  0.335182  0.569742  1
  Ga  Ga10  1  0.664761  0.670854  0.428780  1
  Ga  Ga11  1  0.663394  0.671092  0.069627  1
  Ga  Ga12  1  0.336868  0.329838  0.930716  1
  Ga  Ga13  1  0.332539  0.546247  0.249666  1
  Ga  Ga14  1  0.666817  0.453137  0.749908  1
  Ga  Ga15  1  0.548428  0.340017  0.249907  1
  Ga  Ga16  1  0.449089  0.660203  0.749069  1
  Si  Si17  1  0.001201  0.329011  0.069052  1
  Si  Si18  1  0.997090  0.669476  0.931387  1
  Si  Si19  1  0.993255  0.665257  0.570095  1
  Si  Si20  1  0.336450  0.004286  0.425768  1
  Si  Si21  1  0.002349  0.330169  0.428519  1
  Rh  Rh22  1  0.694202  0.342188  0.002895  1
  Rh  Rh23  1  0.304631  0.656434  0.997551  1
  Rh  Rh24  1  0.307250  0.669436  0.498723  1
  Rh  Rh25  1  0.683415  0.331581  0.496976  1
  Rh  Rh26  1  0.000326  0.999566  0.000836  1
  Rh  Rh27  1  0.011606  0.998212  0.499385  1
