# generated using pymatgen
data_Tb3Lu3Th2(MgRh)2
_symmetry_space_group_name_H-M   'P 1'
_cell_length_a   9.71563636
_cell_length_b   9.71563619
_cell_length_c   9.71563700
_cell_angle_alpha   60.00000066
_cell_angle_beta   60.00000121
_cell_angle_gamma   60.00000419
_symmetry_Int_Tables_number   1
_chemical_formula_structural   Tb3Lu3Th2(MgRh)2
_chemical_formula_sum   'Tb6 Lu6 Th4 Mg4 Rh4'
_cell_volume   648.48330168
_cell_formula_units_Z   2
loop_
 _symmetry_equiv_pos_site_id
 _symmetry_equiv_pos_as_xyz
  1  'x, y, z'
loop_
 _atom_site_type_symbol
 _atom_site_label
 _atom_site_symmetry_multiplicity
 _atom_site_fract_x
 _atom_site_fract_y
 _atom_site_fract_z
 _atom_site_occupancy
  Tb  Tb0  1  0.934608  0.565392  0.565392  1
  Tb  Tb1  1  0.565392  0.934608  0.934608  1
  Tb  Tb2  1  0.565392  0.934608  0.565392  1
  Tb  Tb3  1  0.934608  0.565392  0.934608  1
  Tb  Tb4  1  0.565392  0.565392  0.934608  1
  Tb  Tb5  1  0.934608  0.934608  0.565392  1
  Lu  Lu6  1  0.814933  0.185067  0.185067  1
  Lu  Lu7  1  0.185067  0.814933  0.814933  1
  Lu  Lu8  1  0.185067  0.814933  0.185067  1
  Lu  Lu9  1  0.814933  0.185067  0.814933  1
  Lu  Lu10  1  0.185067  0.185067  0.814933  1
  Lu  Lu11  1  0.814933  0.814933  0.185067  1
  Th  Th12  1  0.348900  0.348900  0.348900  1
  Th  Th13  1  0.348900  0.348900  0.953302  1
  Th  Th14  1  0.348900  0.953302  0.348900  1
  Th  Th15  1  0.953302  0.348900  0.348900  1
  Mg  Mg16  1  0.580492  0.580492  0.580492  1
  Mg  Mg17  1  0.580492  0.580492  0.258524  1
  Mg  Mg18  1  0.580492  0.258524  0.580492  1
  Mg  Mg19  1  0.258524  0.580492  0.580492  1
  Rh  Rh20  1  0.142821  0.142821  0.142821  1
  Rh  Rh21  1  0.142821  0.142821  0.571535  1
  Rh  Rh22  1  0.142821  0.571535  0.142821  1
  Rh  Rh23  1  0.571535  0.142821  0.142821  1
