# generated using pymatgen
data_Ba20MnPt11O48
_symmetry_space_group_name_H-M   'P 1'
_cell_length_a   5.98756800
_cell_length_b   11.02429130
_cell_length_c   20.12045400
_cell_angle_alpha   89.69685974
_cell_angle_beta   90.00000000
_cell_angle_gamma   90.00000000
_symmetry_Int_Tables_number   1
_chemical_formula_structural   Ba20MnPt11O48
_chemical_formula_sum   'Ba20 Mn1 Pt11 O48'
_cell_volume   1328.10629850
_cell_formula_units_Z   1
loop_
 _symmetry_equiv_pos_site_id
 _symmetry_equiv_pos_as_xyz
  1  'x, y, z'
loop_
 _atom_site_type_symbol
 _atom_site_label
 _atom_site_symmetry_multiplicity
 _atom_site_fract_x
 _atom_site_fract_y
 _atom_site_fract_z
 _atom_site_occupancy
  Ba  Ba0  1  0.000000  0.894124  0.969671  1
  Ba  Ba1  1  0.000000  0.387638  0.535784  1
  Ba  Ba2  1  0.500000  0.114395  0.036923  1
  Ba  Ba3  1  0.500000  0.612932  0.461085  1
  Ba  Ba4  1  0.000000  0.672229  0.749502  1
  Ba  Ba5  1  0.000000  0.173485  0.756179  1
  Ba  Ba6  1  0.500000  0.324190  0.246904  1
  Ba  Ba7  1  0.500000  0.832773  0.244524  1
  Ba  Ba8  1  0.000000  0.056798  0.176675  1
  Ba  Ba9  1  0.000000  0.554907  0.317645  1
  Ba  Ba10  1  0.500000  0.947482  0.824786  1
  Ba  Ba11  1  0.500000  0.443172  0.679229  1
  Ba  Ba12  1  0.000000  0.686899  0.131070  1
  Ba  Ba13  1  0.000000  0.194479  0.366915  1
  Ba  Ba14  1  0.500000  0.307081  0.871946  1
  Ba  Ba15  1  0.500000  0.806684  0.631112  1
  Ba  Ba16  1  0.000000  0.520755  0.921448  1
  Ba  Ba17  1  0.000000  0.018910  0.585634  1
  Ba  Ba18  1  0.500000  0.477802  0.078340  1
  Ba  Ba19  1  0.500000  0.982972  0.415346  1
  Mn  Mn20  1  0.000000  0.286803  0.053506  1
  Pt  Pt21  1  0.000000  0.384797  0.171223  1
  Pt  Pt22  1  0.000000  0.889634  0.322020  1
  Pt  Pt23  1  0.500000  0.608575  0.823115  1
  Pt  Pt24  1  0.500000  0.110805  0.678430  1
  Pt  Pt25  1  0.000000  0.193077  0.933253  1
  Pt  Pt26  1  0.000000  0.688219  0.573118  1
  Pt  Pt27  1  0.500000  0.809115  0.073051  1
  Pt  Pt28  1  0.500000  0.312429  0.425785  1
  Pt  Pt29  1  0.000000  0.783668  0.445684  1
  Pt  Pt30  1  0.500000  0.716568  0.945608  1
  Pt  Pt31  1  0.500000  0.216556  0.553808  1
  O  O32  1  0.222105  0.305781  0.984433  1
  O  O33  1  0.775275  0.800275  0.520873  1
  O  O34  1  0.725467  0.698927  0.020618  1
  O  O35  1  0.275760  0.200229  0.478285  1
  O  O36  1  0.274533  0.698927  0.020618  1
  O  O37  1  0.724240  0.200229  0.478285  1
  O  O38  1  0.777895  0.305781  0.984433  1
  O  O39  1  0.224725  0.800275  0.520873  1
  O  O40  1  0.000000  0.114290  0.027064  1
  O  O41  1  0.000000  0.607083  0.479405  1
  O  O42  1  0.500000  0.892602  0.979367  1
  O  O43  1  0.500000  0.393225  0.519603  1
  O  O44  1  0.226247  0.266683  0.124334  1
  O  O45  1  0.771258  0.770019  0.368850  1
  O  O46  1  0.728479  0.729257  0.868863  1
  O  O47  1  0.271510  0.229946  0.630780  1
  O  O48  1  0.271521  0.729257  0.868863  1
  O  O49  1  0.728490  0.229946  0.630780  1
  O  O50  1  0.773753  0.266683  0.124334  1
  O  O51  1  0.228742  0.770019  0.368850  1
  O  O52  1  0.000000  0.307719  0.859426  1
  O  O53  1  0.000000  0.804709  0.645359  1
  O  O54  1  0.500000  0.690885  0.144567  1
  O  O55  1  0.500000  0.196321  0.353428  1
  O  O56  1  0.771499  0.084879  0.894508  1
  O  O57  1  0.227880  0.580980  0.611918  1
  O  O58  1  0.272286  0.915760  0.112042  1
  O  O59  1  0.728465  0.419664  0.386845  1
  O  O60  1  0.727714  0.915760  0.112042  1
  O  O61  1  0.271535  0.419664  0.386845  1
  O  O62  1  0.228501  0.084879  0.894508  1
  O  O63  1  0.772120  0.580980  0.611918  1
  O  O64  1  0.000000  0.456613  0.076048  1
  O  O65  1  0.000000  0.960514  0.417033  1
  O  O66  1  0.500000  0.539392  0.919134  1
  O  O67  1  0.500000  0.040150  0.583082  1
  O  O68  1  0.000000  0.293563  0.254987  1
  O  O69  1  0.000000  0.796745  0.239765  1
  O  O70  1  0.500000  0.698364  0.739752  1
  O  O71  1  0.500000  0.201039  0.761869  1
  O  O72  1  0.767290  0.499180  0.202484  1
  O  O73  1  0.234571  0.004484  0.292594  1
  O  O74  1  0.265766  0.494631  0.794155  1
  O  O75  1  0.735931  0.997723  0.708812  1
  O  O76  1  0.734234  0.494631  0.794155  1
  O  O77  1  0.264069  0.997723  0.708812  1
  O  O78  1  0.232710  0.499180  0.202484  1
  O  O79  1  0.765429  0.004484  0.292594  1
