# generated using pymatgen
data_TbHoGaSiNi2
_symmetry_space_group_name_H-M   'P 1'
_cell_length_a   4.22178500
_cell_length_b   6.89864620
_cell_length_c   7.23443141
_cell_angle_alpha   91.32137480
_cell_angle_beta   90.00000000
_cell_angle_gamma   90.00000000
_symmetry_Int_Tables_number   1
_chemical_formula_structural   TbHoGaSiNi2
_chemical_formula_sum   'Tb2 Ho2 Ga2 Si2 Ni4'
_cell_volume   210.64389845
_cell_formula_units_Z   2
loop_
 _symmetry_equiv_pos_site_id
 _symmetry_equiv_pos_as_xyz
  1  'x, y, z'
loop_
 _atom_site_type_symbol
 _atom_site_label
 _atom_site_symmetry_multiplicity
 _atom_site_fract_x
 _atom_site_fract_y
 _atom_site_fract_z
 _atom_site_occupancy
  Tb  Tb0  1  0.750000  0.013221  0.695321  1
  Tb  Tb1  1  0.250000  0.986779  0.304679  1
  Ho  Ho2  1  0.250000  0.483894  0.202066  1
  Ho  Ho3  1  0.750000  0.516106  0.797934  1
  Ga  Ga4  1  0.250000  0.815391  0.917225  1
  Ga  Ga5  1  0.750000  0.184609  0.082775  1
  Si  Si6  1  0.750000  0.684730  0.413699  1
  Si  Si7  1  0.250000  0.315270  0.586301  1
  Ni  Ni8  1  0.250000  0.683969  0.576237  1
  Ni  Ni9  1  0.750000  0.316031  0.423763  1
  Ni  Ni10  1  0.750000  0.791603  0.099088  1
  Ni  Ni11  1  0.250000  0.208397  0.900912  1
