# generated using pymatgen
data_Ce3Pa3Sb8(PtRh)3
_symmetry_space_group_name_H-M   'P 1'
_cell_length_a   8.44492203
_cell_length_b   8.44492284
_cell_length_c   8.46872633
_cell_angle_alpha   109.13399990
_cell_angle_beta   109.90197698
_cell_angle_gamma   109.26428188
_symmetry_Int_Tables_number   1
_chemical_formula_structural   Ce3Pa3Sb8(PtRh)3
_chemical_formula_sum   'Ce3 Pa3 Sb8 Pt3 Rh3'
_cell_volume   465.56151462
_cell_formula_units_Z   1
loop_
 _symmetry_equiv_pos_site_id
 _symmetry_equiv_pos_as_xyz
  1  'x, y, z'
loop_
 _atom_site_type_symbol
 _atom_site_label
 _atom_site_symmetry_multiplicity
 _atom_site_fract_x
 _atom_site_fract_y
 _atom_site_fract_z
 _atom_site_occupancy
  Ce  Ce0  1  0.375011  0.251852  0.628327  1
  Ce  Ce1  1  0.123527  0.746685  0.871673  1
  Ce  Ce2  1  0.622729  0.372729  0.250000  1
  Pa  Pa3  1  0.880935  0.130935  0.750000  1
  Pa  Pa4  1  0.254805  0.626688  0.383027  1
  Pa  Pa5  1  0.743661  0.871778  0.116973  1
  Sb  Sb6  1  0.492628  0.002127  0.828468  1
  Sb  Sb7  1  0.825764  0.500062  0.999252  1
  Sb  Sb8  1  0.000808  0.826511  0.500748  1
  Sb  Sb9  1  0.673657  0.664158  0.671532  1
  Sb  Sb10  1  0.331352  0.502603  0.998834  1
  Sb  Sb11  1  0.499074  0.004584  0.327155  1
  Sb  Sb12  1  0.003769  0.332519  0.501166  1
  Sb  Sb13  1  0.177430  0.171919  0.172845  1
  Pt  Pt14  1  0.880181  0.245528  0.118435  1
  Pt  Pt15  1  0.627094  0.761746  0.381565  1
  Pt  Pt16  1  0.121069  0.871069  0.250000  1
  Rh  Rh17  1  0.383743  0.633743  0.750000  1
  Rh  Rh18  1  0.224541  0.122786  0.864560  1
  Rh  Rh19  1  0.758227  0.359979  0.635440  1
