# generated using pymatgen
data_SmPd2Pt2Au
_symmetry_space_group_name_H-M   'P 1'
_cell_length_a   5.37839687
_cell_length_b   5.37839667
_cell_length_c   5.37839745
_cell_angle_alpha   119.83942121
_cell_angle_beta   120.27123005
_cell_angle_gamma   89.90459933
_symmetry_Int_Tables_number   1
_chemical_formula_structural   SmPd2Pt2Au
_chemical_formula_sum   'Sm1 Pd2 Pt2 Au1'
_cell_volume   109.91877854
_cell_formula_units_Z   1
loop_
 _symmetry_equiv_pos_site_id
 _symmetry_equiv_pos_as_xyz
  1  'x, y, z'
loop_
 _atom_site_type_symbol
 _atom_site_label
 _atom_site_symmetry_multiplicity
 _atom_site_fract_x
 _atom_site_fract_y
 _atom_site_fract_z
 _atom_site_occupancy
  Sm  Sm0  1  0.001294  0.001294  0.000000  1
  Pd  Pd1  1  0.624037  0.375256  0.751219  1
  Pd  Pd2  1  0.624037  0.872819  0.248781  1
  Pt  Pt3  1  0.624275  0.374712  0.249562  1
  Pt  Pt4  1  0.125150  0.374712  0.750438  1
  Au  Au5  1  0.251207  0.751207  0.500000  1
