# generated using pymatgen
data_Dy2Co5NiP4
_symmetry_space_group_name_H-M   'P 1'
_cell_length_a   10.48302400
_cell_length_b   3.70639200
_cell_length_c   12.20567900
_cell_angle_alpha   90.00000000
_cell_angle_beta   90.00000000
_cell_angle_gamma   90.00000000
_symmetry_Int_Tables_number   1
_chemical_formula_structural   Dy2Co5NiP4
_chemical_formula_sum   'Dy6 Co15 Ni3 P12'
_cell_volume   474.24184771
_cell_formula_units_Z   3
loop_
 _symmetry_equiv_pos_site_id
 _symmetry_equiv_pos_as_xyz
  1  'x, y, z'
loop_
 _atom_site_type_symbol
 _atom_site_label
 _atom_site_symmetry_multiplicity
 _atom_site_fract_x
 _atom_site_fract_y
 _atom_site_fract_z
 _atom_site_occupancy
  Dy  Dy0  1  0.065825  0.750001  0.205446  1
  Dy  Dy1  1  0.434175  0.750001  0.205446  1
  Dy  Dy2  1  0.250000  0.750001  0.479871  1
  Dy  Dy3  1  0.750000  0.250000  0.521266  1
  Dy  Dy4  1  0.564864  0.250000  0.794274  1
  Dy  Dy5  1  0.935136  0.250000  0.794274  1
  Co  Co6  1  0.083973  0.250000  0.004604  1
  Co  Co7  1  0.416026  0.250000  0.004604  1
  Co  Co8  1  0.250000  0.750001  0.014028  1
  Co  Co9  1  0.629287  0.250000  0.289609  1
  Co  Co10  1  0.870714  0.250000  0.289609  1
  Co  Co11  1  0.548570  0.750001  0.430308  1
  Co  Co12  1  0.951431  0.750001  0.430308  1
  Co  Co13  1  0.048509  0.250000  0.569461  1
  Co  Co14  1  0.451492  0.250000  0.569461  1
  Co  Co15  1  0.129347  0.750001  0.710310  1
  Co  Co16  1  0.370654  0.750001  0.710310  1
  Co  Co17  1  0.250000  0.250000  0.840609  1
  Co  Co18  1  0.750000  0.250000  0.984493  1
  Co  Co19  1  0.583486  0.750001  0.995136  1
  Co  Co20  1  0.916513  0.750001  0.995136  1
  Ni  Ni21  1  0.750000  0.750001  0.161165  1
  Ni  Ni22  1  0.250000  0.250000  0.297109  1
  Ni  Ni23  1  0.750000  0.750001  0.703293  1
  P  P24  1  0.596375  0.250000  0.105186  1
  P  P25  1  0.903624  0.250000  0.105186  1
  P  P26  1  0.250000  0.250000  0.117041  1
  P  P27  1  0.750000  0.750001  0.346080  1
  P  P28  1  0.060379  0.250000  0.384812  1
  P  P29  1  0.439621  0.250000  0.384812  1
  P  P30  1  0.559659  0.750001  0.615371  1
  P  P31  1  0.940341  0.750001  0.615371  1
  P  P32  1  0.250000  0.250000  0.656099  1
  P  P33  1  0.750000  0.750001  0.882969  1
  P  P34  1  0.097705  0.750001  0.893472  1
  P  P35  1  0.402294  0.750001  0.893472  1
