# generated using pymatgen
data_TbNd5Al24(Ir3Ru)2
_symmetry_space_group_name_H-M   'P 1'
_cell_length_a   8.87619300
_cell_length_b   8.91043437
_cell_length_c   9.62631600
_cell_angle_alpha   90.00000000
_cell_angle_beta   90.00000000
_cell_angle_gamma   119.87297223
_symmetry_Int_Tables_number   1
_chemical_formula_structural   TbNd5Al24(Ir3Ru)2
_chemical_formula_sum   'Tb1 Nd5 Al24 Ir6 Ru2'
_cell_volume   660.19288582
_cell_formula_units_Z   1
loop_
 _symmetry_equiv_pos_site_id
 _symmetry_equiv_pos_as_xyz
  1  'x, y, z'
loop_
 _atom_site_type_symbol
 _atom_site_label
 _atom_site_symmetry_multiplicity
 _atom_site_fract_x
 _atom_site_fract_y
 _atom_site_fract_z
 _atom_site_occupancy
  Tb  Tb0  1  0.193129  0.386257  0.250000  1
  Nd  Nd1  1  0.808977  0.617955  0.750000  1
  Nd  Nd2  1  0.619063  0.809517  0.250000  1
  Nd  Nd3  1  0.381013  0.190066  0.750000  1
  Nd  Nd4  1  0.190455  0.809517  0.250000  1
  Nd  Nd5  1  0.809051  0.190066  0.750000  1
  Al  Al6  1  0.333153  0.666306  0.025927  1
  Al  Al7  1  0.666238  0.332474  0.976781  1
  Al  Al8  1  0.666238  0.332474  0.523219  1
  Al  Al9  1  0.333153  0.666306  0.474073  1
  Al  Al10  1  0.163426  0.326851  0.573125  1
  Al  Al11  1  0.836407  0.672814  0.424338  1
  Al  Al12  1  0.672605  0.835822  0.575699  1
  Al  Al13  1  0.836407  0.672814  0.075662  1
  Al  Al14  1  0.326235  0.164677  0.422754  1
  Al  Al15  1  0.163426  0.326851  0.926875  1
  Al  Al16  1  0.163218  0.835822  0.575699  1
  Al  Al17  1  0.326235  0.164677  0.077246  1
  Al  Al18  1  0.838442  0.164677  0.422754  1
  Al  Al19  1  0.672605  0.835822  0.924301  1
  Al  Al20  1  0.838442  0.164677  0.077246  1
  Al  Al21  1  0.163218  0.835822  0.924301  1
  Al  Al22  1  0.563421  0.126841  0.250000  1
  Al  Al23  1  0.436327  0.872655  0.750000  1
  Al  Al24  1  0.874818  0.436933  0.250000  1
  Al  Al25  1  0.126479  0.562136  0.750000  1
  Al  Al26  1  0.562115  0.436933  0.250000  1
  Al  Al27  1  0.435656  0.562136  0.750000  1
  Al  Al28  1  0.002707  0.005414  0.250000  1
  Al  Al29  1  0.999543  0.999087  0.750000  1
  Ir  Ir30  1  0.499660  0.999320  0.000512  1
  Ir  Ir31  1  0.000574  0.499343  0.000907  1
  Ir  Ir32  1  0.499660  0.999320  0.499488  1
  Ir  Ir33  1  0.498770  0.499343  0.000907  1
  Ir  Ir34  1  0.000574  0.499343  0.499093  1
  Ir  Ir35  1  0.498770  0.499343  0.499093  1
  Ru  Ru36  1  0.999896  0.999792  0.000370  1
  Ru  Ru37  1  0.999896  0.999792  0.499630  1
