# generated using pymatgen
data_Ho8Sc12ZnSi14Os
_symmetry_space_group_name_H-M   'P 1'
_cell_length_a   7.09925336
_cell_length_b   7.40989479
_cell_length_c   13.98770115
_cell_angle_alpha   89.72937729
_cell_angle_beta   89.80096757
_cell_angle_gamma   90.45401760
_symmetry_Int_Tables_number   1
_chemical_formula_structural   Ho8Sc12ZnSi14Os
_chemical_formula_sum   'Ho8 Sc12 Zn1 Si14 Os1'
_cell_volume   735.78326417
_cell_formula_units_Z   1
loop_
 _symmetry_equiv_pos_site_id
 _symmetry_equiv_pos_as_xyz
  1  'x, y, z'
loop_
 _atom_site_type_symbol
 _atom_site_label
 _atom_site_symmetry_multiplicity
 _atom_site_fract_x
 _atom_site_fract_y
 _atom_site_fract_z
 _atom_site_occupancy
  Ho  Ho0  1  0.012272  0.179965  0.096538  1
  Ho  Ho1  1  0.991534  0.829011  0.903072  1
  Ho  Ho2  1  0.488696  0.677562  0.904954  1
  Ho  Ho3  1  0.990066  0.827698  0.596918  1
  Ho  Ho4  1  0.511866  0.323621  0.095990  1
  Ho  Ho5  1  0.010325  0.176889  0.402391  1
  Ho  Ho6  1  0.511902  0.322623  0.401868  1
  Ho  Ho7  1  0.491569  0.676874  0.597124  1
  Sc  Sc8  1  0.156124  0.496162  0.753010  1
  Sc  Sc9  1  0.838185  0.495692  0.250742  1
  Sc  Sc10  1  0.338775  0.004793  0.249799  1
  Sc  Sc11  1  0.669229  0.997416  0.750158  1
  Sc  Sc12  1  0.325903  0.169649  0.628597  1
  Sc  Sc13  1  0.669031  0.825223  0.373775  1
  Sc  Sc14  1  0.170442  0.674801  0.373144  1
  Sc  Sc15  1  0.671943  0.825731  0.125568  1
  Sc  Sc16  1  0.831059  0.322745  0.627351  1
  Sc  Sc17  1  0.317115  0.170971  0.872627  1
  Sc  Sc18  1  0.838945  0.317756  0.872426  1
  Sc  Sc19  1  0.171096  0.678728  0.125165  1
  Zn  Zn20  1  0.161527  0.464804  0.538751  1
  Si  Si21  1  0.968344  0.885967  0.249659  1
  Si  Si22  1  0.468467  0.614063  0.249205  1
  Si  Si23  1  0.529892  0.391628  0.751033  1
  Si  Si24  1  0.285969  0.866633  0.750614  1
  Si  Si25  1  0.713824  0.129710  0.249180  1
  Si  Si26  1  0.215085  0.369961  0.249261  1
  Si  Si27  1  0.779087  0.628411  0.751746  1
  Si  Si28  1  0.840726  0.536017  0.460229  1
  Si  Si29  1  0.342490  0.963437  0.460285  1
  Si  Si30  1  0.843625  0.536760  0.038345  1
  Si  Si31  1  0.655328  0.033506  0.537985  1
  Si  Si32  1  0.159045  0.468920  0.963542  1
  Si  Si33  1  0.654389  0.034778  0.961732  1
  Si  Si34  1  0.345098  0.966586  0.039752  1
  Os  Os35  1  0.031030  0.114908  0.747464  1
