# generated using pymatgen
data_Tb4PI6
_symmetry_space_group_name_H-M   'P 1'
_cell_length_a   4.21569000
_cell_length_b   13.88874200
_cell_length_c   14.70139300
_cell_angle_alpha   90.00000000
_cell_angle_beta   90.00000000
_cell_angle_gamma   90.00000000
_symmetry_Int_Tables_number   1
_chemical_formula_structural   Tb4PI6
_chemical_formula_sum   'Tb8 P2 I12'
_cell_volume   860.77583323
_cell_formula_units_Z   2
loop_
 _symmetry_equiv_pos_site_id
 _symmetry_equiv_pos_as_xyz
  1  'x, y, z'
loop_
 _atom_site_type_symbol
 _atom_site_label
 _atom_site_symmetry_multiplicity
 _atom_site_fract_x
 _atom_site_fract_y
 _atom_site_fract_z
 _atom_site_occupancy
  Tb  Tb0  1  0.500000  0.112919  0.349977  1
  Tb  Tb1  1  0.500000  0.887081  0.650023  1
  Tb  Tb2  1  0.500000  0.612919  0.150023  1
  Tb  Tb3  1  0.500000  0.387081  0.849977  1
  Tb  Tb4  1  0.000000  0.107050  0.571416  1
  Tb  Tb5  1  0.000000  0.892950  0.428584  1
  Tb  Tb6  1  0.000000  0.607050  0.928584  1
  Tb  Tb7  1  0.000000  0.392950  0.071416  1
  P  P8  1  0.500000  0.000000  0.500000  1
  P  P9  1  0.500000  0.500000  0.000000  1
  I  I10  1  0.500000  0.246788  0.160406  1
  I  I11  1  0.500000  0.753212  0.839594  1
  I  I12  1  0.500000  0.746788  0.339594  1
  I  I13  1  0.500000  0.253212  0.660406  1
  I  I14  1  0.000000  0.259585  0.415190  1
  I  I15  1  0.000000  0.740415  0.584810  1
  I  I16  1  0.000000  0.759585  0.084810  1
  I  I17  1  0.000000  0.240415  0.915190  1
  I  I18  1  0.000000  0.998942  0.240254  1
  I  I19  1  0.000000  0.001058  0.759746  1
  I  I20  1  0.000000  0.498942  0.259746  1
  I  I21  1  0.000000  0.501058  0.740254  1
