# generated using pymatgen
data_La3SnAuS7
_symmetry_space_group_name_H-M   'P 1'
_cell_length_a   10.47601500
_cell_length_b   10.47598598
_cell_length_c   6.09165600
_cell_angle_alpha   89.99996672
_cell_angle_beta   89.99977775
_cell_angle_gamma   120.00020769
_symmetry_Int_Tables_number   1
_chemical_formula_structural   La3SnAuS7
_chemical_formula_sum   'La6 Sn2 Au2 S14'
_cell_volume   578.97006995
_cell_formula_units_Z   2
loop_
 _symmetry_equiv_pos_site_id
 _symmetry_equiv_pos_as_xyz
  1  'x, y, z'
loop_
 _atom_site_type_symbol
 _atom_site_label
 _atom_site_symmetry_multiplicity
 _atom_site_fract_x
 _atom_site_fract_y
 _atom_site_fract_z
 _atom_site_occupancy
  La  La0  1  0.642618  0.772420  0.251093  1
  La  La1  1  0.129803  0.357375  0.251099  1
  La  La2  1  0.227560  0.870191  0.251101  1
  La  La3  1  0.357382  0.227570  0.751080  1
  La  La4  1  0.772435  0.129803  0.751073  1
  La  La5  1  0.870189  0.642635  0.751098  1
  Sn  Sn6  1  0.666666  0.333335  0.173548  1
  Sn  Sn7  1  0.333338  0.666669  0.673577  1
  Au  Au8  1  0.000002  0.000001  0.282456  1
  Au  Au9  1  0.000003  0.000004  0.782459  1
  S  S10  1  0.515370  0.093911  0.003014  1
  S  S11  1  0.578539  0.484630  0.003014  1
  S  S12  1  0.906087  0.421458  0.003012  1
  S  S13  1  0.333332  0.666666  0.063991  1
  S  S14  1  0.832045  0.098775  0.270555  1
  S  S15  1  0.266735  0.167957  0.270559  1
  S  S16  1  0.901219  0.733265  0.270562  1
  S  S17  1  0.421456  0.515371  0.503019  1
  S  S18  1  0.484627  0.906081  0.503018  1
  S  S19  1  0.093919  0.578544  0.503025  1
  S  S20  1  0.666671  0.333337  0.563960  1
  S  S21  1  0.098785  0.266738  0.770565  1
  S  S22  1  0.733265  0.832044  0.770563  1
  S  S23  1  0.167956  0.901223  0.770560  1
