# generated using pymatgen
data_Dy2HoPa(Al3Ir)6
_symmetry_space_group_name_H-M   'P 1'
_cell_length_a   7.57507403
_cell_length_b   7.56989039
_cell_length_c   9.42793600
_cell_angle_alpha   90.00000000
_cell_angle_beta   90.00000000
_cell_angle_gamma   119.62800772
_symmetry_Int_Tables_number   1
_chemical_formula_structural   Dy2HoPa(Al3Ir)6
_chemical_formula_sum   'Dy2 Ho1 Pa1 Al18 Ir6'
_cell_volume   469.93683002
_cell_formula_units_Z   1
loop_
 _symmetry_equiv_pos_site_id
 _symmetry_equiv_pos_as_xyz
  1  'x, y, z'
loop_
 _atom_site_type_symbol
 _atom_site_label
 _atom_site_symmetry_multiplicity
 _atom_site_fract_x
 _atom_site_fract_y
 _atom_site_fract_z
 _atom_site_occupancy
  Dy  Dy0  1  0.004981  0.329574  0.250000  1
  Dy  Dy1  1  0.329751  0.004419  0.250000  1
  Ho  Ho2  1  0.671609  0.995002  0.750000  1
  Pa  Pa3  1  0.995965  0.670905  0.750000  1
  Al  Al4  1  0.130948  0.130088  0.750000  1
  Al  Al5  1  0.872819  0.874102  0.250000  1
  Al  Al6  1  0.000763  0.332022  0.574574  1
  Al  Al7  1  0.999049  0.664930  0.421645  1
  Al  Al8  1  0.999049  0.664930  0.078355  1
  Al  Al9  1  0.338240  0.003756  0.925315  1
  Al  Al10  1  0.000763  0.332022  0.925426  1
  Al  Al11  1  0.665324  0.999868  0.075417  1
  Al  Al12  1  0.665324  0.999868  0.424583  1
  Al  Al13  1  0.338240  0.003756  0.574685  1
  Al  Al14  1  0.332872  0.332947  0.055017  1
  Al  Al15  1  0.663329  0.666014  0.947791  1
  Al  Al16  1  0.663329  0.666014  0.552209  1
  Al  Al17  1  0.332872  0.332947  0.444983  1
  Al  Al18  1  0.339148  0.546568  0.750000  1
  Al  Al19  1  0.659730  0.450423  0.250000  1
  Al  Al20  1  0.546277  0.341073  0.750000  1
  Al  Al21  1  0.451362  0.660923  0.250000  1
  Ir  Ir22  1  0.673898  0.330032  0.502223  1
  Ir  Ir23  1  0.326052  0.672007  0.502221  1
  Ir  Ir24  1  0.326052  0.672007  0.997779  1
  Ir  Ir25  1  0.673898  0.330032  0.997777  1
  Ir  Ir26  1  0.999176  0.996884  0.503128  1
  Ir  Ir27  1  0.999176  0.996884  0.996872  1
