# generated using pymatgen
data_Mn5Ge(B2Rh5)2
_symmetry_space_group_name_H-M   'P 1'
_cell_length_a   9.34236800
_cell_length_b   9.34236800
_cell_length_c   2.93742000
_cell_angle_alpha   90.00000000
_cell_angle_beta   90.00000000
_cell_angle_gamma   90.00000000
_symmetry_Int_Tables_number   1
_chemical_formula_structural   Mn5Ge(B2Rh5)2
_chemical_formula_sum   'Mn5 Ge1 B4 Rh10'
_cell_volume   256.37754716
_cell_formula_units_Z   1
loop_
 _symmetry_equiv_pos_site_id
 _symmetry_equiv_pos_as_xyz
  1  'x, y, z'
loop_
 _atom_site_type_symbol
 _atom_site_label
 _atom_site_symmetry_multiplicity
 _atom_site_fract_x
 _atom_site_fract_y
 _atom_site_fract_z
 _atom_site_occupancy
  Mn  Mn0  1  0.819806  0.326182  0.000000  1
  Mn  Mn1  1  0.326182  0.180194  0.000000  1
  Mn  Mn2  1  0.673818  0.819806  0.000000  1
  Mn  Mn3  1  0.180194  0.673818  0.000000  1
  Mn  Mn4  1  0.500000  0.500000  0.000000  1
  Ge  Ge5  1  0.000000  0.000000  0.000000  1
  B  B6  1  0.624989  0.127550  0.000000  1
  B  B7  1  0.127550  0.375011  0.000000  1
  B  B8  1  0.872450  0.624989  0.000000  1
  B  B9  1  0.375011  0.872450  0.000000  1
  Rh  Rh10  1  0.068506  0.213252  0.500000  1
  Rh  Rh11  1  0.213252  0.931494  0.500000  1
  Rh  Rh12  1  0.786748  0.068506  0.500000  1
  Rh  Rh13  1  0.931494  0.786748  0.500000  1
  Rh  Rh14  1  0.428018  0.717162  0.500000  1
  Rh  Rh15  1  0.571982  0.282838  0.500000  1
  Rh  Rh16  1  0.717162  0.571982  0.500000  1
  Rh  Rh17  1  0.282838  0.428018  0.500000  1
  Rh  Rh18  1  0.500000  0.000000  0.500000  1
  Rh  Rh19  1  0.000000  0.500000  0.500000  1
