# generated using pymatgen
data_Yb2SmUO6
_symmetry_space_group_name_H-M   'P 1'
_cell_length_a   6.78584801
_cell_length_b   6.78672736
_cell_length_c   6.76355096
_cell_angle_alpha   91.77826335
_cell_angle_beta   91.44942834
_cell_angle_gamma   91.28580022
_symmetry_Int_Tables_number   1
_chemical_formula_structural   Yb2SmUO6
_chemical_formula_sum   'Yb4 Sm2 U2 O12'
_cell_volume   311.15284042
_cell_formula_units_Z   2
loop_
 _symmetry_equiv_pos_site_id
 _symmetry_equiv_pos_as_xyz
  1  'x, y, z'
loop_
 _atom_site_type_symbol
 _atom_site_label
 _atom_site_symmetry_multiplicity
 _atom_site_fract_x
 _atom_site_fract_y
 _atom_site_fract_z
 _atom_site_occupancy
  Yb  Yb0  1  0.553191  0.251065  0.059447  1
  Yb  Yb1  1  0.252987  0.060298  0.559168  1
  Yb  Yb2  1  0.065190  0.557395  0.249997  1
  Yb  Yb3  1  0.443505  0.749928  0.940631  1
  Sm  Sm4  1  0.938510  0.444066  0.750356  1
  Sm  Sm5  1  0.747511  0.938837  0.440526  1
  U  U6  1  0.003853  0.000023  0.002483  1
  U  U7  1  0.494191  0.498676  0.497837  1
  O  O8  1  0.297158  0.063804  0.921245  1
  O  O9  1  0.065077  0.918256  0.304168  1
  O  O10  1  0.920896  0.301993  0.064335  1
  O  O11  1  0.703258  0.935931  0.084589  1
  O  O12  1  0.933016  0.086254  0.695382  1
  O  O13  1  0.082952  0.696277  0.933399  1
  O  O14  1  0.192429  0.404868  0.536437  1
  O  O15  1  0.409412  0.538759  0.199970  1
  O  O16  1  0.464783  0.803257  0.591778  1
  O  O17  1  0.592489  0.460404  0.798782  1
  O  O18  1  0.803378  0.594195  0.463431  1
  O  O19  1  0.536213  0.195713  0.406037  1
