# generated using pymatgen
data_Tm10Ga2Sn3Sb
_symmetry_space_group_name_H-M   'P 1'
_cell_length_a   8.69224281
_cell_length_b   8.71972296
_cell_length_c   6.43925900
_cell_angle_alpha   90.00000000
_cell_angle_beta   90.00000000
_cell_angle_gamma   119.94511040
_symmetry_Int_Tables_number   1
_chemical_formula_structural   Tm10Ga2Sn3Sb
_chemical_formula_sum   'Tm10 Ga2 Sn3 Sb1'
_cell_volume   422.90323377
_cell_formula_units_Z   1
loop_
 _symmetry_equiv_pos_site_id
 _symmetry_equiv_pos_as_xyz
  1  'x, y, z'
loop_
 _atom_site_type_symbol
 _atom_site_label
 _atom_site_symmetry_multiplicity
 _atom_site_fract_x
 _atom_site_fract_y
 _atom_site_fract_z
 _atom_site_occupancy
  Tm  Tm0  1  0.343899  0.686583  0.001254  1
  Tm  Tm1  1  0.656171  0.314327  0.498787  1
  Tm  Tm2  1  0.656171  0.314327  0.001213  1
  Tm  Tm3  1  0.343899  0.686583  0.498746  1
  Tm  Tm4  1  0.241906  0.000648  0.250000  1
  Tm  Tm5  1  0.756344  0.997180  0.750000  1
  Tm  Tm6  1  0.988053  0.230873  0.250000  1
  Tm  Tm7  1  0.756847  0.769791  0.250000  1
  Tm  Tm8  1  0.244591  0.229942  0.750000  1
  Tm  Tm9  1  0.012431  0.770304  0.750000  1
  Ga  Ga10  1  0.602740  0.001073  0.250000  1
  Ga  Ga11  1  0.398356  0.999945  0.750000  1
  Sn  Sn12  1  0.994025  0.602966  0.250000  1
  Sn  Sn13  1  0.390907  0.397698  0.250000  1
  Sn  Sn14  1  0.608047  0.601937  0.750000  1
  Sb  Sb15  1  0.005612  0.395823  0.750000  1
