# generated using pymatgen
data_Ga(S8Br)3
_symmetry_space_group_name_H-M   'P 1'
_cell_length_a   5.26980628
_cell_length_b   15.17884533
_cell_length_c   15.17884113
_cell_angle_alpha   118.60821548
_cell_angle_beta   96.62852263
_cell_angle_gamma   96.62884862
_symmetry_Int_Tables_number   1
_chemical_formula_structural   Ga(S8Br)3
_chemical_formula_sum   'Ga1 S24 Br3'
_cell_volume   1038.30880298
_cell_formula_units_Z   1
loop_
 _symmetry_equiv_pos_site_id
 _symmetry_equiv_pos_as_xyz
  1  'x, y, z'
loop_
 _atom_site_type_symbol
 _atom_site_label
 _atom_site_symmetry_multiplicity
 _atom_site_fract_x
 _atom_site_fract_y
 _atom_site_fract_z
 _atom_site_occupancy
  Ga  Ga0  1  0.942688  0.000020  0.000021  1
  S  S1  1  0.344504  0.401053  0.000178  1
  S  S2  1  0.518479  0.716787  0.999750  1
  S  S3  1  0.254752  0.517476  0.128724  1
  S  S4  1  0.376894  0.739176  0.128571  1
  S  S5  1  0.527431  0.649396  0.180935  1
  S  S6  1  0.638490  0.389873  0.260981  1
  S  S7  1  0.801973  0.283217  0.283215  1
  S  S8  1  0.879395  0.531619  0.350554  1
  S  S9  1  0.127042  0.871269  0.388652  1
  S  S10  1  0.638492  0.260982  0.389873  1
  S  S11  1  0.344510  0.000177  0.401053  1
  S  S12  1  0.347546  0.819026  0.468476  1
  S  S13  1  0.738413  0.611374  0.482450  1
  S  S14  1  0.254752  0.128723  0.517474  1
  S  S15  1  0.879401  0.350557  0.531619  1
  S  S16  1  0.943644  0.598984  0.598983  1
  S  S17  1  0.248365  0.871110  0.610339  1
  S  S18  1  0.738410  0.482451  0.611371  1
  S  S19  1  0.527434  0.180936  0.649394  1
  S  S20  1  0.518483  0.999750  0.716786  1
  S  S21  1  0.376900  0.128572  0.739176  1
  S  S22  1  0.347549  0.468477  0.819027  1
  S  S23  1  0.248365  0.610339  0.871110  1
  S  S24  1  0.127044  0.388653  0.871270  1
  Br  Br25  1  0.994090  0.150865  0.999909  1
  Br  Br26  1  0.994094  0.999909  0.150861  1
  Br  Br27  1  0.846166  0.849255  0.849255  1
