# generated using pymatgen
data_Y2Lu2Co3Os5
_symmetry_space_group_name_H-M   'P 1'
_cell_length_a   5.14396251
_cell_length_b   5.17162111
_cell_length_c   8.72564600
_cell_angle_alpha   90.00036560
_cell_angle_beta   89.97445953
_cell_angle_gamma   120.17727741
_symmetry_Int_Tables_number   1
_chemical_formula_structural   Y2Lu2Co3Os5
_chemical_formula_sum   'Y2 Lu2 Co3 Os5'
_cell_volume   200.66613004
_cell_formula_units_Z   1
loop_
 _symmetry_equiv_pos_site_id
 _symmetry_equiv_pos_as_xyz
  1  'x, y, z'
loop_
 _atom_site_type_symbol
 _atom_site_label
 _atom_site_symmetry_multiplicity
 _atom_site_fract_x
 _atom_site_fract_y
 _atom_site_fract_z
 _atom_site_occupancy
  Y  Y0  1  0.328037  0.664026  0.436143  1
  Y  Y1  1  0.661721  0.330847  0.568919  1
  Lu  Lu2  1  0.661925  0.330920  0.934271  1
  Lu  Lu3  1  0.328911  0.664445  0.061413  1
  Co  Co4  1  0.181602  0.346032  0.753570  1
  Co  Co5  1  0.181632  0.835593  0.753576  1
  Co  Co6  1  0.346032  0.173038  0.246325  1
  Os  Os7  1  0.833699  0.661146  0.246778  1
  Os  Os8  1  0.667430  0.833692  0.752695  1
  Os  Os9  1  0.989696  0.994866  0.994542  1
  Os  Os10  1  0.833696  0.172571  0.246779  1
  Os  Os11  1  0.985621  0.992825  0.504989  1
