# generated using pymatgen
data_K2CdSi3Se8
_symmetry_space_group_name_H-M   'P 1'
_cell_length_a   7.75885600
_cell_length_b   13.29836100
_cell_length_c   17.76399400
_cell_angle_alpha   90.00000000
_cell_angle_beta   90.00000000
_cell_angle_gamma   90.00000000
_symmetry_Int_Tables_number   1
_chemical_formula_structural   K2CdSi3Se8
_chemical_formula_sum   'K8 Cd4 Si12 Se32'
_cell_volume   1832.89010949
_cell_formula_units_Z   4
loop_
 _symmetry_equiv_pos_site_id
 _symmetry_equiv_pos_as_xyz
  1  'x, y, z'
loop_
 _atom_site_type_symbol
 _atom_site_label
 _atom_site_symmetry_multiplicity
 _atom_site_fract_x
 _atom_site_fract_y
 _atom_site_fract_z
 _atom_site_occupancy
  K  K0  1  0.740426  0.381672  0.548436  1
  K  K1  1  0.759574  0.618328  0.048436  1
  K  K2  1  0.240426  0.118328  0.451564  1
  K  K3  1  0.259574  0.881672  0.951564  1
  K  K4  1  0.229272  0.235771  0.832755  1
  K  K5  1  0.270728  0.764229  0.332755  1
  K  K6  1  0.729272  0.264229  0.167245  1
  K  K7  1  0.770728  0.735771  0.667245  1
  Cd  Cd8  1  0.525107  0.504604  0.847941  1
  Cd  Cd9  1  0.974893  0.495396  0.347941  1
  Cd  Cd10  1  0.025107  0.995396  0.152059  1
  Cd  Cd11  1  0.474893  0.004604  0.652059  1
  Si  Si12  1  0.465180  0.463514  0.346526  1
  Si  Si13  1  0.034820  0.536486  0.846526  1
  Si  Si14  1  0.965180  0.036486  0.653474  1
  Si  Si15  1  0.534820  0.963514  0.153474  1
  Si  Si16  1  0.266413  0.449737  0.019469  1
  Si  Si17  1  0.233587  0.550263  0.519469  1
  Si  Si18  1  0.766413  0.050263  0.980531  1
  Si  Si19  1  0.733587  0.949737  0.480531  1
  Si  Si20  1  0.268457  0.454417  0.674749  1
  Si  Si21  1  0.231543  0.545583  0.174749  1
  Si  Si22  1  0.768457  0.045583  0.325251  1
  Si  Si23  1  0.731543  0.954417  0.825251  1
  Se  Se24  1  0.503454  0.383001  0.726047  1
  Se  Se25  1  0.996546  0.616999  0.226047  1
  Se  Se26  1  0.003454  0.116999  0.273953  1
  Se  Se27  1  0.496546  0.883001  0.773953  1
  Se  Se28  1  0.988681  0.931520  0.760621  1
  Se  Se29  1  0.511319  0.068480  0.260621  1
  Se  Se30  1  0.488681  0.568480  0.239379  1
  Se  Se31  1  0.011319  0.431520  0.739379  1
  Se  Se32  1  0.734590  0.138212  0.654072  1
  Se  Se33  1  0.765410  0.861788  0.154072  1
  Se  Se34  1  0.234590  0.361788  0.345928  1
  Se  Se35  1  0.265410  0.638212  0.845928  1
  Se  Se36  1  0.206841  0.132444  0.650010  1
  Se  Se37  1  0.293159  0.867556  0.150010  1
  Se  Se38  1  0.706841  0.367556  0.349990  1
  Se  Se39  1  0.793159  0.632444  0.849990  1
  Se  Se40  1  0.012693  0.113664  0.027330  1
  Se  Se41  1  0.487307  0.886336  0.527330  1
  Se  Se42  1  0.512693  0.386336  0.972670  1
  Se  Se43  1  0.987307  0.613664  0.472670  1
  Se  Se44  1  0.980804  0.921904  0.551771  1
  Se  Se45  1  0.519196  0.078096  0.051771  1
  Se  Se46  1  0.480804  0.578096  0.448229  1
  Se  Se47  1  0.019196  0.421904  0.948229  1
  Se  Se48  1  0.217007  0.382044  0.556972  1
  Se  Se49  1  0.282993  0.617956  0.056972  1
  Se  Se50  1  0.717007  0.117956  0.443028  1
  Se  Se51  1  0.782993  0.882044  0.943028  1
  Se  Se52  1  0.203224  0.378767  0.135994  1
  Se  Se53  1  0.296776  0.621233  0.635994  1
  Se  Se54  1  0.703224  0.121233  0.864006  1
  Se  Se55  1  0.796776  0.878767  0.364006  1
