# generated using pymatgen
data_TmPa2(Ga2Co3)3
_symmetry_space_group_name_H-M   'P 1'
_cell_length_a   4.16415800
_cell_length_b   8.54967265
_cell_length_c   8.54886470
_cell_angle_alpha   60.00421340
_cell_angle_beta   90.00000000
_cell_angle_gamma   90.00000000
_symmetry_Int_Tables_number   1
_chemical_formula_structural   TmPa2(Ga2Co3)3
_chemical_formula_sum   'Tm1 Pa2 Ga6 Co9'
_cell_volume   263.59319775
_cell_formula_units_Z   1
loop_
 _symmetry_equiv_pos_site_id
 _symmetry_equiv_pos_as_xyz
  1  'x, y, z'
loop_
 _atom_site_type_symbol
 _atom_site_label
 _atom_site_symmetry_multiplicity
 _atom_site_fract_x
 _atom_site_fract_y
 _atom_site_fract_z
 _atom_site_occupancy
  Tm  Tm0  1  0.500000  0.666599  0.666820  1
  Pa  Pa1  1  0.500000  0.333565  0.333509  1
  Pa  Pa2  1  0.000000  0.000167  0.000081  1
  Ga  Ga3  1  0.000000  0.499460  0.507061  1
  Ga  Ga4  1  0.000000  0.507085  0.993496  1
  Ga  Ga5  1  0.000000  0.993544  0.499381  1
  Ga  Ga6  1  0.500000  0.728458  0.278779  1
  Ga  Ga7  1  0.500000  0.278694  0.992788  1
  Ga  Ga8  1  0.500000  0.992521  0.728444  1
  Co  Co9  1  0.000000  0.182310  0.176051  1
  Co  Co10  1  0.000000  0.175789  0.642206  1
  Co  Co11  1  0.000000  0.641942  0.182112  1
  Co  Co12  1  0.000000  0.825757  0.830734  1
  Co  Co13  1  0.000000  0.343686  0.825727  1
  Co  Co14  1  0.000000  0.830722  0.343501  1
  Co  Co15  1  0.500000  0.310250  0.675538  1
  Co  Co16  1  0.500000  0.675903  0.013652  1
  Co  Co17  1  0.500000  0.013450  0.310220  1
