# generated using pymatgen
data_La16Mg4NiOs3
_symmetry_space_group_name_H-M   'P 1'
_cell_length_a   10.07259391
_cell_length_b   10.20209415
_cell_length_c   10.20209500
_cell_angle_alpha   60.00000048
_cell_angle_beta   59.57378535
_cell_angle_gamma   59.57378623
_symmetry_Int_Tables_number   1
_chemical_formula_structural   La16Mg4NiOs3
_chemical_formula_sum   'La16 Mg4 Ni1 Os3'
_cell_volume   736.50711556
_cell_formula_units_Z   1
loop_
 _symmetry_equiv_pos_site_id
 _symmetry_equiv_pos_as_xyz
  1  'x, y, z'
loop_
 _atom_site_type_symbol
 _atom_site_label
 _atom_site_symmetry_multiplicity
 _atom_site_fract_x
 _atom_site_fract_y
 _atom_site_fract_z
 _atom_site_occupancy
  La  La0  1  0.594600  0.594244  0.594244  1
  La  La1  1  0.594600  0.594244  0.216912  1
  La  La2  1  0.594600  0.216912  0.594244  1
  La  La3  1  0.219391  0.593536  0.593536  1
  La  La4  1  0.063524  0.437756  0.437756  1
  La  La5  1  0.437574  0.063051  0.063051  1
  La  La6  1  0.437574  0.063051  0.436324  1
  La  La7  1  0.063524  0.437756  0.060964  1
  La  La8  1  0.437574  0.436324  0.063051  1
  La  La9  1  0.063524  0.060964  0.437756  1
  La  La10  1  0.190193  0.809625  0.809625  1
  La  La11  1  0.806141  0.189626  0.189626  1
  La  La12  1  0.806141  0.189626  0.814607  1
  La  La13  1  0.190193  0.809625  0.190557  1
  La  La14  1  0.806141  0.814607  0.189626  1
  La  La15  1  0.190193  0.190557  0.809625  1
  Mg  Mg16  1  0.827888  0.829125  0.829125  1
  Mg  Mg17  1  0.827888  0.829125  0.513863  1
  Mg  Mg18  1  0.827888  0.513863  0.829125  1
  Mg  Mg19  1  0.513615  0.828795  0.828795  1
  Ni  Ni20  1  0.832590  0.389136  0.389136  1
  Os  Os21  1  0.391548  0.387471  0.387471  1
  Os  Os22  1  0.391548  0.387471  0.833508  1
  Os  Os23  1  0.391548  0.833508  0.387471  1
