# generated using pymatgen
data_Ta4V6GeRh
_symmetry_space_group_name_H-M   'P 1'
_cell_length_a   4.99712000
_cell_length_b   4.99711975
_cell_length_c   8.40145800
_cell_angle_alpha   90.00000000
_cell_angle_beta   90.00000000
_cell_angle_gamma   120.00001489
_symmetry_Int_Tables_number   1
_chemical_formula_structural   Ta4V6GeRh
_chemical_formula_sum   'Ta4 V6 Ge1 Rh1'
_cell_volume   181.68738019
_cell_formula_units_Z   1
loop_
 _symmetry_equiv_pos_site_id
 _symmetry_equiv_pos_as_xyz
  1  'x, y, z'
loop_
 _atom_site_type_symbol
 _atom_site_label
 _atom_site_symmetry_multiplicity
 _atom_site_fract_x
 _atom_site_fract_y
 _atom_site_fract_z
 _atom_site_occupancy
  Ta  Ta0  1  0.333333  0.666667  0.436928  1
  Ta  Ta1  1  0.666667  0.333333  0.563072  1
  Ta  Ta2  1  0.666667  0.333333  0.936038  1
  Ta  Ta3  1  0.333333  0.666667  0.063962  1
  V  V4  1  0.827911  0.172089  0.251176  1
  V  V5  1  0.827911  0.655822  0.251176  1
  V  V6  1  0.344178  0.172089  0.251176  1
  V  V7  1  0.172089  0.827911  0.748824  1
  V  V8  1  0.172089  0.344178  0.748824  1
  V  V9  1  0.655822  0.827911  0.748824  1
  Ge  Ge10  1  0.000000  0.000000  0.000000  1
  Rh  Rh11  1  0.000000  0.000000  0.500000  1
