# generated using pymatgen
data_La4ScP12Ru19
_symmetry_space_group_name_H-M   'P 1'
_cell_length_a   12.64524400
_cell_length_b   12.64524440
_cell_length_c   4.02478700
_cell_angle_alpha   90.00000000
_cell_angle_beta   90.00000000
_cell_angle_gamma   119.99999896
_symmetry_Int_Tables_number   1
_chemical_formula_structural   La4ScP12Ru19
_chemical_formula_sum   'La4 Sc1 P12 Ru19'
_cell_volume   557.34996615
_cell_formula_units_Z   1
loop_
 _symmetry_equiv_pos_site_id
 _symmetry_equiv_pos_as_xyz
  1  'x, y, z'
loop_
 _atom_site_type_symbol
 _atom_site_label
 _atom_site_symmetry_multiplicity
 _atom_site_fract_x
 _atom_site_fract_y
 _atom_site_fract_z
 _atom_site_occupancy
  La  La0  1  0.817293  0.001371  0.500000  1
  La  La1  1  0.998629  0.815921  0.500000  1
  La  La2  1  0.184079  0.182707  0.500000  1
  La  La3  1  0.666667  0.333333  0.000000  1
  Sc  Sc4  1  0.333333  0.666667  0.000000  1
  P  P5  1  0.188466  0.996315  0.000000  1
  P  P6  1  0.003685  0.192151  0.000000  1
  P  P7  1  0.807849  0.811534  0.000000  1
  P  P8  1  0.518311  0.697229  0.500000  1
  P  P9  1  0.302771  0.821082  0.500000  1
  P  P10  1  0.178918  0.481689  0.500000  1
  P  P11  1  0.474524  0.169322  0.500000  1
  P  P12  1  0.694798  0.525476  0.500000  1
  P  P13  1  0.830678  0.305202  0.500000  1
  P  P14  1  0.625120  0.000929  0.000000  1
  P  P15  1  0.999071  0.624190  0.000000  1
  P  P16  1  0.375810  0.374880  0.000000  1
  Ru  Ru17  1  0.445479  0.999524  0.000000  1
  Ru  Ru18  1  0.000476  0.445955  0.000000  1
  Ru  Ru19  1  0.554045  0.554521  0.000000  1
  Ru  Ru20  1  0.286218  0.995830  0.500000  1
  Ru  Ru21  1  0.004170  0.290388  0.500000  1
  Ru  Ru22  1  0.709612  0.713782  0.500000  1
  Ru  Ru23  1  0.614529  0.803524  0.000000  1
  Ru  Ru24  1  0.196476  0.811006  0.000000  1
  Ru  Ru25  1  0.188994  0.385471  0.000000  1
  Ru  Ru26  1  0.378242  0.182384  0.000000  1
  Ru  Ru27  1  0.804142  0.621758  0.000000  1
  Ru  Ru28  1  0.817616  0.195858  0.000000  1
  Ru  Ru29  1  0.501538  0.871753  0.500000  1
  Ru  Ru30  1  0.128247  0.629786  0.500000  1
  Ru  Ru31  1  0.370214  0.498462  0.500000  1
  Ru  Ru32  1  0.489699  0.366989  0.500000  1
  Ru  Ru33  1  0.877290  0.510301  0.500000  1
  Ru  Ru34  1  0.633011  0.122710  0.500000  1
  Ru  Ru35  1  0.000000  0.000000  0.000000  1
