# generated using pymatgen
data_Rb6YTlF12
_symmetry_space_group_name_H-M   'P 1'
_cell_length_a   6.90090854
_cell_length_b   6.65939947
_cell_length_c   11.57599800
_cell_angle_alpha   55.21575304
_cell_angle_beta   90.02264961
_cell_angle_gamma   89.96932615
_symmetry_Int_Tables_number   1
_chemical_formula_structural   Rb6YTlF12
_chemical_formula_sum   'Rb6 Y1 Tl1 F12'
_cell_volume   436.92269643
_cell_formula_units_Z   1
loop_
 _symmetry_equiv_pos_site_id
 _symmetry_equiv_pos_as_xyz
  1  'x, y, z'
loop_
 _atom_site_type_symbol
 _atom_site_label
 _atom_site_symmetry_multiplicity
 _atom_site_fract_x
 _atom_site_fract_y
 _atom_site_fract_z
 _atom_site_occupancy
  Rb  Rb0  1  0.500000  0.500000  0.000000  1
  Rb  Rb1  1  0.000000  0.500000  0.500000  1
  Rb  Rb2  1  0.050373  0.733645  0.753104  1
  Rb  Rb3  1  0.949627  0.266355  0.246896  1
  Rb  Rb4  1  0.550211  0.266699  0.747083  1
  Rb  Rb5  1  0.449789  0.733301  0.252917  1
  Y  Y6  1  0.000000  0.000000  0.000000  1
  Tl  Tl7  1  0.500000  0.000000  0.500000  1
  F  F8  1  0.765377  0.771965  0.565188  1
  F  F9  1  0.234623  0.228035  0.434812  1
  F  F10  1  0.263967  0.227122  0.935865  1
  F  F11  1  0.736033  0.772878  0.064135  1
  F  F12  1  0.448628  0.887539  0.718166  1
  F  F13  1  0.551372  0.112461  0.281834  1
  F  F14  1  0.949545  0.112428  0.782804  1
  F  F15  1  0.050455  0.887572  0.217196  1
  F  F16  1  0.328894  0.680527  0.547662  1
  F  F17  1  0.671106  0.319473  0.452338  1
  F  F18  1  0.828742  0.316892  0.953291  1
  F  F19  1  0.171258  0.683108  0.046709  1
