# generated using pymatgen
data_Ta4Ni4MoP4
_symmetry_space_group_name_H-M   'P 1'
_cell_length_a   7.20480011
_cell_length_b   7.20480028
_cell_length_c   7.20480017
_cell_angle_alpha   93.45655762
_cell_angle_beta   93.45656254
_cell_angle_gamma   151.57207873
_symmetry_Int_Tables_number   1
_chemical_formula_structural   Ta4Ni4MoP4
_chemical_formula_sum   'Ta4 Ni4 Mo1 P4'
_cell_volume   172.59072624
_cell_formula_units_Z   1
loop_
 _symmetry_equiv_pos_site_id
 _symmetry_equiv_pos_as_xyz
  1  'x, y, z'
loop_
 _atom_site_type_symbol
 _atom_site_label
 _atom_site_symmetry_multiplicity
 _atom_site_fract_x
 _atom_site_fract_y
 _atom_site_fract_z
 _atom_site_occupancy
  Ta  Ta0  1  0.870150  0.195863  0.066013  1
  Ta  Ta1  1  0.129850  0.804137  0.933987  1
  Ta  Ta2  1  0.195863  0.129850  0.325714  1
  Ta  Ta3  1  0.804137  0.870150  0.674286  1
  Ni  Ni4  1  0.610489  0.087820  0.698309  1
  Ni  Ni5  1  0.389511  0.912180  0.301691  1
  Ni  Ni6  1  0.087820  0.389511  0.477329  1
  Ni  Ni7  1  0.912180  0.610489  0.522671  1
  Mo  Mo8  1  0.500000  0.500000  0.000000  1
  P  P9  1  0.756266  0.443952  0.200218  1
  P  P10  1  0.243734  0.556048  0.799782  1
  P  P11  1  0.443952  0.243734  0.687687  1
  P  P12  1  0.556048  0.756266  0.312313  1
