# generated using pymatgen
data_Sc6Cu3Os2Au
_symmetry_space_group_name_H-M   'P 1'
_cell_length_a   4.64150600
_cell_length_b   6.48132200
_cell_length_c   13.91011100
_cell_angle_alpha   90.00000000
_cell_angle_beta   90.00007405
_cell_angle_gamma   90.00000000
_symmetry_Int_Tables_number   1
_chemical_formula_structural   Sc6Cu3Os2Au
_chemical_formula_sum   'Sc12 Cu6 Os4 Au2'
_cell_volume   418.45918999
_cell_formula_units_Z   2
loop_
 _symmetry_equiv_pos_site_id
 _symmetry_equiv_pos_as_xyz
  1  'x, y, z'
loop_
 _atom_site_type_symbol
 _atom_site_label
 _atom_site_symmetry_multiplicity
 _atom_site_fract_x
 _atom_site_fract_y
 _atom_site_fract_z
 _atom_site_occupancy
  Sc  Sc0  1  0.500005  0.253981  0.008225  1
  Sc  Sc1  1  0.500005  0.746019  0.008225  1
  Sc  Sc2  1  0.999970  0.250367  0.168183  1
  Sc  Sc3  1  0.999970  0.749633  0.168183  1
  Sc  Sc4  1  0.499997  0.249624  0.331821  1
  Sc  Sc5  1  0.499997  0.750376  0.331821  1
  Sc  Sc6  1  0.999997  0.246029  0.491773  1
  Sc  Sc7  1  0.999997  0.753971  0.491773  1
  Sc  Sc8  1  0.500005  0.242827  0.658823  1
  Sc  Sc9  1  0.500005  0.757173  0.658823  1
  Sc  Sc10  1  0.000032  0.257176  0.841155  1
  Sc  Sc11  1  0.000032  0.742824  0.841155  1
  Cu  Cu12  1  0.000006  0.000000  0.006828  1
  Cu  Cu13  1  0.499896  0.500000  0.169651  1
  Cu  Cu14  1  0.999999  0.000000  0.330402  1
  Cu  Cu15  1  0.499979  0.500000  0.493188  1
  Cu  Cu16  1  0.000000  0.000000  0.660375  1
  Cu  Cu17  1  0.500097  0.500000  0.839653  1
  Os  Os18  1  0.000008  0.500000  0.000075  1
  Os  Os19  1  0.499982  0.000000  0.167489  1
  Os  Os20  1  0.000000  0.500000  0.332487  1
  Os  Os21  1  0.500001  0.000000  0.499915  1
  Au  Au22  1  0.999999  0.500000  0.665764  1
  Au  Au23  1  0.500019  0.000000  0.834211  1
