# generated using pymatgen
data_Tb3Dy4RhI12
_symmetry_space_group_name_H-M   'P 1'
_cell_length_a   9.83134479
_cell_length_b   9.83134541
_cell_length_c   9.83134520
_cell_angle_alpha   106.93359709
_cell_angle_beta   106.93359931
_cell_angle_gamma   106.93359935
_symmetry_Int_Tables_number   1
_chemical_formula_structural   Tb3Dy4RhI12
_chemical_formula_sum   'Tb3 Dy4 Rh1 I12'
_cell_volume   792.80812558
_cell_formula_units_Z   1
loop_
 _symmetry_equiv_pos_site_id
 _symmetry_equiv_pos_as_xyz
  1  'x, y, z'
loop_
 _atom_site_type_symbol
 _atom_site_label
 _atom_site_symmetry_multiplicity
 _atom_site_fract_x
 _atom_site_fract_y
 _atom_site_fract_z
 _atom_site_occupancy
  Tb  Tb0  1  0.094443  0.022114  0.295946  1
  Tb  Tb1  1  0.022114  0.295946  0.094443  1
  Tb  Tb2  1  0.295946  0.094443  0.022114  1
  Dy  Dy3  1  0.499775  0.499775  0.499775  1
  Dy  Dy4  1  0.905568  0.977422  0.705672  1
  Dy  Dy5  1  0.977422  0.705672  0.905568  1
  Dy  Dy6  1  0.705672  0.905568  0.977422  1
  Rh  Rh7  1  0.999955  0.999955  0.999955  1
  I  I8  1  0.537122  0.836716  0.613576  1
  I  I9  1  0.836716  0.613576  0.537122  1
  I  I10  1  0.613576  0.537122  0.836716  1
  I  I11  1  0.463707  0.163292  0.386912  1
  I  I12  1  0.163292  0.386912  0.463707  1
  I  I13  1  0.386912  0.463707  0.163292  1
  I  I14  1  0.675247  0.223591  0.070191  1
  I  I15  1  0.223591  0.070191  0.675247  1
  I  I16  1  0.070191  0.675247  0.223591  1
  I  I17  1  0.324523  0.774793  0.929434  1
  I  I18  1  0.774793  0.929434  0.324523  1
  I  I19  1  0.929434  0.324523  0.774793  1
