# generated using pymatgen
data_Yb11Lu(SiIr)8
_symmetry_space_group_name_H-M   'P 1'
_cell_length_a   5.70095703
_cell_length_b   7.59640346
_cell_length_c   13.32157097
_cell_angle_alpha   89.84390955
_cell_angle_beta   90.37160658
_cell_angle_gamma   90.45290532
_symmetry_Int_Tables_number   1
_chemical_formula_structural   Yb11Lu(SiIr)8
_chemical_formula_sum   'Yb11 Lu1 Si8 Ir8'
_cell_volume   576.88198749
_cell_formula_units_Z   1
loop_
 _symmetry_equiv_pos_site_id
 _symmetry_equiv_pos_as_xyz
  1  'x, y, z'
loop_
 _atom_site_type_symbol
 _atom_site_label
 _atom_site_symmetry_multiplicity
 _atom_site_fract_x
 _atom_site_fract_y
 _atom_site_fract_z
 _atom_site_occupancy
  Yb  Yb0  1  0.628411  0.235409  0.250912  1
  Yb  Yb1  1  0.367556  0.767861  0.749706  1
  Yb  Yb2  1  0.366022  0.731509  0.250898  1
  Yb  Yb3  1  0.637242  0.269639  0.749910  1
  Yb  Yb4  1  0.135568  0.393395  0.097579  1
  Yb  Yb5  1  0.864853  0.605027  0.900215  1
  Yb  Yb6  1  0.863058  0.607809  0.597753  1
  Yb  Yb7  1  0.856737  0.895612  0.401388  1
  Yb  Yb8  1  0.136765  0.393141  0.401727  1
  Yb  Yb9  1  0.137605  0.106243  0.597946  1
  Yb  Yb10  1  0.144375  0.105499  0.901238  1
  Lu  Lu11  1  0.854273  0.891475  0.099246  1
  Si  Si12  1  0.144056  0.076441  0.247873  1
  Si  Si13  1  0.848338  0.918790  0.750639  1
  Si  Si14  1  0.848433  0.591042  0.249888  1
  Si  Si15  1  0.157103  0.415617  0.749575  1
  Si  Si16  1  0.593972  0.249720  0.003379  1
  Si  Si17  1  0.407937  0.747665  0.998263  1
  Si  Si18  1  0.408265  0.749902  0.499199  1
  Si  Si19  1  0.589543  0.250362  0.499733  1
  Ir  Ir20  1  0.356048  0.021334  0.092209  1
  Ir  Ir21  1  0.650229  0.972745  0.911259  1
  Ir  Ir22  1  0.637572  0.974041  0.592937  1
  Ir  Ir23  1  0.639584  0.527644  0.407339  1
  Ir  Ir24  1  0.355146  0.027096  0.407236  1
  Ir  Ir25  1  0.362337  0.472909  0.592223  1
  Ir  Ir26  1  0.363828  0.469550  0.907884  1
  Ir  Ir27  1  0.645143  0.532525  0.091844  1
