# generated using pymatgen
data_NbMo(PO4)3
_symmetry_space_group_name_H-M   'P 1'
_cell_length_a   8.79095557
_cell_length_b   8.79177146
_cell_length_c   9.08347309
_cell_angle_alpha   89.66076180
_cell_angle_beta   61.05099837
_cell_angle_gamma   119.60467618
_symmetry_Int_Tables_number   1
_chemical_formula_structural   NbMo(PO4)3
_chemical_formula_sum   'Nb2 Mo2 P6 O24'
_cell_volume   505.66615558
_cell_formula_units_Z   2
loop_
 _symmetry_equiv_pos_site_id
 _symmetry_equiv_pos_as_xyz
  1  'x, y, z'
loop_
 _atom_site_type_symbol
 _atom_site_label
 _atom_site_symmetry_multiplicity
 _atom_site_fract_x
 _atom_site_fract_y
 _atom_site_fract_z
 _atom_site_occupancy
  Nb  Nb0  1  0.783262  0.140871  0.075394  1
  Nb  Nb1  1  0.785348  0.642787  0.573471  1
  Mo  Mo2  1  0.208244  0.354853  0.433787  1
  Mo  Mo3  1  0.212617  0.857739  0.931540  1
  P  P4  1  0.283224  0.032839  0.251289  1
  P  P5  1  0.717623  0.749343  0.247877  1
  P  P6  1  0.284974  0.251298  0.751641  1
  P  P7  1  0.715170  0.966707  0.750149  1
  P  P8  1  0.003510  0.535961  0.747707  1
  P  P9  1  0.995608  0.462938  0.251922  1
  O  O10  1  0.487099  0.062772  0.223724  1
  O  O11  1  0.865220  0.362589  0.912510  1
  O  O12  1  0.892924  0.136798  0.586386  1
  O  O13  1  0.846788  0.548943  0.720937  1
  O  O14  1  0.125399  0.625015  0.084770  1
  O  O15  1  0.092579  0.855547  0.413975  1
  O  O16  1  0.146205  0.440758  0.273921  1
  O  O17  1  0.137520  0.711686  0.771660  1
  O  O18  1  0.149059  0.514077  0.579228  1
  O  O19  1  0.283613  0.203173  0.285418  1
  O  O20  1  0.286775  0.014624  0.084005  1
  O  O21  1  0.712502  0.922654  0.224580  1
  O  O22  1  0.523935  0.578336  0.275382  1
  O  O23  1  0.274722  0.272178  0.590240  1
  O  O24  1  0.851097  0.491254  0.417145  1
  O  O25  1  0.087951  0.222256  0.920414  1
  O  O26  1  0.913670  0.785853  0.075408  1
  O  O27  1  0.505442  0.915073  0.782226  1
  O  O28  1  0.735745  0.734948  0.408935  1
  O  O29  1  0.483119  0.433164  0.720764  1
  O  O30  1  0.305131  0.091005  0.772193  1
  O  O31  1  0.723535  0.997611  0.915136  1
  O  O32  1  0.730830  0.798584  0.718920  1
  O  O33  1  0.849561  0.285768  0.227348  1
