# generated using pymatgen
data_Pr8LuSc11Si15Se
_symmetry_space_group_name_H-M   'P 1'
_cell_length_a   7.28357599
_cell_length_b   7.60781917
_cell_length_c   14.21495697
_cell_angle_alpha   89.88470231
_cell_angle_beta   90.03911940
_cell_angle_gamma   90.85990008
_symmetry_Int_Tables_number   1
_chemical_formula_structural   Pr8LuSc11Si15Se
_chemical_formula_sum   'Pr8 Lu1 Sc11 Si15 Se1'
_cell_volume   787.59055941
_cell_formula_units_Z   1
loop_
 _symmetry_equiv_pos_site_id
 _symmetry_equiv_pos_as_xyz
  1  'x, y, z'
loop_
 _atom_site_type_symbol
 _atom_site_label
 _atom_site_symmetry_multiplicity
 _atom_site_fract_x
 _atom_site_fract_y
 _atom_site_fract_z
 _atom_site_occupancy
  Pr  Pr0  1  0.012250  0.173684  0.401958  1
  Pr  Pr1  1  0.512878  0.325599  0.400586  1
  Pr  Pr2  1  0.496170  0.665073  0.907681  1
  Pr  Pr3  1  0.496326  0.665066  0.593222  1
  Pr  Pr4  1  0.988928  0.827864  0.600487  1
  Pr  Pr5  1  0.990831  0.829556  0.900188  1
  Pr  Pr6  1  0.511728  0.325848  0.098200  1
  Pr  Pr7  1  0.012515  0.174305  0.097677  1
  Lu  Lu8  1  0.322991  0.174518  0.625924  1
  Sc  Sc9  1  0.671620  0.825417  0.373133  1
  Sc  Sc10  1  0.666361  0.999131  0.750914  1
  Sc  Sc11  1  0.170991  0.675686  0.374013  1
  Sc  Sc12  1  0.823288  0.329406  0.877627  1
  Sc  Sc13  1  0.823490  0.328236  0.623852  1
  Sc  Sc14  1  0.841350  0.502832  0.249709  1
  Sc  Sc15  1  0.341499  0.996901  0.249571  1
  Sc  Sc16  1  0.324740  0.175245  0.873825  1
  Sc  Sc17  1  0.170481  0.675966  0.124961  1
  Sc  Sc18  1  0.671480  0.826193  0.126062  1
  Sc  Sc19  1  0.154836  0.492621  0.751484  1
  Si  Si20  1  0.465885  0.624194  0.249551  1
  Si  Si21  1  0.010927  0.148132  0.752200  1
  Si  Si22  1  0.531309  0.375939  0.751906  1
  Si  Si23  1  0.147749  0.468625  0.540116  1
  Si  Si24  1  0.969051  0.874804  0.249576  1
  Si  Si25  1  0.711723  0.117112  0.249729  1
  Si  Si26  1  0.848070  0.539490  0.040872  1
  Si  Si27  1  0.348348  0.963595  0.038181  1
  Si  Si28  1  0.151331  0.465281  0.959073  1
  Si  Si29  1  0.653545  0.033755  0.539819  1
  Si  Si30  1  0.350053  0.960909  0.458950  1
  Si  Si31  1  0.847832  0.539217  0.459149  1
  Si  Si32  1  0.789705  0.620348  0.750626  1
  Si  Si33  1  0.211863  0.384802  0.249633  1
  Si  Si34  1  0.648918  0.035055  0.958901  1
  Se  Se35  1  0.308936  0.859592  0.750645  1
