# generated using pymatgen
data_Ho6Er4Si5Sn
_symmetry_space_group_name_H-M   'P 1'
_cell_length_a   8.45912400
_cell_length_b   8.48614942
_cell_length_c   6.33336300
_cell_angle_alpha   90.00000000
_cell_angle_beta   90.00000000
_cell_angle_gamma   119.89470840
_symmetry_Int_Tables_number   1
_chemical_formula_structural   Ho6Er4Si5Sn
_chemical_formula_sum   'Ho6 Er4 Si5 Sn1'
_cell_volume   394.14941108
_cell_formula_units_Z   1
loop_
 _symmetry_equiv_pos_site_id
 _symmetry_equiv_pos_as_xyz
  1  'x, y, z'
loop_
 _atom_site_type_symbol
 _atom_site_label
 _atom_site_symmetry_multiplicity
 _atom_site_fract_x
 _atom_site_fract_y
 _atom_site_fract_z
 _atom_site_occupancy
  Ho  Ho0  1  0.989684  0.749239  0.750000  1
  Ho  Ho1  1  0.998291  0.242120  0.250000  1
  Ho  Ho2  1  0.756172  0.757880  0.250000  1
  Ho  Ho3  1  0.765867  0.000000  0.750000  1
  Ho  Ho4  1  0.240445  0.250761  0.750000  1
  Ho  Ho5  1  0.241034  0.000000  0.250000  1
  Er  Er6  1  0.331309  0.657477  0.497029  1
  Er  Er7  1  0.673833  0.342523  0.002971  1
  Er  Er8  1  0.673833  0.342523  0.497029  1
  Er  Er9  1  0.331309  0.657477  0.002971  1
  Si  Si10  1  0.393441  0.391995  0.250000  1
  Si  Si11  1  0.001445  0.608005  0.250000  1
  Si  Si12  1  0.998584  0.394307  0.750000  1
  Si  Si13  1  0.604277  0.605693  0.750000  1
  Si  Si14  1  0.604961  0.000000  0.250000  1
  Sn  Sn15  1  0.395519  0.000000  0.750000  1
