# generated using pymatgen
data_V6Fe2Si4C
_symmetry_space_group_name_H-M   'P 1'
_cell_length_a   7.55307094
_cell_length_b   7.55307049
_cell_length_c   7.55307000
_cell_angle_alpha   59.99999341
_cell_angle_beta   59.99999534
_cell_angle_gamma   60.00000002
_symmetry_Int_Tables_number   1
_chemical_formula_structural   V6Fe2Si4C
_chemical_formula_sum   'V12 Fe4 Si8 C2'
_cell_volume   304.68815885
_cell_formula_units_Z   2
loop_
 _symmetry_equiv_pos_site_id
 _symmetry_equiv_pos_as_xyz
  1  'x, y, z'
loop_
 _atom_site_type_symbol
 _atom_site_label
 _atom_site_symmetry_multiplicity
 _atom_site_fract_x
 _atom_site_fract_y
 _atom_site_fract_z
 _atom_site_occupancy
  V  V0  1  0.305818  0.694182  0.694182  1
  V  V1  1  0.305818  0.305818  0.694182  1
  V  V2  1  0.555818  0.944182  0.555818  1
  V  V3  1  0.944182  0.555818  0.555818  1
  V  V4  1  0.555818  0.944182  0.944182  1
  V  V5  1  0.694182  0.305818  0.305818  1
  V  V6  1  0.944182  0.555818  0.944182  1
  V  V7  1  0.305818  0.694182  0.305818  1
  V  V8  1  0.555818  0.555818  0.944182  1
  V  V9  1  0.694182  0.305818  0.694182  1
  V  V10  1  0.694182  0.694182  0.305818  1
  V  V11  1  0.944182  0.944182  0.555818  1
  Fe  Fe12  1  0.125000  0.125000  0.625000  1
  Fe  Fe13  1  0.125000  0.625000  0.125000  1
  Fe  Fe14  1  0.125000  0.125000  0.125000  1
  Fe  Fe15  1  0.625000  0.125000  0.125000  1
  Si  Si16  1  0.912815  0.261556  0.912815  1
  Si  Si17  1  0.337185  0.988444  0.337185  1
  Si  Si18  1  0.337185  0.337185  0.337185  1
  Si  Si19  1  0.988444  0.337185  0.337185  1
  Si  Si20  1  0.912815  0.912815  0.261556  1
  Si  Si21  1  0.261556  0.912815  0.912815  1
  Si  Si22  1  0.337185  0.337185  0.988444  1
  Si  Si23  1  0.912815  0.912815  0.912815  1
  C  C24  1  0.750000  0.750000  0.750000  1
  C  C25  1  0.500000  0.500000  0.500000  1
