# generated using pymatgen
data_TbCe2HoAl24(Pd2Pt)3
_symmetry_space_group_name_H-M   'P 1'
_cell_length_a   7.53904659
_cell_length_b   7.55221028
_cell_length_c   13.14488300
_cell_angle_alpha   84.50173986
_cell_angle_beta   78.93997627
_cell_angle_gamma   59.94089814
_symmetry_Int_Tables_number   1
_chemical_formula_structural   TbCe2HoAl24(Pd2Pt)3
_chemical_formula_sum   'Tb1 Ce2 Ho1 Al24 Pd6 Pt3'
_cell_volume   635.73595476
_cell_formula_units_Z   1
loop_
 _symmetry_equiv_pos_site_id
 _symmetry_equiv_pos_as_xyz
  1  'x, y, z'
loop_
 _atom_site_type_symbol
 _atom_site_label
 _atom_site_symmetry_multiplicity
 _atom_site_fract_x
 _atom_site_fract_y
 _atom_site_fract_z
 _atom_site_occupancy
  Tb  Tb0  1  0.266339  0.501598  0.191706  1
  Ce  Ce1  1  0.394570  0.167949  0.807681  1
  Ce  Ce2  1  0.605429  0.832000  0.192570  1
  Ho  Ho3  1  0.733784  0.498490  0.807859  1
  Al  Al4  1  0.685638  0.832280  0.945176  1
  Al  Al5  1  0.314973  0.166479  0.055797  1
  Al  Al6  1  0.145201  0.833896  0.561357  1
  Al  Al7  1  0.854679  0.166220  0.438731  1
  Al  Al8  1  0.480682  0.167335  0.558700  1
  Al  Al9  1  0.519506  0.832572  0.440880  1
  Al  Al10  1  0.216069  0.166817  0.331852  1
  Al  Al11  1  0.784587  0.832478  0.667882  1
  Al  Al12  1  0.437272  0.508499  0.668502  1
  Al  Al13  1  0.562969  0.492109  0.331186  1
  Al  Al14  1  0.109906  0.159667  0.667523  1
  Al  Al15  1  0.889355  0.840575  0.332188  1
  Al  Al16  1  0.353067  0.500652  0.944813  1
  Al  Al17  1  0.647387  0.500089  0.055102  1
  Al  Al18  1  0.013817  0.167552  0.954587  1
  Al  Al19  1  0.985299  0.832574  0.045715  1
  Al  Al20  1  0.186113  0.501097  0.441313  1
  Al  Al21  1  0.813732  0.499012  0.558862  1
  Al  Al22  1  0.733820  0.164965  0.183786  1
  Al  Al23  1  0.266832  0.833474  0.816023  1
  Al  Al24  1  0.059540  0.633174  0.814672  1
  Al  Al25  1  0.938622  0.367872  0.185354  1
  Al  Al26  1  0.858572  0.041695  0.816585  1
  Al  Al27  1  0.142252  0.959032  0.183491  1
  Pd  Pd28  1  0.119131  0.493471  0.638137  1
  Pd  Pd29  1  0.880775  0.506315  0.361949  1
  Pd  Pd30  1  0.657477  0.172062  0.999932  1
  Pd  Pd31  1  0.342515  0.828001  0.000121  1
  Pd  Pd32  1  0.537683  0.168218  0.362413  1
  Pd  Pd33  1  0.462506  0.831870  0.637408  1
  Pt  Pt34  1  0.780211  0.174656  0.637472  1
  Pt  Pt35  1  0.219292  0.825623  0.362670  1
  Pt  Pt36  1  0.000398  0.499631  0.000005  1
