# generated using pymatgen
data_LuHf2Zr(Al3Rh)6
_symmetry_space_group_name_H-M   'P 1'
_cell_length_a   7.48176809
_cell_length_b   7.47596228
_cell_length_c   9.28825600
_cell_angle_alpha   90.00000000
_cell_angle_beta   90.00000000
_cell_angle_gamma   119.72846123
_symmetry_Int_Tables_number   1
_chemical_formula_structural   LuHf2Zr(Al3Rh)6
_chemical_formula_sum   'Lu1 Hf2 Zr1 Al18 Rh6'
_cell_volume   451.14690198
_cell_formula_units_Z   1
loop_
 _symmetry_equiv_pos_site_id
 _symmetry_equiv_pos_as_xyz
  1  'x, y, z'
loop_
 _atom_site_type_symbol
 _atom_site_label
 _atom_site_symmetry_multiplicity
 _atom_site_fract_x
 _atom_site_fract_y
 _atom_site_fract_z
 _atom_site_occupancy
  Lu  Lu0  1  0.328644  0.006178  0.750000  1
  Hf  Hf1  1  0.994542  0.672332  0.250000  1
  Hf  Hf2  1  0.671298  0.993859  0.250000  1
  Zr  Zr3  1  0.006034  0.329279  0.750000  1
  Al  Al4  1  0.121908  0.122966  0.250000  1
  Al  Al5  1  0.873117  0.875878  0.750000  1
  Al  Al6  1  0.996560  0.334601  0.077817  1
  Al  Al7  1  0.000910  0.663223  0.925375  1
  Al  Al8  1  0.000910  0.663223  0.574625  1
  Al  Al9  1  0.334965  0.997402  0.419378  1
  Al  Al10  1  0.996560  0.334601  0.422183  1
  Al  Al11  1  0.667305  0.002475  0.574802  1
  Al  Al12  1  0.667305  0.002475  0.925198  1
  Al  Al13  1  0.334965  0.997402  0.080622  1
  Al  Al14  1  0.331322  0.333237  0.555425  1
  Al  Al15  1  0.669068  0.668936  0.439572  1
  Al  Al16  1  0.669068  0.668936  0.060428  1
  Al  Al17  1  0.331322  0.333237  0.944575  1
  Al  Al18  1  0.338092  0.553574  0.250000  1
  Al  Al19  1  0.665356  0.450175  0.750000  1
  Al  Al20  1  0.555637  0.339129  0.250000  1
  Al  Al21  1  0.445416  0.657713  0.750000  1
  Rh  Rh22  1  0.672387  0.327396  0.001530  1
  Rh  Rh23  1  0.328274  0.673906  0.002136  1
  Rh  Rh24  1  0.328274  0.673906  0.497864  1
  Rh  Rh25  1  0.672387  0.327396  0.498470  1
  Rh  Rh26  1  0.999188  0.998285  0.001783  1
  Rh  Rh27  1  0.999188  0.998285  0.498217  1
