# generated using pymatgen
data_Yb4NpMnRu6
_symmetry_space_group_name_H-M   'P 1'
_cell_length_a   5.59035900
_cell_length_b   5.59035883
_cell_length_c   7.92628500
_cell_angle_alpha   90.00000000
_cell_angle_beta   90.00000000
_cell_angle_gamma   119.99999510
_symmetry_Int_Tables_number   1
_chemical_formula_structural   Yb4NpMnRu6
_chemical_formula_sum   'Yb4 Np1 Mn1 Ru6'
_cell_volume   214.52589376
_cell_formula_units_Z   1
loop_
 _symmetry_equiv_pos_site_id
 _symmetry_equiv_pos_as_xyz
  1  'x, y, z'
loop_
 _atom_site_type_symbol
 _atom_site_label
 _atom_site_symmetry_multiplicity
 _atom_site_fract_x
 _atom_site_fract_y
 _atom_site_fract_z
 _atom_site_occupancy
  Yb  Yb0  1  0.333333  0.666667  0.427556  1
  Yb  Yb1  1  0.666667  0.333333  0.572444  1
  Yb  Yb2  1  0.666667  0.333333  0.937903  1
  Yb  Yb3  1  0.333333  0.666667  0.062097  1
  Np  Np4  1  0.000000  0.000000  0.500000  1
  Mn  Mn5  1  0.000000  0.000000  0.000000  1
  Ru  Ru6  1  0.829300  0.170700  0.257694  1
  Ru  Ru7  1  0.829300  0.658598  0.257694  1
  Ru  Ru8  1  0.341402  0.170700  0.257694  1
  Ru  Ru9  1  0.170700  0.829300  0.742306  1
  Ru  Ru10  1  0.170700  0.341402  0.742306  1
  Ru  Ru11  1  0.658598  0.829300  0.742306  1
