# generated using pymatgen
data_Sm5ReRuO12
_symmetry_space_group_name_H-M   'P 1'
_cell_length_a   7.00222947
_cell_length_b   7.00222962
_cell_length_c   7.70537369
_cell_angle_alpha   73.76903439
_cell_angle_beta   73.76903470
_cell_angle_gamma   48.49366349
_symmetry_Int_Tables_number   1
_chemical_formula_structural   Sm5ReRuO12
_chemical_formula_sum   'Sm5 Re1 Ru1 O12'
_cell_volume   269.30860960
_cell_formula_units_Z   1
loop_
 _symmetry_equiv_pos_site_id
 _symmetry_equiv_pos_as_xyz
  1  'x, y, z'
loop_
 _atom_site_type_symbol
 _atom_site_label
 _atom_site_symmetry_multiplicity
 _atom_site_fract_x
 _atom_site_fract_y
 _atom_site_fract_z
 _atom_site_occupancy
  Sm  Sm0  1  0.711644  0.678408  0.644162  1
  Sm  Sm1  1  0.321592  0.288356  0.355838  1
  Sm  Sm2  1  0.691511  0.680069  0.171237  1
  Sm  Sm3  1  0.319931  0.308489  0.828763  1
  Sm  Sm4  1  0.011337  0.988663  0.500000  1
  Re  Re5  1  0.200583  0.799417  0.000000  1
  Ru  Ru6  1  0.766777  0.233223  0.000000  1
  O  O7  1  0.001330  0.000844  0.198274  1
  O  O8  1  0.999156  0.998670  0.801726  1
  O  O9  1  0.571272  0.086650  0.082790  1
  O  O10  1  0.398676  0.911083  0.919048  1
  O  O11  1  0.913350  0.428728  0.917210  1
  O  O12  1  0.088917  0.601324  0.080952  1
  O  O13  1  0.482371  0.516072  0.169323  1
  O  O14  1  0.483928  0.517629  0.830677  1
  O  O15  1  0.411905  0.890337  0.430024  1
  O  O16  1  0.601062  0.085004  0.579040  1
  O  O17  1  0.109663  0.588095  0.569976  1
  O  O18  1  0.914996  0.398938  0.420960  1
