# generated using pymatgen
data_TbTm(WN3)2
_symmetry_space_group_name_H-M   'P 1'
_cell_length_a   7.36101078
_cell_length_b   7.36102627
_cell_length_c   6.26124837
_cell_angle_alpha   73.42437314
_cell_angle_beta   73.42480626
_cell_angle_gamma   81.74381470
_symmetry_Int_Tables_number   1
_chemical_formula_structural   TbTm(WN3)2
_chemical_formula_sum   'Tb2 Tm2 W4 N12'
_cell_volume   310.93732336
_cell_formula_units_Z   2
loop_
 _symmetry_equiv_pos_site_id
 _symmetry_equiv_pos_as_xyz
  1  'x, y, z'
loop_
 _atom_site_type_symbol
 _atom_site_label
 _atom_site_symmetry_multiplicity
 _atom_site_fract_x
 _atom_site_fract_y
 _atom_site_fract_z
 _atom_site_occupancy
  Tb  Tb0  1  0.714213  0.285787  0.250001  1
  Tb  Tb1  1  0.285787  0.714213  0.749999  1
  Tm  Tm2  1  0.910439  0.089567  0.749998  1
  Tm  Tm3  1  0.089561  0.910433  0.250002  1
  W  W4  1  0.620647  0.799256  0.271320  1
  W  W5  1  0.200747  0.379353  0.228678  1
  W  W6  1  0.379353  0.200744  0.728680  1
  W  W7  1  0.799253  0.620647  0.771322  1
  N  N8  1  0.660011  0.628775  0.073410  1
  N  N9  1  0.375125  0.888431  0.329245  1
  N  N10  1  0.371225  0.339988  0.426592  1
  N  N11  1  0.111573  0.624874  0.170748  1
  N  N12  1  0.004012  0.213470  0.349088  1
  N  N13  1  0.786531  0.995989  0.150912  1
  N  N14  1  0.213469  0.004011  0.849088  1
  N  N15  1  0.624875  0.111569  0.670755  1
  N  N16  1  0.339989  0.371225  0.926590  1
  N  N17  1  0.888427  0.375126  0.829252  1
  N  N18  1  0.628775  0.660012  0.573408  1
  N  N19  1  0.995988  0.786530  0.650912  1
