# generated using pymatgen
data_YbSc3Ga2(B2Ir5)2
_symmetry_space_group_name_H-M   'P 1'
_cell_length_a   9.52769627
_cell_length_b   9.52769627
_cell_length_c   3.02873900
_cell_angle_alpha   90.00000000
_cell_angle_beta   90.00000000
_cell_angle_gamma   89.46388537
_symmetry_Int_Tables_number   1
_chemical_formula_structural   YbSc3Ga2(B2Ir5)2
_chemical_formula_sum   'Yb1 Sc3 Ga2 B4 Ir10'
_cell_volume   274.92779305
_cell_formula_units_Z   1
loop_
 _symmetry_equiv_pos_site_id
 _symmetry_equiv_pos_as_xyz
  1  'x, y, z'
loop_
 _atom_site_type_symbol
 _atom_site_label
 _atom_site_symmetry_multiplicity
 _atom_site_fract_x
 _atom_site_fract_y
 _atom_site_fract_z
 _atom_site_occupancy
  Yb  Yb0  1  0.676542  0.176542  0.000000  1
  Sc  Sc1  1  0.322942  0.822942  0.000000  1
  Sc  Sc2  1  0.175773  0.324089  0.000000  1
  Sc  Sc3  1  0.824089  0.675773  0.000000  1
  Ga  Ga4  1  0.996273  0.001502  0.000000  1
  Ga  Ga5  1  0.501502  0.496273  0.000000  1
  B  B6  1  0.125890  0.625890  0.000000  1
  B  B7  1  0.876995  0.376995  0.000000  1
  B  B8  1  0.623994  0.872994  0.000000  1
  B  B9  1  0.372994  0.123994  0.000000  1
  Ir  Ir10  1  0.214573  0.068420  0.500000  1
  Ir  Ir11  1  0.783369  0.921803  0.500000  1
  Ir  Ir12  1  0.070827  0.784338  0.500000  1
  Ir  Ir13  1  0.722127  0.439777  0.500000  1
  Ir  Ir14  1  0.939777  0.222127  0.500000  1
  Ir  Ir15  1  0.284338  0.570827  0.500000  1
  Ir  Ir16  1  0.568420  0.714573  0.500000  1
  Ir  Ir17  1  0.421803  0.283369  0.500000  1
  Ir  Ir18  1  0.494906  0.994906  0.500000  1
  Ir  Ir19  1  0.002867  0.502867  0.500000  1
