# generated using pymatgen
data_Lu3Zr(Al3Ir)6
_symmetry_space_group_name_H-M   'P 1'
_cell_length_a   7.50758358
_cell_length_b   7.49999496
_cell_length_c   9.36053800
_cell_angle_alpha   90.00000000
_cell_angle_beta   90.00000000
_cell_angle_gamma   119.68705350
_symmetry_Int_Tables_number   1
_chemical_formula_structural   Lu3Zr(Al3Ir)6
_chemical_formula_sum   'Lu3 Zr1 Al18 Ir6'
_cell_volume   457.88192380
_cell_formula_units_Z   1
loop_
 _symmetry_equiv_pos_site_id
 _symmetry_equiv_pos_as_xyz
  1  'x, y, z'
loop_
 _atom_site_type_symbol
 _atom_site_label
 _atom_site_symmetry_multiplicity
 _atom_site_fract_x
 _atom_site_fract_y
 _atom_site_fract_z
 _atom_site_occupancy
  Lu  Lu0  1  0.005943  0.328471  0.750000  1
  Lu  Lu1  1  0.670952  0.995801  0.250000  1
  Lu  Lu2  1  0.329392  0.006323  0.750000  1
  Zr  Zr3  1  0.995962  0.670550  0.250000  1
  Al  Al4  1  0.125350  0.122976  0.250000  1
  Al  Al5  1  0.872068  0.871323  0.750000  1
  Al  Al6  1  0.999972  0.336735  0.077863  1
  Al  Al7  1  0.999896  0.665207  0.927772  1
  Al  Al8  1  0.999896  0.665207  0.572228  1
  Al  Al9  1  0.332815  0.998355  0.422018  1
  Al  Al10  1  0.999972  0.336735  0.422137  1
  Al  Al11  1  0.664928  0.999206  0.575060  1
  Al  Al12  1  0.664928  0.999206  0.924940  1
  Al  Al13  1  0.332815  0.998355  0.077982  1
  Al  Al14  1  0.333322  0.333374  0.554684  1
  Al  Al15  1  0.668477  0.667072  0.442504  1
  Al  Al16  1  0.668477  0.667072  0.057496  1
  Al  Al17  1  0.333322  0.333374  0.945316  1
  Al  Al18  1  0.335944  0.549555  0.250000  1
  Al  Al19  1  0.661207  0.451898  0.750000  1
  Al  Al20  1  0.553598  0.342568  0.250000  1
  Al  Al21  1  0.451116  0.660480  0.750000  1
  Ir  Ir22  1  0.672229  0.327387  0.000337  1
  Ir  Ir23  1  0.327960  0.672578  0.000980  1
  Ir  Ir24  1  0.327960  0.672578  0.499020  1
  Ir  Ir25  1  0.672229  0.327387  0.499663  1
  Ir  Ir26  1  0.999634  0.000114  0.000247  1
  Ir  Ir27  1  0.999634  0.000114  0.499753  1
