# generated using pymatgen
data_SrEu(GeAu)2
_symmetry_space_group_name_H-M   'P 1'
_cell_length_a   5.97208281
_cell_length_b   5.97208209
_cell_length_c   5.97208249
_cell_angle_alpha   134.27166460
_cell_angle_beta   102.55402820
_cell_angle_gamma   94.85179823
_symmetry_Int_Tables_number   1
_chemical_formula_structural   SrEu(GeAu)2
_chemical_formula_sum   'Sr1 Eu1 Ge2 Au2'
_cell_volume   140.10166591
_cell_formula_units_Z   1
loop_
 _symmetry_equiv_pos_site_id
 _symmetry_equiv_pos_as_xyz
  1  'x, y, z'
loop_
 _atom_site_type_symbol
 _atom_site_label
 _atom_site_symmetry_multiplicity
 _atom_site_fract_x
 _atom_site_fract_y
 _atom_site_fract_z
 _atom_site_occupancy
  Sr  Sr0  1  0.204029  0.704029  0.500000  1
  Eu  Eu1  1  0.633819  0.633819  0.000000  1
  Ge  Ge2  1  0.646310  0.332235  0.314076  1
  Ge  Ge3  1  0.018159  0.332235  0.685924  1
  Au  Au4  1  0.781976  0.001676  0.780300  1
  Au  Au5  1  0.221376  0.001676  0.219700  1
