# generated using pymatgen
data_PbI16
_symmetry_space_group_name_H-M   'P 1'
_cell_length_a   11.34840400
_cell_length_b   11.34840336
_cell_length_c   17.93416800
_cell_angle_alpha   90.00000000
_cell_angle_beta   90.00000000
_cell_angle_gamma   119.99999602
_symmetry_Int_Tables_number   1
_chemical_formula_structural   PbI16
_chemical_formula_sum   'Pb2 I32'
_cell_volume   2000.23690020
_cell_formula_units_Z   2
loop_
 _symmetry_equiv_pos_site_id
 _symmetry_equiv_pos_as_xyz
  1  'x, y, z'
loop_
 _atom_site_type_symbol
 _atom_site_label
 _atom_site_symmetry_multiplicity
 _atom_site_fract_x
 _atom_site_fract_y
 _atom_site_fract_z
 _atom_site_occupancy
  Pb  Pb0  1  0.000000  0.000000  0.370494  1
  Pb  Pb1  1  0.000000  0.000000  0.870494  1
  I  I2  1  0.917491  0.634188  0.236129  1
  I  I3  1  0.910504  0.289303  0.981259  1
  I  I4  1  0.089496  0.378799  0.481259  1
  I  I5  1  0.716696  0.082509  0.236129  1
  I  I6  1  0.365812  0.283304  0.236129  1
  I  I7  1  0.283304  0.365812  0.736129  1
  I  I8  1  0.621201  0.710697  0.481259  1
  I  I9  1  0.710697  0.621201  0.981259  1
  I  I10  1  0.378799  0.089496  0.981259  1
  I  I11  1  0.289303  0.910504  0.481259  1
  I  I12  1  0.634188  0.917491  0.736129  1
  I  I13  1  0.082509  0.716696  0.736129  1
  I  I14  1  0.111404  0.860345  0.985567  1
  I  I15  1  0.888596  0.748941  0.485567  1
  I  I16  1  0.249703  0.102983  0.742776  1
  I  I17  1  0.897017  0.146719  0.742776  1
  I  I18  1  0.333333  0.666667  0.070549  1
  I  I19  1  0.333333  0.666667  0.456599  1
  I  I20  1  0.333333  0.666667  0.917024  1
  I  I21  1  0.333333  0.666667  0.736143  1
  I  I22  1  0.139655  0.251059  0.985567  1
  I  I23  1  0.251059  0.139655  0.485567  1
  I  I24  1  0.146719  0.897017  0.242776  1
  I  I25  1  0.853281  0.750297  0.742776  1
  I  I26  1  0.750297  0.853281  0.242776  1
  I  I27  1  0.666667  0.333333  0.417024  1
  I  I28  1  0.666667  0.333333  0.570549  1
  I  I29  1  0.666667  0.333333  0.236143  1
  I  I30  1  0.666667  0.333333  0.956599  1
  I  I31  1  0.860345  0.111404  0.485567  1
  I  I32  1  0.748941  0.888596  0.985567  1
  I  I33  1  0.102983  0.249703  0.242776  1
