# generated using pymatgen
data_Pa4PbO11
_symmetry_space_group_name_H-M   'P 1'
_cell_length_a   6.86859600
_cell_length_b   6.86859496
_cell_length_c   13.47688700
_cell_angle_alpha   90.00000000
_cell_angle_beta   90.00000000
_cell_angle_gamma   119.99999538
_symmetry_Int_Tables_number   1
_chemical_formula_structural   Pa4PbO11
_chemical_formula_sum   'Pa8 Pb2 O22'
_cell_volume   550.62524409
_cell_formula_units_Z   2
loop_
 _symmetry_equiv_pos_site_id
 _symmetry_equiv_pos_as_xyz
  1  'x, y, z'
loop_
 _atom_site_type_symbol
 _atom_site_label
 _atom_site_symmetry_multiplicity
 _atom_site_fract_x
 _atom_site_fract_y
 _atom_site_fract_z
 _atom_site_occupancy
  Pa  Pa0  1  0.333333  0.666667  0.250000  1
  Pa  Pa1  1  0.666667  0.333333  0.750000  1
  Pa  Pa2  1  0.356386  0.000000  0.000000  1
  Pa  Pa3  1  0.356386  0.356386  0.500000  1
  Pa  Pa4  1  0.000000  0.643614  0.500000  1
  Pa  Pa5  1  0.000000  0.356386  0.000000  1
  Pa  Pa6  1  0.643614  0.643614  0.000000  1
  Pa  Pa7  1  0.643614  0.000000  0.500000  1
  Pb  Pb8  1  0.666667  0.333333  0.250000  1
  Pb  Pb9  1  0.333333  0.666667  0.750000  1
  O  O10  1  0.333333  0.666667  0.534153  1
  O  O11  1  0.666667  0.333333  0.034153  1
  O  O12  1  0.666667  0.333333  0.465847  1
  O  O13  1  0.333333  0.666667  0.965847  1
  O  O14  1  0.741722  0.000000  0.000000  1
  O  O15  1  0.741722  0.741722  0.500000  1
  O  O16  1  0.000000  0.258278  0.500000  1
  O  O17  1  0.000000  0.741722  0.000000  1
  O  O18  1  0.258278  0.258278  0.000000  1
  O  O19  1  0.258278  0.000000  0.500000  1
  O  O20  1  0.369944  0.423224  0.342395  1
  O  O21  1  0.946720  0.369944  0.842395  1
  O  O22  1  0.423224  0.053280  0.842395  1
  O  O23  1  0.576776  0.946720  0.342395  1
  O  O24  1  0.053280  0.630056  0.342395  1
  O  O25  1  0.946720  0.576776  0.657605  1
  O  O26  1  0.630056  0.053280  0.657605  1
  O  O27  1  0.630056  0.576776  0.842395  1
  O  O28  1  0.423224  0.369944  0.657605  1
  O  O29  1  0.576776  0.630056  0.157605  1
  O  O30  1  0.053280  0.423224  0.157605  1
  O  O31  1  0.369944  0.946720  0.157605  1
