# generated using pymatgen
data_Er13Tm7(IrRh5)2
_symmetry_space_group_name_H-M   'P 1'
_cell_length_a   10.78390869
_cell_length_b   10.78311500
_cell_length_c   6.30830322
_cell_angle_alpha   90.00037661
_cell_angle_beta   90.00551621
_cell_angle_gamma   89.99928795
_symmetry_Int_Tables_number   1
_chemical_formula_structural   Er13Tm7(IrRh5)2
_chemical_formula_sum   'Er13 Tm7 Ir2 Rh10'
_cell_volume   733.55553260
_cell_formula_units_Z   1
loop_
 _symmetry_equiv_pos_site_id
 _symmetry_equiv_pos_as_xyz
  1  'x, y, z'
loop_
 _atom_site_type_symbol
 _atom_site_label
 _atom_site_symmetry_multiplicity
 _atom_site_fract_x
 _atom_site_fract_y
 _atom_site_fract_z
 _atom_site_occupancy
  Er  Er0  1  0.290745  0.089493  0.377654  1
  Er  Er1  1  0.290767  0.910523  0.877697  1
  Er  Er2  1  0.709057  0.088003  0.876932  1
  Er  Er3  1  0.708986  0.912107  0.377020  1
  Er  Er4  1  0.586371  0.790304  0.877481  1
  Er  Er5  1  0.586392  0.209723  0.377499  1
  Er  Er6  1  0.411245  0.790657  0.378023  1
  Er  Er7  1  0.411271  0.209350  0.878063  1
  Er  Er8  1  0.210047  0.413383  0.621897  1
  Er  Er9  1  0.210133  0.586574  0.121890  1
  Er  Er10  1  0.791395  0.411396  0.122565  1
  Er  Er11  1  0.791386  0.588392  0.622554  1
  Er  Er12  1  0.912454  0.709275  0.122461  1
  Tm  Tm13  1  0.912459  0.290905  0.622319  1
  Tm  Tm14  1  0.089678  0.708649  0.622584  1
  Tm  Tm15  1  0.089595  0.291340  0.122563  1
  Tm  Tm16  1  0.999806  0.999728  0.500117  1
  Tm  Tm17  1  0.999848  0.000437  0.000018  1
  Tm  Tm18  1  0.499991  0.499722  0.999969  1
  Tm  Tm19  1  0.500002  0.500245  0.499977  1
  Ir  Ir20  1  0.346291  0.345484  0.249871  1
  Ir  Ir21  1  0.346287  0.654506  0.749855  1
  Rh  Rh22  1  0.846128  0.153779  0.250548  1
  Rh  Rh23  1  0.846033  0.846367  0.750121  1
  Rh  Rh24  1  0.152456  0.153608  0.750111  1
  Rh  Rh25  1  0.152664  0.846506  0.250202  1
  Rh  Rh26  1  0.654987  0.346267  0.749884  1
  Rh  Rh27  1  0.654770  0.653696  0.249985  1
  Rh  Rh28  1  0.500344  0.999917  0.123193  1
  Rh  Rh29  1  0.500359  0.000120  0.623214  1
  Rh  Rh30  1  0.999011  0.499635  0.876637  1
  Rh  Rh31  1  0.999038  0.499911  0.377093  1
