# generated using pymatgen
data_K2Ca(BSe)9
_symmetry_space_group_name_H-M   'P 1'
_cell_length_a   9.98810230
_cell_length_b   10.76675954
_cell_length_c   11.32077600
_cell_angle_alpha   100.23804690
_cell_angle_beta   90.60580412
_cell_angle_gamma   116.28401575
_symmetry_Int_Tables_number   1
_chemical_formula_structural   K2Ca(BSe)9
_chemical_formula_sum   'K4 Ca2 B18 Se18'
_cell_volume   1068.66721958
_cell_formula_units_Z   2
loop_
 _symmetry_equiv_pos_site_id
 _symmetry_equiv_pos_as_xyz
  1  'x, y, z'
loop_
 _atom_site_type_symbol
 _atom_site_label
 _atom_site_symmetry_multiplicity
 _atom_site_fract_x
 _atom_site_fract_y
 _atom_site_fract_z
 _atom_site_occupancy
  K  K0  1  0.800062  0.192546  0.024275  1
  K  K1  1  0.199938  0.807454  0.975725  1
  K  K2  1  0.166488  0.349552  0.511270  1
  K  K3  1  0.833512  0.650448  0.488730  1
  Ca  Ca4  1  0.321050  0.295219  0.094860  1
  Ca  Ca5  1  0.678950  0.704781  0.905140  1
  B  B6  1  0.518613  0.164046  0.552704  1
  B  B7  1  0.481387  0.835954  0.447296  1
  B  B8  1  0.661748  0.117286  0.589526  1
  B  B9  1  0.338252  0.882714  0.410474  1
  B  B10  1  0.483838  0.041609  0.647947  1
  B  B11  1  0.516162  0.958391  0.352053  1
  B  B12  1  0.339948  0.011949  0.536489  1
  B  B13  1  0.660052  0.988051  0.463511  1
  B  B14  1  0.429309  0.067205  0.406071  1
  B  B15  1  0.570691  0.932795  0.593929  1
  B  B16  1  0.625814  0.131242  0.439001  1
  B  B17  1  0.374186  0.868758  0.560999  1
  B  B18  1  0.759806  0.417792  0.709074  1
  B  B19  1  0.240194  0.582208  0.290926  1
  B  B20  1  0.243473  0.076786  0.778254  1
  B  B21  1  0.756527  0.923214  0.221746  1
  B  B22  1  0.593681  0.294200  0.262353  1
  B  B23  1  0.406319  0.705800  0.737647  1
  Se  Se24  1  0.562966  0.364650  0.624851  1
  Se  Se25  1  0.437034  0.635350  0.375149  1
  Se  Se26  1  0.838284  0.276141  0.698729  1
  Se  Se27  1  0.161716  0.723859  0.301271  1
  Se  Se28  1  0.442291  0.089485  0.819111  1
  Se  Se29  1  0.557709  0.910515  0.180889  1
  Se  Se30  1  0.165442  0.034609  0.606502  1
  Se  Se31  1  0.834558  0.965391  0.393498  1
  Se  Se32  1  0.382300  0.171164  0.292184  1
  Se  Se33  1  0.617700  0.828836  0.707816  1
  Se  Se34  1  0.756846  0.286524  0.355178  1
  Se  Se35  1  0.243154  0.713476  0.644822  1
  Se  Se36  1  0.880122  0.610746  0.794668  1
  Se  Se37  1  0.119878  0.389254  0.205332  1
  Se  Se38  1  0.116789  0.090610  0.901789  1
  Se  Se39  1  0.883211  0.909390  0.098211  1
  Se  Se40  1  0.641410  0.415568  0.146102  1
  Se  Se41  1  0.358590  0.584432  0.853898  1
