# generated using pymatgen
data_Rb2TaCr3O8
_symmetry_space_group_name_H-M   'P 1'
_cell_length_a   13.44462200
_cell_length_b   5.27480568
_cell_length_c   6.10114381
_cell_angle_alpha   90.08181321
_cell_angle_beta   90.00000000
_cell_angle_gamma   90.00000000
_symmetry_Int_Tables_number   1
_chemical_formula_structural   Rb2TaCr3O8
_chemical_formula_sum   'Rb4 Ta2 Cr6 O16'
_cell_volume   432.67906333
_cell_formula_units_Z   2
loop_
 _symmetry_equiv_pos_site_id
 _symmetry_equiv_pos_as_xyz
  1  'x, y, z'
loop_
 _atom_site_type_symbol
 _atom_site_label
 _atom_site_symmetry_multiplicity
 _atom_site_fract_x
 _atom_site_fract_y
 _atom_site_fract_z
 _atom_site_occupancy
  Rb  Rb0  1  0.250000  0.646342  0.732513  1
  Rb  Rb1  1  0.750000  0.353658  0.267487  1
  Rb  Rb2  1  0.750000  0.961625  0.747872  1
  Rb  Rb3  1  0.250000  0.038375  0.252128  1
  Ta  Ta4  1  0.500000  0.500000  0.000000  1
  Ta  Ta5  1  0.000000  0.500000  0.000000  1
  Cr  Cr6  1  0.497597  0.000750  0.744106  1
  Cr  Cr7  1  0.002403  0.000750  0.744106  1
  Cr  Cr8  1  0.502403  0.999250  0.255894  1
  Cr  Cr9  1  0.997597  0.999250  0.255894  1
  Cr  Cr10  1  0.000000  0.500000  0.500000  1
  Cr  Cr11  1  0.500000  0.500000  0.500000  1
  O  O12  1  0.577739  0.173402  0.998941  1
  O  O13  1  0.925264  0.167031  0.502310  1
  O  O14  1  0.425264  0.832969  0.497690  1
  O  O15  1  0.077739  0.826598  0.001059  1
  O  O16  1  0.422261  0.826598  0.001059  1
  O  O17  1  0.074736  0.832969  0.497690  1
  O  O18  1  0.574736  0.167031  0.502310  1
  O  O19  1  0.922261  0.173402  0.998941  1
  O  O20  1  0.421769  0.337897  0.754617  1
  O  O21  1  0.078231  0.337897  0.754617  1
  O  O22  1  0.578231  0.662103  0.245383  1
  O  O23  1  0.921769  0.662103  0.245383  1
  O  O24  1  0.576107  0.664919  0.754179  1
  O  O25  1  0.923893  0.664919  0.754179  1
  O  O26  1  0.423893  0.335081  0.245821  1
  O  O27  1  0.076107  0.335081  0.245821  1
