# generated using pymatgen
data_Sm2Tm3(TcO6)2
_symmetry_space_group_name_H-M   'P 1'
_cell_length_a   6.81636578
_cell_length_b   6.81636542
_cell_length_c   7.52194121
_cell_angle_alpha   74.20635463
_cell_angle_beta   74.20634862
_cell_angle_gamma   49.33182063
_symmetry_Int_Tables_number   1
_chemical_formula_structural   Sm2Tm3(TcO6)2
_chemical_formula_sum   'Sm2 Tm3 Tc2 O12'
_cell_volume   252.91888483
_cell_formula_units_Z   1
loop_
 _symmetry_equiv_pos_site_id
 _symmetry_equiv_pos_as_xyz
  1  'x, y, z'
loop_
 _atom_site_type_symbol
 _atom_site_label
 _atom_site_symmetry_multiplicity
 _atom_site_fract_x
 _atom_site_fract_y
 _atom_site_fract_z
 _atom_site_occupancy
  Sm  Sm0  1  0.805590  0.805590  0.355611  1
  Sm  Sm1  1  0.194410  0.194410  0.644389  1
  Tm  Tm2  1  0.184322  0.184322  0.172543  1
  Tm  Tm3  1  0.815678  0.815678  0.827457  1
  Tm  Tm4  1  0.500000  0.500000  0.500000  1
  Tc  Tc5  1  0.287227  0.712773  0.000000  1
  Tc  Tc6  1  0.712773  0.287227  0.000000  1
  O  O7  1  0.417734  0.911996  0.922050  1
  O  O8  1  0.088004  0.582266  0.077950  1
  O  O9  1  0.582266  0.088004  0.077950  1
  O  O10  1  0.911996  0.417734  0.922050  1
  O  O11  1  0.601788  0.097184  0.581143  1
  O  O12  1  0.902816  0.398212  0.418857  1
  O  O13  1  0.398212  0.902816  0.418857  1
  O  O14  1  0.998494  0.998494  0.825119  1
  O  O15  1  0.001506  0.001506  0.174881  1
  O  O16  1  0.502916  0.502916  0.792199  1
  O  O17  1  0.497084  0.497084  0.207801  1
  O  O18  1  0.097184  0.601788  0.581143  1
