# generated using pymatgen
data_Ho2Tm4CoTe2
_symmetry_space_group_name_H-M   'P 1'
_cell_length_a   8.18639100
_cell_length_b   8.35207126
_cell_length_c   3.90067000
_cell_angle_alpha   90.00000000
_cell_angle_beta   90.00000000
_cell_angle_gamma   119.34594152
_symmetry_Int_Tables_number   1
_chemical_formula_structural   Ho2Tm4CoTe2
_chemical_formula_sum   'Ho2 Tm4 Co1 Te2'
_cell_volume   232.47768260
_cell_formula_units_Z   1
loop_
 _symmetry_equiv_pos_site_id
 _symmetry_equiv_pos_as_xyz
  1  'x, y, z'
loop_
 _atom_site_type_symbol
 _atom_site_label
 _atom_site_symmetry_multiplicity
 _atom_site_fract_x
 _atom_site_fract_y
 _atom_site_fract_z
 _atom_site_occupancy
  Ho  Ho0  1  0.999425  0.599918  0.500000  1
  Ho  Ho1  1  0.399508  0.400082  0.500000  1
  Tm  Tm2  1  0.233293  0.000000  0.000000  1
  Tm  Tm3  1  0.006696  0.237326  0.000000  1
  Tm  Tm4  1  0.769370  0.762674  0.000000  1
  Tm  Tm5  1  0.614069  0.000000  0.500000  1
  Co  Co6  1  0.974592  0.000000  0.500000  1
  Te  Te7  1  0.336078  0.669111  0.000000  1
  Te  Te8  1  0.666968  0.330889  0.000000  1
