# generated using pymatgen
data_YSiF7
_symmetry_space_group_name_H-M   'P 1'
_cell_length_a   5.28702600
_cell_length_b   8.59528295
_cell_length_c   11.46893900
_cell_angle_alpha   61.75002621
_cell_angle_beta   90.00000000
_cell_angle_gamma   90.00000000
_symmetry_Int_Tables_number   1
_chemical_formula_structural   YSiF7
_chemical_formula_sum   'Y4 Si4 F28'
_cell_volume   459.11027997
_cell_formula_units_Z   4
loop_
 _symmetry_equiv_pos_site_id
 _symmetry_equiv_pos_as_xyz
  1  'x, y, z'
loop_
 _atom_site_type_symbol
 _atom_site_label
 _atom_site_symmetry_multiplicity
 _atom_site_fract_x
 _atom_site_fract_y
 _atom_site_fract_z
 _atom_site_occupancy
  Y  Y0  1  0.761960  0.808307  0.763358  1
  Y  Y1  1  0.261960  0.191693  0.736642  1
  Y  Y2  1  0.238040  0.191693  0.236642  1
  Y  Y3  1  0.738040  0.808307  0.263358  1
  Si  Si4  1  0.759127  0.276690  0.956584  1
  Si  Si5  1  0.259127  0.723310  0.543416  1
  Si  Si6  1  0.240873  0.723310  0.043416  1
  Si  Si7  1  0.740873  0.276690  0.456584  1
  F  F8  1  0.426965  0.706455  0.928162  1
  F  F9  1  0.926965  0.293545  0.571838  1
  F  F10  1  0.573035  0.293545  0.071838  1
  F  F11  1  0.073035  0.706455  0.428162  1
  F  F12  1  0.470909  0.285571  0.537668  1
  F  F13  1  0.970909  0.714429  0.962332  1
  F  F14  1  0.529091  0.714429  0.462332  1
  F  F15  1  0.029091  0.285571  0.037668  1
  F  F16  1  0.768451  0.502001  0.865311  1
  F  F17  1  0.268451  0.497999  0.634689  1
  F  F18  1  0.231549  0.497999  0.134689  1
  F  F19  1  0.731549  0.502001  0.365311  1
  F  F20  1  0.763718  0.051681  0.043724  1
  F  F21  1  0.263718  0.948319  0.456276  1
  F  F22  1  0.236282  0.948319  0.956276  1
  F  F23  1  0.736282  0.051681  0.543724  1
  F  F24  1  0.997006  0.727276  0.629705  1
  F  F25  1  0.497006  0.272724  0.870295  1
  F  F26  1  0.002994  0.272724  0.370295  1
  F  F27  1  0.502994  0.727276  0.129705  1
  F  F28  1  0.053475  0.735594  0.162358  1
  F  F29  1  0.553475  0.264406  0.337642  1
  F  F30  1  0.946525  0.264406  0.837642  1
  F  F31  1  0.446525  0.735594  0.662358  1
  F  F32  1  0.391627  0.967134  0.222490  1
  F  F33  1  0.891627  0.032866  0.277510  1
  F  F34  1  0.608373  0.032866  0.777510  1
  F  F35  1  0.108373  0.967134  0.722490  1
