# generated using pymatgen
data_Tb3Sn6Ru
_symmetry_space_group_name_H-M   'P 1'
_cell_length_a   8.61852487
_cell_length_b   8.61852380
_cell_length_c   13.19063700
_cell_angle_alpha   90.00000000
_cell_angle_beta   90.00000000
_cell_angle_gamma   148.77298070
_symmetry_Int_Tables_number   1
_chemical_formula_structural   Tb3Sn6Ru
_chemical_formula_sum   'Tb6 Sn12 Ru2'
_cell_volume   507.95119562
_cell_formula_units_Z   2
loop_
 _symmetry_equiv_pos_site_id
 _symmetry_equiv_pos_as_xyz
  1  'x, y, z'
loop_
 _atom_site_type_symbol
 _atom_site_label
 _atom_site_symmetry_multiplicity
 _atom_site_fract_x
 _atom_site_fract_y
 _atom_site_fract_z
 _atom_site_occupancy
  Tb  Tb0  1  0.601030  0.398970  0.250000  1
  Tb  Tb1  1  0.398970  0.601030  0.750000  1
  Tb  Tb2  1  0.397695  0.602305  0.402238  1
  Tb  Tb3  1  0.602305  0.397695  0.597762  1
  Tb  Tb4  1  0.397695  0.602305  0.097762  1
  Tb  Tb5  1  0.602305  0.397695  0.902238  1
  Sn  Sn6  1  0.925663  0.074337  0.926392  1
  Sn  Sn7  1  0.074337  0.925663  0.073608  1
  Sn  Sn8  1  0.925663  0.074337  0.573608  1
  Sn  Sn9  1  0.074337  0.925663  0.426392  1
  Sn  Sn10  1  0.961100  0.038900  0.250000  1
  Sn  Sn11  1  0.038900  0.961100  0.750000  1
  Sn  Sn12  1  0.742194  0.257807  0.432690  1
  Sn  Sn13  1  0.257807  0.742193  0.567310  1
  Sn  Sn14  1  0.742194  0.257807  0.067310  1
  Sn  Sn15  1  0.257807  0.742193  0.932690  1
  Sn  Sn16  1  0.231044  0.768956  0.250000  1
  Sn  Sn17  1  0.768956  0.231044  0.750000  1
  Ru  Ru18  1  0.803121  0.196879  0.250000  1
  Ru  Ru19  1  0.196879  0.803121  0.750000  1
