# generated using pymatgen
data_CeDy2CoSn3Rh2
_symmetry_space_group_name_H-M   'P 1'
_cell_length_a   7.55968300
_cell_length_b   7.48528533
_cell_length_c   3.85831100
_cell_angle_alpha   90.00000000
_cell_angle_beta   90.00000000
_cell_angle_gamma   120.32932960
_symmetry_Int_Tables_number   1
_chemical_formula_structural   CeDy2CoSn3Rh2
_chemical_formula_sum   'Ce1 Dy2 Co1 Sn3 Rh2'
_cell_volume   188.44689895
_cell_formula_units_Z   1
loop_
 _symmetry_equiv_pos_site_id
 _symmetry_equiv_pos_as_xyz
  1  'x, y, z'
loop_
 _atom_site_type_symbol
 _atom_site_label
 _atom_site_symmetry_multiplicity
 _atom_site_fract_x
 _atom_site_fract_y
 _atom_site_fract_z
 _atom_site_occupancy
  Ce  Ce0  1  0.411612  0.000000  0.000000  1
  Dy  Dy1  1  0.998669  0.406009  0.000000  1
  Dy  Dy2  1  0.592660  0.593991  0.000000  1
  Co  Co3  1  0.007406  0.000000  0.000000  1
  Sn  Sn4  1  0.249693  0.256868  0.500000  1
  Sn  Sn5  1  0.992825  0.743132  0.500000  1
  Sn  Sn6  1  0.757755  0.000000  0.500000  1
  Rh  Rh7  1  0.653514  0.317648  0.500000  1
  Rh  Rh8  1  0.335866  0.682352  0.500000  1
