# generated using pymatgen
data_Li5Mn(Co2Si)6
_symmetry_space_group_name_H-M   'P 1'
_cell_length_a   3.88281100
_cell_length_b   5.48385500
_cell_length_c   11.64533700
_cell_angle_alpha   89.99966555
_cell_angle_beta   90.00029024
_cell_angle_gamma   89.99990349
_symmetry_Int_Tables_number   1
_chemical_formula_structural   Li5Mn(Co2Si)6
_chemical_formula_sum   'Li5 Mn1 Co12 Si6'
_cell_volume   247.96151161
_cell_formula_units_Z   1
loop_
 _symmetry_equiv_pos_site_id
 _symmetry_equiv_pos_as_xyz
  1  'x, y, z'
loop_
 _atom_site_type_symbol
 _atom_site_label
 _atom_site_symmetry_multiplicity
 _atom_site_fract_x
 _atom_site_fract_y
 _atom_site_fract_z
 _atom_site_occupancy
  Li  Li0  1  0.000008  0.500484  0.000501  1
  Li  Li1  1  0.499890  0.999422  0.167201  1
  Li  Li2  1  0.999908  0.500586  0.333480  1
  Li  Li3  1  0.500004  0.999479  0.499729  1
  Li  Li4  1  0.000071  0.500436  0.666010  1
  Mn  Mn5  1  0.500088  0.999933  0.833248  1
  Co  Co6  1  0.500005  0.250764  0.000016  1
  Co  Co7  1  0.500005  0.749154  0.000123  1
  Co  Co8  1  0.999915  0.250814  0.166881  1
  Co  Co9  1  0.999915  0.749190  0.166900  1
  Co  Co10  1  0.499927  0.248893  0.333393  1
  Co  Co11  1  0.499925  0.751093  0.333401  1
  Co  Co12  1  0.000001  0.250790  0.499848  1
  Co  Co13  1  0.000001  0.749218  0.499835  1
  Co  Co14  1  0.500078  0.250844  0.666537  1
  Co  Co15  1  0.500080  0.749078  0.666427  1
  Co  Co16  1  0.000084  0.250982  0.833245  1
  Co  Co17  1  0.000086  0.748857  0.833241  1
  Si  Si18  1  0.000004  0.999822  0.003114  1
  Si  Si19  1  0.499907  0.500211  0.169760  1
  Si  Si20  1  0.999930  0.999816  0.333408  1
  Si  Si21  1  0.499999  0.500203  0.497016  1
  Si  Si22  1  0.000085  0.999829  0.663483  1
  Si  Si23  1  0.500079  0.500101  0.833203  1
