# generated using pymatgen
data_Y2ErTm(B6Os)2
_symmetry_space_group_name_H-M   'P 1'
_cell_length_a   3.63973000
_cell_length_b   9.12008130
_cell_length_c   11.51178400
_cell_angle_alpha   90.01354076
_cell_angle_beta   90.00000000
_cell_angle_gamma   90.00000000
_symmetry_Int_Tables_number   1
_chemical_formula_structural   Y2ErTm(B6Os)2
_chemical_formula_sum   'Y4 Er2 Tm2 B24 Os4'
_cell_volume   382.12944052
_cell_formula_units_Z   2
loop_
 _symmetry_equiv_pos_site_id
 _symmetry_equiv_pos_as_xyz
  1  'x, y, z'
loop_
 _atom_site_type_symbol
 _atom_site_label
 _atom_site_symmetry_multiplicity
 _atom_site_fract_x
 _atom_site_fract_y
 _atom_site_fract_z
 _atom_site_occupancy
  Y  Y0  1  0.000000  0.321693  0.413978  1
  Y  Y1  1  0.000000  0.678307  0.586022  1
  Y  Y2  1  0.000000  0.821358  0.085939  1
  Y  Y3  1  0.000000  0.178642  0.914061  1
  Er  Er4  1  0.000000  0.943792  0.372902  1
  Er  Er5  1  0.000000  0.056208  0.627099  1
  Tm  Tm6  1  0.000000  0.443866  0.126911  1
  Tm  Tm7  1  0.000000  0.556134  0.873088  1
  B  B8  1  0.500000  0.553985  0.432654  1
  B  B9  1  0.500000  0.446015  0.567346  1
  B  B10  1  0.500000  0.054319  0.067109  1
  B  B11  1  0.500000  0.945681  0.932891  1
  B  B12  1  0.500000  0.748393  0.419349  1
  B  B13  1  0.500000  0.251607  0.580651  1
  B  B14  1  0.500000  0.249125  0.080425  1
  B  B15  1  0.500000  0.750875  0.919575  1
  B  B16  1  0.500000  0.790927  0.266226  1
  B  B17  1  0.500000  0.209073  0.733774  1
  B  B18  1  0.500000  0.291507  0.233363  1
  B  B19  1  0.500000  0.708492  0.766637  1
  B  B20  1  0.500000  0.630662  0.184781  1
  B  B21  1  0.500000  0.369338  0.815219  1
  B  B22  1  0.500000  0.131307  0.314814  1
  B  B23  1  0.500000  0.868693  0.685186  1
  B  B24  1  0.500000  0.983107  0.213241  1
  B  B25  1  0.500000  0.016893  0.786759  1
  B  B26  1  0.500000  0.482690  0.286309  1
  B  B27  1  0.500000  0.517310  0.713691  1
  B  B28  1  0.500000  0.604974  0.029022  1
  B  B29  1  0.500000  0.395026  0.970978  1
  B  B30  1  0.500000  0.106393  0.470639  1
  B  B31  1  0.500000  0.893607  0.529361  1
  Os  Os32  1  0.000000  0.637350  0.320452  1
  Os  Os33  1  0.000000  0.362650  0.679548  1
  Os  Os34  1  0.000000  0.138120  0.179068  1
  Os  Os35  1  0.000000  0.861880  0.820932  1
