# generated using pymatgen
data_Nb3FeCo2NiB7
_symmetry_space_group_name_H-M   'P 1'
_cell_length_a   9.30866361
_cell_length_b   9.30866388
_cell_length_c   8.91273008
_cell_angle_alpha   90.05941731
_cell_angle_beta   89.94058272
_cell_angle_gamma   160.01815984
_symmetry_Int_Tables_number   1
_chemical_formula_structural   Nb3FeCo2NiB7
_chemical_formula_sum   'Nb6 Fe2 Co4 Ni2 B14'
_cell_volume   263.91161766
_cell_formula_units_Z   2
loop_
 _symmetry_equiv_pos_site_id
 _symmetry_equiv_pos_as_xyz
  1  'x, y, z'
loop_
 _atom_site_type_symbol
 _atom_site_label
 _atom_site_symmetry_multiplicity
 _atom_site_fract_x
 _atom_site_fract_y
 _atom_site_fract_z
 _atom_site_occupancy
  Nb  Nb0  1  0.698267  0.301734  0.244951  1
  Nb  Nb1  1  0.301601  0.698397  0.754924  1
  Nb  Nb2  1  0.580631  0.419370  0.554312  1
  Nb  Nb3  1  0.419424  0.580576  0.445785  1
  Nb  Nb4  1  0.419443  0.580558  0.054607  1
  Nb  Nb5  1  0.580742  0.419258  0.945337  1
  Fe  Fe6  1  0.542906  0.457093  0.249236  1
  Fe  Fe7  1  0.457176  0.542822  0.750783  1
  Co  Co8  1  0.844297  0.155704  0.248832  1
  Co  Co9  1  0.155683  0.844317  0.751112  1
  Co  Co10  1  0.199219  0.800781  0.004020  1
  Co  Co11  1  0.800642  0.199357  0.995853  1
  Ni  Ni12  1  0.801176  0.198825  0.507183  1
  Ni  Ni13  1  0.198804  0.801196  0.493005  1
  B  B14  1  0.956163  0.043837  0.250291  1
  B  B15  1  0.043955  0.956045  0.749743  1
  B  B16  1  0.891240  0.108759  0.651125  1
  B  B17  1  0.108816  0.891186  0.348836  1
  B  B18  1  0.109262  0.890738  0.148260  1
  B  B19  1  0.890819  0.109180  0.851591  1
  B  B20  1  0.708850  0.291151  0.647575  1
  B  B21  1  0.290955  0.709046  0.352536  1
  B  B22  1  0.290364  0.709636  0.145734  1
  B  B23  1  0.709324  0.290675  0.854379  1
  B  B24  1  0.984470  0.015530  0.593864  1
  B  B25  1  0.015612  0.984388  0.406183  1
  B  B26  1  0.015566  0.984434  0.093375  1
  B  B27  1  0.984588  0.015411  0.906567  1
