# generated using pymatgen
data_La2Nd2CdIr
_symmetry_space_group_name_H-M   'P 1'
_cell_length_a   10.04397480
_cell_length_b   10.04384414
_cell_length_c   10.08157000
_cell_angle_alpha   59.87806891
_cell_angle_beta   59.87771417
_cell_angle_gamma   60.23715092
_symmetry_Int_Tables_number   1
_chemical_formula_structural   La2Nd2CdIr
_chemical_formula_sum   'La8 Nd8 Cd4 Ir4'
_cell_volume   719.09148593
_cell_formula_units_Z   4
loop_
 _symmetry_equiv_pos_site_id
 _symmetry_equiv_pos_as_xyz
  1  'x, y, z'
loop_
 _atom_site_type_symbol
 _atom_site_label
 _atom_site_symmetry_multiplicity
 _atom_site_fract_x
 _atom_site_fract_y
 _atom_site_fract_z
 _atom_site_occupancy
  La  La0  1  0.346143  0.346146  0.348681  1
  La  La1  1  0.347066  0.347072  0.956053  1
  La  La2  1  0.350217  0.956619  0.346580  1
  La  La3  1  0.956605  0.350220  0.346584  1
  La  La4  1  0.810475  0.189512  0.189699  1
  La  La5  1  0.189246  0.809499  0.809860  1
  La  La6  1  0.189509  0.810473  0.189699  1
  La  La7  1  0.809490  0.189245  0.809860  1
  Nd  Nd8  1  0.192451  0.192452  0.807449  1
  Nd  Nd9  1  0.806274  0.806271  0.192523  1
  Nd  Nd10  1  0.936962  0.563747  0.564395  1
  Nd  Nd11  1  0.562711  0.936379  0.936626  1
  Nd  Nd12  1  0.563752  0.936958  0.564396  1
  Nd  Nd13  1  0.936379  0.562714  0.936627  1
  Nd  Nd14  1  0.562549  0.562547  0.938737  1
  Nd  Nd15  1  0.937868  0.937865  0.562161  1
  Cd  Cd16  1  0.580681  0.580675  0.579139  1
  Cd  Cd17  1  0.580873  0.580868  0.258839  1
  Cd  Cd18  1  0.579436  0.258719  0.580850  1
  Cd  Cd19  1  0.258719  0.579419  0.580832  1
  Ir  Ir20  1  0.139642  0.139646  0.144193  1
  Ir  Ir21  1  0.140111  0.140115  0.576916  1
  Ir  Ir22  1  0.145465  0.577373  0.139650  1
  Ir  Ir23  1  0.577374  0.145464  0.139651  1
