# generated using pymatgen
data_Dy3Ho5(ErCo)4
_symmetry_space_group_name_H-M   'P 1'
_cell_length_a   6.16433317
_cell_length_b   6.93820581
_cell_length_c   9.39035111
_cell_angle_alpha   90.00908228
_cell_angle_beta   90.01474369
_cell_angle_gamma   90.05256197
_symmetry_Int_Tables_number   1
_chemical_formula_structural   Dy3Ho5(ErCo)4
_chemical_formula_sum   'Dy3 Ho5 Er4 Co4'
_cell_volume   401.61961031
_cell_formula_units_Z   1
loop_
 _symmetry_equiv_pos_site_id
 _symmetry_equiv_pos_as_xyz
  1  'x, y, z'
loop_
 _atom_site_type_symbol
 _atom_site_label
 _atom_site_symmetry_multiplicity
 _atom_site_fract_x
 _atom_site_fract_y
 _atom_site_fract_z
 _atom_site_occupancy
  Dy  Dy0  1  0.861602  0.541613  0.250210  1
  Dy  Dy1  1  0.638401  0.041599  0.249816  1
  Dy  Dy2  1  0.139004  0.458624  0.750195  1
  Ho  Ho3  1  0.324581  0.675103  0.067489  1
  Ho  Ho4  1  0.175145  0.174802  0.432309  1
  Ho  Ho5  1  0.675758  0.324923  0.567737  1
  Ho  Ho6  1  0.824416  0.824902  0.931776  1
  Ho  Ho7  1  0.361134  0.958499  0.749841  1
  Er  Er8  1  0.675198  0.324573  0.932717  1
  Er  Er9  1  0.824999  0.824927  0.567670  1
  Er  Er10  1  0.324912  0.675491  0.433007  1
  Er  Er11  1  0.174452  0.174683  0.067221  1
  Co  Co12  1  0.052402  0.885358  0.250484  1
  Co  Co13  1  0.447761  0.385997  0.249522  1
  Co  Co14  1  0.948875  0.114528  0.750521  1
  Co  Co15  1  0.551360  0.614374  0.749486  1
