# generated using pymatgen
data_Er20Cd3Hg3Ru2
_symmetry_space_group_name_H-M   'P 1'
_cell_length_a   9.50239700
_cell_length_b   9.50239708
_cell_length_c   9.70074300
_cell_angle_alpha   90.00000000
_cell_angle_beta   90.00000000
_cell_angle_gamma   120.00000321
_symmetry_Int_Tables_number   1
_chemical_formula_structural   Er20Cd3Hg3Ru2
_chemical_formula_sum   'Er20 Cd3 Hg3 Ru2'
_cell_volume   758.58100187
_cell_formula_units_Z   1
loop_
 _symmetry_equiv_pos_site_id
 _symmetry_equiv_pos_as_xyz
  1  'x, y, z'
loop_
 _atom_site_type_symbol
 _atom_site_label
 _atom_site_symmetry_multiplicity
 _atom_site_fract_x
 _atom_site_fract_y
 _atom_site_fract_z
 _atom_site_occupancy
  Er  Er0  1  0.000000  0.000000  0.491693  1
  Er  Er1  1  0.000000  0.000000  0.008307  1
  Er  Er2  1  0.209349  0.790651  0.439814  1
  Er  Er3  1  0.209349  0.418700  0.439814  1
  Er  Er4  1  0.581300  0.790651  0.439814  1
  Er  Er5  1  0.790425  0.209575  0.559296  1
  Er  Er6  1  0.790425  0.580849  0.559296  1
  Er  Er7  1  0.419151  0.209575  0.559296  1
  Er  Er8  1  0.790425  0.209575  0.940704  1
  Er  Er9  1  0.790425  0.580849  0.940704  1
  Er  Er10  1  0.419151  0.209575  0.940704  1
  Er  Er11  1  0.209349  0.790651  0.060186  1
  Er  Er12  1  0.209349  0.418700  0.060186  1
  Er  Er13  1  0.581300  0.790651  0.060186  1
  Er  Er14  1  0.541224  0.458776  0.250000  1
  Er  Er15  1  0.541224  0.082450  0.250000  1
  Er  Er16  1  0.917550  0.458776  0.250000  1
  Er  Er17  1  0.458863  0.541137  0.750000  1
  Er  Er18  1  0.458863  0.917727  0.750000  1
  Er  Er19  1  0.082273  0.541137  0.750000  1
  Cd  Cd20  1  0.113306  0.886694  0.750000  1
  Cd  Cd21  1  0.113306  0.226612  0.750000  1
  Cd  Cd22  1  0.773388  0.886694  0.750000  1
  Hg  Hg23  1  0.879846  0.120154  0.250000  1
  Hg  Hg24  1  0.879846  0.759692  0.250000  1
  Hg  Hg25  1  0.240308  0.120154  0.250000  1
  Ru  Ru26  1  0.333333  0.666667  0.250000  1
  Ru  Ru27  1  0.666667  0.333333  0.750000  1
