# generated using pymatgen
data_BiIrI18
_symmetry_space_group_name_H-M   'P 1'
_cell_length_a   10.21597937
_cell_length_b   10.24475946
_cell_length_c   10.21203588
_cell_angle_alpha   87.97464240
_cell_angle_beta   88.09753425
_cell_angle_gamma   87.86611799
_symmetry_Int_Tables_number   1
_chemical_formula_structural   BiIrI18
_chemical_formula_sum   'Bi1 Ir1 I18'
_cell_volume   1066.84179732
_cell_formula_units_Z   1
loop_
 _symmetry_equiv_pos_site_id
 _symmetry_equiv_pos_as_xyz
  1  'x, y, z'
loop_
 _atom_site_type_symbol
 _atom_site_label
 _atom_site_symmetry_multiplicity
 _atom_site_fract_x
 _atom_site_fract_y
 _atom_site_fract_z
 _atom_site_occupancy
  Bi  Bi0  1  0.000000  0.000000  0.000000  1
  Ir  Ir1  1  0.500000  0.500000  0.500000  1
  I  I2  1  0.763638  0.477464  0.498847  1
  I  I3  1  0.497727  0.762915  0.476745  1
  I  I4  1  0.477551  0.499005  0.763638  1
  I  I5  1  0.236362  0.522536  0.501153  1
  I  I6  1  0.502273  0.237085  0.523255  1
  I  I7  1  0.522449  0.500995  0.236362  1
  I  I8  1  0.878737  0.388206  0.746329  1
  I  I9  1  0.744688  0.877547  0.388338  1
  I  I10  1  0.388561  0.745532  0.878863  1
  I  I11  1  0.121263  0.611794  0.253671  1
  I  I12  1  0.255312  0.122453  0.611662  1
  I  I13  1  0.611439  0.254468  0.121137  1
  I  I14  1  0.022709  0.972397  0.695479  1
  I  I15  1  0.695632  0.022454  0.970324  1
  I  I16  1  0.971100  0.696430  0.020226  1
  I  I17  1  0.977291  0.027603  0.304521  1
  I  I18  1  0.304368  0.977546  0.029676  1
  I  I19  1  0.028900  0.303570  0.979774  1
