# generated using pymatgen
data_Hf4MnCo2Si4Os
_symmetry_space_group_name_H-M   'P 1'
_cell_length_a   3.88066800
_cell_length_b   6.40945162
_cell_length_c   7.25668832
_cell_angle_alpha   89.23213714
_cell_angle_beta   90.00000000
_cell_angle_gamma   90.00000000
_symmetry_Int_Tables_number   1
_chemical_formula_structural   Hf4MnCo2Si4Os
_chemical_formula_sum   'Hf4 Mn1 Co2 Si4 Os1'
_cell_volume   180.47906438
_cell_formula_units_Z   1
loop_
 _symmetry_equiv_pos_site_id
 _symmetry_equiv_pos_as_xyz
  1  'x, y, z'
loop_
 _atom_site_type_symbol
 _atom_site_label
 _atom_site_symmetry_multiplicity
 _atom_site_fract_x
 _atom_site_fract_y
 _atom_site_fract_z
 _atom_site_occupancy
  Hf  Hf0  1  0.250000  0.007680  0.319573  1
  Hf  Hf1  1  0.250000  0.515828  0.194722  1
  Hf  Hf2  1  0.750000  0.992402  0.681178  1
  Hf  Hf3  1  0.750000  0.487518  0.804970  1
  Mn  Mn4  1  0.750000  0.842386  0.066828  1
  Co  Co5  1  0.250000  0.651164  0.565863  1
  Co  Co6  1  0.750000  0.349264  0.432963  1
  Si  Si7  1  0.250000  0.287422  0.605461  1
  Si  Si8  1  0.250000  0.777959  0.878415  1
  Si  Si9  1  0.750000  0.714704  0.391826  1
  Si  Si10  1  0.750000  0.218720  0.124183  1
  Os  Os11  1  0.250000  0.154953  0.934021  1
