# generated using pymatgen
data_Nb12Al3Zn5N4
_symmetry_space_group_name_H-M   'P 1'
_cell_length_a   7.05116701
_cell_length_b   7.05116701
_cell_length_c   7.05116701
_cell_angle_alpha   90.00378652
_cell_angle_beta   89.99621348
_cell_angle_gamma   89.99621348
_symmetry_Int_Tables_number   1
_chemical_formula_structural   Nb12Al3Zn5N4
_chemical_formula_sum   'Nb12 Al3 Zn5 N4'
_cell_volume   350.57666111
_cell_formula_units_Z   1
loop_
 _symmetry_equiv_pos_site_id
 _symmetry_equiv_pos_as_xyz
  1  'x, y, z'
loop_
 _atom_site_type_symbol
 _atom_site_label
 _atom_site_symmetry_multiplicity
 _atom_site_fract_x
 _atom_site_fract_y
 _atom_site_fract_z
 _atom_site_occupancy
  Nb  Nb0  1  0.792899  0.956484  0.373828  1
  Nb  Nb1  1  0.706727  0.043766  0.874486  1
  Nb  Nb2  1  0.206559  0.455906  0.126643  1
  Nb  Nb3  1  0.292802  0.544248  0.624259  1
  Nb  Nb4  1  0.956234  0.374486  0.793273  1
  Nb  Nb5  1  0.043516  0.873828  0.707101  1
  Nb  Nb6  1  0.455752  0.124259  0.207198  1
  Nb  Nb7  1  0.544094  0.626643  0.293441  1
  Nb  Nb8  1  0.373357  0.793441  0.955906  1
  Nb  Nb9  1  0.875741  0.707198  0.044248  1
  Nb  Nb10  1  0.126172  0.207101  0.456484  1
  Nb  Nb11  1  0.625514  0.293273  0.543766  1
  Al  Al12  1  0.427841  0.927694  0.572714  1
  Al  Al13  1  0.927286  0.572159  0.427694  1
  Al  Al14  1  0.072306  0.072714  0.072159  1
  Zn  Zn15  1  0.179950  0.820050  0.320050  1
  Zn  Zn16  1  0.322121  0.181680  0.820874  1
  Zn  Zn17  1  0.818320  0.320874  0.177879  1
  Zn  Zn18  1  0.679126  0.677879  0.681680  1
  Zn  Zn19  1  0.570619  0.429381  0.929381  1
  N  N20  1  0.876046  0.123954  0.623954  1
  N  N21  1  0.624015  0.874685  0.122311  1
  N  N22  1  0.125315  0.622311  0.875985  1
  N  N23  1  0.377689  0.375985  0.374685  1
