# generated using pymatgen
data_Ga3CuRh4
_symmetry_space_group_name_H-M   'P 1'
_cell_length_a   5.25047627
_cell_length_b   5.25047664
_cell_length_c   4.25019900
_cell_angle_alpha   90.00000000
_cell_angle_beta   90.00000000
_cell_angle_gamma   109.35777417
_symmetry_Int_Tables_number   1
_chemical_formula_structural   Ga3CuRh4
_chemical_formula_sum   'Ga3 Cu1 Rh4'
_cell_volume   110.54357367
_cell_formula_units_Z   1
loop_
 _symmetry_equiv_pos_site_id
 _symmetry_equiv_pos_as_xyz
  1  'x, y, z'
loop_
 _atom_site_type_symbol
 _atom_site_label
 _atom_site_symmetry_multiplicity
 _atom_site_fract_x
 _atom_site_fract_y
 _atom_site_fract_z
 _atom_site_occupancy
  Ga  Ga0  1  0.000000  0.000000  0.000000  1
  Ga  Ga1  1  0.737491  0.262509  0.500000  1
  Ga  Ga2  1  0.262509  0.737491  0.500000  1
  Cu  Cu3  1  0.500000  0.500000  0.000000  1
  Rh  Rh4  1  0.500000  0.000000  0.000000  1
  Rh  Rh5  1  0.000000  0.500000  0.000000  1
  Rh  Rh6  1  0.759169  0.759169  0.500000  1
  Rh  Rh7  1  0.240831  0.240831  0.500000  1
