# generated using pymatgen
data_DyHo(SiAu2)4
_symmetry_space_group_name_H-M   'P 1'
_cell_length_a   4.41261000
_cell_length_b   4.41261000
_cell_length_c   26.99655000
_cell_angle_alpha   90.00000000
_cell_angle_beta   90.00000000
_cell_angle_gamma   90.00000000
_symmetry_Int_Tables_number   1
_chemical_formula_structural   DyHo(SiAu2)4
_chemical_formula_sum   'Dy2 Ho2 Si8 Au16'
_cell_volume   525.65325394
_cell_formula_units_Z   2
loop_
 _symmetry_equiv_pos_site_id
 _symmetry_equiv_pos_as_xyz
  1  'x, y, z'
loop_
 _atom_site_type_symbol
 _atom_site_label
 _atom_site_symmetry_multiplicity
 _atom_site_fract_x
 _atom_site_fract_y
 _atom_site_fract_z
 _atom_site_occupancy
  Dy  Dy0  1  0.000000  0.500000  0.749286  1
  Dy  Dy1  1  0.500000  0.000000  0.250714  1
  Ho  Ho2  1  0.500000  0.500000  0.000000  1
  Ho  Ho3  1  0.500000  0.500000  0.500000  1
  Si  Si4  1  0.000000  0.000000  0.956795  1
  Si  Si5  1  0.000000  0.000000  0.456936  1
  Si  Si6  1  0.500000  0.000000  0.792615  1
  Si  Si7  1  0.500000  0.000000  0.706044  1
  Si  Si8  1  0.000000  0.500000  0.207385  1
  Si  Si9  1  0.000000  0.500000  0.293956  1
  Si  Si10  1  0.000000  0.000000  0.043205  1
  Si  Si11  1  0.000000  0.000000  0.543064  1
  Au  Au12  1  0.500000  0.000000  0.085949  1
  Au  Au13  1  0.500000  0.500000  0.663209  1
  Au  Au14  1  0.500000  0.500000  0.835610  1
  Au  Au15  1  0.000000  0.500000  0.085398  1
  Au  Au16  1  0.500000  0.000000  0.914602  1
  Au  Au17  1  0.000000  0.000000  0.664308  1
  Au  Au18  1  0.000000  0.500000  0.415207  1
  Au  Au19  1  0.500000  0.500000  0.336791  1
  Au  Au20  1  0.500000  0.000000  0.414637  1
  Au  Au21  1  0.000000  0.000000  0.335692  1
  Au  Au22  1  0.000000  0.000000  0.165416  1
  Au  Au23  1  0.500000  0.000000  0.584793  1
  Au  Au24  1  0.000000  0.000000  0.834584  1
  Au  Au25  1  0.500000  0.500000  0.164390  1
  Au  Au26  1  0.000000  0.500000  0.585363  1
  Au  Au27  1  0.000000  0.500000  0.914051  1
