# generated using pymatgen
data_Nd4VTc3F28
_symmetry_space_group_name_H-M   'P 1'
_cell_length_a   5.70736272
_cell_length_b   9.19509735
_cell_length_c   12.34005500
_cell_angle_alpha   61.99288416
_cell_angle_beta   89.97121840
_cell_angle_gamma   89.95208267
_symmetry_Int_Tables_number   1
_chemical_formula_structural   Nd4VTc3F28
_chemical_formula_sum   'Nd4 V1 Tc3 F28'
_cell_volume   571.76160659
_cell_formula_units_Z   1
loop_
 _symmetry_equiv_pos_site_id
 _symmetry_equiv_pos_as_xyz
  1  'x, y, z'
loop_
 _atom_site_type_symbol
 _atom_site_label
 _atom_site_symmetry_multiplicity
 _atom_site_fract_x
 _atom_site_fract_y
 _atom_site_fract_z
 _atom_site_occupancy
  Nd  Nd0  1  0.758860  0.810599  0.765345  1
  Nd  Nd1  1  0.258250  0.190398  0.730426  1
  Nd  Nd2  1  0.241872  0.190986  0.238027  1
  Nd  Nd3  1  0.741508  0.811654  0.265164  1
  V  V4  1  0.744272  0.274247  0.456471  1
  Tc  Tc5  1  0.756504  0.273614  0.956917  1
  Tc  Tc6  1  0.255455  0.726917  0.541863  1
  Tc  Tc7  1  0.243756  0.726781  0.043137  1
  F  F8  1  0.444341  0.707764  0.921366  1
  F  F9  1  0.943027  0.287653  0.575112  1
  F  F10  1  0.553156  0.291295  0.078462  1
  F  F11  1  0.055250  0.707882  0.419937  1
  F  F12  1  0.470497  0.282907  0.543510  1
  F  F13  1  0.959058  0.717071  0.956284  1
  F  F14  1  0.540553  0.713987  0.456257  1
  F  F15  1  0.037892  0.283572  0.045962  1
  F  F16  1  0.766682  0.515252  0.860149  1
  F  F17  1  0.262587  0.486090  0.638082  1
  F  F18  1  0.234846  0.485795  0.140889  1
  F  F19  1  0.735720  0.501099  0.366974  1
  F  F20  1  0.759265  0.032813  0.052263  1
  F  F21  1  0.260882  0.967428  0.449041  1
  F  F22  1  0.239580  0.966873  0.947288  1
  F  F23  1  0.738956  0.047983  0.547244  1
  F  F24  1  0.976649  0.735134  0.632222  1
  F  F25  1  0.483193  0.269132  0.861750  1
  F  F26  1  0.009214  0.268347  0.365615  1
  F  F27  1  0.519474  0.730267  0.137280  1
  F  F28  1  0.046597  0.742463  0.168517  1
  F  F29  1  0.549093  0.256746  0.336908  1
  F  F30  1  0.956455  0.257364  0.832617  1
  F  F31  1  0.453285  0.744731  0.666047  1
  F  F32  1  0.413389  0.969504  0.233057  1
  F  F33  1  0.912992  0.029667  0.270951  1
  F  F34  1  0.587188  0.029317  0.769615  1
  F  F35  1  0.089701  0.966670  0.729249  1
