# generated using pymatgen
data_Sm10Sn6PCl
_symmetry_space_group_name_H-M   'P 1'
_cell_length_a   9.28725700
_cell_length_b   9.28725732
_cell_length_c   6.82883200
_cell_angle_alpha   90.00000000
_cell_angle_beta   90.00000000
_cell_angle_gamma   120.00000954
_symmetry_Int_Tables_number   1
_chemical_formula_structural   Sm10Sn6PCl
_chemical_formula_sum   'Sm10 Sn6 P1 Cl1'
_cell_volume   510.09605042
_cell_formula_units_Z   1
loop_
 _symmetry_equiv_pos_site_id
 _symmetry_equiv_pos_as_xyz
  1  'x, y, z'
loop_
 _atom_site_type_symbol
 _atom_site_label
 _atom_site_symmetry_multiplicity
 _atom_site_fract_x
 _atom_site_fract_y
 _atom_site_fract_z
 _atom_site_occupancy
  Sm  Sm0  1  0.248646  0.248646  0.761928  1
  Sm  Sm1  1  0.000000  0.751354  0.761928  1
  Sm  Sm2  1  0.751354  0.000000  0.761928  1
  Sm  Sm3  1  0.000000  0.248646  0.238072  1
  Sm  Sm4  1  0.333333  0.666667  0.500000  1
  Sm  Sm5  1  0.751354  0.751354  0.238072  1
  Sm  Sm6  1  0.666667  0.333333  0.500000  1
  Sm  Sm7  1  0.248646  0.000000  0.238072  1
  Sm  Sm8  1  0.333333  0.666667  0.000000  1
  Sm  Sm9  1  0.666667  0.333333  0.000000  1
  Sn  Sn10  1  0.604556  0.000000  0.249943  1
  Sn  Sn11  1  0.000000  0.395444  0.750057  1
  Sn  Sn12  1  0.395444  0.000000  0.750057  1
  Sn  Sn13  1  0.604556  0.604556  0.750057  1
  Sn  Sn14  1  0.000000  0.604556  0.249943  1
  Sn  Sn15  1  0.395444  0.395444  0.249943  1
  P  P16  1  0.000000  0.000000  0.000000  1
  Cl  Cl17  1  0.000000  0.000000  0.500000  1
