# generated using pymatgen
data_Tb2Y3CoSb2
_symmetry_space_group_name_H-M   'P 1'
_cell_length_a   7.95022900
_cell_length_b   8.72831700
_cell_length_c   12.22672600
_cell_angle_alpha   90.00000000
_cell_angle_beta   90.00000000
_cell_angle_gamma   90.00000000
_symmetry_Int_Tables_number   1
_chemical_formula_structural   Tb2Y3CoSb2
_chemical_formula_sum   'Tb8 Y12 Co4 Sb8'
_cell_volume   848.43842477
_cell_formula_units_Z   4
loop_
 _symmetry_equiv_pos_site_id
 _symmetry_equiv_pos_as_xyz
  1  'x, y, z'
loop_
 _atom_site_type_symbol
 _atom_site_label
 _atom_site_symmetry_multiplicity
 _atom_site_fract_x
 _atom_site_fract_y
 _atom_site_fract_z
 _atom_site_occupancy
  Tb  Tb0  1  0.821516  0.965080  0.064901  1
  Tb  Tb1  1  0.321516  0.034920  0.435099  1
  Tb  Tb2  1  0.178484  0.465080  0.935099  1
  Tb  Tb3  1  0.678484  0.534920  0.564901  1
  Tb  Tb4  1  0.178484  0.034920  0.935099  1
  Tb  Tb5  1  0.678484  0.965080  0.564901  1
  Tb  Tb6  1  0.821516  0.534920  0.064901  1
  Tb  Tb7  1  0.321516  0.465080  0.435099  1
  Y  Y8  1  0.155609  0.750000  0.204163  1
  Y  Y9  1  0.655609  0.250000  0.295837  1
  Y  Y10  1  0.844391  0.250000  0.795837  1
  Y  Y11  1  0.344391  0.750000  0.704163  1
  Y  Y12  1  0.456492  0.750000  0.998533  1
  Y  Y13  1  0.956492  0.250000  0.501467  1
  Y  Y14  1  0.543508  0.250000  0.001467  1
  Y  Y15  1  0.043508  0.750000  0.498533  1
  Y  Y16  1  0.622993  0.750000  0.304461  1
  Y  Y17  1  0.122993  0.250000  0.195539  1
  Y  Y18  1  0.377007  0.250000  0.695539  1
  Y  Y19  1  0.877007  0.750000  0.804461  1
  Co  Co20  1  0.434093  0.750000  0.489581  1
  Co  Co21  1  0.934093  0.250000  0.010419  1
  Co  Co22  1  0.565907  0.250000  0.510419  1
  Co  Co23  1  0.065907  0.750000  0.989581  1
  Sb  Sb24  1  0.927696  0.991473  0.326788  1
  Sb  Sb25  1  0.427696  0.008527  0.173212  1
  Sb  Sb26  1  0.072304  0.491473  0.673212  1
  Sb  Sb27  1  0.572304  0.508527  0.826788  1
  Sb  Sb28  1  0.072304  0.008527  0.673212  1
  Sb  Sb29  1  0.572304  0.991473  0.826788  1
  Sb  Sb30  1  0.927696  0.508527  0.326788  1
  Sb  Sb31  1  0.427696  0.491473  0.173212  1
