# generated using pymatgen
data_LaEuNi2(As2Ru)2
_symmetry_space_group_name_H-M   'P 1'
_cell_length_a   4.30545600
_cell_length_b   4.30545600
_cell_length_c   9.75139300
_cell_angle_alpha   90.00000000
_cell_angle_beta   90.00000000
_cell_angle_gamma   90.00000000
_symmetry_Int_Tables_number   1
_chemical_formula_structural   LaEuNi2(As2Ru)2
_chemical_formula_sum   'La1 Eu1 Ni2 As4 Ru2'
_cell_volume   180.76109781
_cell_formula_units_Z   1
loop_
 _symmetry_equiv_pos_site_id
 _symmetry_equiv_pos_as_xyz
  1  'x, y, z'
loop_
 _atom_site_type_symbol
 _atom_site_label
 _atom_site_symmetry_multiplicity
 _atom_site_fract_x
 _atom_site_fract_y
 _atom_site_fract_z
 _atom_site_occupancy
  La  La0  1  0.500000  0.000000  0.241207  1
  Eu  Eu1  1  0.000000  0.500000  0.760319  1
  Ni  Ni2  1  0.000000  0.500000  0.117592  1
  Ni  Ni3  1  0.500000  0.000000  0.884466  1
  As  As4  1  0.000000  0.500000  0.368281  1
  As  As5  1  0.000000  0.000000  0.997646  1
  As  As6  1  0.500000  0.000000  0.632486  1
  As  As7  1  0.500000  0.500000  0.997646  1
  Ru  Ru8  1  0.000000  0.000000  0.500178  1
  Ru  Ru9  1  0.500000  0.500000  0.500178  1
