# generated using pymatgen
data_Lu4Al2B4Ir7Rh3
_symmetry_space_group_name_H-M   'P 1'
_cell_length_a   9.49787790
_cell_length_b   9.49779609
_cell_length_c   3.11792000
_cell_angle_alpha   90.00000000
_cell_angle_beta   90.00000000
_cell_angle_gamma   89.98277130
_symmetry_Int_Tables_number   1
_chemical_formula_structural   Lu4Al2B4Ir7Rh3
_chemical_formula_sum   'Lu4 Al2 B4 Ir7 Rh3'
_cell_volume   281.26414440
_cell_formula_units_Z   1
loop_
 _symmetry_equiv_pos_site_id
 _symmetry_equiv_pos_as_xyz
  1  'x, y, z'
loop_
 _atom_site_type_symbol
 _atom_site_label
 _atom_site_symmetry_multiplicity
 _atom_site_fract_x
 _atom_site_fract_y
 _atom_site_fract_z
 _atom_site_occupancy
  Lu  Lu0  1  0.824532  0.324518  0.000000  1
  Lu  Lu1  1  0.324532  0.176605  0.000000  1
  Lu  Lu2  1  0.675435  0.824484  0.000000  1
  Lu  Lu3  1  0.175571  0.675525  0.000000  1
  Al  Al4  1  0.000348  0.999700  0.000000  1
  Al  Al5  1  0.498726  0.499588  0.000000  1
  B  B6  1  0.623249  0.122897  0.000000  1
  B  B7  1  0.120795  0.376022  0.000000  1
  B  B8  1  0.876947  0.622422  0.000000  1
  B  B9  1  0.377861  0.877418  0.000000  1
  Ir  Ir10  1  0.069401  0.218151  0.500000  1
  Ir  Ir11  1  0.217952  0.931551  0.500000  1
  Ir  Ir12  1  0.782706  0.068365  0.500000  1
  Ir  Ir13  1  0.931287  0.781925  0.500000  1
  Ir  Ir14  1  0.431091  0.718037  0.500000  1
  Ir  Ir15  1  0.569296  0.282470  0.500000  1
  Ir  Ir16  1  0.717708  0.568753  0.500000  1
  Rh  Rh17  1  0.281892  0.431147  0.500000  1
  Rh  Rh18  1  0.500070  0.000605  0.500000  1
  Rh  Rh19  1  0.000599  0.499818  0.500000  1
