# generated using pymatgen
data_Zr10Hg6S
_symmetry_space_group_name_H-M   'P 1'
_cell_length_a   8.70099600
_cell_length_b   8.70099737
_cell_length_c   5.59953100
_cell_angle_alpha   90.00000000
_cell_angle_beta   90.00000000
_cell_angle_gamma   120.00001000
_symmetry_Int_Tables_number   1
_chemical_formula_structural   Zr10Hg6S
_chemical_formula_sum   'Zr10 Hg6 S1'
_cell_volume   367.13031554
_cell_formula_units_Z   1
loop_
 _symmetry_equiv_pos_site_id
 _symmetry_equiv_pos_as_xyz
  1  'x, y, z'
loop_
 _atom_site_type_symbol
 _atom_site_label
 _atom_site_symmetry_multiplicity
 _atom_site_fract_x
 _atom_site_fract_y
 _atom_site_fract_z
 _atom_site_occupancy
  Zr  Zr0  1  0.000000  0.757782  0.243005  1
  Zr  Zr1  1  0.242218  0.242218  0.243005  1
  Zr  Zr2  1  0.757782  0.000000  0.243005  1
  Zr  Zr3  1  0.000000  0.242218  0.756995  1
  Zr  Zr4  1  0.757782  0.757782  0.756995  1
  Zr  Zr5  1  0.242218  0.000000  0.756995  1
  Zr  Zr6  1  0.333333  0.666667  0.500000  1
  Zr  Zr7  1  0.666667  0.333333  0.500000  1
  Zr  Zr8  1  0.666667  0.333333  0.000000  1
  Zr  Zr9  1  0.333333  0.666667  0.000000  1
  Hg  Hg10  1  0.000000  0.396188  0.249032  1
  Hg  Hg11  1  0.603812  0.603812  0.249032  1
  Hg  Hg12  1  0.396188  0.000000  0.249032  1
  Hg  Hg13  1  0.000000  0.603812  0.750968  1
  Hg  Hg14  1  0.396188  0.396188  0.750968  1
  Hg  Hg15  1  0.603812  0.000000  0.750968  1
  S  S16  1  0.000000  0.000000  0.500000  1
