# generated using pymatgen
data_Tb5Cd2(InPd)2
_symmetry_space_group_name_H-M   'P 1'
_cell_length_a   8.10414300
_cell_length_b   18.53733500
_cell_length_c   3.63270700
_cell_angle_alpha   90.00000000
_cell_angle_beta   90.00000000
_cell_angle_gamma   90.00000000
_symmetry_Int_Tables_number   1
_chemical_formula_structural   Tb5Cd2(InPd)2
_chemical_formula_sum   'Tb10 Cd4 In4 Pd4'
_cell_volume   545.73871614
_cell_formula_units_Z   2
loop_
 _symmetry_equiv_pos_site_id
 _symmetry_equiv_pos_as_xyz
  1  'x, y, z'
loop_
 _atom_site_type_symbol
 _atom_site_label
 _atom_site_symmetry_multiplicity
 _atom_site_fract_x
 _atom_site_fract_y
 _atom_site_fract_z
 _atom_site_occupancy
  Tb  Tb0  1  0.500000  0.500000  0.000000  1
  Tb  Tb1  1  0.000000  0.000000  0.000000  1
  Tb  Tb2  1  0.744088  0.280198  0.000000  1
  Tb  Tb3  1  0.255912  0.719802  0.000000  1
  Tb  Tb4  1  0.755912  0.780198  0.000000  1
  Tb  Tb5  1  0.244088  0.219802  0.000000  1
  Tb  Tb6  1  0.613820  0.082909  0.000000  1
  Tb  Tb7  1  0.386180  0.917091  0.000000  1
  Tb  Tb8  1  0.886180  0.582909  0.000000  1
  Tb  Tb9  1  0.113820  0.417091  0.000000  1
  Cd  Cd10  1  0.712209  0.930290  0.500000  1
  Cd  Cd11  1  0.287791  0.069710  0.500000  1
  Cd  Cd12  1  0.787791  0.430290  0.500000  1
  Cd  Cd13  1  0.212209  0.569710  0.500000  1
  In  In14  1  0.574546  0.648240  0.500000  1
  In  In15  1  0.425454  0.351760  0.500000  1
  In  In16  1  0.925454  0.148240  0.500000  1
  In  In17  1  0.074546  0.851760  0.500000  1
  Pd  Pd18  1  0.527410  0.196153  0.500000  1
  Pd  Pd19  1  0.472590  0.803847  0.500000  1
  Pd  Pd20  1  0.972590  0.696153  0.500000  1
  Pd  Pd21  1  0.027410  0.303847  0.500000  1
