# generated using pymatgen
data_Nd4OsRu6W
_symmetry_space_group_name_H-M   'P 1'
_cell_length_a   5.22871168
_cell_length_b   5.22871259
_cell_length_c   9.25841100
_cell_angle_alpha   90.00000000
_cell_angle_beta   90.00000000
_cell_angle_gamma   114.54656466
_symmetry_Int_Tables_number   1
_chemical_formula_structural   Nd4OsRu6W
_chemical_formula_sum   'Nd4 Os1 Ru6 W1'
_cell_volume   230.24372659
_cell_formula_units_Z   1
loop_
 _symmetry_equiv_pos_site_id
 _symmetry_equiv_pos_as_xyz
  1  'x, y, z'
loop_
 _atom_site_type_symbol
 _atom_site_label
 _atom_site_symmetry_multiplicity
 _atom_site_fract_x
 _atom_site_fract_y
 _atom_site_fract_z
 _atom_site_occupancy
  Nd  Nd0  1  0.330193  0.669807  0.436271  1
  Nd  Nd1  1  0.663495  0.336505  0.568156  1
  Nd  Nd2  1  0.663495  0.336505  0.931844  1
  Nd  Nd3  1  0.330193  0.669807  0.063729  1
  Os  Os4  1  0.164252  0.835748  0.750000  1
  Ru  Ru5  1  0.996847  0.003153  0.500743  1
  Ru  Ru6  1  0.996847  0.003153  0.999257  1
  Ru  Ru7  1  0.832486  0.646221  0.250000  1
  Ru  Ru8  1  0.353779  0.167514  0.250000  1
  Ru  Ru9  1  0.160760  0.341069  0.750000  1
  Ru  Ru10  1  0.658931  0.839240  0.750000  1
  W  W11  1  0.848725  0.151275  0.250000  1
