# generated using pymatgen
data_Hf14ZrNb5Si16
_symmetry_space_group_name_H-M   'P 1'
_cell_length_a   6.99581659
_cell_length_b   6.99373669
_cell_length_c   12.80007553
_cell_angle_alpha   90.13735221
_cell_angle_beta   90.06663626
_cell_angle_gamma   89.99946053
_symmetry_Int_Tables_number   1
_chemical_formula_structural   Hf14ZrNb5Si16
_chemical_formula_sum   'Hf14 Zr1 Nb5 Si16'
_cell_volume   626.26578154
_cell_formula_units_Z   1
loop_
 _symmetry_equiv_pos_site_id
 _symmetry_equiv_pos_as_xyz
  1  'x, y, z'
loop_
 _atom_site_type_symbol
 _atom_site_label
 _atom_site_symmetry_multiplicity
 _atom_site_fract_x
 _atom_site_fract_y
 _atom_site_fract_z
 _atom_site_occupancy
  Hf  Hf0  1  0.854653  0.998086  0.373590  1
  Hf  Hf1  1  0.004223  0.146178  0.127207  1
  Hf  Hf2  1  0.997873  0.853315  0.625856  1
  Hf  Hf3  1  0.645393  0.497028  0.876576  1
  Hf  Hf4  1  0.502126  0.354187  0.624319  1
  Hf  Hf5  1  0.498688  0.644917  0.122904  1
  Hf  Hf6  1  0.145037  0.002106  0.873730  1
  Hf  Hf7  1  0.999510  0.653034  0.032550  1
  Hf  Hf8  1  0.001665  0.346762  0.530288  1
  Hf  Hf9  1  0.653775  0.997334  0.968648  1
  Hf  Hf10  1  0.153027  0.501540  0.781529  1
  Hf  Hf11  1  0.847892  0.497838  0.281996  1
  Hf  Hf12  1  0.502447  0.153913  0.219716  1
  Hf  Hf13  1  0.497289  0.844694  0.717271  1
  Zr  Zr14  1  0.345722  0.001816  0.467857  1
  Nb  Nb15  1  0.354304  0.505868  0.375621  1
  Nb  Nb16  1  0.673738  0.673319  0.499319  1
  Nb  Nb17  1  0.824528  0.174648  0.750242  1
  Nb  Nb18  1  0.175775  0.825773  0.250219  1
  Nb  Nb19  1  0.326178  0.325277  0.000734  1
  Si  Si20  1  0.049840  0.697221  0.434574  1
  Si  Si21  1  0.953165  0.302469  0.935967  1
  Si  Si22  1  0.698895  0.048882  0.564499  1
  Si  Si23  1  0.199800  0.453539  0.186988  1
  Si  Si24  1  0.801884  0.546981  0.685122  1
  Si  Si25  1  0.452351  0.196596  0.814939  1
  Si  Si26  1  0.547776  0.799182  0.314093  1
  Si  Si27  1  0.302845  0.952262  0.064984  1
  Si  Si28  1  0.852572  0.796315  0.821943  1
  Si  Si29  1  0.145759  0.210354  0.324059  1
  Si  Si30  1  0.796356  0.853928  0.177552  1
  Si  Si31  1  0.295740  0.643814  0.570476  1
  Si  Si32  1  0.703777  0.352173  0.072694  1
  Si  Si33  1  0.641196  0.298368  0.426288  1
  Si  Si34  1  0.352734  0.702910  0.927785  1
  Si  Si35  1  0.201465  0.147372  0.677862  1
