# generated using pymatgen
data_Sm2Ho3Sn3Bi
_symmetry_space_group_name_H-M   'P 1'
_cell_length_a   8.19128800
_cell_length_b   8.22910900
_cell_length_c   15.52373700
_cell_angle_alpha   90.00000000
_cell_angle_beta   90.00000000
_cell_angle_gamma   90.00000000
_symmetry_Int_Tables_number   1
_chemical_formula_structural   Sm2Ho3Sn3Bi
_chemical_formula_sum   'Sm8 Ho12 Sn12 Bi4'
_cell_volume   1046.40856794
_cell_formula_units_Z   4
loop_
 _symmetry_equiv_pos_site_id
 _symmetry_equiv_pos_as_xyz
  1  'x, y, z'
loop_
 _atom_site_type_symbol
 _atom_site_label
 _atom_site_symmetry_multiplicity
 _atom_site_fract_x
 _atom_site_fract_y
 _atom_site_fract_z
 _atom_site_occupancy
  Sm  Sm0  1  0.531107  0.322148  0.898613  1
  Sm  Sm1  1  0.031107  0.177852  0.601387  1
  Sm  Sm2  1  0.468893  0.677852  0.398613  1
  Sm  Sm3  1  0.968893  0.822148  0.101387  1
  Sm  Sm4  1  0.482376  0.676879  0.100538  1
  Sm  Sm5  1  0.982376  0.823121  0.399462  1
  Sm  Sm6  1  0.517624  0.323121  0.600538  1
  Sm  Sm7  1  0.017624  0.176879  0.899462  1
  Ho  Ho8  1  0.371036  0.838434  0.874514  1
  Ho  Ho9  1  0.871036  0.661566  0.625486  1
  Ho  Ho10  1  0.628964  0.161566  0.374514  1
  Ho  Ho11  1  0.128964  0.338434  0.125486  1
  Ho  Ho12  1  0.637531  0.164608  0.123492  1
  Ho  Ho13  1  0.137531  0.335392  0.376508  1
  Ho  Ho14  1  0.362469  0.835392  0.623492  1
  Ho  Ho15  1  0.862469  0.664608  0.876508  1
  Ho  Ho16  1  0.195790  0.500886  0.747043  1
  Ho  Ho17  1  0.695790  0.999114  0.752957  1
  Ho  Ho18  1  0.804210  0.499114  0.247043  1
  Ho  Ho19  1  0.304210  0.000886  0.252957  1
  Sn  Sn20  1  0.707774  0.963613  0.957778  1
  Sn  Sn21  1  0.207774  0.536387  0.542222  1
  Sn  Sn22  1  0.292226  0.036387  0.457778  1
  Sn  Sn23  1  0.792226  0.463613  0.042222  1
  Sn  Sn24  1  0.563220  0.622903  0.749131  1
  Sn  Sn25  1  0.063220  0.877097  0.750869  1
  Sn  Sn26  1  0.436780  0.377097  0.249131  1
  Sn  Sn27  1  0.936780  0.122903  0.250869  1
  Sn  Sn28  1  0.330527  0.145087  0.750480  1
  Sn  Sn29  1  0.830527  0.354913  0.749520  1
  Sn  Sn30  1  0.669473  0.854913  0.250480  1
  Sn  Sn31  1  0.169473  0.645087  0.249520  1
  Bi  Bi32  1  0.291001  0.036674  0.042075  1
  Bi  Bi33  1  0.791001  0.463326  0.457925  1
  Bi  Bi34  1  0.708999  0.963326  0.542075  1
  Bi  Bi35  1  0.208999  0.536674  0.957925  1
