# generated using pymatgen
data_Dy8Ga(Pd5Pt)4
_symmetry_space_group_name_H-M   'P 1'
_cell_length_a   8.38364800
_cell_length_b   8.37122100
_cell_length_c   8.35385100
_cell_angle_alpha   90.00000000
_cell_angle_beta   90.00000000
_cell_angle_gamma   90.00072550
_symmetry_Int_Tables_number   1
_chemical_formula_structural   Dy8Ga(Pd5Pt)4
_chemical_formula_sum   'Dy8 Ga1 Pd20 Pt4'
_cell_volume   586.28470958
_cell_formula_units_Z   1
loop_
 _symmetry_equiv_pos_site_id
 _symmetry_equiv_pos_as_xyz
  1  'x, y, z'
loop_
 _atom_site_type_symbol
 _atom_site_label
 _atom_site_symmetry_multiplicity
 _atom_site_fract_x
 _atom_site_fract_y
 _atom_site_fract_z
 _atom_site_occupancy
  Dy  Dy0  1  0.251146  0.251711  0.251019  1
  Dy  Dy1  1  0.747578  0.748463  0.748350  1
  Dy  Dy2  1  0.747578  0.748463  0.251650  1
  Dy  Dy3  1  0.748879  0.251037  0.749700  1
  Dy  Dy4  1  0.251146  0.251711  0.748981  1
  Dy  Dy5  1  0.252472  0.747791  0.252289  1
  Dy  Dy6  1  0.252472  0.747791  0.747711  1
  Dy  Dy7  1  0.748879  0.251037  0.250300  1
  Ga  Ga8  1  0.000175  0.003097  0.000000  1
  Pd  Pd9  1  0.260535  0.500265  0.000000  1
  Pd  Pd10  1  0.739404  0.500305  0.000000  1
  Pd  Pd11  1  0.999922  0.260704  0.500000  1
  Pd  Pd12  1  0.500068  0.259508  0.000000  1
  Pd  Pd13  1  0.999989  0.738287  0.500000  1
  Pd  Pd14  1  0.500048  0.739030  0.000000  1
  Pd  Pd15  1  0.500051  0.000186  0.260425  1
  Pd  Pd16  1  0.260939  0.000027  0.500000  1
  Pd  Pd17  1  0.500051  0.000186  0.739575  1
  Pd  Pd18  1  0.738984  0.000086  0.500000  1
  Pd  Pd19  1  0.999967  0.500534  0.261111  1
  Pd  Pd20  1  0.999967  0.500534  0.738889  1
  Pd  Pd21  1  0.747199  0.499814  0.500000  1
  Pd  Pd22  1  0.500042  0.253466  0.500000  1
  Pd  Pd23  1  0.500118  0.746631  0.500000  1
  Pd  Pd24  1  0.500059  0.499674  0.253367  1
  Pd  Pd25  1  0.500059  0.499674  0.746633  1
  Pd  Pd26  1  0.999841  0.709742  0.000000  1
  Pd  Pd27  1  0.999842  0.998990  0.294020  1
  Pd  Pd28  1  0.999842  0.998990  0.705980  1
  Pt  Pt29  1  0.252586  0.499776  0.500000  1
  Pt  Pt30  1  0.292222  0.998217  0.000000  1
  Pt  Pt31  1  0.708090  0.998192  0.000000  1
  Pt  Pt32  1  0.999849  0.296080  0.000000  1
