# generated using pymatgen
data_YB2IrOs
_symmetry_space_group_name_H-M   'P 1'
_cell_length_a   6.81541748
_cell_length_b   6.01066622
_cell_length_c   5.57440785
_cell_angle_alpha   71.96005128
_cell_angle_beta   56.98914830
_cell_angle_gamma   51.05080457
_symmetry_Int_Tables_number   1
_chemical_formula_structural   YB2IrOs
_chemical_formula_sum   'Y2 B4 Ir2 Os2'
_cell_volume   148.73599035
_cell_formula_units_Z   2
loop_
 _symmetry_equiv_pos_site_id
 _symmetry_equiv_pos_as_xyz
  1  'x, y, z'
loop_
 _atom_site_type_symbol
 _atom_site_label
 _atom_site_symmetry_multiplicity
 _atom_site_fract_x
 _atom_site_fract_y
 _atom_site_fract_z
 _atom_site_occupancy
  Y  Y0  1  0.745031  0.745031  0.754969  1
  Y  Y1  1  0.495031  0.495031  0.504969  1
  B  B2  1  0.069377  0.435089  0.059655  1
  B  B3  1  0.814121  0.190345  0.814911  1
  B  B4  1  0.435089  0.069377  0.435879  1
  B  B5  1  0.190345  0.814121  0.180623  1
  Ir  Ir6  1  0.864785  0.864785  0.135215  1
  Ir  Ir7  1  0.114785  0.114785  0.385215  1
  Os  Os8  1  0.385718  0.385718  0.114282  1
  Os  Os9  1  0.135718  0.135718  0.864282  1
