# generated using pymatgen
data_Tb3Th(SbSe)4
_symmetry_space_group_name_H-M   'P 1'
_cell_length_a   17.72215788
_cell_length_b   4.16384445
_cell_length_c   5.92401336
_cell_angle_alpha   45.73340242
_cell_angle_beta   89.98516673
_cell_angle_gamma   89.99993339
_symmetry_Int_Tables_number   1
_chemical_formula_structural   Tb3Th(SbSe)4
_chemical_formula_sum   'Tb3 Th1 Sb4 Se4'
_cell_volume   313.04057823
_cell_formula_units_Z   1
loop_
 _symmetry_equiv_pos_site_id
 _symmetry_equiv_pos_as_xyz
  1  'x, y, z'
loop_
 _atom_site_type_symbol
 _atom_site_label
 _atom_site_symmetry_multiplicity
 _atom_site_fract_x
 _atom_site_fract_y
 _atom_site_fract_z
 _atom_site_occupancy
  Tb  Tb0  1  0.140584  0.493479  0.755239  1
  Tb  Tb1  1  0.649785  0.507929  0.743399  1
  Tb  Tb2  1  0.853080  0.507047  0.244401  1
  Th  Th3  1  0.354894  0.493344  0.255543  1
  Sb  Sb4  1  0.501363  0.998593  0.751176  1
  Sb  Sb5  1  0.998209  0.999728  0.750078  1
  Sb  Sb6  1  0.502591  0.999211  0.250398  1
  Sb  Sb7  1  0.999587  0.999386  0.250711  1
  Se  Se8  1  0.313512  0.492113  0.756374  1
  Se  Se9  1  0.813941  0.508636  0.743275  1
  Se  Se10  1  0.686791  0.508895  0.242867  1
  Se  Se11  1  0.185661  0.491636  0.256538  1
