# generated using pymatgen
data_Ti8Mo4Ir3Pt
_symmetry_space_group_name_H-M   'P 1'
_cell_length_a   6.26567800
_cell_length_b   4.41811100
_cell_length_c   8.88286200
_cell_angle_alpha   90.00000000
_cell_angle_beta   90.00031026
_cell_angle_gamma   90.00000000
_symmetry_Int_Tables_number   1
_chemical_formula_structural   Ti8Mo4Ir3Pt
_chemical_formula_sum   'Ti8 Mo4 Ir3 Pt1'
_cell_volume   245.89947994
_cell_formula_units_Z   1
loop_
 _symmetry_equiv_pos_site_id
 _symmetry_equiv_pos_as_xyz
  1  'x, y, z'
loop_
 _atom_site_type_symbol
 _atom_site_label
 _atom_site_symmetry_multiplicity
 _atom_site_fract_x
 _atom_site_fract_y
 _atom_site_fract_z
 _atom_site_occupancy
  Ti  Ti0  1  0.994733  0.749999  0.125003  1
  Ti  Ti1  1  0.505196  0.749999  0.125010  1
  Ti  Ti2  1  0.997627  0.249999  0.377978  1
  Ti  Ti3  1  0.502388  0.249999  0.377981  1
  Ti  Ti4  1  0.498630  0.749999  0.624997  1
  Ti  Ti5  1  0.001327  0.749999  0.624999  1
  Ti  Ti6  1  0.502402  0.249999  0.872018  1
  Ti  Ti7  1  0.997630  0.249999  0.872017  1
  Mo  Mo8  1  0.749959  0.249999  0.124996  1
  Mo  Mo9  1  0.250049  0.749999  0.373965  1
  Mo  Mo10  1  0.749998  0.249999  0.624984  1
  Mo  Mo11  1  0.250058  0.749999  0.876050  1
  Ir  Ir12  1  0.750062  0.749999  0.375153  1
  Ir  Ir13  1  0.249962  0.249999  0.625009  1
  Ir  Ir14  1  0.750064  0.749999  0.874827  1
  Pt  Pt15  1  0.249915  0.249999  0.125013  1
