# generated using pymatgen
data_TbLu4Co19(SiP5)2
_symmetry_space_group_name_H-M   'P 1'
_cell_length_a   11.97142602
_cell_length_b   11.97346879
_cell_length_c   3.65738200
_cell_angle_alpha   90.00000000
_cell_angle_beta   90.00000000
_cell_angle_gamma   120.03188082
_symmetry_Int_Tables_number   1
_chemical_formula_structural   TbLu4Co19(SiP5)2
_chemical_formula_sum   'Tb1 Lu4 Co19 Si2 P10'
_cell_volume   453.86555013
_cell_formula_units_Z   1
loop_
 _symmetry_equiv_pos_site_id
 _symmetry_equiv_pos_as_xyz
  1  'x, y, z'
loop_
 _atom_site_type_symbol
 _atom_site_label
 _atom_site_symmetry_multiplicity
 _atom_site_fract_x
 _atom_site_fract_y
 _atom_site_fract_z
 _atom_site_occupancy
  Tb  Tb0  1  0.332617  0.667317  0.500000  1
  Lu  Lu1  1  0.667517  0.332620  0.500000  1
  Lu  Lu2  1  0.183891  0.999930  0.000000  1
  Lu  Lu3  1  0.001095  0.184568  0.000000  1
  Lu  Lu4  1  0.813039  0.813458  0.000000  1
  Co  Co5  1  0.202196  0.376518  0.500000  1
  Co  Co6  1  0.625482  0.822029  0.500000  1
  Co  Co7  1  0.173236  0.798835  0.500000  1
  Co  Co8  1  0.820065  0.623374  0.500000  1
  Co  Co9  1  0.798443  0.175120  0.500000  1
  Co  Co10  1  0.378897  0.202615  0.500000  1
  Co  Co11  1  0.555143  0.996343  0.500000  1
  Co  Co12  1  0.996361  0.555149  0.500000  1
  Co  Co13  1  0.448446  0.448541  0.500000  1
  Co  Co14  1  0.126065  0.483886  0.000000  1
  Co  Co15  1  0.518711  0.643162  0.000000  1
  Co  Co16  1  0.356332  0.872812  0.000000  1
  Co  Co17  1  0.642424  0.516235  0.000000  1
  Co  Co18  1  0.871244  0.357055  0.000000  1
  Co  Co19  1  0.486124  0.127558  0.000000  1
  Co  Co20  1  0.717398  0.999614  0.000000  1
  Co  Co21  1  0.996736  0.715896  0.000000  1
  Co  Co22  1  0.286054  0.284692  0.000000  1
  Co  Co23  1  0.000843  0.000816  0.500000  1
  Si  Si24  1  0.367436  0.000043  0.500000  1
  Si  Si25  1  0.999805  0.367344  0.500000  1
  P  P26  1  0.633399  0.633501  0.500000  1
  P  P27  1  0.314861  0.479738  0.000000  1
  P  P28  1  0.521434  0.836698  0.000000  1
  P  P29  1  0.162249  0.684861  0.000000  1
  P  P30  1  0.833479  0.518897  0.000000  1
  P  P31  1  0.685397  0.165381  0.000000  1
  P  P32  1  0.482632  0.314554  0.000000  1
  P  P33  1  0.821190  0.000350  0.500000  1
  P  P34  1  0.998279  0.820088  0.500000  1
  P  P35  1  0.181480  0.180400  0.500000  1
