# generated using pymatgen
data_Dy9TmSn8
_symmetry_space_group_name_H-M   'P 1'
_cell_length_a   8.04169000
_cell_length_b   8.15903800
_cell_length_c   15.45759700
_cell_angle_alpha   90.00000000
_cell_angle_beta   90.00000000
_cell_angle_gamma   90.00000000
_symmetry_Int_Tables_number   1
_chemical_formula_structural   Dy9TmSn8
_chemical_formula_sum   'Dy18 Tm2 Sn16'
_cell_volume   1014.21087666
_cell_formula_units_Z   2
loop_
 _symmetry_equiv_pos_site_id
 _symmetry_equiv_pos_as_xyz
  1  'x, y, z'
loop_
 _atom_site_type_symbol
 _atom_site_label
 _atom_site_symmetry_multiplicity
 _atom_site_fract_x
 _atom_site_fract_y
 _atom_site_fract_z
 _atom_site_occupancy
  Dy  Dy0  1  0.367606  0.837182  0.877586  1
  Dy  Dy1  1  0.867606  0.662818  0.622414  1
  Dy  Dy2  1  0.632411  0.162952  0.378077  1
  Dy  Dy3  1  0.132411  0.337048  0.121923  1
  Dy  Dy4  1  0.632411  0.162952  0.121923  1
  Dy  Dy5  1  0.132411  0.337048  0.378077  1
  Dy  Dy6  1  0.367606  0.837182  0.622414  1
  Dy  Dy7  1  0.867606  0.662818  0.877586  1
  Dy  Dy8  1  0.520776  0.320698  0.902382  1
  Dy  Dy9  1  0.020776  0.179302  0.597618  1
  Dy  Dy10  1  0.479328  0.679315  0.402731  1
  Dy  Dy11  1  0.979328  0.820685  0.097269  1
  Dy  Dy12  1  0.479328  0.679315  0.097269  1
  Dy  Dy13  1  0.979328  0.820685  0.402731  1
  Dy  Dy14  1  0.520776  0.320698  0.597618  1
  Dy  Dy15  1  0.020776  0.179302  0.902382  1
  Dy  Dy16  1  0.801106  0.497162  0.250000  1
  Dy  Dy17  1  0.301106  0.002838  0.250000  1
  Tm  Tm18  1  0.198841  0.502870  0.750000  1
  Tm  Tm19  1  0.698841  0.997130  0.750000  1
  Sn  Sn20  1  0.292863  0.036767  0.041547  1
  Sn  Sn21  1  0.792863  0.463233  0.458453  1
  Sn  Sn22  1  0.707380  0.963708  0.542507  1
  Sn  Sn23  1  0.207380  0.536292  0.957493  1
  Sn  Sn24  1  0.707380  0.963708  0.957493  1
  Sn  Sn25  1  0.207380  0.536292  0.542507  1
  Sn  Sn26  1  0.292863  0.036767  0.458453  1
  Sn  Sn27  1  0.792863  0.463233  0.041547  1
  Sn  Sn28  1  0.564500  0.618392  0.750000  1
  Sn  Sn29  1  0.064500  0.881608  0.750000  1
  Sn  Sn30  1  0.434741  0.381017  0.250000  1
  Sn  Sn31  1  0.934741  0.118983  0.250000  1
  Sn  Sn32  1  0.330042  0.148943  0.750000  1
  Sn  Sn33  1  0.830042  0.351057  0.750000  1
  Sn  Sn34  1  0.670042  0.852378  0.250000  1
  Sn  Sn35  1  0.170042  0.647622  0.250000  1
