# generated using pymatgen
data_SrTbBi2Pt4F28
_symmetry_space_group_name_H-M   'P 1'
_cell_length_a   5.64894764
_cell_length_b   9.20017187
_cell_length_c   12.33818488
_cell_angle_alpha   61.92125269
_cell_angle_beta   90.33292227
_cell_angle_gamma   89.91574342
_symmetry_Int_Tables_number   1
_chemical_formula_structural   SrTbBi2Pt4F28
_chemical_formula_sum   'Sr1 Tb1 Bi2 Pt4 F28'
_cell_volume   565.74343634
_cell_formula_units_Z   1
loop_
 _symmetry_equiv_pos_site_id
 _symmetry_equiv_pos_as_xyz
  1  'x, y, z'
loop_
 _atom_site_type_symbol
 _atom_site_label
 _atom_site_symmetry_multiplicity
 _atom_site_fract_x
 _atom_site_fract_y
 _atom_site_fract_z
 _atom_site_occupancy
  Sr  Sr0  1  0.763571  0.190388  0.235052  1
  Tb  Tb1  1  0.238841  0.809066  0.765232  1
  Bi  Bi2  1  0.275357  0.822528  0.259712  1
  Bi  Bi3  1  0.735585  0.177586  0.738138  1
  Pt  Pt4  1  0.757646  0.731557  0.035609  1
  Pt  Pt5  1  0.240416  0.278227  0.951535  1
  Pt  Pt6  1  0.255590  0.268898  0.463901  1
  Pt  Pt7  1  0.737112  0.726043  0.548530  1
  F  F8  1  0.927964  0.704629  0.426078  1
  F  F9  1  0.072779  0.291123  0.590600  1
  F  F10  1  0.420128  0.299734  0.077714  1
  F  F11  1  0.560258  0.710819  0.910029  1
  F  F12  1  0.468647  0.730421  0.122922  1
  F  F13  1  0.534465  0.273024  0.868207  1
  F  F14  1  0.963000  0.271233  0.380609  1
  F  F15  1  0.023841  0.728864  0.640169  1
  F  F16  1  0.946860  0.744936  0.164021  1
  F  F17  1  0.062652  0.259679  0.820967  1
  F  F18  1  0.431106  0.254904  0.334310  1
  F  F19  1  0.544662  0.744606  0.675371  1
  F  F20  1  0.768138  0.494027  0.130778  1
  F  F21  1  0.232594  0.520886  0.854883  1
  F  F22  1  0.266349  0.507064  0.368199  1
  F  F23  1  0.725620  0.485493  0.643314  1
  F  F24  1  0.946993  0.287868  0.029105  1
  F  F25  1  0.053036  0.724429  0.950598  1
  F  F26  1  0.444580  0.719261  0.462918  1
  F  F27  1  0.559760  0.275066  0.542858  1
  F  F28  1  0.740371  0.964731  0.458779  1
  F  F29  1  0.254786  0.025976  0.556867  1
  F  F30  1  0.239737  0.035743  0.045365  1
  F  F31  1  0.757131  0.975677  0.945817  1
  F  F32  1  0.600282  0.951377  0.227387  1
  F  F33  1  0.412406  0.022764  0.768803  1
  F  F34  1  0.123521  0.023699  0.274454  1
  F  F35  1  0.914212  0.967676  0.731169  1
