# generated using pymatgen
data_Nd4Al9Ga15IrPd
_symmetry_space_group_name_H-M   'P 1'
_cell_length_a   6.06974575
_cell_length_b   6.06974663
_cell_length_c   15.81913205
_cell_angle_alpha   90.17650589
_cell_angle_beta   90.17650676
_cell_angle_gamma   89.86043333
_symmetry_Int_Tables_number   1
_chemical_formula_structural   Nd4Al9Ga15IrPd
_chemical_formula_sum   'Nd4 Al9 Ga15 Ir1 Pd1'
_cell_volume   582.79835027
_cell_formula_units_Z   1
loop_
 _symmetry_equiv_pos_site_id
 _symmetry_equiv_pos_as_xyz
  1  'x, y, z'
loop_
 _atom_site_type_symbol
 _atom_site_label
 _atom_site_symmetry_multiplicity
 _atom_site_fract_x
 _atom_site_fract_y
 _atom_site_fract_z
 _atom_site_occupancy
  Nd  Nd0  1  0.751756  0.251756  0.248662  1
  Nd  Nd1  1  0.250924  0.750924  0.248096  1
  Nd  Nd2  1  0.248687  0.748687  0.751958  1
  Nd  Nd3  1  0.749067  0.249067  0.750827  1
  Al  Al4  1  0.501807  0.001807  0.913283  1
  Al  Al5  1  0.997918  0.002071  0.913396  1
  Al  Al6  1  0.502071  0.497918  0.913396  1
  Al  Al7  1  0.997206  0.497206  0.913352  1
  Al  Al8  1  0.502371  0.002371  0.086254  1
  Al  Al9  1  0.997667  0.002113  0.086882  1
  Al  Al10  1  0.502113  0.497667  0.086882  1
  Al  Al11  1  0.998467  0.498467  0.086295  1
  Al  Al12  1  0.582520  0.082520  0.433686  1
  Ga  Ga13  1  0.250300  0.250494  0.187113  1
  Ga  Ga14  1  0.750494  0.750300  0.187113  1
  Ga  Ga15  1  0.749553  0.749276  0.812910  1
  Ga  Ga16  1  0.249276  0.249553  0.812910  1
  Ga  Ga17  1  0.253785  0.249817  0.343288  1
  Ga  Ga18  1  0.749817  0.753785  0.343288  1
  Ga  Ga19  1  0.749286  0.747936  0.656689  1
  Ga  Ga20  1  0.247936  0.249286  0.656689  1
  Ga  Ga21  1  0.081265  0.921796  0.430790  1
  Ga  Ga22  1  0.421796  0.581265  0.430790  1
  Ga  Ga23  1  0.920282  0.420282  0.431134  1
  Ga  Ga24  1  0.418514  0.918514  0.569456  1
  Ga  Ga25  1  0.918744  0.076809  0.568157  1
  Ga  Ga26  1  0.576809  0.418744  0.568157  1
  Ga  Ga27  1  0.079685  0.579685  0.568549  1
  Ir  Ir28  1  0.749886  0.249886  0.000038  1
  Pd  Pd29  1  0.249999  0.749999  0.999959  1
