# generated using pymatgen
data_Zr3GaAs
_symmetry_space_group_name_H-M   'P 1'
_cell_length_a   7.28451300
_cell_length_b   7.27699700
_cell_length_c   3.71724000
_cell_angle_alpha   90.00000000
_cell_angle_beta   90.00000000
_cell_angle_gamma   90.00000000
_symmetry_Int_Tables_number   1
_chemical_formula_structural   Zr3GaAs
_chemical_formula_sum   'Zr6 Ga2 As2'
_cell_volume   197.04858491
_cell_formula_units_Z   2
loop_
 _symmetry_equiv_pos_site_id
 _symmetry_equiv_pos_as_xyz
  1  'x, y, z'
loop_
 _atom_site_type_symbol
 _atom_site_label
 _atom_site_symmetry_multiplicity
 _atom_site_fract_x
 _atom_site_fract_y
 _atom_site_fract_z
 _atom_site_occupancy
  Zr  Zr0  1  0.000961  0.002797  0.000000  1
  Zr  Zr1  1  0.500961  0.497203  0.000000  1
  Zr  Zr2  1  0.669123  0.175323  0.500000  1
  Zr  Zr3  1  0.169123  0.324677  0.500000  1
  Zr  Zr4  1  0.826534  0.667100  0.500000  1
  Zr  Zr5  1  0.326534  0.832900  0.500000  1
  Ga  Ga6  1  0.630582  0.868724  0.000000  1
  Ga  Ga7  1  0.130582  0.631276  0.000000  1
  As  As8  1  0.872800  0.373961  0.000000  1
  As  As9  1  0.372800  0.126039  0.000000  1
