# generated using pymatgen
data_Sc8Ti9Nb2Si16Ru
_symmetry_space_group_name_H-M   'P 1'
_cell_length_a   6.64895573
_cell_length_b   6.81083441
_cell_length_c   13.01237700
_cell_angle_alpha   90.00000000
_cell_angle_beta   90.00000000
_cell_angle_gamma   90.06806755
_symmetry_Int_Tables_number   1
_chemical_formula_structural   Sc8Ti9Nb2Si16Ru
_chemical_formula_sum   'Sc8 Ti9 Nb2 Si16 Ru1'
_cell_volume   589.26424992
_cell_formula_units_Z   1
loop_
 _symmetry_equiv_pos_site_id
 _symmetry_equiv_pos_as_xyz
  1  'x, y, z'
loop_
 _atom_site_type_symbol
 _atom_site_label
 _atom_site_symmetry_multiplicity
 _atom_site_fract_x
 _atom_site_fract_y
 _atom_site_fract_z
 _atom_site_occupancy
  Sc  Sc0  1  0.498110  0.675088  0.595340  1
  Sc  Sc1  1  0.002681  0.827203  0.904632  1
  Sc  Sc2  1  0.498173  0.324868  0.094897  1
  Sc  Sc3  1  0.996469  0.174221  0.405206  1
  Sc  Sc4  1  0.498173  0.324868  0.405103  1
  Sc  Sc5  1  0.996469  0.174221  0.094794  1
  Sc  Sc6  1  0.498110  0.675088  0.904660  1
  Sc  Sc7  1  0.002681  0.827203  0.595368  1
  Ti  Ti8  1  0.664407  0.171093  0.626054  1
  Ti  Ti9  1  0.168649  0.327473  0.873701  1
  Ti  Ti10  1  0.337687  0.825397  0.126317  1
  Ti  Ti11  1  0.834722  0.674436  0.374549  1
  Ti  Ti12  1  0.337687  0.825397  0.373683  1
  Ti  Ti13  1  0.834722  0.674436  0.125451  1
  Ti  Ti14  1  0.664407  0.171093  0.873946  1
  Ti  Ti15  1  0.168649  0.327473  0.626299  1
  Ti  Ti16  1  0.162263  0.507099  0.250000  1
  Nb  Nb17  1  0.336687  0.007415  0.750000  1
  Nb  Nb18  1  0.662585  0.993233  0.250000  1
  Si  Si19  1  0.665199  0.964462  0.460619  1
  Si  Si20  1  0.164505  0.535612  0.039270  1
  Si  Si21  1  0.334046  0.035584  0.960726  1
  Si  Si22  1  0.834997  0.463933  0.542981  1
  Si  Si23  1  0.334046  0.035584  0.539274  1
  Si  Si24  1  0.834997  0.463933  0.957019  1
  Si  Si25  1  0.665199  0.964462  0.039381  1
  Si  Si26  1  0.164505  0.535612  0.460730  1
  Si  Si27  1  0.470268  0.387110  0.750000  1
  Si  Si28  1  0.959294  0.119540  0.750000  1
  Si  Si29  1  0.536641  0.615003  0.250000  1
  Si  Si30  1  0.040474  0.880909  0.250000  1
  Si  Si31  1  0.706156  0.858434  0.750000  1
  Si  Si32  1  0.199456  0.632635  0.750000  1
  Si  Si33  1  0.292103  0.137723  0.250000  1
  Si  Si34  1  0.796081  0.367217  0.250000  1
  Ru  Ru35  1  0.838698  0.494944  0.750000  1
