# generated using pymatgen
data_Tc3(TeCl)7
_symmetry_space_group_name_H-M   'P 1'
_cell_length_a   13.21874120
_cell_length_b   13.21874215
_cell_length_c   13.21874129
_cell_angle_alpha   45.97667546
_cell_angle_beta   45.97667362
_cell_angle_gamma   45.97667046
_symmetry_Int_Tables_number   1
_chemical_formula_structural   Tc3(TeCl)7
_chemical_formula_sum   'Tc6 Te14 Cl14'
_cell_volume   1089.25550986
_cell_formula_units_Z   2
loop_
 _symmetry_equiv_pos_site_id
 _symmetry_equiv_pos_as_xyz
  1  'x, y, z'
loop_
 _atom_site_type_symbol
 _atom_site_label
 _atom_site_symmetry_multiplicity
 _atom_site_fract_x
 _atom_site_fract_y
 _atom_site_fract_z
 _atom_site_occupancy
  Tc  Tc0  1  0.867621  0.167517  0.060140  1
  Tc  Tc1  1  0.832483  0.939860  0.132379  1
  Tc  Tc2  1  0.132379  0.832483  0.939860  1
  Tc  Tc3  1  0.167517  0.060140  0.867621  1
  Tc  Tc4  1  0.939860  0.132379  0.832483  1
  Tc  Tc5  1  0.060140  0.867621  0.167517  1
  Te  Te6  1  0.355792  0.760662  0.975195  1
  Te  Te7  1  0.681010  0.403586  0.138997  1
  Te  Te8  1  0.239338  0.024805  0.644208  1
  Te  Te9  1  0.138997  0.681010  0.403586  1
  Te  Te10  1  0.975195  0.355792  0.760662  1
  Te  Te11  1  0.318990  0.596414  0.861003  1
  Te  Te12  1  0.861003  0.318990  0.596414  1
  Te  Te13  1  0.906857  0.906857  0.906857  1
  Te  Te14  1  0.596414  0.861003  0.318990  1
  Te  Te15  1  0.644208  0.239338  0.024805  1
  Te  Te16  1  0.403586  0.138997  0.681010  1
  Te  Te17  1  0.024805  0.644208  0.239338  1
  Te  Te18  1  0.093143  0.093143  0.093143  1
  Te  Te19  1  0.760662  0.975195  0.355792  1
  Cl  Cl20  1  0.640078  0.295276  0.696836  1
  Cl  Cl21  1  0.359922  0.704724  0.303164  1
  Cl  Cl22  1  0.541490  0.974216  0.838360  1
  Cl  Cl23  1  0.632074  0.632074  0.632074  1
  Cl  Cl24  1  0.838360  0.541490  0.974216  1
  Cl  Cl25  1  0.161640  0.458510  0.025784  1
  Cl  Cl26  1  0.367926  0.367926  0.367926  1
  Cl  Cl27  1  0.974216  0.838360  0.541490  1
  Cl  Cl28  1  0.025784  0.161640  0.458510  1
  Cl  Cl29  1  0.696836  0.640078  0.295276  1
  Cl  Cl30  1  0.303164  0.359922  0.704724  1
  Cl  Cl31  1  0.704724  0.303164  0.359922  1
  Cl  Cl32  1  0.295276  0.696836  0.640078  1
  Cl  Cl33  1  0.458510  0.025784  0.161640  1
