# generated using pymatgen
data_Sm2Th5Te12
_symmetry_space_group_name_H-M   'P 1'
_cell_length_a   12.58223112
_cell_length_b   12.56287810
_cell_length_c   4.35703400
_cell_angle_alpha   90.00000000
_cell_angle_beta   90.00000000
_cell_angle_gamma   119.63209867
_symmetry_Int_Tables_number   1
_chemical_formula_structural   Sm2Th5Te12
_chemical_formula_sum   'Sm2 Th5 Te12'
_cell_volume   598.64105956
_cell_formula_units_Z   1
loop_
 _symmetry_equiv_pos_site_id
 _symmetry_equiv_pos_as_xyz
  1  'x, y, z'
loop_
 _atom_site_type_symbol
 _atom_site_label
 _atom_site_symmetry_multiplicity
 _atom_site_fract_x
 _atom_site_fract_y
 _atom_site_fract_z
 _atom_site_occupancy
  Sm  Sm0  1  0.726154  0.161119  0.000000  1
  Sm  Sm1  1  0.843155  0.564552  0.000000  1
  Th  Th2  1  0.434118  0.276418  0.000000  1
  Th  Th3  1  0.552341  0.712741  0.500000  1
  Th  Th4  1  0.288528  0.839588  0.500000  1
  Th  Th5  1  0.158257  0.448187  0.500000  1
  Th  Th6  1  0.994915  0.995951  0.000000  1
  Te  Te7  1  0.743995  0.748543  0.000000  1
  Te  Te8  1  0.246909  0.993604  0.000000  1
  Te  Te9  1  0.006916  0.253909  0.000000  1
  Te  Te10  1  0.492602  0.867470  0.000000  1
  Te  Te11  1  0.134107  0.626662  0.000000  1
  Te  Te12  1  0.373990  0.508986  0.000000  1
  Te  Te13  1  0.865008  0.387627  0.500000  1
  Te  Te14  1  0.215639  0.212579  0.500000  1
  Te  Te15  1  0.998845  0.788602  0.500000  1
  Te  Te16  1  0.789312  0.001267  0.500000  1
  Te  Te17  1  0.522318  0.135923  0.500000  1
  Te  Te18  1  0.612893  0.476270  0.500000  1
