# generated using pymatgen
data_Lu3Si3Rh2
_symmetry_space_group_name_H-M   'P 1'
_cell_length_a   5.62548231
_cell_length_b   5.62548160
_cell_length_c   13.50516500
_cell_angle_alpha   90.00000000
_cell_angle_beta   90.00000000
_cell_angle_gamma   136.74341692
_symmetry_Int_Tables_number   1
_chemical_formula_structural   Lu3Si3Rh2
_chemical_formula_sum   'Lu6 Si6 Rh4'
_cell_volume   292.87275836
_cell_formula_units_Z   2
loop_
 _symmetry_equiv_pos_site_id
 _symmetry_equiv_pos_as_xyz
  1  'x, y, z'
loop_
 _atom_site_type_symbol
 _atom_site_label
 _atom_site_symmetry_multiplicity
 _atom_site_fract_x
 _atom_site_fract_y
 _atom_site_fract_z
 _atom_site_occupancy
  Lu  Lu0  1  0.921099  0.078901  0.385827  1
  Lu  Lu1  1  0.078901  0.921099  0.614173  1
  Lu  Lu2  1  0.921099  0.078901  0.114173  1
  Lu  Lu3  1  0.078901  0.921099  0.885827  1
  Lu  Lu4  1  0.644756  0.355244  0.250000  1
  Lu  Lu5  1  0.355244  0.644756  0.750000  1
  Si  Si6  1  0.607926  0.392074  0.461601  1
  Si  Si7  1  0.392074  0.607926  0.538399  1
  Si  Si8  1  0.607926  0.392074  0.038399  1
  Si  Si9  1  0.392074  0.607926  0.961601  1
  Si  Si10  1  0.339359  0.660641  0.250000  1
  Si  Si11  1  0.660641  0.339359  0.750000  1
  Rh  Rh12  1  0.787760  0.212240  0.915466  1
  Rh  Rh13  1  0.212240  0.787760  0.084534  1
  Rh  Rh14  1  0.787760  0.212240  0.584534  1
  Rh  Rh15  1  0.212240  0.787760  0.415466  1
