# generated using pymatgen
data_Hf5Zr(GeAs5)2
_symmetry_space_group_name_H-M   'P 1'
_cell_length_a   3.70056400
_cell_length_b   6.76899480
_cell_length_c   27.33910356
_cell_angle_alpha   89.95274272
_cell_angle_beta   90.00000000
_cell_angle_gamma   90.00000000
_symmetry_Int_Tables_number   1
_chemical_formula_structural   Hf5Zr(GeAs5)2
_chemical_formula_sum   'Hf10 Zr2 Ge4 As20'
_cell_volume   684.81966458
_cell_formula_units_Z   2
loop_
 _symmetry_equiv_pos_site_id
 _symmetry_equiv_pos_as_xyz
  1  'x, y, z'
loop_
 _atom_site_type_symbol
 _atom_site_label
 _atom_site_symmetry_multiplicity
 _atom_site_fract_x
 _atom_site_fract_y
 _atom_site_fract_z
 _atom_site_occupancy
  Hf  Hf0  1  0.500000  0.730518  0.719701  1
  Hf  Hf1  1  0.500000  0.726739  0.386426  1
  Hf  Hf2  1  0.500000  0.726886  0.053110  1
  Hf  Hf3  1  0.500000  0.228956  0.781095  1
  Hf  Hf4  1  0.000000  0.269505  0.945251  1
  Hf  Hf5  1  0.000000  0.268838  0.610831  1
  Hf  Hf6  1  0.000000  0.269949  0.278621  1
  Hf  Hf7  1  0.000000  0.769575  0.888640  1
  Hf  Hf8  1  0.000000  0.770312  0.555522  1
  Hf  Hf9  1  0.000000  0.771135  0.221703  1
  Zr  Zr10  1  0.500000  0.230572  0.446151  1
  Zr  Zr11  1  0.500000  0.230565  0.113338  1
  Ge  Ge12  1  0.500000  0.628406  0.818599  1
  Ge  Ge13  1  0.500000  0.628685  0.485378  1
  Ge  Ge14  1  0.500000  0.628509  0.152150  1
  Ge  Ge15  1  0.500000  0.129383  0.681762  1
  As  As16  1  0.500000  0.579378  0.950972  1
  As  As17  1  0.500000  0.581477  0.617456  1
  As  As18  1  0.500000  0.580269  0.284095  1
  As  As19  1  0.500000  0.078626  0.883486  1
  As  As20  1  0.500000  0.081209  0.549857  1
  As  As21  1  0.500000  0.079955  0.217202  1
  As  As22  1  0.000000  0.406859  0.716256  1
  As  As23  1  0.000000  0.417067  0.381561  1
  As  As24  1  0.000000  0.416517  0.048572  1
  As  As25  1  0.000000  0.907801  0.784100  1
  As  As26  1  0.000000  0.907105  0.450436  1
  As  As27  1  0.000000  0.906900  0.117101  1
  As  As28  1  0.500000  0.121972  0.347348  1
  As  As29  1  0.500000  0.122583  0.014126  1
  As  As30  1  0.000000  0.386816  0.847136  1
  As  As31  1  0.000000  0.386162  0.513389  1
  As  As32  1  0.000000  0.387258  0.180520  1
  As  As33  1  0.000000  0.878846  0.985791  1
  As  As34  1  0.000000  0.886315  0.653288  1
  As  As35  1  0.000000  0.878353  0.319031  1
