# generated using pymatgen
data_Dy9Er(InBi)3
_symmetry_space_group_name_H-M   'P 1'
_cell_length_a   9.07053400
_cell_length_b   9.07053548
_cell_length_c   6.57581000
_cell_angle_alpha   90.00000000
_cell_angle_beta   90.00000000
_cell_angle_gamma   120.00000190
_symmetry_Int_Tables_number   1
_chemical_formula_structural   Dy9Er(InBi)3
_chemical_formula_sum   'Dy9 Er1 In3 Bi3'
_cell_volume   468.53890865
_cell_formula_units_Z   1
loop_
 _symmetry_equiv_pos_site_id
 _symmetry_equiv_pos_as_xyz
  1  'x, y, z'
loop_
 _atom_site_type_symbol
 _atom_site_label
 _atom_site_symmetry_multiplicity
 _atom_site_fract_x
 _atom_site_fract_y
 _atom_site_fract_z
 _atom_site_occupancy
  Dy  Dy0  1  0.666667  0.333333  0.006725  1
  Dy  Dy1  1  0.333333  0.666667  0.006778  1
  Dy  Dy2  1  0.333333  0.666667  0.493326  1
  Dy  Dy3  1  0.763603  0.763578  0.749889  1
  Dy  Dy4  1  0.236422  0.000025  0.749889  1
  Dy  Dy5  1  0.999975  0.236397  0.749889  1
  Dy  Dy6  1  0.238249  0.238140  0.250075  1
  Dy  Dy7  1  0.761860  0.000109  0.250075  1
  Dy  Dy8  1  0.999891  0.761751  0.250075  1
  Er  Er9  1  0.666667  0.333333  0.493072  1
  In  In10  1  0.606539  0.606210  0.250287  1
  In  In11  1  0.393790  0.000329  0.250287  1
  In  In12  1  0.999671  0.393461  0.250287  1
  Bi  Bi13  1  0.396226  0.395862  0.749781  1
  Bi  Bi14  1  0.604138  0.000364  0.749781  1
  Bi  Bi15  1  0.999636  0.603774  0.749781  1
