# generated using pymatgen
data_La4Pr7Nd5(CdIr)4
_symmetry_space_group_name_H-M   'P 1'
_cell_length_a   10.04252628
_cell_length_b   10.04252522
_cell_length_c   10.03221800
_cell_angle_alpha   60.03394581
_cell_angle_beta   60.03394932
_cell_angle_gamma   60.05701784
_symmetry_Int_Tables_number   1
_chemical_formula_structural   La4Pr7Nd5(CdIr)4
_chemical_formula_sum   'La4 Pr7 Nd5 Cd4 Ir4'
_cell_volume   716.10632526
_cell_formula_units_Z   1
loop_
 _symmetry_equiv_pos_site_id
 _symmetry_equiv_pos_as_xyz
  1  'x, y, z'
loop_
 _atom_site_type_symbol
 _atom_site_label
 _atom_site_symmetry_multiplicity
 _atom_site_fract_x
 _atom_site_fract_y
 _atom_site_fract_z
 _atom_site_occupancy
  La  La0  1  0.347575  0.347575  0.347572  1
  La  La1  1  0.347575  0.347575  0.957277  1
  La  La2  1  0.347510  0.956858  0.347815  1
  La  La3  1  0.956858  0.347510  0.347815  1
  Pr  Pr4  1  0.810333  0.810333  0.189667  1
  Pr  Pr5  1  0.938402  0.561579  0.561936  1
  Pr  Pr6  1  0.561579  0.938402  0.938083  1
  Pr  Pr7  1  0.561579  0.938402  0.561936  1
  Pr  Pr8  1  0.938402  0.561579  0.938083  1
  Pr  Pr9  1  0.561851  0.561851  0.938149  1
  Pr  Pr10  1  0.938344  0.938344  0.561656  1
  Nd  Nd11  1  0.810458  0.189589  0.189686  1
  Nd  Nd12  1  0.189589  0.810458  0.810267  1
  Nd  Nd13  1  0.189589  0.810458  0.189686  1
  Nd  Nd14  1  0.810458  0.189589  0.810267  1
  Nd  Nd15  1  0.189486  0.189486  0.810514  1
  Cd  Cd16  1  0.579768  0.579768  0.579915  1
  Cd  Cd17  1  0.579768  0.579768  0.260548  1
  Cd  Cd18  1  0.579882  0.260374  0.579871  1
  Cd  Cd19  1  0.260374  0.579882  0.579871  1
  Ir  Ir20  1  0.141932  0.141932  0.141497  1
  Ir  Ir21  1  0.141932  0.141932  0.574639  1
  Ir  Ir22  1  0.142445  0.574310  0.141623  1
  Ir  Ir23  1  0.574310  0.142445  0.141623  1
