# generated using pymatgen
data_Zr6Al16Cu2PtRh4
_symmetry_space_group_name_H-M   'P 1'
_cell_length_a   8.72334808
_cell_length_b   8.71429502
_cell_length_c   8.73990673
_cell_angle_alpha   59.86034770
_cell_angle_beta   59.86862795
_cell_angle_gamma   60.16003049
_symmetry_Int_Tables_number   1
_chemical_formula_structural   Zr6Al16Cu2PtRh4
_chemical_formula_sum   'Zr6 Al16 Cu2 Pt1 Rh4'
_cell_volume   469.39124966
_cell_formula_units_Z   1
loop_
 _symmetry_equiv_pos_site_id
 _symmetry_equiv_pos_as_xyz
  1  'x, y, z'
loop_
 _atom_site_type_symbol
 _atom_site_label
 _atom_site_symmetry_multiplicity
 _atom_site_fract_x
 _atom_site_fract_y
 _atom_site_fract_z
 _atom_site_occupancy
  Zr  Zr0  1  0.675892  0.675598  0.324402  1
  Zr  Zr1  1  0.303530  0.696683  0.303317  1
  Zr  Zr2  1  0.695700  0.304300  0.304300  1
  Zr  Zr3  1  0.324108  0.324402  0.675598  1
  Zr  Zr4  1  0.696470  0.303317  0.696683  1
  Zr  Zr5  1  0.304300  0.695700  0.695700  1
  Al  Al6  1  0.876343  0.874836  0.358346  1
  Al  Al7  1  0.890473  0.358346  0.874836  1
  Al  Al8  1  0.357732  0.887906  0.874012  1
  Al  Al9  1  0.880347  0.874012  0.887906  1
  Al  Al10  1  0.123657  0.125164  0.641654  1
  Al  Al11  1  0.109527  0.641654  0.125164  1
  Al  Al12  1  0.642268  0.112094  0.125988  1
  Al  Al13  1  0.119653  0.125988  0.112094  1
  Al  Al14  1  0.665762  0.660232  0.003466  1
  Al  Al15  1  0.670538  0.003466  0.660232  1
  Al  Al16  1  0.003930  0.668283  0.663679  1
  Al  Al17  1  0.664105  0.663679  0.668283  1
  Al  Al18  1  0.334238  0.339768  0.996534  1
  Al  Al19  1  0.329462  0.996534  0.339768  1
  Al  Al20  1  0.996070  0.331717  0.336321  1
  Al  Al21  1  0.335895  0.336321  0.331717  1
  Cu  Cu22  1  0.000000  0.000000  0.500000  1
  Cu  Cu23  1  0.500000  0.500000  0.000000  1
  Pt  Pt24  1  0.500000  0.000000  0.000000  1
  Rh  Rh25  1  0.000000  0.000000  0.000000  1
  Rh  Rh26  1  0.500000  0.000000  0.500000  1
  Rh  Rh27  1  0.000000  0.500000  0.500000  1
  Rh  Rh28  1  0.000000  0.500000  0.000000  1
