# generated using pymatgen
data_Sc5AlRu4
_symmetry_space_group_name_H-M   'P 1'
_cell_length_a   3.24641600
_cell_length_b   3.24641600
_cell_length_c   16.35096000
_cell_angle_alpha   90.00000000
_cell_angle_beta   90.00000000
_cell_angle_gamma   90.00000000
_symmetry_Int_Tables_number   1
_chemical_formula_structural   Sc5AlRu4
_chemical_formula_sum   'Sc5 Al1 Ru4'
_cell_volume   172.32631306
_cell_formula_units_Z   1
loop_
 _symmetry_equiv_pos_site_id
 _symmetry_equiv_pos_as_xyz
  1  'x, y, z'
loop_
 _atom_site_type_symbol
 _atom_site_label
 _atom_site_symmetry_multiplicity
 _atom_site_fract_x
 _atom_site_fract_y
 _atom_site_fract_z
 _atom_site_occupancy
  Sc  Sc0  1  0.000000  0.000000  0.884596  1
  Sc  Sc1  1  0.000000  0.000000  0.115404  1
  Sc  Sc2  1  0.000000  0.000000  0.305097  1
  Sc  Sc3  1  0.000000  0.000000  0.500000  1
  Sc  Sc4  1  0.000000  0.000000  0.694903  1
  Al  Al5  1  0.500000  0.500000  0.000000  1
  Ru  Ru6  1  0.500000  0.500000  0.203537  1
  Ru  Ru7  1  0.500000  0.500000  0.401275  1
  Ru  Ru8  1  0.500000  0.500000  0.598725  1
  Ru  Ru9  1  0.500000  0.500000  0.796463  1
