# generated using pymatgen
data_Y8Si12OsPt3
_symmetry_space_group_name_H-M   'P 1'
_cell_length_a   8.16678100
_cell_length_b   8.16678055
_cell_length_c   8.15303100
_cell_angle_alpha   90.00000000
_cell_angle_beta   90.00000000
_cell_angle_gamma   120.00000589
_symmetry_Int_Tables_number   1
_chemical_formula_structural   Y8Si12OsPt3
_chemical_formula_sum   'Y8 Si12 Os1 Pt3'
_cell_volume   470.92472717
_cell_formula_units_Z   1
loop_
 _symmetry_equiv_pos_site_id
 _symmetry_equiv_pos_as_xyz
  1  'x, y, z'
loop_
 _atom_site_type_symbol
 _atom_site_label
 _atom_site_symmetry_multiplicity
 _atom_site_fract_x
 _atom_site_fract_y
 _atom_site_fract_z
 _atom_site_occupancy
  Y  Y0  1  0.000000  0.000000  0.249248  1
  Y  Y1  1  0.000000  0.000000  0.749795  1
  Y  Y2  1  0.000442  0.500220  0.255307  1
  Y  Y3  1  0.499780  0.500220  0.255307  1
  Y  Y4  1  0.505808  0.011616  0.745313  1
  Y  Y5  1  0.499780  0.999558  0.255307  1
  Y  Y6  1  0.505808  0.494192  0.745313  1
  Y  Y7  1  0.988384  0.494192  0.745313  1
  Si  Si8  1  0.165966  0.331933  0.004315  1
  Si  Si9  1  0.668067  0.834034  0.004315  1
  Si  Si10  1  0.164596  0.329191  0.498568  1
  Si  Si11  1  0.330601  0.165300  0.995486  1
  Si  Si12  1  0.165966  0.834034  0.004315  1
  Si  Si13  1  0.670809  0.835404  0.498568  1
  Si  Si14  1  0.834700  0.669399  0.995486  1
  Si  Si15  1  0.334935  0.167467  0.501612  1
  Si  Si16  1  0.164596  0.835404  0.498568  1
  Si  Si17  1  0.832533  0.665065  0.501612  1
  Si  Si18  1  0.834700  0.165300  0.995486  1
  Si  Si19  1  0.832533  0.167467  0.501612  1
  Os  Os20  1  0.666667  0.333333  0.487460  1
  Pt  Pt21  1  0.333333  0.666667  0.987932  1
  Pt  Pt22  1  0.333333  0.666667  0.510303  1
  Pt  Pt23  1  0.666667  0.333333  0.013462  1
