# generated using pymatgen
data_Nb16VFe2CoTe16
_symmetry_space_group_name_H-M   'P 1'
_cell_length_a   4.87710300
_cell_length_b   11.30143802
_cell_length_c   19.99479106
_cell_angle_alpha   89.99876428
_cell_angle_beta   90.00000000
_cell_angle_gamma   90.00000000
_symmetry_Int_Tables_number   1
_chemical_formula_structural   Nb16VFe2CoTe16
_chemical_formula_sum   'Nb16 V1 Fe2 Co1 Te16'
_cell_volume   1102.07843723
_cell_formula_units_Z   1
loop_
 _symmetry_equiv_pos_site_id
 _symmetry_equiv_pos_as_xyz
  1  'x, y, z'
loop_
 _atom_site_type_symbol
 _atom_site_label
 _atom_site_symmetry_multiplicity
 _atom_site_fract_x
 _atom_site_fract_y
 _atom_site_fract_z
 _atom_site_occupancy
  Nb  Nb0  1  0.503336  0.563826  0.386192  1
  Nb  Nb1  1  0.503336  0.436174  0.613808  1
  Nb  Nb2  1  0.500544  0.062158  0.110783  1
  Nb  Nb3  1  0.500544  0.937842  0.889217  1
  Nb  Nb4  1  0.503254  0.701635  0.535865  1
  Nb  Nb5  1  0.503254  0.298365  0.464135  1
  Nb  Nb6  1  0.500663  0.196214  0.965114  1
  Nb  Nb7  1  0.500663  0.803786  0.034886  1
  Nb  Nb8  1  0.997674  0.687717  0.444787  1
  Nb  Nb9  1  0.997674  0.312283  0.555213  1
  Nb  Nb10  1  0.998502  0.182741  0.053688  1
  Nb  Nb11  1  0.998502  0.817259  0.946312  1
  Nb  Nb12  1  0.997098  0.402745  0.394076  1
  Nb  Nb13  1  0.997098  0.597255  0.605924  1
  Nb  Nb14  1  0.998965  0.905283  0.103052  1
  Nb  Nb15  1  0.998965  0.094717  0.896948  1
  V  V16  1  0.249725  0.500000  0.500000  1
  Fe  Fe17  1  0.750002  0.500000  0.500000  1
  Fe  Fe18  1  0.250208  0.000000  0.000000  1
  Co  Co19  1  0.750263  0.000000  0.000000  1
  Te  Te20  1  0.998793  0.836710  0.560163  1
  Te  Te21  1  0.998793  0.163290  0.439837  1
  Te  Te22  1  0.998694  0.335716  0.940038  1
  Te  Te23  1  0.998694  0.664284  0.059962  1
  Te  Te24  1  0.501484  0.337093  0.323102  1
  Te  Te25  1  0.501484  0.662907  0.676898  1
  Te  Te26  1  0.500943  0.837727  0.176251  1
  Te  Te27  1  0.500943  0.162273  0.823749  1
  Te  Te28  1  0.502181  0.813763  0.407876  1
  Te  Te29  1  0.502181  0.186237  0.592124  1
  Te  Te30  1  0.500414  0.312756  0.091798  1
  Te  Te31  1  0.500414  0.687244  0.908202  1
  Te  Te32  1  0.998854  0.606529  0.309608  1
  Te  Te33  1  0.998854  0.393471  0.690392  1
  Te  Te34  1  0.998501  0.106153  0.189673  1
  Te  Te35  1  0.998501  0.893847  0.810327  1
