# generated using pymatgen
data_RbAlSnSe4
_symmetry_space_group_name_H-M   'P 1'
_cell_length_a   7.58259400
_cell_length_b   8.75337604
_cell_length_c   16.06007179
_cell_angle_alpha   84.77769492
_cell_angle_beta   86.45075219
_cell_angle_gamma   65.11671737
_symmetry_Int_Tables_number   1
_chemical_formula_structural   RbAlSnSe4
_chemical_formula_sum   'Rb4 Al4 Sn4 Se16'
_cell_volume   962.66060921
_cell_formula_units_Z   4
loop_
 _symmetry_equiv_pos_site_id
 _symmetry_equiv_pos_as_xyz
  1  'x, y, z'
loop_
 _atom_site_type_symbol
 _atom_site_label
 _atom_site_symmetry_multiplicity
 _atom_site_fract_x
 _atom_site_fract_y
 _atom_site_fract_z
 _atom_site_occupancy
  Rb  Rb0  1  0.077375  0.782365  0.141045  1
  Rb  Rb1  1  0.348954  0.812537  0.484173  1
  Rb  Rb2  1  0.651047  0.187462  0.515827  1
  Rb  Rb3  1  0.922629  0.217637  0.858952  1
  Al  Al4  1  0.005449  0.235262  0.241618  1
  Al  Al5  1  0.510191  0.252013  0.263756  1
  Al  Al6  1  0.489809  0.747984  0.736244  1
  Al  Al7  1  0.994551  0.764735  0.758383  1
  Sn  Sn8  1  0.364392  0.161396  0.064978  1
  Sn  Sn9  1  0.069328  0.491878  0.392000  1
  Sn  Sn10  1  0.930671  0.508126  0.607999  1
  Sn  Sn11  1  0.635609  0.838602  0.935022  1
  Se  Se12  1  0.003271  0.233080  0.089671  1
  Se  Se13  1  0.574255  0.839477  0.097148  1
  Se  Se14  1  0.481772  0.366818  0.120081  1
  Se  Se15  1  0.849883  0.531430  0.271433  1
  Se  Se16  1  0.327067  0.086891  0.296593  1
  Se  Se17  1  0.836643  0.072694  0.304203  1
  Se  Se18  1  0.394460  0.500202  0.347888  1
  Se  Se19  1  0.894495  0.742541  0.489676  1
  Se  Se20  1  0.105496  0.257470  0.510321  1
  Se  Se21  1  0.605544  0.499799  0.652112  1
  Se  Se22  1  0.163357  0.927304  0.695798  1
  Se  Se23  1  0.672933  0.913107  0.703408  1
  Se  Se24  1  0.150114  0.468570  0.728565  1
  Se  Se25  1  0.518228  0.633180  0.879920  1
  Se  Se26  1  0.425746  0.160520  0.902853  1
  Se  Se27  1  0.996729  0.766918  0.910330  1
