# generated using pymatgen
data_Ce5Y5(Pb3C)2
_symmetry_space_group_name_H-M   'P 1'
_cell_length_a   9.19447557
_cell_length_b   9.19447680
_cell_length_c   6.62440800
_cell_angle_alpha   90.00000000
_cell_angle_beta   90.00000000
_cell_angle_gamma   119.78245208
_symmetry_Int_Tables_number   1
_chemical_formula_structural   Ce5Y5(Pb3C)2
_chemical_formula_sum   'Ce5 Y5 Pb6 C2'
_cell_volume   486.04845025
_cell_formula_units_Z   1
loop_
 _symmetry_equiv_pos_site_id
 _symmetry_equiv_pos_as_xyz
  1  'x, y, z'
loop_
 _atom_site_type_symbol
 _atom_site_label
 _atom_site_symmetry_multiplicity
 _atom_site_fract_x
 _atom_site_fract_y
 _atom_site_fract_z
 _atom_site_occupancy
  Ce  Ce0  1  0.213761  0.000329  0.250000  1
  Ce  Ce1  1  0.787288  0.000959  0.750000  1
  Ce  Ce2  1  0.000329  0.213761  0.250000  1
  Ce  Ce3  1  0.000959  0.787288  0.750000  1
  Ce  Ce4  1  0.787514  0.787514  0.250000  1
  Y  Y5  1  0.216303  0.216303  0.750000  1
  Y  Y6  1  0.332624  0.665942  0.999984  1
  Y  Y7  1  0.665942  0.332624  0.999984  1
  Y  Y8  1  0.665942  0.332624  0.500016  1
  Y  Y9  1  0.332624  0.665942  0.500016  1
  Pb  Pb10  1  0.592922  0.000136  0.250000  1
  Pb  Pb11  1  0.405711  0.000844  0.750000  1
  Pb  Pb12  1  0.000136  0.592922  0.250000  1
  Pb  Pb13  1  0.000844  0.405711  0.750000  1
  Pb  Pb14  1  0.407164  0.407164  0.250000  1
  Pb  Pb15  1  0.593369  0.593369  0.750000  1
  C  C16  1  0.998284  0.998284  0.999444  1
  C  C17  1  0.998284  0.998284  0.500556  1
