# generated using pymatgen
data_V2ZnF12
_symmetry_space_group_name_H-M   'P 1'
_cell_length_a   5.41845123
_cell_length_b   10.97721367
_cell_length_c   5.43838166
_cell_angle_alpha   58.32768977
_cell_angle_beta   57.92170095
_cell_angle_gamma   58.37993143
_symmetry_Int_Tables_number   1
_chemical_formula_structural   V2ZnF12
_chemical_formula_sum   'V2 Zn1 F12'
_cell_volume   219.33829341
_cell_formula_units_Z   1
loop_
 _symmetry_equiv_pos_site_id
 _symmetry_equiv_pos_as_xyz
  1  'x, y, z'
loop_
 _atom_site_type_symbol
 _atom_site_label
 _atom_site_symmetry_multiplicity
 _atom_site_fract_x
 _atom_site_fract_y
 _atom_site_fract_z
 _atom_site_occupancy
  V  V0  1  0.006123  0.005815  0.987134  1
  V  V1  1  0.993877  0.494185  0.012866  1
  Zn  Zn2  1  0.500000  0.750000  0.500000  1
  F  F3  1  0.337004  0.058837  0.776700  1
  F  F4  1  0.314489  0.577829  0.765468  1
  F  F5  1  0.125796  0.393424  0.323401  1
  F  F6  1  0.150150  0.878646  0.322546  1
  F  F7  1  0.222829  0.346328  0.860161  1
  F  F8  1  0.235447  0.834511  0.855221  1
  F  F9  1  0.874204  0.106576  0.676599  1
  F  F10  1  0.849850  0.621354  0.677454  1
  F  F11  1  0.662996  0.441163  0.223300  1
  F  F12  1  0.685511  0.922171  0.234532  1
  F  F13  1  0.777171  0.153672  0.139839  1
  F  F14  1  0.764553  0.665489  0.144779  1
