# generated using pymatgen
data_Yb6Al24ZnOs7
_symmetry_space_group_name_H-M   'P 1'
_cell_length_a   8.87105432
_cell_length_b   8.87105425
_cell_length_c   9.61883422
_cell_angle_alpha   89.85678689
_cell_angle_beta   90.14321246
_cell_angle_gamma   119.89930777
_symmetry_Int_Tables_number   1
_chemical_formula_structural   Yb6Al24ZnOs7
_chemical_formula_sum   'Yb6 Al24 Zn1 Os7'
_cell_volume   656.20796060
_cell_formula_units_Z   1
loop_
 _symmetry_equiv_pos_site_id
 _symmetry_equiv_pos_as_xyz
  1  'x, y, z'
loop_
 _atom_site_type_symbol
 _atom_site_label
 _atom_site_symmetry_multiplicity
 _atom_site_fract_x
 _atom_site_fract_y
 _atom_site_fract_z
 _atom_site_occupancy
  Yb  Yb0  1  0.192222  0.387133  0.251840  1
  Yb  Yb1  1  0.807778  0.612867  0.748160  1
  Yb  Yb2  1  0.612867  0.807778  0.251840  1
  Yb  Yb3  1  0.387133  0.192222  0.748160  1
  Yb  Yb4  1  0.196264  0.803736  0.252916  1
  Yb  Yb5  1  0.803736  0.196264  0.747084  1
  Al  Al6  1  0.328467  0.671533  0.999217  1
  Al  Al7  1  0.671533  0.328467  0.000783  1
  Al  Al8  1  0.666557  0.333443  0.504885  1
  Al  Al9  1  0.333443  0.666557  0.495115  1
  Al  Al10  1  0.162054  0.323858  0.574830  1
  Al  Al11  1  0.837946  0.676142  0.425170  1
  Al  Al12  1  0.676142  0.837946  0.574830  1
  Al  Al13  1  0.850765  0.680680  0.081621  1
  Al  Al14  1  0.323858  0.162054  0.425170  1
  Al  Al15  1  0.149235  0.319320  0.918379  1
  Al  Al16  1  0.162268  0.837732  0.574876  1
  Al  Al17  1  0.319320  0.149235  0.081621  1
  Al  Al18  1  0.837732  0.162268  0.425124  1
  Al  Al19  1  0.680680  0.850765  0.918379  1
  Al  Al20  1  0.838769  0.161231  0.076448  1
  Al  Al21  1  0.161231  0.838769  0.923552  1
  Al  Al22  1  0.560817  0.120249  0.250123  1
  Al  Al23  1  0.439183  0.879751  0.749877  1
  Al  Al24  1  0.879751  0.439183  0.250123  1
  Al  Al25  1  0.120249  0.560817  0.749877  1
  Al  Al26  1  0.564102  0.435898  0.255125  1
  Al  Al27  1  0.435898  0.564102  0.744875  1
  Al  Al28  1  0.000905  0.999095  0.250599  1
  Al  Al29  1  0.999095  0.000905  0.749401  1
  Zn  Zn30  1  0.500000  0.500000  0.000000  1
  Os  Os31  1  0.500000  0.000000  0.000000  1
  Os  Os32  1  0.000000  0.500000  0.000000  1
  Os  Os33  1  0.500000  0.000000  0.500000  1
  Os  Os34  1  0.000000  0.500000  0.500000  1
  Os  Os35  1  0.500000  0.500000  0.500000  1
  Os  Os36  1  0.000000  0.000000  0.000000  1
  Os  Os37  1  0.000000  0.000000  0.500000  1
