# generated using pymatgen
data_TbY11Co5Hg
_symmetry_space_group_name_H-M   'P 1'
_cell_length_a   8.30473972
_cell_length_b   8.30997762
_cell_length_c   8.30997666
_cell_angle_alpha   110.56435552
_cell_angle_beta   110.13013696
_cell_angle_gamma   107.75793979
_symmetry_Int_Tables_number   1
_chemical_formula_structural   TbY11Co5Hg
_chemical_formula_sum   'Tb1 Y11 Co5 Hg1'
_cell_volume   441.03275689
_cell_formula_units_Z   1
loop_
 _symmetry_equiv_pos_site_id
 _symmetry_equiv_pos_as_xyz
  1  'x, y, z'
loop_
 _atom_site_type_symbol
 _atom_site_label
 _atom_site_symmetry_multiplicity
 _atom_site_fract_x
 _atom_site_fract_y
 _atom_site_fract_z
 _atom_site_occupancy
  Tb  Tb0  1  0.015602  0.208749  0.806853  1
  Y  Y1  1  0.815526  0.708139  0.523655  1
  Y  Y2  1  0.184304  0.291609  0.476248  1
  Y  Y3  1  0.184304  0.708056  0.892697  1
  Y  Y4  1  0.815526  0.291871  0.107386  1
  Y  Y5  1  0.682935  0.380591  0.697183  1
  Y  Y6  1  0.316777  0.619404  0.302664  1
  Y  Y7  1  0.682935  0.985752  0.302344  1
  Y  Y8  1  0.316777  0.014113  0.697373  1
  Y  Y9  1  0.596261  0.789272  0.806991  1
  Y  Y10  1  0.403545  0.210441  0.193103  1
  Y  Y11  1  0.982629  0.789757  0.192872  1
  Co  Co12  1  0.621454  0.000971  0.620483  1
  Co  Co13  1  0.380993  0.000057  0.380936  1
  Co  Co14  1  0.112409  0.612553  0.499857  1
  Co  Co15  1  0.887460  0.387793  0.499667  1
  Co  Co16  1  0.000082  0.000552  0.999530  1
  Hg  Hg17  1  0.500482  0.500321  0.000161  1
