# generated using pymatgen
data_Nd2In2GaCu9
_symmetry_space_group_name_H-M   'P 1'
_cell_length_a   5.04193300
_cell_length_b   8.38381327
_cell_length_c   10.77744383
_cell_angle_alpha   90.00791145
_cell_angle_beta   90.00000000
_cell_angle_gamma   90.00000000
_symmetry_Int_Tables_number   1
_chemical_formula_structural   Nd2In2GaCu9
_chemical_formula_sum   'Nd4 In4 Ga2 Cu18'
_cell_volume   455.56928020
_cell_formula_units_Z   2
loop_
 _symmetry_equiv_pos_site_id
 _symmetry_equiv_pos_as_xyz
  1  'x, y, z'
loop_
 _atom_site_type_symbol
 _atom_site_label
 _atom_site_symmetry_multiplicity
 _atom_site_fract_x
 _atom_site_fract_y
 _atom_site_fract_z
 _atom_site_occupancy
  Nd  Nd0  1  0.250000  0.751287  0.063240  1
  Nd  Nd1  1  0.750000  0.248713  0.936760  1
  Nd  Nd2  1  0.750000  0.744539  0.554842  1
  Nd  Nd3  1  0.250000  0.255461  0.445158  1
  In  In4  1  0.250000  0.636825  0.361190  1
  In  In5  1  0.750000  0.363175  0.638810  1
  In  In6  1  0.750000  0.862236  0.866961  1
  In  In7  1  0.250000  0.137764  0.133039  1
  Ga  Ga8  1  0.250000  0.813568  0.738065  1
  Ga  Ga9  1  0.750000  0.186432  0.261935  1
  Cu  Cu10  1  0.750000  0.682506  0.243306  1
  Cu  Cu11  1  0.250000  0.317494  0.756694  1
  Cu  Cu12  1  0.503305  0.567516  0.812689  1
  Cu  Cu13  1  0.496695  0.432484  0.187311  1
  Cu  Cu14  1  0.497055  0.931144  0.312581  1
  Cu  Cu15  1  0.003305  0.432484  0.187311  1
  Cu  Cu16  1  0.502945  0.068856  0.687419  1
  Cu  Cu17  1  0.996695  0.567516  0.812689  1
  Cu  Cu18  1  0.997055  0.068856  0.687419  1
  Cu  Cu19  1  0.002945  0.931144  0.312581  1
  Cu  Cu20  1  0.250000  0.555114  0.604202  1
  Cu  Cu21  1  0.750000  0.444886  0.395798  1
  Cu  Cu22  1  0.750000  0.941132  0.108014  1
  Cu  Cu23  1  0.250000  0.058868  0.891986  1
  Cu  Cu24  1  0.250000  0.918931  0.515411  1
  Cu  Cu25  1  0.750000  0.081069  0.484589  1
  Cu  Cu26  1  0.750000  0.581607  0.017457  1
  Cu  Cu27  1  0.250000  0.418393  0.982543  1
