# generated using pymatgen
data_CaCd2TeO6
_symmetry_space_group_name_H-M   'P 1'
_cell_length_a   6.58958143
_cell_length_b   6.60244293
_cell_length_c   6.59857150
_cell_angle_alpha   90.56073140
_cell_angle_beta   90.79991984
_cell_angle_gamma   90.76316366
_symmetry_Int_Tables_number   1
_chemical_formula_structural   CaCd2TeO6
_chemical_formula_sum   'Ca2 Cd4 Te2 O12'
_cell_volume   287.01854215
_cell_formula_units_Z   2
loop_
 _symmetry_equiv_pos_site_id
 _symmetry_equiv_pos_as_xyz
  1  'x, y, z'
loop_
 _atom_site_type_symbol
 _atom_site_label
 _atom_site_symmetry_multiplicity
 _atom_site_fract_x
 _atom_site_fract_y
 _atom_site_fract_z
 _atom_site_occupancy
  Ca  Ca0  1  0.943959  0.437084  0.249425  1
  Ca  Ca1  1  0.250186  0.943091  0.437053  1
  Cd  Cd2  1  0.435491  0.251611  0.949158  1
  Cd  Cd3  1  0.052329  0.563552  0.749138  1
  Cd  Cd4  1  0.747878  0.054048  0.562728  1
  Cd  Cd5  1  0.563296  0.749375  0.053519  1
  Te  Te6  1  0.501475  0.499127  0.502822  1
  Te  Te7  1  0.998902  0.000652  0.997365  1
  O  O8  1  0.217662  0.564662  0.438068  1
  O  O9  1  0.435672  0.215421  0.563040  1
  O  O10  1  0.567186  0.437518  0.217348  1
  O  O11  1  0.785339  0.432186  0.565972  1
  O  O12  1  0.567075  0.782609  0.435263  1
  O  O13  1  0.434822  0.562779  0.787540  1
  O  O14  1  0.955944  0.078336  0.281289  1
  O  O15  1  0.284503  0.956594  0.075987  1
  O  O16  1  0.077288  0.285038  0.953441  1
  O  O17  1  0.042812  0.925452  0.713921  1
  O  O18  1  0.712080  0.044196  0.922402  1
  O  O19  1  0.926101  0.716671  0.044520  1
