# generated using pymatgen
data_Zr4Re12Tc12Sn
_symmetry_space_group_name_H-M   'P 1'
_cell_length_a   8.46211450
_cell_length_b   8.46211456
_cell_length_c   8.46211400
_cell_angle_alpha   109.47122169
_cell_angle_beta   109.47122184
_cell_angle_gamma   109.47122606
_symmetry_Int_Tables_number   1
_chemical_formula_structural   Zr4Re12Tc12Sn
_chemical_formula_sum   'Zr4 Re12 Tc12 Sn1'
_cell_volume   466.46035400
_cell_formula_units_Z   1
loop_
 _symmetry_equiv_pos_site_id
 _symmetry_equiv_pos_as_xyz
  1  'x, y, z'
loop_
 _atom_site_type_symbol
 _atom_site_label
 _atom_site_symmetry_multiplicity
 _atom_site_fract_x
 _atom_site_fract_y
 _atom_site_fract_z
 _atom_site_occupancy
  Zr  Zr0  1  0.627769  0.000000  0.000000  1
  Zr  Zr1  1  0.000000  0.627769  0.000000  1
  Zr  Zr2  1  0.000000  0.000000  0.627769  1
  Zr  Zr3  1  0.372231  0.372231  0.372231  1
  Re  Re4  1  0.377147  0.195272  0.000000  1
  Re  Re5  1  0.181877  0.804728  0.804728  1
  Re  Re6  1  0.377147  0.000000  0.195272  1
  Re  Re7  1  0.195272  0.377147  0.000000  1
  Re  Re8  1  0.000000  0.377147  0.195272  1
  Re  Re9  1  0.804728  0.181877  0.804728  1
  Re  Re10  1  0.804728  0.804728  0.181877  1
  Re  Re11  1  0.000000  0.195272  0.377147  1
  Re  Re12  1  0.195272  0.000000  0.377147  1
  Re  Re13  1  0.622853  0.622853  0.818123  1
  Re  Re14  1  0.818123  0.622853  0.622853  1
  Re  Re15  1  0.622853  0.818123  0.622853  1
  Tc  Tc16  1  0.394374  0.675274  0.000000  1
  Tc  Tc17  1  0.719099  0.324726  0.324726  1
  Tc  Tc18  1  0.394374  0.000000  0.675274  1
  Tc  Tc19  1  0.675274  0.394374  0.000000  1
  Tc  Tc20  1  0.000000  0.394374  0.675274  1
  Tc  Tc21  1  0.324726  0.719099  0.324726  1
  Tc  Tc22  1  0.324726  0.324726  0.719099  1
  Tc  Tc23  1  0.000000  0.675274  0.394374  1
  Tc  Tc24  1  0.675274  0.000000  0.394374  1
  Tc  Tc25  1  0.605626  0.605626  0.280901  1
  Tc  Tc26  1  0.280901  0.605626  0.605626  1
  Tc  Tc27  1  0.605626  0.280901  0.605626  1
  Sn  Sn28  1  0.000000  0.000000  0.000000  1
