# generated using pymatgen
data_TaTi9(Sn3As)2
_symmetry_space_group_name_H-M   'P 1'
_cell_length_a   8.26185700
_cell_length_b   8.26185621
_cell_length_c   5.61566900
_cell_angle_alpha   90.00000000
_cell_angle_beta   90.00000000
_cell_angle_gamma   119.99999115
_symmetry_Int_Tables_number   1
_chemical_formula_structural   TaTi9(Sn3As)2
_chemical_formula_sum   'Ta1 Ti9 Sn6 As2'
_cell_volume   331.96131636
_cell_formula_units_Z   1
loop_
 _symmetry_equiv_pos_site_id
 _symmetry_equiv_pos_as_xyz
  1  'x, y, z'
loop_
 _atom_site_type_symbol
 _atom_site_label
 _atom_site_symmetry_multiplicity
 _atom_site_fract_x
 _atom_site_fract_y
 _atom_site_fract_z
 _atom_site_occupancy
  Ta  Ta0  1  0.333333  0.666667  0.500000  1
  Ti  Ti1  1  0.261262  0.997848  0.748859  1
  Ti  Ti2  1  0.736587  0.997848  0.251141  1
  Ti  Ti3  1  0.002152  0.263413  0.748859  1
  Ti  Ti4  1  0.002152  0.738738  0.251141  1
  Ti  Ti5  1  0.736587  0.738738  0.748859  1
  Ti  Ti6  1  0.261262  0.263413  0.251141  1
  Ti  Ti7  1  0.666667  0.333333  0.500000  1
  Ti  Ti8  1  0.666667  0.333333  0.000000  1
  Ti  Ti9  1  0.333333  0.666667  0.000000  1
  Sn  Sn10  1  0.605589  0.002878  0.751921  1
  Sn  Sn11  1  0.397289  0.002878  0.248079  1
  Sn  Sn12  1  0.997122  0.602711  0.751921  1
  Sn  Sn13  1  0.997122  0.394411  0.248079  1
  Sn  Sn14  1  0.397289  0.394411  0.751921  1
  Sn  Sn15  1  0.605589  0.602711  0.248079  1
  As  As16  1  0.000000  0.000000  0.500000  1
  As  As17  1  0.000000  0.000000  0.000000  1
