# generated using pymatgen
data_Ti6Mn3Si12Mo11
_symmetry_space_group_name_H-M   'P 1'
_cell_length_a   7.24657033
_cell_length_b   7.24638569
_cell_length_c   13.60303502
_cell_angle_alpha   89.66091843
_cell_angle_beta   90.33377446
_cell_angle_gamma   140.77793733
_symmetry_Int_Tables_number   1
_chemical_formula_structural   Ti6Mn3Si12Mo11
_chemical_formula_sum   'Ti6 Mn3 Si12 Mo11'
_cell_volume   451.67235689
_cell_formula_units_Z   1
loop_
 _symmetry_equiv_pos_site_id
 _symmetry_equiv_pos_as_xyz
  1  'x, y, z'
loop_
 _atom_site_type_symbol
 _atom_site_label
 _atom_site_symmetry_multiplicity
 _atom_site_fract_x
 _atom_site_fract_y
 _atom_site_fract_z
 _atom_site_occupancy
  Ti  Ti0  1  0.068441  0.422459  0.402464  1
  Ti  Ti1  1  0.572587  0.928872  0.905352  1
  Ti  Ti2  1  0.421664  0.066603  0.596201  1
  Ti  Ti3  1  0.928123  0.572313  0.095368  1
  Ti  Ti4  1  0.851619  0.655759  0.679477  1
  Ti  Ti5  1  0.001689  0.000796  0.499941  1
  Mn  Mn6  1  0.500800  0.500863  0.000679  1
  Mn  Mn7  1  0.496926  0.496379  0.500373  1
  Mn  Mn8  1  0.001695  0.001265  0.000415  1
  Si  Si9  1  0.250729  0.747884  0.751110  1
  Si  Si10  1  0.748772  0.249980  0.248993  1
  Si  Si11  1  0.751211  0.249634  0.750952  1
  Si  Si12  1  0.250464  0.749763  0.249101  1
  Si  Si13  1  0.260503  0.260915  0.661483  1
  Si  Si14  1  0.752549  0.752121  0.157528  1
  Si  Si15  1  0.264664  0.265737  0.337037  1
  Si  Si16  1  0.751527  0.752788  0.844253  1
  Si  Si17  1  0.576271  0.894623  0.499705  1
  Si  Si18  1  0.095619  0.405667  0.999892  1
  Si  Si19  1  0.895924  0.577463  0.499884  1
  Si  Si20  1  0.406094  0.095630  0.999989  1
  Mo  Mo21  1  0.348350  0.150860  0.176693  1
  Mo  Mo22  1  0.655837  0.852880  0.321723  1
  Mo  Mo23  1  0.152025  0.348445  0.822979  1
  Mo  Mo24  1  0.650426  0.850343  0.680901  1
  Mo  Mo25  1  0.149132  0.349600  0.178159  1
  Mo  Mo26  1  0.850510  0.651009  0.319825  1
  Mo  Mo27  1  0.352061  0.148057  0.819635  1
  Mo  Mo28  1  0.424917  0.069844  0.398214  1
  Mo  Mo29  1  0.930347  0.572956  0.900440  1
  Mo  Mo30  1  0.066332  0.428376  0.601221  1
  Mo  Mo31  1  0.572185  0.930109  0.100013  1
