# generated using pymatgen
data_NdTm7(Hf3Si4)4
_symmetry_space_group_name_H-M   'P 1'
_cell_length_a   7.25465150
_cell_length_b   7.25056031
_cell_length_c   13.31893019
_cell_angle_alpha   89.98289611
_cell_angle_beta   89.88085801
_cell_angle_gamma   90.02177695
_symmetry_Int_Tables_number   1
_chemical_formula_structural   NdTm7(Hf3Si4)4
_chemical_formula_sum   'Nd1 Tm7 Hf12 Si16'
_cell_volume   700.57796975
_cell_formula_units_Z   1
loop_
 _symmetry_equiv_pos_site_id
 _symmetry_equiv_pos_as_xyz
  1  'x, y, z'
loop_
 _atom_site_type_symbol
 _atom_site_label
 _atom_site_symmetry_multiplicity
 _atom_site_fract_x
 _atom_site_fract_y
 _atom_site_fract_z
 _atom_site_occupancy
  Nd  Nd0  1  0.657218  0.007185  0.284607  1
  Tm  Tm1  1  0.997056  0.345395  0.214519  1
  Tm  Tm2  1  0.004106  0.654995  0.715364  1
  Tm  Tm3  1  0.155634  0.496576  0.466021  1
  Tm  Tm4  1  0.503113  0.843494  0.033656  1
  Tm  Tm5  1  0.845006  0.503598  0.964760  1
  Tm  Tm6  1  0.496017  0.155170  0.535780  1
  Tm  Tm7  1  0.344665  0.995972  0.784777  1
  Hf  Hf8  1  0.174658  0.175214  0.999196  1
  Hf  Hf9  1  0.825697  0.824646  0.500643  1
  Hf  Hf10  1  0.324382  0.673690  0.250127  1
  Hf  Hf11  1  0.675194  0.325029  0.749900  1
  Hf  Hf12  1  0.149866  0.996486  0.374995  1
  Hf  Hf13  1  0.852251  0.003402  0.874166  1
  Hf  Hf14  1  0.503153  0.647370  0.625747  1
  Hf  Hf15  1  0.352053  0.496893  0.874952  1
  Hf  Hf16  1  0.493903  0.352372  0.123257  1
  Hf  Hf17  1  0.647779  0.504528  0.376322  1
  Hf  Hf18  1  0.997070  0.147927  0.626269  1
  Hf  Hf19  1  0.003111  0.850399  0.124539  1
  Si  Si20  1  0.357470  0.298544  0.317458  1
  Si  Si21  1  0.639648  0.704777  0.818051  1
  Si  Si22  1  0.205055  0.860343  0.568266  1
  Si  Si23  1  0.139316  0.794754  0.931761  1
  Si  Si24  1  0.796223  0.139602  0.066228  1
  Si  Si25  1  0.864642  0.208107  0.435271  1
  Si  Si26  1  0.295208  0.360485  0.682181  1
  Si  Si27  1  0.706097  0.635144  0.180818  1
  Si  Si28  1  0.292196  0.049796  0.184199  1
  Si  Si29  1  0.703206  0.951436  0.685586  1
  Si  Si30  1  0.448331  0.794350  0.437498  1
  Si  Si31  1  0.202685  0.548840  0.064092  1
  Si  Si32  1  0.548430  0.203042  0.935034  1
  Si  Si33  1  0.797357  0.452127  0.564919  1
  Si  Si34  1  0.048336  0.297079  0.814469  1
  Si  Si35  1  0.953872  0.701234  0.314575  1
