# generated using pymatgen
data_Lu2AlGaIrPt
_symmetry_space_group_name_H-M   'P 1'
_cell_length_a   4.30952000
_cell_length_b   6.67364300
_cell_length_c   7.81519600
_cell_angle_alpha   90.00000000
_cell_angle_beta   90.00000000
_cell_angle_gamma   90.00000000
_symmetry_Int_Tables_number   1
_chemical_formula_structural   Lu2AlGaIrPt
_chemical_formula_sum   'Lu4 Al2 Ga2 Ir2 Pt2'
_cell_volume   224.76658422
_cell_formula_units_Z   2
loop_
 _symmetry_equiv_pos_site_id
 _symmetry_equiv_pos_as_xyz
  1  'x, y, z'
loop_
 _atom_site_type_symbol
 _atom_site_label
 _atom_site_symmetry_multiplicity
 _atom_site_fract_x
 _atom_site_fract_y
 _atom_site_fract_z
 _atom_site_occupancy
  Lu  Lu0  1  0.250000  0.032125  0.679411  1
  Lu  Lu1  1  0.250000  0.532125  0.820589  1
  Lu  Lu2  1  0.750000  0.970336  0.321651  1
  Lu  Lu3  1  0.750000  0.470336  0.178349  1
  Al  Al4  1  0.750000  0.856283  0.943084  1
  Al  Al5  1  0.750000  0.356283  0.556916  1
  Ga  Ga6  1  0.250000  0.143905  0.062917  1
  Ga  Ga7  1  0.250000  0.643905  0.437083  1
  Ir  Ir8  1  0.250000  0.261387  0.381269  1
  Ir  Ir9  1  0.250000  0.761387  0.118731  1
  Pt  Pt10  1  0.750000  0.735964  0.628788  1
  Pt  Pt11  1  0.750000  0.235964  0.871212  1
