# generated using pymatgen
data_Hf6Ga6OsPd5
_symmetry_space_group_name_H-M   'P 1'
_cell_length_a   7.29926000
_cell_length_b   7.29926036
_cell_length_c   6.78293400
_cell_angle_alpha   90.00000000
_cell_angle_beta   90.00000000
_cell_angle_gamma   119.99999839
_symmetry_Int_Tables_number   1
_chemical_formula_structural   Hf6Ga6OsPd5
_chemical_formula_sum   'Hf6 Ga6 Os1 Pd5'
_cell_volume   312.97231208
_cell_formula_units_Z   1
loop_
 _symmetry_equiv_pos_site_id
 _symmetry_equiv_pos_as_xyz
  1  'x, y, z'
loop_
 _atom_site_type_symbol
 _atom_site_label
 _atom_site_symmetry_multiplicity
 _atom_site_fract_x
 _atom_site_fract_y
 _atom_site_fract_z
 _atom_site_occupancy
  Hf  Hf0  1  0.606273  0.602258  0.255902  1
  Hf  Hf1  1  0.019754  0.403807  0.743699  1
  Hf  Hf2  1  0.397742  0.004015  0.255902  1
  Hf  Hf3  1  0.995985  0.393727  0.255902  1
  Hf  Hf4  1  0.384053  0.980246  0.743699  1
  Hf  Hf5  1  0.596193  0.615947  0.743699  1
  Ga  Ga6  1  0.270465  0.266650  0.498626  1
  Ga  Ga7  1  0.733350  0.003815  0.498626  1
  Ga  Ga8  1  0.996185  0.729535  0.498626  1
  Ga  Ga9  1  0.727155  0.004835  0.999664  1
  Ga  Ga10  1  0.277680  0.272845  0.999664  1
  Ga  Ga11  1  0.995165  0.722320  0.999664  1
  Os  Os12  1  0.333333  0.666667  0.490480  1
  Pd  Pd13  1  0.000000  0.000000  0.754363  1
  Pd  Pd14  1  0.000000  0.000000  0.243073  1
  Pd  Pd15  1  0.333333  0.666667  0.019866  1
  Pd  Pd16  1  0.666667  0.333333  0.520956  1
  Pd  Pd17  1  0.666667  0.333333  0.977590  1
