# generated using pymatgen
data_KLa(BrO3)4
_symmetry_space_group_name_H-M   'P 1'
_cell_length_a   7.14630198
_cell_length_b   7.00488172
_cell_length_c   7.31212800
_cell_angle_alpha   77.02094798
_cell_angle_beta   73.16607410
_cell_angle_gamma   116.62745819
_symmetry_Int_Tables_number   1
_chemical_formula_structural   KLa(BrO3)4
_chemical_formula_sum   'K1 La1 Br4 O12'
_cell_volume   285.06695744
_cell_formula_units_Z   1
loop_
 _symmetry_equiv_pos_site_id
 _symmetry_equiv_pos_as_xyz
  1  'x, y, z'
loop_
 _atom_site_type_symbol
 _atom_site_label
 _atom_site_symmetry_multiplicity
 _atom_site_fract_x
 _atom_site_fract_y
 _atom_site_fract_z
 _atom_site_occupancy
  K  K0  1  0.616467  0.393489  0.001817  1
  La  La1  1  0.374911  0.620769  0.493521  1
  Br  Br2  1  0.416616  0.816329  0.935491  1
  Br  Br3  1  0.754974  0.403959  0.461310  1
  Br  Br4  1  0.973902  0.080507  0.025965  1
  Br  Br5  1  0.109392  0.955960  0.530410  1
  O  O6  1  0.438774  0.648427  0.124337  1
  O  O7  1  0.581582  0.448715  0.634534  1
  O  O8  1  0.780762  0.564896  0.238692  1
  O  O9  1  0.532277  0.777434  0.721182  1
  O  O10  1  0.631922  0.087055  0.870595  1
  O  O11  1  0.017494  0.564059  0.459731  1
  O  O12  1  0.079355  0.367053  0.889694  1
  O  O13  1  0.376737  0.004385  0.397384  1
  O  O14  1  0.039291  0.797244  0.775384  1
  O  O15  1  0.761335  0.006872  0.260352  1
  O  O16  1  0.181000  0.083723  0.087620  1
  O  O17  1  0.175811  0.221724  0.524585  1
