# generated using pymatgen
data_Sc12GaNi4Bi
_symmetry_space_group_name_H-M   'P 1'
_cell_length_a   7.82053947
_cell_length_b   7.82053929
_cell_length_c   7.82053996
_cell_angle_alpha   111.57545416
_cell_angle_beta   110.56012671
_cell_angle_gamma   106.32489297
_symmetry_Int_Tables_number   1
_chemical_formula_structural   Sc12GaNi4Bi
_chemical_formula_sum   'Sc12 Ga1 Ni4 Bi1'
_cell_volume   367.34627203
_cell_formula_units_Z   1
loop_
 _symmetry_equiv_pos_site_id
 _symmetry_equiv_pos_as_xyz
  1  'x, y, z'
loop_
 _atom_site_type_symbol
 _atom_site_label
 _atom_site_symmetry_multiplicity
 _atom_site_fract_x
 _atom_site_fract_y
 _atom_site_fract_z
 _atom_site_occupancy
  Sc  Sc0  1  0.433843  0.227109  0.206735  1
  Sc  Sc1  1  0.566157  0.772891  0.793265  1
  Sc  Sc2  1  0.020374  0.227109  0.793265  1
  Sc  Sc3  1  0.979626  0.772891  0.206735  1
  Sc  Sc4  1  0.180517  0.283931  0.464447  1
  Sc  Sc5  1  0.819483  0.716069  0.535553  1
  Sc  Sc6  1  0.180517  0.716069  0.896585  1
  Sc  Sc7  1  0.819483  0.283931  0.103415  1
  Sc  Sc8  1  0.320769  0.624609  0.303841  1
  Sc  Sc9  1  0.679231  0.375391  0.696159  1
  Sc  Sc10  1  0.320769  0.016927  0.696159  1
  Sc  Sc11  1  0.679231  0.983073  0.303841  1
  Ga  Ga12  1  0.000000  0.000000  0.000000  1
  Ni  Ni13  1  0.352995  0.000000  0.352995  1
  Ni  Ni14  1  0.647005  0.000000  0.647005  1
  Ni  Ni15  1  0.127882  0.627882  0.500000  1
  Ni  Ni16  1  0.872118  0.372118  0.500000  1
  Bi  Bi17  1  0.500000  0.500000  0.000000  1
