# generated using pymatgen
data_Y6Er2Re3B24Ru
_symmetry_space_group_name_H-M   'P 1'
_cell_length_a   3.67252700
_cell_length_b   9.16440878
_cell_length_c   11.55286408
_cell_angle_alpha   90.12275057
_cell_angle_beta   90.00000000
_cell_angle_gamma   90.00000000
_symmetry_Int_Tables_number   1
_chemical_formula_structural   Y6Er2Re3B24Ru
_chemical_formula_sum   'Y6 Er2 Re3 B24 Ru1'
_cell_volume   388.82852465
_cell_formula_units_Z   1
loop_
 _symmetry_equiv_pos_site_id
 _symmetry_equiv_pos_as_xyz
  1  'x, y, z'
loop_
 _atom_site_type_symbol
 _atom_site_label
 _atom_site_symmetry_multiplicity
 _atom_site_fract_x
 _atom_site_fract_y
 _atom_site_fract_z
 _atom_site_occupancy
  Y  Y0  1  0.000000  0.321779  0.414085  1
  Y  Y1  1  0.000000  0.677309  0.587718  1
  Y  Y2  1  0.000000  0.824388  0.084071  1
  Y  Y3  1  0.000000  0.177180  0.913860  1
  Y  Y4  1  0.000000  0.941661  0.369676  1
  Y  Y5  1  0.000000  0.056469  0.629283  1
  Er  Er6  1  0.000000  0.443129  0.130391  1
  Er  Er7  1  0.000000  0.556979  0.871136  1
  Re  Re8  1  0.000000  0.362716  0.678693  1
  Re  Re9  1  0.000000  0.138761  0.179470  1
  Re  Re10  1  0.000000  0.861300  0.820936  1
  B  B11  1  0.500000  0.553886  0.432402  1
  B  B12  1  0.500000  0.447156  0.567006  1
  B  B13  1  0.500000  0.053508  0.066932  1
  B  B14  1  0.500000  0.946887  0.932720  1
  B  B15  1  0.500000  0.747808  0.418179  1
  B  B16  1  0.500000  0.251209  0.581390  1
  B  B17  1  0.500000  0.249965  0.081674  1
  B  B18  1  0.500000  0.750831  0.918561  1
  B  B19  1  0.500000  0.790115  0.265238  1
  B  B20  1  0.500000  0.208718  0.734420  1
  B  B21  1  0.500000  0.292143  0.234765  1
  B  B22  1  0.500000  0.707605  0.766099  1
  B  B23  1  0.500000  0.630613  0.185562  1
  B  B24  1  0.500000  0.370275  0.814309  1
  B  B25  1  0.500000  0.130992  0.314565  1
  B  B26  1  0.500000  0.868599  0.685893  1
  B  B27  1  0.500000  0.982595  0.211530  1
  B  B28  1  0.500000  0.017475  0.787907  1
  B  B29  1  0.500000  0.483294  0.287846  1
  B  B30  1  0.500000  0.518450  0.712469  1
  B  B31  1  0.500000  0.600877  0.028681  1
  B  B32  1  0.500000  0.399759  0.972512  1
  B  B33  1  0.500000  0.100837  0.471313  1
  B  B34  1  0.500000  0.896965  0.528182  1
  Ru  Ru35  1  0.000000  0.637767  0.320526  1
