# generated using pymatgen
data_NaP12(RuRh)2
_symmetry_space_group_name_H-M   'P 1'
_cell_length_a   6.99756730
_cell_length_b   7.01568080
_cell_length_c   6.99756903
_cell_angle_alpha   109.48853895
_cell_angle_beta   109.35110511
_cell_angle_gamma   109.46915408
_symmetry_Int_Tables_number   1
_chemical_formula_structural   NaP12(RuRh)2
_chemical_formula_sum   'Na1 P12 Ru2 Rh2'
_cell_volume   264.79052010
_cell_formula_units_Z   1
loop_
 _symmetry_equiv_pos_site_id
 _symmetry_equiv_pos_as_xyz
  1  'x, y, z'
loop_
 _atom_site_type_symbol
 _atom_site_label
 _atom_site_symmetry_multiplicity
 _atom_site_fract_x
 _atom_site_fract_y
 _atom_site_fract_z
 _atom_site_occupancy
  Na  Na0  1  0.000000  0.000000  0.000000  1
  P  P1  1  0.356915  0.214860  0.857945  1
  P  P2  1  0.643085  0.785140  0.142055  1
  P  P3  1  0.640628  0.500469  0.859841  1
  P  P4  1  0.359372  0.499531  0.140159  1
  P  P5  1  0.217338  0.860956  0.360252  1
  P  P6  1  0.782662  0.139044  0.639748  1
  P  P7  1  0.500704  0.860956  0.643617  1
  P  P8  1  0.499296  0.139044  0.356383  1
  P  P9  1  0.856572  0.355872  0.217300  1
  P  P10  1  0.143428  0.644128  0.782700  1
  P  P11  1  0.861428  0.644128  0.500700  1
  P  P12  1  0.138572  0.355872  0.499300  1
  Ru  Ru13  1  0.000000  0.000000  0.500000  1
  Ru  Ru14  1  0.500000  0.000000  0.000000  1
  Rh  Rh15  1  0.000000  0.500000  0.000000  1
  Rh  Rh16  1  0.500000  0.500000  0.500000  1
