# generated using pymatgen
data_TbY3Fe3Os5
_symmetry_space_group_name_H-M   'P 1'
_cell_length_a   5.28545917
_cell_length_b   5.30693476
_cell_length_c   9.20228025
_cell_angle_alpha   73.24086462
_cell_angle_beta   90.65647782
_cell_angle_gamma   120.13450559
_symmetry_Int_Tables_number   1
_chemical_formula_structural   TbY3Fe3Os5
_chemical_formula_sum   'Tb1 Y3 Fe3 Os5'
_cell_volume   210.96566441
_cell_formula_units_Z   1
loop_
 _symmetry_equiv_pos_site_id
 _symmetry_equiv_pos_as_xyz
  1  'x, y, z'
loop_
 _atom_site_type_symbol
 _atom_site_label
 _atom_site_symmetry_multiplicity
 _atom_site_fract_x
 _atom_site_fract_y
 _atom_site_fract_z
 _atom_site_occupancy
  Tb  Tb0  1  0.875735  0.749966  0.375803  1
  Y  Y1  1  0.378179  0.752187  0.873805  1
  Y  Y2  1  0.996704  0.997885  0.000936  1
  Y  Y3  1  0.499513  0.999962  0.499589  1
  Fe  Fe4  1  0.687498  0.375035  0.937429  1
  Fe  Fe5  1  0.940013  0.375936  0.188141  1
  Fe  Fe6  1  0.435125  0.374153  0.686819  1
  Os  Os7  1  0.440241  0.373619  0.184342  1
  Os  Os8  1  0.934537  0.376606  0.690701  1
  Os  Os9  1  0.440241  0.882279  0.184342  1
  Os  Os10  1  0.934537  0.867228  0.690701  1
  Os  Os11  1  0.187676  0.375143  0.437390  1
