# generated using pymatgen
data_Tb4Al18NiIr5
_symmetry_space_group_name_H-M   'P 1'
_cell_length_a   7.56036906
_cell_length_b   7.56036840
_cell_length_c   9.47210178
_cell_angle_alpha   90.15816301
_cell_angle_beta   90.15816019
_cell_angle_gamma   119.69964891
_symmetry_Int_Tables_number   1
_chemical_formula_structural   Tb4Al18NiIr5
_chemical_formula_sum   'Tb4 Al18 Ni1 Ir5'
_cell_volume   470.28686662
_cell_formula_units_Z   1
loop_
 _symmetry_equiv_pos_site_id
 _symmetry_equiv_pos_as_xyz
  1  'x, y, z'
loop_
 _atom_site_type_symbol
 _atom_site_label
 _atom_site_symmetry_multiplicity
 _atom_site_fract_x
 _atom_site_fract_y
 _atom_site_fract_z
 _atom_site_occupancy
  Tb  Tb0  1  0.995355  0.668898  0.250080  1
  Tb  Tb1  1  0.004645  0.331102  0.749920  1
  Tb  Tb2  1  0.668898  0.995355  0.250080  1
  Tb  Tb3  1  0.331102  0.004645  0.749920  1
  Al  Al4  1  0.124749  0.124749  0.247063  1
  Al  Al5  1  0.875251  0.875251  0.752937  1
  Al  Al6  1  0.001009  0.332779  0.074187  1
  Al  Al7  1  0.998991  0.667221  0.925813  1
  Al  Al8  1  0.999143  0.666334  0.574153  1
  Al  Al9  1  0.333666  0.000857  0.425847  1
  Al  Al10  1  0.000857  0.333666  0.425847  1
  Al  Al11  1  0.666334  0.999143  0.574153  1
  Al  Al12  1  0.667221  0.998991  0.925813  1
  Al  Al13  1  0.332779  0.001009  0.074187  1
  Al  Al14  1  0.333719  0.333719  0.551488  1
  Al  Al15  1  0.666281  0.666281  0.448512  1
  Al  Al16  1  0.668751  0.668751  0.051263  1
  Al  Al17  1  0.331249  0.331249  0.948737  1
  Al  Al18  1  0.338534  0.546785  0.249646  1
  Al  Al19  1  0.661466  0.453215  0.750354  1
  Al  Al20  1  0.546785  0.338534  0.249646  1
  Al  Al21  1  0.453215  0.661466  0.750354  1
  Ni  Ni22  1  0.000000  0.000000  0.000000  1
  Ir  Ir23  1  0.671936  0.328064  0.000000  1
  Ir  Ir24  1  0.328064  0.671936  0.000000  1
  Ir  Ir25  1  0.328139  0.671861  0.500000  1
  Ir  Ir26  1  0.671861  0.328139  0.500000  1
  Ir  Ir27  1  0.000000  0.000000  0.500000  1
