# generated using pymatgen
data_Nd3(TmSb4)5
_symmetry_space_group_name_H-M   'P 1'
_cell_length_a   4.28115900
_cell_length_b   13.26449358
_cell_length_c   14.64823319
_cell_angle_alpha   77.89008621
_cell_angle_beta   90.00000000
_cell_angle_gamma   90.00000000
_symmetry_Int_Tables_number   1
_chemical_formula_structural   Nd3(TmSb4)5
_chemical_formula_sum   'Nd3 Tm5 Sb20'
_cell_volume   813.32429867
_cell_formula_units_Z   1
loop_
 _symmetry_equiv_pos_site_id
 _symmetry_equiv_pos_as_xyz
  1  'x, y, z'
loop_
 _atom_site_type_symbol
 _atom_site_label
 _atom_site_symmetry_multiplicity
 _atom_site_fract_x
 _atom_site_fract_y
 _atom_site_fract_z
 _atom_site_occupancy
  Nd  Nd0  1  0.750000  0.332878  0.423324  1
  Nd  Nd1  1  0.250000  0.950897  0.357549  1
  Nd  Nd2  1  0.750000  0.047178  0.642433  1
  Tm  Tm3  1  0.250000  0.399359  0.773927  1
  Tm  Tm4  1  0.750000  0.602921  0.227240  1
  Tm  Tm5  1  0.250000  0.661108  0.856868  1
  Tm  Tm6  1  0.750000  0.338785  0.141911  1
  Tm  Tm7  1  0.250000  0.668256  0.577841  1
  Sb  Sb8  1  0.250000  0.147196  0.785848  1
  Sb  Sb9  1  0.750000  0.852577  0.214129  1
  Sb  Sb10  1  0.250000  0.141877  0.479189  1
  Sb  Sb11  1  0.750000  0.849607  0.521524  1
  Sb  Sb12  1  0.250000  0.156198  0.167639  1
  Sb  Sb13  1  0.750000  0.843141  0.830961  1
  Sb  Sb14  1  0.250000  0.421466  0.976593  1
  Sb  Sb15  1  0.750000  0.579157  0.023604  1
  Sb  Sb16  1  0.750000  0.031049  0.904249  1
  Sb  Sb17  1  0.250000  0.968175  0.095596  1
  Sb  Sb18  1  0.750000  0.141526  0.316747  1
  Sb  Sb19  1  0.250000  0.855409  0.680916  1
  Sb  Sb20  1  0.750000  0.283152  0.938257  1
  Sb  Sb21  1  0.250000  0.717010  0.062054  1
  Sb  Sb22  1  0.750000  0.293989  0.656732  1
  Sb  Sb23  1  0.250000  0.707882  0.346711  1
  Sb  Sb24  1  0.750000  0.578222  0.736019  1
  Sb  Sb25  1  0.250000  0.426334  0.258438  1
  Sb  Sb26  1  0.750000  0.576913  0.446140  1
  Sb  Sb27  1  0.250000  0.427738  0.557560  1
