# generated using pymatgen
data_TbEr3CoHg
_symmetry_space_group_name_H-M   'P 1'
_cell_length_a   9.39081804
_cell_length_b   9.39081880
_cell_length_c   9.39081800
_cell_angle_alpha   60.00000282
_cell_angle_beta   60.00000015
_cell_angle_gamma   60.00000684
_symmetry_Int_Tables_number   1
_chemical_formula_structural   TbEr3CoHg
_chemical_formula_sum   'Tb4 Er12 Co4 Hg4'
_cell_volume   585.59228257
_cell_formula_units_Z   4
loop_
 _symmetry_equiv_pos_site_id
 _symmetry_equiv_pos_as_xyz
  1  'x, y, z'
loop_
 _atom_site_type_symbol
 _atom_site_label
 _atom_site_symmetry_multiplicity
 _atom_site_fract_x
 _atom_site_fract_y
 _atom_site_fract_z
 _atom_site_occupancy
  Tb  Tb0  1  0.598354  0.598354  0.598354  1
  Tb  Tb1  1  0.598354  0.598354  0.204938  1
  Tb  Tb2  1  0.598354  0.204938  0.598354  1
  Tb  Tb3  1  0.204938  0.598354  0.598354  1
  Er  Er4  1  0.061909  0.438091  0.438091  1
  Er  Er5  1  0.438091  0.061909  0.061909  1
  Er  Er6  1  0.438091  0.061909  0.438091  1
  Er  Er7  1  0.061909  0.438091  0.061909  1
  Er  Er8  1  0.438091  0.438091  0.061909  1
  Er  Er9  1  0.061909  0.061909  0.438091  1
  Er  Er10  1  0.188056  0.811944  0.811944  1
  Er  Er11  1  0.811944  0.188056  0.188056  1
  Er  Er12  1  0.811944  0.188056  0.811944  1
  Er  Er13  1  0.188056  0.811944  0.188056  1
  Er  Er14  1  0.811944  0.811944  0.188056  1
  Er  Er15  1  0.188056  0.188056  0.811944  1
  Co  Co16  1  0.390826  0.390826  0.390826  1
  Co  Co17  1  0.390826  0.390826  0.827522  1
  Co  Co18  1  0.390826  0.827522  0.390826  1
  Co  Co19  1  0.827522  0.390826  0.390826  1
  Hg  Hg20  1  0.834131  0.834131  0.834131  1
  Hg  Hg21  1  0.834131  0.834131  0.497606  1
  Hg  Hg22  1  0.834131  0.497606  0.834131  1
  Hg  Hg23  1  0.497606  0.834131  0.834131  1
