# generated using pymatgen
data_Nd3Dy3NiBr10
_symmetry_space_group_name_H-M   'P 1'
_cell_length_a   7.43339679
_cell_length_b   9.38560023
_cell_length_c   9.49445011
_cell_angle_alpha   108.08590569
_cell_angle_beta   95.40821519
_cell_angle_gamma   105.65735999
_symmetry_Int_Tables_number   1
_chemical_formula_structural   Nd3Dy3NiBr10
_chemical_formula_sum   'Nd3 Dy3 Ni1 Br10'
_cell_volume   594.72572630
_cell_formula_units_Z   1
loop_
 _symmetry_equiv_pos_site_id
 _symmetry_equiv_pos_as_xyz
  1  'x, y, z'
loop_
 _atom_site_type_symbol
 _atom_site_label
 _atom_site_symmetry_multiplicity
 _atom_site_fract_x
 _atom_site_fract_y
 _atom_site_fract_z
 _atom_site_occupancy
  Nd  Nd0  1  0.869591  0.951231  0.244629  1
  Nd  Nd1  1  0.133045  0.048204  0.756191  1
  Nd  Nd2  1  0.028615  0.701232  0.903985  1
  Dy  Dy3  1  0.969705  0.289559  0.092084  1
  Dy  Dy4  1  0.651106  0.874404  0.831752  1
  Dy  Dy5  1  0.349047  0.130355  0.169682  1
  Ni  Ni6  1  0.000667  0.999806  0.000366  1
  Br  Br7  1  0.638681  0.556645  0.732485  1
  Br  Br8  1  0.341526  0.443680  0.264728  1
  Br  Br9  1  0.749444  0.921600  0.556549  1
  Br  Br10  1  0.254030  0.080613  0.443904  1
  Br  Br11  1  0.913965  0.622603  0.172212  1
  Br  Br12  1  0.085550  0.367533  0.833926  1
  Br  Br13  1  0.556485  0.179879  0.920724  1
  Br  Br14  1  0.449568  0.827389  0.083294  1
  Br  Br15  1  0.240464  0.749970  0.658450  1
  Br  Br16  1  0.768509  0.255299  0.335041  1
