# generated using pymatgen
data_Ta5Be3NbSe
_symmetry_space_group_name_H-M   'P 1'
_cell_length_a   6.59548900
_cell_length_b   6.59104442
_cell_length_c   3.40144200
_cell_angle_alpha   90.00000000
_cell_angle_beta   90.00000000
_cell_angle_gamma   90.04910662
_symmetry_Int_Tables_number   1
_chemical_formula_structural   Ta5Be3NbSe
_chemical_formula_sum   'Ta5 Be3 Nb1 Se1'
_cell_volume   147.86457842
_cell_formula_units_Z   1
loop_
 _symmetry_equiv_pos_site_id
 _symmetry_equiv_pos_as_xyz
  1  'x, y, z'
loop_
 _atom_site_type_symbol
 _atom_site_label
 _atom_site_symmetry_multiplicity
 _atom_site_fract_x
 _atom_site_fract_y
 _atom_site_fract_z
 _atom_site_occupancy
  Ta  Ta0  1  0.508027  0.497730  0.000000  1
  Ta  Ta1  1  0.998211  0.007083  0.000000  1
  Ta  Ta2  1  0.676625  0.175956  0.500000  1
  Ta  Ta3  1  0.337826  0.836625  0.500000  1
  Ta  Ta4  1  0.805784  0.679545  0.500000  1
  Be  Be5  1  0.871468  0.372194  0.000000  1
  Be  Be6  1  0.617193  0.887542  0.000000  1
  Be  Be7  1  0.387762  0.116812  0.000000  1
  Nb  Nb8  1  0.178793  0.308196  0.500000  1
  Se  Se9  1  0.118312  0.618318  0.000000  1
