# generated using pymatgen
data_Yb4HoTh3(Pt2Pb)4
_symmetry_space_group_name_H-M   'P 1'
_cell_length_a   7.99743891
_cell_length_b   7.99201241
_cell_length_c   7.36563400
_cell_angle_alpha   90.00000000
_cell_angle_beta   90.00000000
_cell_angle_gamma   91.05557107
_symmetry_Int_Tables_number   1
_chemical_formula_structural   Yb4HoTh3(Pt2Pb)4
_chemical_formula_sum   'Yb4 Ho1 Th3 Pt8 Pb4'
_cell_volume   470.69925244
_cell_formula_units_Z   1
loop_
 _symmetry_equiv_pos_site_id
 _symmetry_equiv_pos_as_xyz
  1  'x, y, z'
loop_
 _atom_site_type_symbol
 _atom_site_label
 _atom_site_symmetry_multiplicity
 _atom_site_fract_x
 _atom_site_fract_y
 _atom_site_fract_z
 _atom_site_occupancy
  Yb  Yb0  1  0.657635  0.661150  0.500000  1
  Yb  Yb1  1  0.174253  0.825518  0.500000  1
  Yb  Yb2  1  0.840729  0.158942  0.000000  1
  Yb  Yb3  1  0.160055  0.839616  0.000000  1
  Ho  Ho4  1  0.339548  0.343151  0.500000  1
  Th  Th5  1  0.675793  0.675997  0.000000  1
  Th  Th6  1  0.827720  0.171606  0.500000  1
  Th  Th7  1  0.324986  0.325476  0.000000  1
  Pt  Pt8  1  0.868403  0.871866  0.737336  1
  Pt  Pt9  1  0.130217  0.132978  0.735904  1
  Pt  Pt10  1  0.631254  0.367229  0.761730  1
  Pt  Pt11  1  0.631254  0.367229  0.238270  1
  Pt  Pt12  1  0.374030  0.624035  0.231767  1
  Pt  Pt13  1  0.130217  0.132978  0.264096  1
  Pt  Pt14  1  0.868403  0.871866  0.262664  1
  Pt  Pt15  1  0.374030  0.624035  0.768233  1
  Pb  Pb16  1  0.493973  0.996603  0.745123  1
  Pb  Pb17  1  0.493973  0.996603  0.254877  1
  Pb  Pb18  1  0.001763  0.506561  0.745064  1
  Pb  Pb19  1  0.001763  0.506561  0.254936  1
