# generated using pymatgen
data_Y8CdSiPt23
_symmetry_space_group_name_H-M   'P 1'
_cell_length_a   8.35529200
_cell_length_b   8.35529200
_cell_length_c   8.40543100
_cell_angle_alpha   90.00000000
_cell_angle_beta   90.00000000
_cell_angle_gamma   90.00000000
_symmetry_Int_Tables_number   1
_chemical_formula_structural   Y8CdSiPt23
_chemical_formula_sum   'Y8 Cd1 Si1 Pt23'
_cell_volume   586.79074003
_cell_formula_units_Z   1
loop_
 _symmetry_equiv_pos_site_id
 _symmetry_equiv_pos_as_xyz
  1  'x, y, z'
loop_
 _atom_site_type_symbol
 _atom_site_label
 _atom_site_symmetry_multiplicity
 _atom_site_fract_x
 _atom_site_fract_y
 _atom_site_fract_z
 _atom_site_occupancy
  Y  Y0  1  0.253143  0.253143  0.252981  1
  Y  Y1  1  0.755333  0.755333  0.747589  1
  Y  Y2  1  0.746857  0.746857  0.252981  1
  Y  Y3  1  0.755333  0.244667  0.747589  1
  Y  Y4  1  0.244667  0.244667  0.747589  1
  Y  Y5  1  0.253143  0.746857  0.252981  1
  Y  Y6  1  0.244667  0.755333  0.747589  1
  Y  Y7  1  0.746857  0.253143  0.252981  1
  Cd  Cd8  1  0.500000  0.500000  0.742775  1
  Si  Si9  1  0.000000  0.000000  0.001446  1
  Pt  Pt10  1  0.258147  0.500000  0.997170  1
  Pt  Pt11  1  0.741853  0.500000  0.997170  1
  Pt  Pt12  1  0.000000  0.258259  0.498436  1
  Pt  Pt13  1  0.500000  0.258147  0.997170  1
  Pt  Pt14  1  0.000000  0.741741  0.498436  1
  Pt  Pt15  1  0.500000  0.741853  0.997170  1
  Pt  Pt16  1  0.500000  0.000000  0.258652  1
  Pt  Pt17  1  0.258259  0.000000  0.498436  1
  Pt  Pt18  1  0.500000  0.000000  0.742257  1
  Pt  Pt19  1  0.741741  0.000000  0.498436  1
  Pt  Pt20  1  0.000000  0.500000  0.258652  1
  Pt  Pt21  1  0.000000  0.500000  0.742257  1
  Pt  Pt22  1  0.250853  0.500000  0.502507  1
  Pt  Pt23  1  0.749147  0.500000  0.502507  1
  Pt  Pt24  1  0.500000  0.250853  0.502507  1
  Pt  Pt25  1  0.500000  0.749147  0.502507  1
  Pt  Pt26  1  0.500000  0.500000  0.253137  1
  Pt  Pt27  1  0.283623  0.000000  0.001674  1
  Pt  Pt28  1  0.716377  0.000000  0.001674  1
  Pt  Pt29  1  0.000000  0.283623  0.001674  1
  Pt  Pt30  1  0.000000  0.716377  0.001674  1
  Pt  Pt31  1  0.000000  0.000000  0.280763  1
  Pt  Pt32  1  0.000000  0.000000  0.718622  1
