# generated using pymatgen
data_CsAl5(HgTe3)4
_symmetry_space_group_name_H-M   'P 1'
_cell_length_a   9.80895047
_cell_length_b   9.78797909
_cell_length_c   9.86956733
_cell_angle_alpha   107.28603673
_cell_angle_beta   107.97001592
_cell_angle_gamma   107.34027914
_symmetry_Int_Tables_number   1
_chemical_formula_structural   CsAl5(HgTe3)4
_chemical_formula_sum   'Cs1 Al5 Hg4 Te12'
_cell_volume   777.38413371
_cell_formula_units_Z   1
loop_
 _symmetry_equiv_pos_site_id
 _symmetry_equiv_pos_as_xyz
  1  'x, y, z'
loop_
 _atom_site_type_symbol
 _atom_site_label
 _atom_site_symmetry_multiplicity
 _atom_site_fract_x
 _atom_site_fract_y
 _atom_site_fract_z
 _atom_site_occupancy
  Cs  Cs0  1  0.996567  0.995756  0.995458  1
  Al  Al1  1  0.483899  0.334896  0.941332  1
  Al  Al2  1  0.938500  0.488705  0.341497  1
  Al  Al3  1  0.330129  0.933085  0.480626  1
  Al  Al4  1  0.017711  0.186538  0.555358  1
  Al  Al5  1  0.561125  0.026815  0.188012  1
  Hg  Hg6  1  0.631188  0.707473  0.396685  1
  Hg  Hg7  1  0.400969  0.636573  0.715356  1
  Hg  Hg8  1  0.710050  0.394049  0.630874  1
  Hg  Hg9  1  0.191327  0.563481  0.019294  1
  Te  Te10  1  0.786045  0.934635  0.291663  1
  Te  Te11  1  0.304593  0.807824  0.931885  1
  Te  Te12  1  0.923604  0.275421  0.772367  1
  Te  Te13  1  0.064997  0.697067  0.240116  1
  Te  Te14  1  0.231568  0.080248  0.686671  1
  Te  Te15  1  0.696352  0.232700  0.080436  1
  Te  Te16  1  0.375830  0.419841  0.149184  1
  Te  Te17  1  0.143212  0.369714  0.434069  1
  Te  Te18  1  0.427111  0.138088  0.363862  1
  Te  Te19  1  0.880358  0.639780  0.566991  1
  Te  Te20  1  0.559745  0.876435  0.635860  1
  Te  Te21  1  0.639760  0.555516  0.877042  1
