# generated using pymatgen
data_Y6Er10MgIn3Pd4
_symmetry_space_group_name_H-M   'P 1'
_cell_length_a   9.71834417
_cell_length_b   9.68006687
_cell_length_c   9.68006700
_cell_angle_alpha   59.99999615
_cell_angle_beta   60.13020085
_cell_angle_gamma   60.13019735
_symmetry_Int_Tables_number   1
_chemical_formula_structural   Y6Er10MgIn3Pd4
_chemical_formula_sum   'Y6 Er10 Mg1 In3 Pd4'
_cell_volume   645.18737700
_cell_formula_units_Z   1
loop_
 _symmetry_equiv_pos_site_id
 _symmetry_equiv_pos_as_xyz
  1  'x, y, z'
loop_
 _atom_site_type_symbol
 _atom_site_label
 _atom_site_symmetry_multiplicity
 _atom_site_fract_x
 _atom_site_fract_y
 _atom_site_fract_z
 _atom_site_occupancy
  Y  Y0  1  0.936170  0.564195  0.564195  1
  Y  Y1  1  0.563803  0.936544  0.936544  1
  Y  Y2  1  0.563803  0.936544  0.563107  1
  Y  Y3  1  0.936170  0.564195  0.935439  1
  Y  Y4  1  0.563803  0.563107  0.936544  1
  Y  Y5  1  0.936170  0.935439  0.564195  1
  Er  Er6  1  0.351818  0.350641  0.350641  1
  Er  Er7  1  0.351818  0.350641  0.946901  1
  Er  Er8  1  0.351818  0.946901  0.350641  1
  Er  Er9  1  0.944123  0.351959  0.351959  1
  Er  Er10  1  0.810033  0.189357  0.189357  1
  Er  Er11  1  0.186253  0.813131  0.813131  1
  Er  Er12  1  0.186253  0.813131  0.187487  1
  Er  Er13  1  0.810033  0.189357  0.811254  1
  Er  Er14  1  0.186253  0.187487  0.813131  1
  Er  Er15  1  0.810033  0.811254  0.189357  1
  Mg  Mg16  1  0.265755  0.578081  0.578081  1
  In  In17  1  0.582382  0.583311  0.583311  1
  In  In18  1  0.582382  0.583311  0.250993  1
  In  In19  1  0.582382  0.250993  0.583311  1
  Pd  Pd20  1  0.143330  0.144115  0.144115  1
  Pd  Pd21  1  0.143330  0.144115  0.568440  1
  Pd  Pd22  1  0.143330  0.568440  0.144115  1
  Pd  Pd23  1  0.568753  0.143749  0.143749  1
