# generated using pymatgen
data_Li3HoEr2Si3
_symmetry_space_group_name_H-M   'P 1'
_cell_length_a   6.93388800
_cell_length_b   6.93974215
_cell_length_c   4.22281700
_cell_angle_alpha   90.00000000
_cell_angle_beta   90.00000000
_cell_angle_gamma   119.97209887
_symmetry_Int_Tables_number   1
_chemical_formula_structural   Li3HoEr2Si3
_chemical_formula_sum   'Li3 Ho1 Er2 Si3'
_cell_volume   176.02529600
_cell_formula_units_Z   1
loop_
 _symmetry_equiv_pos_site_id
 _symmetry_equiv_pos_as_xyz
  1  'x, y, z'
loop_
 _atom_site_type_symbol
 _atom_site_label
 _atom_site_symmetry_multiplicity
 _atom_site_fract_x
 _atom_site_fract_y
 _atom_site_fract_z
 _atom_site_occupancy
  Li  Li0  1  0.767871  0.000000  0.499999  1
  Li  Li1  1  0.232161  0.232207  0.499999  1
  Li  Li2  1  0.999954  0.767792  0.499999  1
  Ho  Ho3  1  0.428058  0.000000  0.000000  1
  Er  Er4  1  0.999985  0.427979  0.000000  1
  Er  Er5  1  0.572006  0.572021  0.000000  1
  Si  Si6  1  0.999822  0.000000  0.000000  1
  Si  Si7  1  0.666896  0.333650  0.499999  1
  Si  Si8  1  0.333246  0.666349  0.499999  1
