# generated using pymatgen
data_Na(Ti3S4)4
_symmetry_space_group_name_H-M   'P 1'
_cell_length_a   6.80803635
_cell_length_b   9.47432879
_cell_length_c   10.06557075
_cell_angle_alpha   118.12511404
_cell_angle_beta   109.71719502
_cell_angle_gamma   90.02346132
_symmetry_Int_Tables_number   1
_chemical_formula_structural   Na(Ti3S4)4
_chemical_formula_sum   'Na1 Ti12 S16'
_cell_volume   528.97716528
_cell_formula_units_Z   1
loop_
 _symmetry_equiv_pos_site_id
 _symmetry_equiv_pos_as_xyz
  1  'x, y, z'
loop_
 _atom_site_type_symbol
 _atom_site_label
 _atom_site_symmetry_multiplicity
 _atom_site_fract_x
 _atom_site_fract_y
 _atom_site_fract_z
 _atom_site_occupancy
  Na  Na0  1  0.000000  0.000000  0.000000  1
  Ti  Ti1  1  0.557691  0.354960  0.866841  1
  Ti  Ti2  1  0.059630  0.356125  0.867413  1
  Ti  Ti3  1  0.369590  0.132638  0.488078  1
  Ti  Ti4  1  0.867491  0.133358  0.488230  1
  Ti  Ti5  1  0.446534  0.511670  0.645421  1
  Ti  Ti6  1  0.948251  0.511853  0.644843  1
  Ti  Ti7  1  0.940370  0.643875  0.132587  1
  Ti  Ti8  1  0.442309  0.645040  0.133159  1
  Ti  Ti9  1  0.132509  0.866642  0.511770  1
  Ti  Ti10  1  0.630410  0.867362  0.511922  1
  Ti  Ti11  1  0.051749  0.488147  0.355157  1
  Ti  Ti12  1  0.553466  0.488330  0.354579  1
  S  S13  1  0.972698  0.050109  0.694881  1
  S  S14  1  0.472039  0.050524  0.694370  1
  S  S15  1  0.803190  0.305296  0.355818  1
  S  S16  1  0.303339  0.304925  0.355051  1
  S  S17  1  0.100837  0.645908  0.950333  1
  S  S18  1  0.600039  0.644124  0.949585  1
  S  S19  1  0.527961  0.949476  0.305630  1
  S  S20  1  0.027302  0.949891  0.305119  1
  S  S21  1  0.696661  0.695075  0.644949  1
  S  S22  1  0.196810  0.694704  0.644182  1
  S  S23  1  0.399961  0.355876  0.050415  1
  S  S24  1  0.899163  0.354092  0.049667  1
  S  S25  1  0.792057  0.667170  0.333624  1
  S  S26  1  0.291565  0.666241  0.332944  1
  S  S27  1  0.708435  0.333759  0.667056  1
  S  S28  1  0.207943  0.332830  0.666376  1
