# generated using pymatgen
data_CaTb6Sn23Rh6
_symmetry_space_group_name_H-M   'P 1'
_cell_length_a   9.89304000
_cell_length_b   9.89303917
_cell_length_c   10.12593000
_cell_angle_alpha   90.00000000
_cell_angle_beta   90.00000000
_cell_angle_gamma   120.00000278
_symmetry_Int_Tables_number   1
_chemical_formula_structural   CaTb6Sn23Rh6
_chemical_formula_sum   'Ca1 Tb6 Sn23 Rh6'
_cell_volume   858.27217672
_cell_formula_units_Z   1
loop_
 _symmetry_equiv_pos_site_id
 _symmetry_equiv_pos_as_xyz
  1  'x, y, z'
loop_
 _atom_site_type_symbol
 _atom_site_label
 _atom_site_symmetry_multiplicity
 _atom_site_fract_x
 _atom_site_fract_y
 _atom_site_fract_z
 _atom_site_occupancy
  Ca  Ca0  1  0.000000  0.000000  0.000000  1
  Tb  Tb1  1  0.478944  0.521056  0.307118  1
  Tb  Tb2  1  0.521056  0.478944  0.692882  1
  Tb  Tb3  1  0.478944  0.957889  0.307118  1
  Tb  Tb4  1  0.521056  0.042111  0.692882  1
  Tb  Tb5  1  0.042111  0.521056  0.307118  1
  Tb  Tb6  1  0.957889  0.478944  0.692882  1
  Sn  Sn7  1  0.350611  0.000000  0.000000  1
  Sn  Sn8  1  0.649389  0.000000  0.000000  1
  Sn  Sn9  1  0.000000  0.350611  0.000000  1
  Sn  Sn10  1  0.000000  0.649389  0.000000  1
  Sn  Sn11  1  0.649389  0.649389  0.000000  1
  Sn  Sn12  1  0.350611  0.350611  0.000000  1
  Sn  Sn13  1  0.333333  0.666667  0.816297  1
  Sn  Sn14  1  0.666667  0.333333  0.183703  1
  Sn  Sn15  1  0.000000  0.000000  0.500000  1
  Sn  Sn16  1  0.779623  0.220377  0.455559  1
  Sn  Sn17  1  0.220377  0.779623  0.544441  1
  Sn  Sn18  1  0.779623  0.559246  0.455559  1
  Sn  Sn19  1  0.220377  0.440754  0.544441  1
  Sn  Sn20  1  0.440754  0.220377  0.455559  1
  Sn  Sn21  1  0.559246  0.779623  0.544441  1
  Sn  Sn22  1  0.333333  0.666667  0.118448  1
  Sn  Sn23  1  0.666667  0.333333  0.881552  1
  Sn  Sn24  1  0.118233  0.881767  0.278509  1
  Sn  Sn25  1  0.881767  0.118233  0.721491  1
  Sn  Sn26  1  0.118233  0.236467  0.278509  1
  Sn  Sn27  1  0.881767  0.763533  0.721491  1
  Sn  Sn28  1  0.763533  0.881767  0.278509  1
  Sn  Sn29  1  0.236467  0.118233  0.721491  1
  Rh  Rh30  1  0.830726  0.169274  0.199196  1
  Rh  Rh31  1  0.169274  0.830726  0.800804  1
  Rh  Rh32  1  0.830726  0.661452  0.199196  1
  Rh  Rh33  1  0.169274  0.338548  0.800804  1
  Rh  Rh34  1  0.338548  0.169274  0.199196  1
  Rh  Rh35  1  0.661452  0.830726  0.800804  1
