# generated using pymatgen
data_Ca20Si11Br
_symmetry_space_group_name_H-M   'P 1'
_cell_length_a   7.65077700
_cell_length_b   7.65077700
_cell_length_c   14.76573600
_cell_angle_alpha   90.00000000
_cell_angle_beta   90.00000000
_cell_angle_gamma   90.00000000
_symmetry_Int_Tables_number   1
_chemical_formula_structural   Ca20Si11Br
_chemical_formula_sum   'Ca20 Si11 Br1'
_cell_volume   864.30333052
_cell_formula_units_Z   1
loop_
 _symmetry_equiv_pos_site_id
 _symmetry_equiv_pos_as_xyz
  1  'x, y, z'
loop_
 _atom_site_type_symbol
 _atom_site_label
 _atom_site_symmetry_multiplicity
 _atom_site_fract_x
 _atom_site_fract_y
 _atom_site_fract_z
 _atom_site_occupancy
  Ca  Ca0  1  0.000000  0.500000  0.236788  1
  Ca  Ca1  1  0.500000  0.000001  0.236926  1
  Ca  Ca2  1  0.500001  0.000000  0.762885  1
  Ca  Ca3  1  0.000000  0.499999  0.763313  1
  Ca  Ca4  1  0.175620  0.176401  0.105929  1
  Ca  Ca5  1  0.824379  0.823598  0.105930  1
  Ca  Ca6  1  0.659857  0.312944  0.387902  1
  Ca  Ca7  1  0.340144  0.687056  0.387904  1
  Ca  Ca8  1  0.812943  0.840133  0.387895  1
  Ca  Ca9  1  0.187056  0.159868  0.387896  1
  Ca  Ca10  1  0.676394  0.324383  0.105925  1
  Ca  Ca11  1  0.323606  0.675617  0.105924  1
  Ca  Ca12  1  0.323663  0.324279  0.894041  1
  Ca  Ca13  1  0.676336  0.675722  0.894042  1
  Ca  Ca14  1  0.813017  0.159966  0.612122  1
  Ca  Ca15  1  0.186982  0.840033  0.612122  1
  Ca  Ca16  1  0.659966  0.686993  0.612114  1
  Ca  Ca17  1  0.340033  0.313007  0.612115  1
  Ca  Ca18  1  0.824281  0.176336  0.894039  1
  Ca  Ca19  1  0.175719  0.823662  0.894039  1
  Si  Si20  1  0.382633  0.389165  0.250167  1
  Si  Si21  1  0.617369  0.610833  0.250167  1
  Si  Si22  1  0.889172  0.117361  0.250163  1
  Si  Si23  1  0.110826  0.882638  0.250163  1
  Si  Si24  1  0.111010  0.117566  0.749840  1
  Si  Si25  1  0.888988  0.882436  0.749839  1
  Si  Si26  1  0.617571  0.388983  0.749839  1
  Si  Si27  1  0.382427  0.611015  0.749839  1
  Si  Si28  1  0.000000  0.500000  0.999855  1
  Si  Si29  1  0.500000  0.000000  0.500155  1
  Si  Si30  1  0.500000  0.000000  0.000129  1
  Br  Br31  1  0.000000  0.500000  0.499989  1
