# generated using pymatgen
data_Nd16Y4Si15Ag
_symmetry_space_group_name_H-M   'P 1'
_cell_length_a   7.69641287
_cell_length_b   7.92437166
_cell_length_c   15.17923806
_cell_angle_alpha   90.27195854
_cell_angle_beta   90.77840312
_cell_angle_gamma   90.25476512
_symmetry_Int_Tables_number   1
_chemical_formula_structural   Nd16Y4Si15Ag
_chemical_formula_sum   'Nd16 Y4 Si15 Ag1'
_cell_volume   925.66485115
_cell_formula_units_Z   1
loop_
 _symmetry_equiv_pos_site_id
 _symmetry_equiv_pos_as_xyz
  1  'x, y, z'
loop_
 _atom_site_type_symbol
 _atom_site_label
 _atom_site_symmetry_multiplicity
 _atom_site_fract_x
 _atom_site_fract_y
 _atom_site_fract_z
 _atom_site_occupancy
  Nd  Nd0  1  0.680288  0.175122  0.623847  1
  Nd  Nd1  1  0.187036  0.321250  0.878226  1
  Nd  Nd2  1  0.314170  0.820384  0.121494  1
  Nd  Nd3  1  0.823276  0.676806  0.376169  1
  Nd  Nd4  1  0.316359  0.825498  0.379445  1
  Nd  Nd5  1  0.813638  0.679520  0.121479  1
  Nd  Nd6  1  0.686276  0.178603  0.878055  1
  Nd  Nd7  1  0.179611  0.320299  0.623540  1
  Nd  Nd8  1  0.525382  0.677565  0.602705  1
  Nd  Nd9  1  0.033343  0.814052  0.900246  1
  Nd  Nd10  1  0.465683  0.316202  0.099371  1
  Nd  Nd11  1  0.977071  0.187104  0.396929  1
  Nd  Nd12  1  0.467801  0.320565  0.398019  1
  Nd  Nd13  1  0.967113  0.186788  0.098893  1
  Nd  Nd14  1  0.535183  0.686336  0.898575  1
  Nd  Nd15  1  0.028433  0.813663  0.602123  1
  Y  Y16  1  0.852849  0.510637  0.749891  1
  Y  Y17  1  0.352243  0.986719  0.749212  1
  Y  Y18  1  0.146946  0.487348  0.249652  1
  Y  Y19  1  0.649758  0.014299  0.245907  1
  Si  Si20  1  0.137104  0.525934  0.041297  1
  Si  Si21  1  0.361693  0.026074  0.959001  1
  Si  Si22  1  0.855504  0.471363  0.540231  1
  Si  Si23  1  0.345907  0.024901  0.545898  1
  Si  Si24  1  0.862873  0.474539  0.958256  1
  Si  Si25  1  0.636281  0.974568  0.040696  1
  Si  Si26  1  0.142812  0.528658  0.461554  1
  Si  Si27  1  0.480345  0.400086  0.751145  1
  Si  Si28  1  0.979158  0.096546  0.751761  1
  Si  Si29  1  0.520057  0.601054  0.248979  1
  Si  Si30  1  0.021971  0.903118  0.248559  1
  Si  Si31  1  0.738576  0.871921  0.751050  1
  Si  Si32  1  0.238069  0.625934  0.751814  1
  Si  Si33  1  0.263846  0.126244  0.248068  1
  Si  Si34  1  0.760765  0.375433  0.248409  1
  Ag  Ag35  1  0.652580  0.974867  0.459504  1
