# generated using pymatgen
data_Y2Lu2Al15(GaRh2)3
_symmetry_space_group_name_H-M   'P 1'
_cell_length_a   7.51540707
_cell_length_b   7.51915362
_cell_length_c   9.50587300
_cell_angle_alpha   90.00000000
_cell_angle_beta   90.00000000
_cell_angle_gamma   119.36648689
_symmetry_Int_Tables_number   1
_chemical_formula_structural   Y2Lu2Al15(GaRh2)3
_chemical_formula_sum   'Y2 Lu2 Al15 Ga3 Rh6'
_cell_volume   468.14594273
_cell_formula_units_Z   1
loop_
 _symmetry_equiv_pos_site_id
 _symmetry_equiv_pos_as_xyz
  1  'x, y, z'
loop_
 _atom_site_type_symbol
 _atom_site_label
 _atom_site_symmetry_multiplicity
 _atom_site_fract_x
 _atom_site_fract_y
 _atom_site_fract_z
 _atom_site_occupancy
  Y  Y0  1  0.998206  0.674926  0.250000  1
  Y  Y1  1  0.669904  0.990822  0.250000  1
  Lu  Lu2  1  0.005166  0.325336  0.750000  1
  Lu  Lu3  1  0.324963  0.003851  0.750000  1
  Al  Al4  1  0.001990  0.335096  0.071655  1
  Al  Al5  1  0.999778  0.664013  0.923320  1
  Al  Al6  1  0.999778  0.664013  0.576680  1
  Al  Al7  1  0.335939  0.003791  0.428294  1
  Al  Al8  1  0.001990  0.335096  0.428345  1
  Al  Al9  1  0.664004  0.000082  0.576585  1
  Al  Al10  1  0.664004  0.000082  0.923415  1
  Al  Al11  1  0.335939  0.003791  0.071706  1
  Al  Al12  1  0.332905  0.333169  0.559806  1
  Al  Al13  1  0.666158  0.665566  0.451747  1
  Al  Al14  1  0.666158  0.665566  0.048253  1
  Al  Al15  1  0.332905  0.333169  0.940194  1
  Al  Al16  1  0.662611  0.447648  0.750000  1
  Al  Al17  1  0.550427  0.339289  0.250000  1
  Al  Al18  1  0.448121  0.662451  0.750000  1
  Ga  Ga19  1  0.130215  0.130779  0.250000  1
  Ga  Ga20  1  0.868905  0.868711  0.750000  1
  Ga  Ga21  1  0.338424  0.546870  0.250000  1
  Rh  Rh22  1  0.671515  0.328741  0.999225  1
  Rh  Rh23  1  0.328245  0.672748  0.997023  1
  Rh  Rh24  1  0.328245  0.672748  0.502977  1
  Rh  Rh25  1  0.671515  0.328741  0.500775  1
  Rh  Rh26  1  0.000995  0.001452  0.998530  1
  Rh  Rh27  1  0.000995  0.001452  0.501470  1
