# generated using pymatgen
data_BaNpPdS3
_symmetry_space_group_name_H-M   'P 1'
_cell_length_a   7.11014367
_cell_length_b   7.11014415
_cell_length_c   10.19173700
_cell_angle_alpha   90.00029727
_cell_angle_beta   89.99970402
_cell_angle_gamma   146.49312733
_symmetry_Int_Tables_number   1
_chemical_formula_structural   BaNpPdS3
_chemical_formula_sum   'Ba2 Np2 Pd2 S6'
_cell_volume   284.42854639
_cell_formula_units_Z   2
loop_
 _symmetry_equiv_pos_site_id
 _symmetry_equiv_pos_as_xyz
  1  'x, y, z'
loop_
 _atom_site_type_symbol
 _atom_site_label
 _atom_site_symmetry_multiplicity
 _atom_site_fract_x
 _atom_site_fract_y
 _atom_site_fract_z
 _atom_site_occupancy
  Ba  Ba0  1  0.743736  0.256266  0.249983  1
  Ba  Ba1  1  0.256266  0.743736  0.750017  1
  Np  Np2  1  0.000000  0.000000  0.000000  1
  Np  Np3  1  0.000000  0.000000  0.500000  1
  Pd  Pd4  1  0.466996  0.533007  0.250002  1
  Pd  Pd5  1  0.533007  0.466996  0.749998  1
  S  S6  1  0.368274  0.631728  0.050784  1
  S  S7  1  0.068896  0.931107  0.249994  1
  S  S8  1  0.368283  0.631719  0.449217  1
  S  S9  1  0.631719  0.368283  0.550783  1
  S  S10  1  0.931107  0.068896  0.750006  1
  S  S11  1  0.631728  0.368274  0.949216  1
