# generated using pymatgen
data_Nb3Ag(PO4)6
_symmetry_space_group_name_H-M   'P 1'
_cell_length_a   8.80304052
_cell_length_b   8.80153389
_cell_length_c   9.14316124
_cell_angle_alpha   90.06980808
_cell_angle_beta   118.74986076
_cell_angle_gamma   120.01860306
_symmetry_Int_Tables_number   1
_chemical_formula_structural   Nb3Ag(PO4)6
_chemical_formula_sum   'Nb3 Ag1 P6 O24'
_cell_volume   509.75470805
_cell_formula_units_Z   1
loop_
 _symmetry_equiv_pos_site_id
 _symmetry_equiv_pos_as_xyz
  1  'x, y, z'
loop_
 _atom_site_type_symbol
 _atom_site_label
 _atom_site_symmetry_multiplicity
 _atom_site_fract_x
 _atom_site_fract_y
 _atom_site_fract_z
 _atom_site_occupancy
  Nb  Nb0  1  0.783115  0.640880  0.424327  1
  Nb  Nb1  1  0.212486  0.356750  0.568736  1
  Nb  Nb2  1  0.785916  0.142591  0.928403  1
  Ag  Ag3  1  0.207533  0.854585  0.061853  1
  P  P4  1  0.995245  0.963860  0.247071  1
  P  P5  1  0.283656  0.532082  0.248786  1
  P  P6  1  0.283039  0.749205  0.750190  1
  P  P7  1  0.716705  0.251423  0.249517  1
  P  P8  1  0.717060  0.468035  0.750309  1
  P  P9  1  0.002534  0.034415  0.751513  1
  O  O10  1  0.283750  0.702881  0.241217  1
  O  O11  1  0.849444  0.989870  0.081516  1
  O  O12  1  0.862342  0.861450  0.588835  1
  O  O13  1  0.847924  0.788223  0.275466  1
  O  O14  1  0.161518  0.957476  0.244089  1
  O  O15  1  0.487744  0.560698  0.277252  1
  O  O16  1  0.088704  0.725008  0.584731  1
  O  O17  1  0.872940  0.640676  0.909490  1
  O  O18  1  0.270794  0.736238  0.909848  1
  O  O19  1  0.483018  0.933923  0.784407  1
  O  O20  1  0.725728  0.496685  0.586522  1
  O  O21  1  0.712792  0.425571  0.273519  1
  O  O22  1  0.305395  0.592461  0.708912  1
  O  O23  1  0.287397  0.487974  0.414000  1
  O  O24  1  0.540122  0.080489  0.243956  1
  O  O25  1  0.728753  0.232250  0.086867  1
  O  O26  1  0.092265  0.356632  0.085811  1
  O  O27  1  0.927635  0.304127  0.416212  1
  O  O28  1  0.494625  0.402582  0.704767  1
  O  O29  1  0.851444  0.050870  0.783647  1
  O  O30  1  0.116389  0.211065  0.706853  1
  O  O31  1  0.108307  0.126279  0.410184  1
  O  O32  1  0.176707  0.039378  0.913814  1
  O  O33  1  0.736982  0.303367  0.787382  1
