# generated using pymatgen
data_Ce15Ho5Si15Hg
_symmetry_space_group_name_H-M   'P 1'
_cell_length_a   7.45302477
_cell_length_b   7.71529359
_cell_length_c   14.67456300
_cell_angle_alpha   89.94599623
_cell_angle_beta   89.24926254
_cell_angle_gamma   90.09227611
_symmetry_Int_Tables_number   1
_chemical_formula_structural   Ce15Ho5Si15Hg
_chemical_formula_sum   'Ce15 Ho5 Si15 Hg1'
_cell_volume   843.74682584
_cell_formula_units_Z   1
loop_
 _symmetry_equiv_pos_site_id
 _symmetry_equiv_pos_as_xyz
  1  'x, y, z'
loop_
 _atom_site_type_symbol
 _atom_site_label
 _atom_site_symmetry_multiplicity
 _atom_site_fract_x
 _atom_site_fract_y
 _atom_site_fract_z
 _atom_site_occupancy
  Ce  Ce0  1  0.662120  0.997867  0.243237  1
  Ce  Ce1  1  0.140729  0.511386  0.242169  1
  Ce  Ce2  1  0.863101  0.502193  0.736250  1
  Ce  Ce3  1  0.364678  0.997928  0.762778  1
  Ce  Ce4  1  0.986237  0.824395  0.104758  1
  Ce  Ce5  1  0.473442  0.681518  0.401538  1
  Ce  Ce6  1  0.510492  0.305400  0.896581  1
  Ce  Ce7  1  0.028699  0.184896  0.597942  1
  Ce  Ce8  1  0.022419  0.178076  0.899072  1
  Ce  Ce9  1  0.527207  0.315789  0.600322  1
  Ce  Ce10  1  0.473307  0.684802  0.105686  1
  Ce  Ce11  1  0.972936  0.814995  0.398968  1
  Ce  Ce12  1  0.648049  0.838540  0.866789  1
  Ce  Ce13  1  0.165462  0.675766  0.624444  1
  Ce  Ce14  1  0.835405  0.308176  0.130222  1
  Ho  Ho15  1  0.325779  0.180720  0.380610  1
  Ho  Ho16  1  0.329575  0.179117  0.126505  1
  Ho  Ho17  1  0.821183  0.317443  0.375631  1
  Ho  Ho18  1  0.179096  0.676236  0.876281  1
  Ho  Ho19  1  0.680246  0.822553  0.621698  1
  Si  Si20  1  0.760254  0.623823  0.252526  1
  Si  Si21  1  0.275973  0.878932  0.256141  1
  Si  Si22  1  0.739431  0.134545  0.746441  1
  Si  Si23  1  0.234492  0.369846  0.749258  1
  Si  Si24  1  0.041756  0.102782  0.257173  1
  Si  Si25  1  0.525238  0.397102  0.253829  1
  Si  Si26  1  0.471267  0.593971  0.747085  1
  Si  Si27  1  0.972188  0.903233  0.749093  1
  Si  Si28  1  0.356288  0.970562  0.541666  1
  Si  Si29  1  0.647273  0.026388  0.038082  1
  Si  Si30  1  0.141593  0.472494  0.455887  1
  Si  Si31  1  0.172691  0.463611  0.035284  1
  Si  Si32  1  0.650292  0.027587  0.460792  1
  Si  Si33  1  0.331818  0.965262  0.969365  1
  Si  Si34  1  0.842191  0.529017  0.532244  1
  Hg  Hg35  1  0.827090  0.543058  0.963651  1
