# generated using pymatgen
data_Tb3GdC5
_symmetry_space_group_name_H-M   'P 1'
_cell_length_a   3.71395800
_cell_length_b   6.64723397
_cell_length_c   12.02049656
_cell_angle_alpha   88.99982111
_cell_angle_beta   90.00000000
_cell_angle_gamma   90.00000000
_symmetry_Int_Tables_number   1
_chemical_formula_structural   Tb3GdC5
_chemical_formula_sum   'Tb6 Gd2 C10'
_cell_volume   296.71136947
_cell_formula_units_Z   2
loop_
 _symmetry_equiv_pos_site_id
 _symmetry_equiv_pos_as_xyz
  1  'x, y, z'
loop_
 _atom_site_type_symbol
 _atom_site_label
 _atom_site_symmetry_multiplicity
 _atom_site_fract_x
 _atom_site_fract_y
 _atom_site_fract_z
 _atom_site_occupancy
  Tb  Tb0  1  0.000000  0.256297  0.543081  1
  Tb  Tb1  1  0.000000  0.743703  0.456919  1
  Tb  Tb2  1  0.000000  0.755095  0.958174  1
  Tb  Tb3  1  0.000000  0.244905  0.041826  1
  Tb  Tb4  1  0.500000  0.610342  0.695906  1
  Tb  Tb5  1  0.500000  0.389658  0.304094  1
  Gd  Gd6  1  0.500000  0.104783  0.802355  1
  Gd  Gd7  1  0.500000  0.895217  0.197645  1
  C  C8  1  0.500000  0.500000  0.500000  1
  C  C9  1  0.500000  0.000000  0.000000  1
  C  C10  1  0.000000  0.359379  0.737837  1
  C  C11  1  0.000000  0.640621  0.262163  1
  C  C12  1  0.000000  0.862466  0.764726  1
  C  C13  1  0.000000  0.137534  0.235274  1
  C  C14  1  0.000000  0.422191  0.841950  1
  C  C15  1  0.000000  0.577809  0.158050  1
  C  C16  1  0.000000  0.110897  0.345633  1
  C  C17  1  0.000000  0.889103  0.654367  1
