# generated using pymatgen
data_Tm2MnOsRu2
_symmetry_space_group_name_H-M   'P 1'
_cell_length_a   5.28338211
_cell_length_b   5.19679518
_cell_length_c   8.85590800
_cell_angle_alpha   90.00000000
_cell_angle_beta   90.00000000
_cell_angle_gamma   120.60552280
_symmetry_Int_Tables_number   1
_chemical_formula_structural   Tm2MnOsRu2
_chemical_formula_sum   'Tm4 Mn2 Os2 Ru4'
_cell_volume   209.28059745
_cell_formula_units_Z   2
loop_
 _symmetry_equiv_pos_site_id
 _symmetry_equiv_pos_as_xyz
  1  'x, y, z'
loop_
 _atom_site_type_symbol
 _atom_site_label
 _atom_site_symmetry_multiplicity
 _atom_site_fract_x
 _atom_site_fract_y
 _atom_site_fract_z
 _atom_site_occupancy
  Tm  Tm0  1  0.668410  0.335683  0.564655  1
  Tm  Tm1  1  0.334037  0.666179  0.435475  1
  Tm  Tm2  1  0.334037  0.666179  0.064525  1
  Tm  Tm3  1  0.668410  0.335683  0.935345  1
  Mn  Mn4  1  0.661547  0.829195  0.750000  1
  Mn  Mn5  1  0.829455  0.660697  0.250000  1
  Os  Os6  1  0.168985  0.339601  0.750000  1
  Os  Os7  1  0.171376  0.824636  0.750000  1
  Ru  Ru8  1  0.999639  0.999645  0.499536  1
  Ru  Ru9  1  0.999639  0.999645  0.000464  1
  Ru  Ru10  1  0.826107  0.174108  0.250000  1
  Ru  Ru11  1  0.338358  0.168747  0.250000  1
