# generated using pymatgen
data_Y3HoLu4(WO6)4
_symmetry_space_group_name_H-M   'P 1'
_cell_length_a   5.36822200
_cell_length_b   7.65373394
_cell_length_c   11.33974479
_cell_angle_alpha   75.54845206
_cell_angle_beta   90.00000000
_cell_angle_gamma   90.00000000
_symmetry_Int_Tables_number   1
_chemical_formula_structural   Y3HoLu4(WO6)4
_chemical_formula_sum   'Y3 Ho1 Lu4 W4 O24'
_cell_volume   451.17342941
_cell_formula_units_Z   1
loop_
 _symmetry_equiv_pos_site_id
 _symmetry_equiv_pos_as_xyz
  1  'x, y, z'
loop_
 _atom_site_type_symbol
 _atom_site_label
 _atom_site_symmetry_multiplicity
 _atom_site_fract_x
 _atom_site_fract_y
 _atom_site_fract_z
 _atom_site_occupancy
  Y  Y0  1  0.743661  0.000000  0.250000  1
  Y  Y1  1  0.315536  0.500000  0.750000  1
  Y  Y2  1  0.684076  0.500000  0.250000  1
  Ho  Ho3  1  0.256817  0.000000  0.750000  1
  Lu  Lu4  1  0.182626  0.793296  0.079116  1
  Lu  Lu5  1  0.182626  0.206704  0.420884  1
  Lu  Lu6  1  0.817614  0.206599  0.920464  1
  Lu  Lu7  1  0.817614  0.793401  0.579536  1
  W  W8  1  0.743459  0.724629  0.885865  1
  W  W9  1  0.256438  0.724054  0.386212  1
  W  W10  1  0.743459  0.275371  0.614135  1
  W  W11  1  0.256438  0.275946  0.113788  1
  O  O12  1  0.541171  0.158510  0.066528  1
  O  O13  1  0.049422  0.058001  0.102114  1
  O  O14  1  0.018714  0.713834  0.769983  1
  O  O15  1  0.458431  0.157550  0.567219  1
  O  O16  1  0.356348  0.487780  0.386711  1
  O  O17  1  0.952018  0.057722  0.602975  1
  O  O18  1  0.544390  0.793464  0.725095  1
  O  O19  1  0.454439  0.792261  0.225229  1
  O  O20  1  0.145538  0.635255  0.549956  1
  O  O21  1  0.049422  0.941999  0.397886  1
  O  O22  1  0.458431  0.842450  0.932781  1
  O  O23  1  0.454439  0.207739  0.274771  1
  O  O24  1  0.854041  0.364106  0.450315  1
  O  O25  1  0.643872  0.488308  0.886325  1
  O  O26  1  0.356348  0.512220  0.113289  1
  O  O27  1  0.952018  0.942278  0.897025  1
  O  O28  1  0.541171  0.841490  0.433472  1
  O  O29  1  0.981435  0.286819  0.229779  1
  O  O30  1  0.544390  0.206536  0.774905  1
  O  O31  1  0.854041  0.635894  0.049685  1
  O  O32  1  0.018714  0.286166  0.730017  1
  O  O33  1  0.145538  0.364745  0.950044  1
  O  O34  1  0.981435  0.713181  0.270221  1
  O  O35  1  0.643872  0.511692  0.613675  1
