# generated using pymatgen
data_Dy4Tm6CoRu3
_symmetry_space_group_name_H-M   'P 1'
_cell_length_a   6.27370020
_cell_length_b   7.18468433
_cell_length_c   8.38151804
_cell_angle_alpha   96.72909657
_cell_angle_beta   111.74686984
_cell_angle_gamma   90.26028269
_symmetry_Int_Tables_number   1
_chemical_formula_structural   Dy4Tm6CoRu3
_chemical_formula_sum   'Dy4 Tm6 Co1 Ru3'
_cell_volume   348.01700011
_cell_formula_units_Z   1
loop_
 _symmetry_equiv_pos_site_id
 _symmetry_equiv_pos_as_xyz
  1  'x, y, z'
loop_
 _atom_site_type_symbol
 _atom_site_label
 _atom_site_symmetry_multiplicity
 _atom_site_fract_x
 _atom_site_fract_y
 _atom_site_fract_z
 _atom_site_occupancy
  Dy  Dy0  1  0.787231  0.088185  0.812073  1
  Dy  Dy1  1  0.978938  0.416191  0.191352  1
  Dy  Dy2  1  0.211901  0.917339  0.187351  1
  Dy  Dy3  1  0.014086  0.584102  0.812443  1
  Tm  Tm4  1  0.208672  0.186344  0.567045  1
  Tm  Tm5  1  0.643351  0.315680  0.433828  1
  Tm  Tm6  1  0.795028  0.814979  0.434979  1
  Tm  Tm7  1  0.359437  0.680451  0.567457  1
  Tm  Tm8  1  0.422068  0.253146  0.998508  1
  Tm  Tm9  1  0.578334  0.745981  0.997729  1
  Co  Co10  1  0.600030  0.422429  0.775695  1
  Ru  Ru11  1  0.820276  0.074385  0.219501  1
  Ru  Ru12  1  0.401443  0.574771  0.222755  1
  Ru  Ru13  1  0.179206  0.926017  0.779282  1
