# generated using pymatgen
data_Hf4AlGaRe6
_symmetry_space_group_name_H-M   'P 1'
_cell_length_a   5.27137900
_cell_length_b   5.27137864
_cell_length_c   8.57369000
_cell_angle_alpha   90.00000000
_cell_angle_beta   90.00000000
_cell_angle_gamma   119.99999598
_symmetry_Int_Tables_number   1
_chemical_formula_structural   Hf4AlGaRe6
_chemical_formula_sum   'Hf4 Al1 Ga1 Re6'
_cell_volume   206.32263728
_cell_formula_units_Z   1
loop_
 _symmetry_equiv_pos_site_id
 _symmetry_equiv_pos_as_xyz
  1  'x, y, z'
loop_
 _atom_site_type_symbol
 _atom_site_label
 _atom_site_symmetry_multiplicity
 _atom_site_fract_x
 _atom_site_fract_y
 _atom_site_fract_z
 _atom_site_occupancy
  Hf  Hf0  1  0.333333  0.666667  0.066359  1
  Hf  Hf1  1  0.666667  0.333333  0.566278  1
  Hf  Hf2  1  0.666667  0.333333  0.933641  1
  Hf  Hf3  1  0.333333  0.666667  0.433722  1
  Al  Al4  1  0.000000  0.000000  0.000000  1
  Ga  Ga5  1  0.000000  0.000000  0.500000  1
  Re  Re6  1  0.828680  0.657360  0.249944  1
  Re  Re7  1  0.171320  0.828680  0.750056  1
  Re  Re8  1  0.657360  0.828680  0.750056  1
  Re  Re9  1  0.342640  0.171320  0.249944  1
  Re  Re10  1  0.828680  0.171320  0.249944  1
  Re  Re11  1  0.171320  0.342640  0.750056  1
