# generated using pymatgen
data_Y3Nb3(B2Ru5)2
_symmetry_space_group_name_H-M   'P 1'
_cell_length_a   9.62757728
_cell_length_b   9.62757651
_cell_length_c   3.12749300
_cell_angle_alpha   90.00000000
_cell_angle_beta   90.00000000
_cell_angle_gamma   89.55175334
_symmetry_Int_Tables_number   1
_chemical_formula_structural   Y3Nb3(B2Ru5)2
_chemical_formula_sum   'Y3 Nb3 B4 Ru10'
_cell_volume   289.87919573
_cell_formula_units_Z   1
loop_
 _symmetry_equiv_pos_site_id
 _symmetry_equiv_pos_as_xyz
  1  'x, y, z'
loop_
 _atom_site_type_symbol
 _atom_site_label
 _atom_site_symmetry_multiplicity
 _atom_site_fract_x
 _atom_site_fract_y
 _atom_site_fract_z
 _atom_site_occupancy
  Y  Y0  1  0.174348  0.825652  0.000000  1
  Y  Y1  1  0.324658  0.323793  0.000000  1
  Y  Y2  1  0.676207  0.675342  0.000000  1
  Nb  Nb3  1  0.497413  0.998244  0.000000  1
  Nb  Nb4  1  0.001756  0.502587  0.000000  1
  Nb  Nb5  1  0.824047  0.175953  0.000000  1
  B  B6  1  0.623591  0.376409  0.000000  1
  B  B7  1  0.380759  0.619241  0.000000  1
  B  B8  1  0.118830  0.122989  0.000000  1
  B  B9  1  0.877011  0.881170  0.000000  1
  Ru  Ru10  1  0.503988  0.496012  0.500000  1
  Ru  Ru11  1  0.990257  0.009743  0.500000  1
  Ru  Ru12  1  0.584762  0.213548  0.500000  1
  Ru  Ru13  1  0.430803  0.780225  0.500000  1
  Ru  Ru14  1  0.058449  0.279831  0.500000  1
  Ru  Ru15  1  0.929134  0.722407  0.500000  1
  Ru  Ru16  1  0.277593  0.070866  0.500000  1
  Ru  Ru17  1  0.720169  0.941551  0.500000  1
  Ru  Ru18  1  0.219775  0.569197  0.500000  1
  Ru  Ru19  1  0.786452  0.415238  0.500000  1
