# generated using pymatgen
data_Ce3Pr3Ta2(Co4P3)4
_symmetry_space_group_name_H-M   'P 1'
_cell_length_a   3.78291700
_cell_length_b   10.74717279
_cell_length_c   12.53250267
_cell_angle_alpha   90.17607489
_cell_angle_beta   90.00000000
_cell_angle_gamma   90.00000000
_symmetry_Int_Tables_number   1
_chemical_formula_structural   Ce3Pr3Ta2(Co4P3)4
_chemical_formula_sum   'Ce3 Pr3 Ta2 Co16 P12'
_cell_volume   509.51479499
_cell_formula_units_Z   1
loop_
 _symmetry_equiv_pos_site_id
 _symmetry_equiv_pos_as_xyz
  1  'x, y, z'
loop_
 _atom_site_type_symbol
 _atom_site_label
 _atom_site_symmetry_multiplicity
 _atom_site_fract_x
 _atom_site_fract_y
 _atom_site_fract_z
 _atom_site_occupancy
  Ce  Ce0  1  0.500000  0.822982  0.207046  1
  Ce  Ce1  1  0.500000  0.177844  0.206358  1
  Ce  Ce2  1  0.000000  0.676372  0.792567  1
  Pr  Pr3  1  0.000000  0.499686  0.523316  1
  Pr  Pr4  1  0.500000  0.000074  0.476459  1
  Pr  Pr5  1  0.000000  0.319438  0.795318  1
  Ta  Ta6  1  0.500000  0.500653  0.153433  1
  Ta  Ta7  1  0.000000  0.998980  0.846888  1
  Co  Co8  1  0.500000  0.508638  0.707334  1
  Co  Co9  1  0.000000  0.999994  0.290603  1
  Co  Co10  1  0.000000  0.501529  0.988870  1
  Co  Co11  1  0.500000  0.998945  0.012387  1
  Co  Co12  1  0.500000  0.332198  0.994504  1
  Co  Co13  1  0.500000  0.667786  0.993553  1
  Co  Co14  1  0.000000  0.166190  0.008962  1
  Co  Co15  1  0.000000  0.832081  0.007320  1
  Co  Co16  1  0.500000  0.294561  0.430523  1
  Co  Co17  1  0.500000  0.705349  0.430475  1
  Co  Co18  1  0.000000  0.204971  0.567414  1
  Co  Co19  1  0.000000  0.795867  0.568949  1
  Co  Co20  1  0.500000  0.877126  0.710870  1
  Co  Co21  1  0.500000  0.118482  0.707888  1
  Co  Co22  1  0.000000  0.622600  0.289236  1
  Co  Co23  1  0.000000  0.378098  0.289403  1
  P  P24  1  0.500000  0.500643  0.888643  1
  P  P25  1  0.000000  0.999305  0.111869  1
  P  P26  1  0.500000  0.499860  0.348441  1
  P  P27  1  0.000000  0.000455  0.651459  1
  P  P28  1  0.500000  0.306485  0.613896  1
  P  P29  1  0.500000  0.694977  0.613642  1
  P  P30  1  0.000000  0.193859  0.385015  1
  P  P31  1  0.000000  0.806117  0.385554  1
  P  P32  1  0.500000  0.841034  0.895341  1
  P  P33  1  0.500000  0.155985  0.896892  1
  P  P34  1  0.000000  0.658375  0.105037  1
  P  P35  1  0.000000  0.342461  0.104534  1
