# generated using pymatgen
data_Rb3LiV2Cl9
_symmetry_space_group_name_H-M   'P 1'
_cell_length_a   12.11672500
_cell_length_b   12.11672554
_cell_length_c   5.94230900
_cell_angle_alpha   90.00000000
_cell_angle_beta   90.00000000
_cell_angle_gamma   120.00000125
_symmetry_Int_Tables_number   1
_chemical_formula_structural   Rb3LiV2Cl9
_chemical_formula_sum   'Rb6 Li2 V4 Cl18'
_cell_volume   755.53811744
_cell_formula_units_Z   2
loop_
 _symmetry_equiv_pos_site_id
 _symmetry_equiv_pos_as_xyz
  1  'x, y, z'
loop_
 _atom_site_type_symbol
 _atom_site_label
 _atom_site_symmetry_multiplicity
 _atom_site_fract_x
 _atom_site_fract_y
 _atom_site_fract_z
 _atom_site_occupancy
  Rb  Rb0  1  0.017310  0.333717  0.751678  1
  Rb  Rb1  1  0.316401  0.332399  0.252161  1
  Rb  Rb2  1  0.666365  0.683628  0.751533  1
  Rb  Rb3  1  0.015948  0.683724  0.252047  1
  Rb  Rb4  1  0.316393  0.982716  0.751682  1
  Rb  Rb5  1  0.667607  0.983772  0.252078  1
  Li  Li6  1  0.333363  0.666706  0.526275  1
  Li  Li7  1  0.999977  0.999990  0.999857  1
  V  V8  1  0.666673  0.333327  0.472446  1
  V  V9  1  0.999990  0.000046  0.499825  1
  V  V10  1  0.666685  0.333330  0.972429  1
  V  V11  1  0.333225  0.666546  0.027012  1
  Cl  Cl12  1  0.825631  0.491789  0.722150  1
  Cl  Cl13  1  0.336193  0.506266  0.789366  1
  Cl  Cl14  1  0.169814  0.663784  0.788835  1
  Cl  Cl15  1  0.825221  0.333140  0.221955  1
  Cl  Cl16  1  0.169453  0.505911  0.263985  1
  Cl  Cl17  1  0.163862  0.003481  0.262734  1
  Cl  Cl18  1  0.336567  0.830378  0.263650  1
  Cl  Cl19  1  0.493902  0.830204  0.789085  1
  Cl  Cl20  1  0.666128  0.174347  0.722161  1
  Cl  Cl21  1  0.666872  0.492074  0.221966  1
  Cl  Cl22  1  0.996508  0.160354  0.262812  1
  Cl  Cl23  1  0.163609  0.160997  0.737573  1
  Cl  Cl24  1  0.839203  0.002644  0.737036  1
  Cl  Cl25  1  0.997336  0.836545  0.736974  1
  Cl  Cl26  1  0.839575  0.836018  0.262277  1
  Cl  Cl27  1  0.507903  0.174783  0.221952  1
  Cl  Cl28  1  0.494077  0.663517  0.264322  1
  Cl  Cl29  1  0.508210  0.333867  0.722141  1
