# generated using pymatgen
data_Tb3Th(AuBr6)4
_symmetry_space_group_name_H-M   'P 1'
_cell_length_a   8.47508351
_cell_length_b   10.52256985
_cell_length_c   14.82937698
_cell_angle_alpha   103.00820233
_cell_angle_beta   96.56906670
_cell_angle_gamma   112.86783364
_symmetry_Int_Tables_number   1
_chemical_formula_structural   Tb3Th(AuBr6)4
_chemical_formula_sum   'Tb3 Th1 Au4 Br24'
_cell_volume   1156.86119345
_cell_formula_units_Z   1
loop_
 _symmetry_equiv_pos_site_id
 _symmetry_equiv_pos_as_xyz
  1  'x, y, z'
loop_
 _atom_site_type_symbol
 _atom_site_label
 _atom_site_symmetry_multiplicity
 _atom_site_fract_x
 _atom_site_fract_y
 _atom_site_fract_z
 _atom_site_occupancy
  Tb  Tb0  1  0.419458  0.079703  0.372435  1
  Tb  Tb1  1  0.983045  0.319928  0.876818  1
  Tb  Tb2  1  0.024763  0.688852  0.128167  1
  Th  Th3  1  0.576369  0.919555  0.624072  1
  Au  Au4  1  0.292244  0.628656  0.763329  1
  Au  Au5  1  0.706767  0.369613  0.236805  1
  Au  Au6  1  0.498536  0.497517  0.499718  1
  Au  Au7  1  0.000394  0.000291  0.999917  1
  Br  Br8  1  0.610190  0.734097  0.750268  1
  Br  Br9  1  0.393903  0.265348  0.249367  1
  Br  Br10  1  0.280194  0.851781  0.732076  1
  Br  Br11  1  0.717694  0.150080  0.267145  1
  Br  Br12  1  0.975283  0.526038  0.772985  1
  Br  Br13  1  0.020887  0.472430  0.228238  1
  Br  Br14  1  0.304652  0.407117  0.795283  1
  Br  Br15  1  0.695240  0.590464  0.208442  1
  Br  Br16  1  0.684123  0.362711  0.504396  1
  Br  Br17  1  0.308317  0.630019  0.492446  1
  Br  Br18  1  0.758676  0.734257  0.526958  1
  Br  Br19  1  0.239493  0.262706  0.470690  1
  Br  Br20  1  0.793851  0.113617  0.976486  1
  Br  Br21  1  0.207853  0.888043  0.023137  1
  Br  Br22  1  0.773939  0.792134  0.036468  1
  Br  Br23  1  0.226225  0.207223  0.961633  1
  Br  Br24  1  0.621744  0.192470  0.745406  1
  Br  Br25  1  0.376736  0.809906  0.255804  1
  Br  Br26  1  0.942133  0.057298  0.725749  1
  Br  Br27  1  0.058880  0.944581  0.273579  1
  Br  Br28  1  0.720309  0.046414  0.481414  1
  Br  Br29  1  0.283069  0.954059  0.517626  1
  Br  Br30  1  0.772797  0.438306  0.976074  1
  Br  Br31  1  0.232236  0.564787  0.027067  1
