# generated using pymatgen
data_Li2Nd3ZrIr3
_symmetry_space_group_name_H-M   'P 1'
_cell_length_a   7.41560000
_cell_length_b   7.48239382
_cell_length_c   4.09719700
_cell_angle_alpha   90.00000000
_cell_angle_beta   90.00000000
_cell_angle_gamma   119.70513183
_symmetry_Int_Tables_number   1
_chemical_formula_structural   Li2Nd3ZrIr3
_chemical_formula_sum   'Li2 Nd3 Zr1 Ir3'
_cell_volume   197.46362083
_cell_formula_units_Z   1
loop_
 _symmetry_equiv_pos_site_id
 _symmetry_equiv_pos_as_xyz
  1  'x, y, z'
loop_
 _atom_site_type_symbol
 _atom_site_label
 _atom_site_symmetry_multiplicity
 _atom_site_fract_x
 _atom_site_fract_y
 _atom_site_fract_z
 _atom_site_occupancy
  Li  Li0  1  0.005624  0.242630  0.500000  1
  Li  Li1  1  0.762994  0.757370  0.500000  1
  Nd  Nd2  1  0.608715  0.000000  0.000000  1
  Nd  Nd3  1  0.987658  0.569911  0.000000  1
  Nd  Nd4  1  0.417747  0.430089  0.000000  1
  Zr  Zr5  1  0.240903  0.000000  0.500000  1
  Ir  Ir6  1  0.321411  0.685897  0.500000  1
  Ir  Ir7  1  0.635514  0.314103  0.500000  1
  Ir  Ir8  1  0.019434  0.000000  0.000000  1
