# generated using pymatgen
data_HoEr3OsWC4
_symmetry_space_group_name_H-M   'P 1'
_cell_length_a   5.06141200
_cell_length_b   6.56200771
_cell_length_c   9.83635389
_cell_angle_alpha   89.17639153
_cell_angle_beta   90.00000000
_cell_angle_gamma   90.00000000
_symmetry_Int_Tables_number   1
_chemical_formula_structural   HoEr3OsWC4
_chemical_formula_sum   'Ho2 Er6 Os2 W2 C8'
_cell_volume   326.66131116
_cell_formula_units_Z   2
loop_
 _symmetry_equiv_pos_site_id
 _symmetry_equiv_pos_as_xyz
  1  'x, y, z'
loop_
 _atom_site_type_symbol
 _atom_site_label
 _atom_site_symmetry_multiplicity
 _atom_site_fract_x
 _atom_site_fract_y
 _atom_site_fract_z
 _atom_site_occupancy
  Ho  Ho0  1  0.750000  0.967607  0.716770  1
  Ho  Ho1  1  0.250000  0.032393  0.283230  1
  Er  Er2  1  0.250000  0.676941  0.557887  1
  Er  Er3  1  0.750000  0.323059  0.442113  1
  Er  Er4  1  0.750000  0.824664  0.058433  1
  Er  Er5  1  0.250000  0.175336  0.941567  1
  Er  Er6  1  0.250000  0.539525  0.218689  1
  Er  Er7  1  0.750000  0.460475  0.781311  1
  Os  Os8  1  0.750000  0.780667  0.367521  1
  Os  Os9  1  0.250000  0.219333  0.632479  1
  W  W10  1  0.250000  0.714847  0.868773  1
  W  W11  1  0.750000  0.285153  0.131227  1
  C  C12  1  0.250000  0.448564  0.758334  1
  C  C13  1  0.750000  0.551436  0.241666  1
  C  C14  1  0.750000  0.048066  0.259903  1
  C  C15  1  0.250000  0.951934  0.740097  1
  C  C16  1  0.250000  0.825665  0.054653  1
  C  C17  1  0.750000  0.174335  0.945347  1
  C  C18  1  0.750000  0.674348  0.550097  1
  C  C19  1  0.250000  0.325652  0.449903  1
