# generated using pymatgen
data_Ho5LuAl24NiOs7
_symmetry_space_group_name_H-M   'P 1'
_cell_length_a   8.77311700
_cell_length_b   8.77926401
_cell_length_c   9.55651704
_cell_angle_alpha   89.99105829
_cell_angle_beta   89.99998747
_cell_angle_gamma   119.97684491
_symmetry_Int_Tables_number   1
_chemical_formula_structural   Ho5LuAl24NiOs7
_chemical_formula_sum   'Ho5 Lu1 Al24 Ni1 Os7'
_cell_volume   637.59305604
_cell_formula_units_Z   1
loop_
 _symmetry_equiv_pos_site_id
 _symmetry_equiv_pos_as_xyz
  1  'x, y, z'
loop_
 _atom_site_type_symbol
 _atom_site_label
 _atom_site_symmetry_multiplicity
 _atom_site_fract_x
 _atom_site_fract_y
 _atom_site_fract_z
 _atom_site_occupancy
  Ho  Ho0  1  0.806011  0.612015  0.749257  1
  Ho  Ho1  1  0.611978  0.806040  0.250898  1
  Ho  Ho2  1  0.387877  0.193895  0.749194  1
  Ho  Ho3  1  0.194070  0.806041  0.250902  1
  Ho  Ho4  1  0.806025  0.193895  0.749197  1
  Lu  Lu5  1  0.195702  0.391412  0.250955  1
  Al  Al6  1  0.333220  0.666435  0.018169  1
  Al  Al7  1  0.666641  0.333277  0.982478  1
  Al  Al8  1  0.666629  0.333253  0.517867  1
  Al  Al9  1  0.333239  0.666472  0.481586  1
  Al  Al10  1  0.162402  0.324798  0.575746  1
  Al  Al11  1  0.837491  0.674975  0.423414  1
  Al  Al12  1  0.674877  0.837449  0.576289  1
  Al  Al13  1  0.838155  0.676307  0.077328  1
  Al  Al14  1  0.324500  0.162679  0.423143  1
  Al  Al15  1  0.161646  0.323290  0.923631  1
  Al  Al16  1  0.162577  0.837447  0.576289  1
  Al  Al17  1  0.322962  0.161917  0.077570  1
  Al  Al18  1  0.838183  0.162676  0.423143  1
  Al  Al19  1  0.676282  0.838097  0.923010  1
  Al  Al20  1  0.838948  0.161922  0.077570  1
  Al  Al21  1  0.161808  0.838103  0.923012  1
  Al  Al22  1  0.561738  0.123471  0.250252  1
  Al  Al23  1  0.438372  0.876738  0.749742  1
  Al  Al24  1  0.877418  0.438158  0.250273  1
  Al  Al25  1  0.123256  0.561547  0.749739  1
  Al  Al26  1  0.560743  0.438158  0.250274  1
  Al  Al27  1  0.438298  0.561547  0.749739  1
  Al  Al28  1  0.001150  0.002291  0.243158  1
  Al  Al29  1  0.999967  0.999925  0.756594  1
  Ni  Ni30  1  0.999272  0.998658  0.999468  1
  Os  Os31  1  0.499867  0.999750  0.000180  1
  Os  Os32  1  0.000386  0.499438  0.000603  1
  Os  Os33  1  0.499877  0.999750  0.499803  1
  Os  Os34  1  0.499053  0.499431  0.000606  1
  Os  Os35  1  0.000365  0.499594  0.499417  1
  Os  Os36  1  0.499237  0.499598  0.499416  1
  Os  Os37  1  0.999778  0.999549  0.500089  1
