# generated using pymatgen
data_Eu2Ga9PdRh2
_symmetry_space_group_name_H-M   'P 1'
_cell_length_a   7.63541605
_cell_length_b   7.63541552
_cell_length_c   9.80070000
_cell_angle_alpha   90.00000000
_cell_angle_beta   90.00000000
_cell_angle_gamma   119.21113409
_symmetry_Int_Tables_number   1
_chemical_formula_structural   Eu2Ga9PdRh2
_chemical_formula_sum   'Eu4 Ga18 Pd2 Rh4'
_cell_volume   498.71310295
_cell_formula_units_Z   2
loop_
 _symmetry_equiv_pos_site_id
 _symmetry_equiv_pos_as_xyz
  1  'x, y, z'
loop_
 _atom_site_type_symbol
 _atom_site_label
 _atom_site_symmetry_multiplicity
 _atom_site_fract_x
 _atom_site_fract_y
 _atom_site_fract_z
 _atom_site_occupancy
  Eu  Eu0  1  0.672661  0.998092  0.250000  1
  Eu  Eu1  1  0.001908  0.327339  0.750000  1
  Eu  Eu2  1  0.998092  0.672661  0.250000  1
  Eu  Eu3  1  0.327339  0.001908  0.750000  1
  Ga  Ga4  1  0.660766  0.996512  0.924627  1
  Ga  Ga5  1  0.133801  0.133801  0.250000  1
  Ga  Ga6  1  0.003488  0.339234  0.424627  1
  Ga  Ga7  1  0.338807  0.338807  0.559857  1
  Ga  Ga8  1  0.337460  0.546451  0.250000  1
  Ga  Ga9  1  0.453549  0.662540  0.750000  1
  Ga  Ga10  1  0.866199  0.866199  0.750000  1
  Ga  Ga11  1  0.661193  0.661193  0.059857  1
  Ga  Ga12  1  0.661193  0.661193  0.440143  1
  Ga  Ga13  1  0.996512  0.660766  0.575373  1
  Ga  Ga14  1  0.996512  0.660766  0.924627  1
  Ga  Ga15  1  0.339234  0.003488  0.424627  1
  Ga  Ga16  1  0.662540  0.453549  0.750000  1
  Ga  Ga17  1  0.546451  0.337460  0.250000  1
  Ga  Ga18  1  0.338807  0.338807  0.940143  1
  Ga  Ga19  1  0.339234  0.003488  0.075373  1
  Ga  Ga20  1  0.660766  0.996512  0.575373  1
  Ga  Ga21  1  0.003488  0.339234  0.075373  1
  Pd  Pd22  1  0.000000  0.000000  0.000000  1
  Pd  Pd23  1  0.000000  0.000000  0.500000  1
  Rh  Rh24  1  0.329296  0.670704  0.500000  1
  Rh  Rh25  1  0.329296  0.670704  0.000000  1
  Rh  Rh26  1  0.670704  0.329296  0.500000  1
  Rh  Rh27  1  0.670704  0.329296  0.000000  1
