# generated using pymatgen
data_Tb2Y2MgP12Ru19
_symmetry_space_group_name_H-M   'P 1'
_cell_length_a   12.48002010
_cell_length_b   12.50616292
_cell_length_c   3.99227900
_cell_angle_alpha   90.00000000
_cell_angle_beta   90.00000000
_cell_angle_gamma   120.06931252
_symmetry_Int_Tables_number   1
_chemical_formula_structural   Tb2Y2MgP12Ru19
_chemical_formula_sum   'Tb2 Y2 Mg1 P12 Ru19'
_cell_volume   539.24624614
_cell_formula_units_Z   1
loop_
 _symmetry_equiv_pos_site_id
 _symmetry_equiv_pos_as_xyz
  1  'x, y, z'
loop_
 _atom_site_type_symbol
 _atom_site_label
 _atom_site_symmetry_multiplicity
 _atom_site_fract_x
 _atom_site_fract_y
 _atom_site_fract_z
 _atom_site_occupancy
  Tb  Tb0  1  0.672888  0.332724  0.000000  1
  Tb  Tb1  1  0.327112  0.659837  0.000000  1
  Y  Y2  1  0.816511  0.816005  0.500000  1
  Y  Y3  1  0.183489  0.999494  0.500000  1
  Mg  Mg4  1  0.000000  0.189986  0.500000  1
  P  P5  1  0.000000  0.827054  0.000000  1
  P  P6  1  0.194166  0.181315  0.000000  1
  P  P7  1  0.805834  0.987149  0.000000  1
  P  P8  1  0.698575  0.169470  0.500000  1
  P  P9  1  0.830692  0.524928  0.500000  1
  P  P10  1  0.480972  0.306582  0.500000  1
  P  P11  1  0.169308  0.694235  0.500000  1
  P  P12  1  0.519028  0.825609  0.500000  1
  P  P13  1  0.301425  0.470894  0.500000  1
  P  P14  1  0.000000  0.381083  0.000000  1
  P  P15  1  0.625250  0.625985  0.000000  1
  P  P16  1  0.374750  0.000735  0.000000  1
  Ru  Ru17  1  0.000000  0.560476  0.000000  1
  Ru  Ru18  1  0.439841  0.445884  0.000000  1
  Ru  Ru19  1  0.560159  0.006043  0.000000  1
  Ru  Ru20  1  0.000000  0.721690  0.500000  1
  Ru  Ru21  1  0.283417  0.279673  0.500000  1
  Ru  Ru22  1  0.716583  0.996257  0.500000  1
  Ru  Ru23  1  0.825307  0.182676  0.000000  1
  Ru  Ru24  1  0.815469  0.627469  0.000000  1
  Ru  Ru25  1  0.384505  0.194939  0.000000  1
  Ru  Ru26  1  0.184531  0.811999  0.000000  1
  Ru  Ru27  1  0.615495  0.810433  0.000000  1
  Ru  Ru28  1  0.174693  0.357368  0.000000  1
  Ru  Ru29  1  0.874274  0.364817  0.500000  1
  Ru  Ru30  1  0.633631  0.508596  0.500000  1
  Ru  Ru31  1  0.496464  0.126733  0.500000  1
  Ru  Ru32  1  0.366369  0.874965  0.500000  1
  Ru  Ru33  1  0.503536  0.630269  0.500000  1
  Ru  Ru34  1  0.125726  0.490544  0.500000  1
  Ru  Ru35  1  0.000000  0.016080  0.000000  1
