# generated using pymatgen
data_Tb3Cd2Si2AgAu
_symmetry_space_group_name_H-M   'P 1'
_cell_length_a   7.20991080
_cell_length_b   7.20991026
_cell_length_c   4.36689500
_cell_angle_alpha   90.00000000
_cell_angle_beta   90.00000000
_cell_angle_gamma   120.22492218
_symmetry_Int_Tables_number   1
_chemical_formula_structural   Tb3Cd2Si2AgAu
_chemical_formula_sum   'Tb3 Cd2 Si2 Ag1 Au1'
_cell_volume   196.14369405
_cell_formula_units_Z   1
loop_
 _symmetry_equiv_pos_site_id
 _symmetry_equiv_pos_as_xyz
  1  'x, y, z'
loop_
 _atom_site_type_symbol
 _atom_site_label
 _atom_site_symmetry_multiplicity
 _atom_site_fract_x
 _atom_site_fract_y
 _atom_site_fract_z
 _atom_site_occupancy
  Tb  Tb0  1  0.585421  0.999088  0.000000  1
  Tb  Tb1  1  0.999088  0.585421  0.000000  1
  Tb  Tb2  1  0.420844  0.420844  0.000000  1
  Cd  Cd3  1  0.250499  0.997239  0.500000  1
  Cd  Cd4  1  0.997239  0.250499  0.500000  1
  Si  Si5  1  0.339363  0.668806  0.500000  1
  Si  Si6  1  0.668806  0.339363  0.500000  1
  Ag  Ag7  1  0.737051  0.737051  0.500000  1
  Au  Au8  1  0.001688  0.001688  0.000000  1
