# generated using pymatgen
data_Tb8Ti8Nb3Si16Au
_symmetry_space_group_name_H-M   'P 1'
_cell_length_a   7.09367807
_cell_length_b   7.09367767
_cell_length_c   12.96438767
_cell_angle_alpha   90.21091153
_cell_angle_beta   89.78908712
_cell_angle_gamma   89.52128713
_symmetry_Int_Tables_number   1
_chemical_formula_structural   Tb8Ti8Nb3Si16Au
_chemical_formula_sum   'Tb8 Ti8 Nb3 Si16 Au1'
_cell_volume   652.33974765
_cell_formula_units_Z   1
loop_
 _symmetry_equiv_pos_site_id
 _symmetry_equiv_pos_as_xyz
  1  'x, y, z'
loop_
 _atom_site_type_symbol
 _atom_site_label
 _atom_site_symmetry_multiplicity
 _atom_site_fract_x
 _atom_site_fract_y
 _atom_site_fract_z
 _atom_site_occupancy
  Tb  Tb0  1  0.341225  0.001579  0.467328  1
  Tb  Tb1  1  0.497555  0.840183  0.717443  1
  Tb  Tb2  1  0.500902  0.158138  0.214840  1
  Tb  Tb3  1  0.840183  0.497555  0.282557  1
  Tb  Tb4  1  0.158138  0.500902  0.785160  1
  Tb  Tb5  1  0.656442  0.000809  0.968367  1
  Tb  Tb6  1  0.001579  0.341225  0.532672  1
  Tb  Tb7  1  0.000809  0.656442  0.031633  1
  Ti  Ti8  1  0.148456  0.008183  0.876896  1
  Ti  Ti9  1  0.493510  0.652671  0.124527  1
  Ti  Ti10  1  0.509480  0.350363  0.626072  1
  Ti  Ti11  1  0.652671  0.493510  0.875473  1
  Ti  Ti12  1  0.350363  0.509480  0.373928  1
  Ti  Ti13  1  0.847703  0.990294  0.374306  1
  Ti  Ti14  1  0.008183  0.148456  0.123104  1
  Ti  Ti15  1  0.990294  0.847703  0.625694  1
  Nb  Nb16  1  0.174415  0.825830  0.249254  1
  Nb  Nb17  1  0.825830  0.174415  0.750746  1
  Nb  Nb18  1  0.673040  0.673040  0.500000  1
  Si  Si19  1  0.202140  0.130807  0.685064  1
  Si  Si20  1  0.374475  0.717977  0.930169  1
  Si  Si21  1  0.629990  0.294935  0.434032  1
  Si  Si22  1  0.717977  0.374475  0.069831  1
  Si  Si23  1  0.294935  0.629990  0.565968  1
  Si  Si24  1  0.797812  0.868529  0.183354  1
  Si  Si25  1  0.130807  0.202140  0.314936  1
  Si  Si26  1  0.868529  0.797812  0.816646  1
  Si  Si27  1  0.286581  0.938726  0.064159  1
  Si  Si28  1  0.547486  0.792072  0.313569  1
  Si  Si29  1  0.452848  0.208068  0.810032  1
  Si  Si30  1  0.792072  0.547486  0.686431  1
  Si  Si31  1  0.208068  0.452848  0.189968  1
  Si  Si32  1  0.708880  0.047914  0.563616  1
  Si  Si33  1  0.938726  0.286581  0.935841  1
  Si  Si34  1  0.047914  0.708880  0.436384  1
  Au  Au35  1  0.329985  0.329985  0.000000  1
