# generated using pymatgen
data_TbNd2Y3(RuO7)2
_symmetry_space_group_name_H-M   'P 1'
_cell_length_a   6.46489531
_cell_length_b   6.47254742
_cell_length_c   7.52843400
_cell_angle_alpha   90.00000000
_cell_angle_beta   90.00000000
_cell_angle_gamma   110.22492524
_symmetry_Int_Tables_number   1
_chemical_formula_structural   TbNd2Y3(RuO7)2
_chemical_formula_sum   'Tb1 Nd2 Y3 Ru2 O14'
_cell_volume   295.59894065
_cell_formula_units_Z   1
loop_
 _symmetry_equiv_pos_site_id
 _symmetry_equiv_pos_as_xyz
  1  'x, y, z'
loop_
 _atom_site_type_symbol
 _atom_site_label
 _atom_site_symmetry_multiplicity
 _atom_site_fract_x
 _atom_site_fract_y
 _atom_site_fract_z
 _atom_site_occupancy
  Tb  Tb0  1  0.071464  0.518761  0.250000  1
  Nd  Nd1  1  0.999480  0.999875  0.500035  1
  Nd  Nd2  1  0.999480  0.999875  0.999965  1
  Y  Y3  1  0.518034  0.069170  0.250000  1
  Y  Y4  1  0.931505  0.481837  0.750000  1
  Y  Y5  1  0.481815  0.931545  0.750000  1
  Ru  Ru6  1  0.500266  0.499768  0.500197  1
  Ru  Ru7  1  0.500266  0.499768  0.999803  1
  O  O8  1  0.439371  0.182243  0.535884  1
  O  O9  1  0.818277  0.560763  0.463967  1
  O  O10  1  0.439371  0.182243  0.964116  1
  O  O11  1  0.818277  0.560763  0.036033  1
  O  O12  1  0.559723  0.817275  0.464225  1
  O  O13  1  0.181972  0.438245  0.536264  1
  O  O14  1  0.559723  0.817275  0.035775  1
  O  O15  1  0.181972  0.438245  0.963736  1
  O  O16  1  0.160126  0.885260  0.250000  1
  O  O17  1  0.116787  0.839032  0.750000  1
  O  O18  1  0.838999  0.117103  0.750000  1
  O  O19  1  0.882598  0.160677  0.250000  1
  O  O20  1  0.412979  0.412971  0.250000  1
  O  O21  1  0.587515  0.587306  0.750000  1
