# generated using pymatgen
data_BaPrFeO4
_symmetry_space_group_name_H-M   'P 1'
_cell_length_a   10.26998000
_cell_length_b   7.06559400
_cell_length_c   5.86643000
_cell_angle_alpha   90.00000000
_cell_angle_beta   90.00000000
_cell_angle_gamma   90.00000000
_symmetry_Int_Tables_number   1
_chemical_formula_structural   BaPrFeO4
_chemical_formula_sum   'Ba4 Pr4 Fe4 O16'
_cell_volume   425.68874650
_cell_formula_units_Z   4
loop_
 _symmetry_equiv_pos_site_id
 _symmetry_equiv_pos_as_xyz
  1  'x, y, z'
loop_
 _atom_site_type_symbol
 _atom_site_label
 _atom_site_symmetry_multiplicity
 _atom_site_fract_x
 _atom_site_fract_y
 _atom_site_fract_z
 _atom_site_occupancy
  Ba  Ba0  1  0.671602  0.328046  0.249586  1
  Ba  Ba1  1  0.828398  0.671954  0.749585  1
  Ba  Ba2  1  0.171603  0.171956  0.750415  1
  Ba  Ba3  1  0.328397  0.828046  0.250413  1
  Pr  Pr4  1  0.044345  0.497820  0.247704  1
  Pr  Pr5  1  0.455656  0.502181  0.747706  1
  Pr  Pr6  1  0.544346  0.002181  0.752295  1
  Pr  Pr7  1  0.955655  0.997819  0.252296  1
  Fe  Fe8  1  0.325759  0.309994  0.250722  1
  Fe  Fe9  1  0.174240  0.690005  0.750723  1
  Fe  Fe10  1  0.825760  0.190005  0.749278  1
  Fe  Fe11  1  0.674240  0.809996  0.249277  1
  O  O12  1  0.443588  0.226258  0.010841  1
  O  O13  1  0.056411  0.773741  0.510842  1
  O  O14  1  0.943589  0.273743  0.989158  1
  O  O15  1  0.556411  0.726258  0.489159  1
  O  O16  1  0.253804  0.502054  0.489589  1
  O  O17  1  0.246196  0.497947  0.989588  1
  O  O18  1  0.753805  0.997947  0.510413  1
  O  O19  1  0.746196  0.002053  0.010412  1
  O  O20  1  0.444453  0.219949  0.488200  1
  O  O21  1  0.055546  0.780051  0.988199  1
  O  O22  1  0.944454  0.280053  0.511798  1
  O  O23  1  0.555546  0.719949  0.011799  1
  O  O24  1  0.177538  0.148555  0.251255  1
  O  O25  1  0.322463  0.851445  0.751254  1
  O  O26  1  0.677537  0.351445  0.748746  1
  O  O27  1  0.822462  0.648555  0.248745  1
