# generated using pymatgen
data_TiNb5Ir5Rh13
_symmetry_space_group_name_H-M   'P 1'
_cell_length_a   5.54315114
_cell_length_b   5.54532807
_cell_length_c   13.45677900
_cell_angle_alpha   90.00000000
_cell_angle_beta   90.00000000
_cell_angle_gamma   120.01299234
_symmetry_Int_Tables_number   1
_chemical_formula_structural   TiNb5Ir5Rh13
_chemical_formula_sum   'Ti1 Nb5 Ir5 Rh13'
_cell_volume   358.17794831
_cell_formula_units_Z   1
loop_
 _symmetry_equiv_pos_site_id
 _symmetry_equiv_pos_as_xyz
  1  'x, y, z'
loop_
 _atom_site_type_symbol
 _atom_site_label
 _atom_site_symmetry_multiplicity
 _atom_site_fract_x
 _atom_site_fract_y
 _atom_site_fract_z
 _atom_site_occupancy
  Ti  Ti0  1  0.999179  0.999590  0.250000  1
  Nb  Nb1  1  0.000099  0.000049  0.750000  1
  Nb  Nb2  1  0.333856  0.666929  0.409516  1
  Nb  Nb3  1  0.666798  0.333398  0.587601  1
  Nb  Nb4  1  0.666798  0.333398  0.912399  1
  Nb  Nb5  1  0.333856  0.666929  0.090484  1
  Ir  Ir6  1  0.504060  0.496189  0.250000  1
  Ir  Ir7  1  0.504060  0.007871  0.250000  1
  Ir  Ir8  1  0.496335  0.503874  0.750000  1
  Ir  Ir9  1  0.496335  0.992460  0.750000  1
  Ir  Ir10  1  0.007876  0.503938  0.750000  1
  Rh  Rh11  1  0.992971  0.496486  0.250000  1
  Rh  Rh12  1  0.164922  0.329938  0.917503  1
  Rh  Rh13  1  0.669796  0.834897  0.917712  1
  Rh  Rh14  1  0.164922  0.834981  0.917503  1
  Rh  Rh15  1  0.834960  0.670782  0.083365  1
  Rh  Rh16  1  0.329328  0.164665  0.083775  1
  Rh  Rh17  1  0.834960  0.164180  0.083365  1
  Rh  Rh18  1  0.834960  0.670782  0.416635  1
  Rh  Rh19  1  0.329328  0.164665  0.416225  1
  Rh  Rh20  1  0.834960  0.164180  0.416635  1
  Rh  Rh21  1  0.164922  0.329938  0.582497  1
  Rh  Rh22  1  0.669796  0.834897  0.582288  1
  Rh  Rh23  1  0.164922  0.834981  0.582497  1
