# generated using pymatgen
data_Sc5Nb3Fe4(CoP)12
_symmetry_space_group_name_H-M   'P 1'
_cell_length_a   12.02187192
_cell_length_b   12.02912740
_cell_length_c   3.63450200
_cell_angle_alpha   90.00000000
_cell_angle_beta   90.00000000
_cell_angle_gamma   120.17235511
_symmetry_Int_Tables_number   1
_chemical_formula_structural   Sc5Nb3Fe4(CoP)12
_chemical_formula_sum   'Sc5 Nb3 Fe4 Co12 P12'
_cell_volume   454.38593016
_cell_formula_units_Z   1
loop_
 _symmetry_equiv_pos_site_id
 _symmetry_equiv_pos_as_xyz
  1  'x, y, z'
loop_
 _atom_site_type_symbol
 _atom_site_label
 _atom_site_symmetry_multiplicity
 _atom_site_fract_x
 _atom_site_fract_y
 _atom_site_fract_z
 _atom_site_occupancy
  Sc  Sc0  1  0.817577  0.999599  0.500000  1
  Sc  Sc1  1  0.999338  0.818361  0.500000  1
  Sc  Sc2  1  0.181001  0.181212  0.500000  1
  Sc  Sc3  1  0.334116  0.666968  0.000000  1
  Sc  Sc4  1  0.666914  0.333424  0.000000  1
  Nb  Nb5  1  0.443886  0.000585  0.000000  1
  Nb  Nb6  1  0.000341  0.443738  0.000000  1
  Nb  Nb7  1  0.557034  0.557310  0.000000  1
  Fe  Fe8  1  0.279023  0.999900  0.500000  1
  Fe  Fe9  1  0.999896  0.279239  0.500000  1
  Fe  Fe10  1  0.722209  0.719415  0.500000  1
  Fe  Fe11  1  0.624503  0.803794  0.000000  1
  Co  Co12  1  0.194480  0.820805  0.000000  1
  Co  Co13  1  0.179261  0.373519  0.000000  1
  Co  Co14  1  0.373475  0.179237  0.000000  1
  Co  Co15  1  0.805884  0.625477  0.000000  1
  Co  Co16  1  0.820311  0.194235  0.000000  1
  Co  Co17  1  0.518619  0.875605  0.500000  1
  Co  Co18  1  0.126565  0.644786  0.500000  1
  Co  Co19  1  0.355931  0.481951  0.500000  1
  Co  Co20  1  0.481569  0.355194  0.500000  1
  Co  Co21  1  0.873948  0.518182  0.500000  1
  Co  Co22  1  0.644342  0.127512  0.500000  1
  Co  Co23  1  0.999895  0.999724  0.000000  1
  P  P24  1  0.176998  0.999733  0.000000  1
  P  P25  1  0.999381  0.176826  0.000000  1
  P  P26  1  0.820709  0.822596  0.000000  1
  P  P27  1  0.520582  0.692226  0.500000  1
  P  P28  1  0.310756  0.829053  0.500000  1
  P  P29  1  0.171784  0.481646  0.500000  1
  P  P30  1  0.481538  0.171578  0.500000  1
  P  P31  1  0.689623  0.518022  0.500000  1
  P  P32  1  0.828754  0.310336  0.500000  1
  P  P33  1  0.649744  0.998224  0.000000  1
  P  P34  1  0.000041  0.650109  0.000000  1
  P  P35  1  0.349971  0.349877  0.000000  1
