# generated using pymatgen
data_Y4NiB14
_symmetry_space_group_name_H-M   'P 1'
_cell_length_a   7.24120100
_cell_length_b   7.24120100
_cell_length_c   7.51920600
_cell_angle_alpha   90.00000000
_cell_angle_beta   90.00000000
_cell_angle_gamma   90.00000000
_symmetry_Int_Tables_number   1
_chemical_formula_structural   Y4NiB14
_chemical_formula_sum   'Y8 Ni2 B28'
_cell_volume   394.26950587
_cell_formula_units_Z   2
loop_
 _symmetry_equiv_pos_site_id
 _symmetry_equiv_pos_as_xyz
  1  'x, y, z'
loop_
 _atom_site_type_symbol
 _atom_site_label
 _atom_site_symmetry_multiplicity
 _atom_site_fract_x
 _atom_site_fract_y
 _atom_site_fract_z
 _atom_site_occupancy
  Y  Y0  1  0.193485  0.332089  0.000000  1
  Y  Y1  1  0.667911  0.193485  0.000000  1
  Y  Y2  1  0.332089  0.806515  0.000000  1
  Y  Y3  1  0.693485  0.167911  0.500000  1
  Y  Y4  1  0.306515  0.832089  0.500000  1
  Y  Y5  1  0.806515  0.667911  0.000000  1
  Y  Y6  1  0.832089  0.693485  0.500000  1
  Y  Y7  1  0.167911  0.306515  0.500000  1
  Ni  Ni8  1  0.000000  0.000000  0.000000  1
  Ni  Ni9  1  0.500000  0.500000  0.500000  1
  B  B10  1  0.174374  0.039202  0.232654  1
  B  B11  1  0.960798  0.174374  0.232654  1
  B  B12  1  0.039202  0.825626  0.232654  1
  B  B13  1  0.674374  0.460798  0.267346  1
  B  B14  1  0.325626  0.539202  0.267346  1
  B  B15  1  0.825626  0.960798  0.232654  1
  B  B16  1  0.539202  0.674374  0.267346  1
  B  B17  1  0.460798  0.325626  0.267346  1
  B  B18  1  0.825626  0.960798  0.767346  1
  B  B19  1  0.039202  0.825626  0.767346  1
  B  B20  1  0.960798  0.174374  0.767346  1
  B  B21  1  0.325626  0.539202  0.732654  1
  B  B22  1  0.674374  0.460798  0.732654  1
  B  B23  1  0.174374  0.039202  0.767346  1
  B  B24  1  0.460798  0.325626  0.732654  1
  B  B25  1  0.539202  0.674374  0.732654  1
  B  B26  1  0.089326  0.589326  0.250000  1
  B  B27  1  0.410674  0.089326  0.250000  1
  B  B28  1  0.589326  0.910674  0.250000  1
  B  B29  1  0.910674  0.410674  0.250000  1
  B  B30  1  0.910674  0.410674  0.750000  1
  B  B31  1  0.589326  0.910674  0.750000  1
  B  B32  1  0.410674  0.089326  0.750000  1
  B  B33  1  0.089326  0.589326  0.750000  1
  B  B34  1  0.000000  0.000000  0.388439  1
  B  B35  1  0.500000  0.500000  0.111561  1
  B  B36  1  0.000000  0.000000  0.611561  1
  B  B37  1  0.500000  0.500000  0.888439  1
