# generated using pymatgen
data_Nd4ZnCoSi6
_symmetry_space_group_name_H-M   'P 1'
_cell_length_a   8.12756000
_cell_length_b   8.12755963
_cell_length_c   4.26817200
_cell_angle_alpha   90.00000000
_cell_angle_beta   90.00000000
_cell_angle_gamma   120.00000152
_symmetry_Int_Tables_number   1
_chemical_formula_structural   Nd4ZnCoSi6
_chemical_formula_sum   'Nd4 Zn1 Co1 Si6'
_cell_volume   244.17032771
_cell_formula_units_Z   1
loop_
 _symmetry_equiv_pos_site_id
 _symmetry_equiv_pos_as_xyz
  1  'x, y, z'
loop_
 _atom_site_type_symbol
 _atom_site_label
 _atom_site_symmetry_multiplicity
 _atom_site_fract_x
 _atom_site_fract_y
 _atom_site_fract_z
 _atom_site_occupancy
  Nd  Nd0  1  0.505253  0.494747  0.000000  1
  Nd  Nd1  1  0.989493  0.494747  0.000000  1
  Nd  Nd2  1  0.505253  0.010507  0.000000  1
  Nd  Nd3  1  0.000000  0.000000  0.000000  1
  Zn  Zn4  1  0.333333  0.666667  0.500000  1
  Co  Co5  1  0.666667  0.333333  0.500000  1
  Si  Si6  1  0.825256  0.650510  0.500000  1
  Si  Si7  1  0.162894  0.837106  0.500000  1
  Si  Si8  1  0.674212  0.837106  0.500000  1
  Si  Si9  1  0.162894  0.325788  0.500000  1
  Si  Si10  1  0.825256  0.174744  0.500000  1
  Si  Si11  1  0.349490  0.174744  0.500000  1
