# generated using pymatgen
data_LaMnSb12IrOs2
_symmetry_space_group_name_H-M   'P 1'
_cell_length_a   8.13890445
_cell_length_b   8.12914874
_cell_length_c   8.13778858
_cell_angle_alpha   109.35059929
_cell_angle_beta   109.50883833
_cell_angle_gamma   109.59484004
_symmetry_Int_Tables_number   1
_chemical_formula_structural   LaMnSb12IrOs2
_chemical_formula_sum   'La1 Mn1 Sb12 Ir1 Os2'
_cell_volume   414.26298195
_cell_formula_units_Z   1
loop_
 _symmetry_equiv_pos_site_id
 _symmetry_equiv_pos_as_xyz
  1  'x, y, z'
loop_
 _atom_site_type_symbol
 _atom_site_label
 _atom_site_symmetry_multiplicity
 _atom_site_fract_x
 _atom_site_fract_y
 _atom_site_fract_z
 _atom_site_occupancy
  La  La0  1  0.000000  0.000000  0.000000  1
  Mn  Mn1  1  0.500000  0.000000  0.000000  1
  Sb  Sb2  1  0.341951  0.179283  0.847332  1
  Sb  Sb3  1  0.658049  0.820717  0.152668  1
  Sb  Sb4  1  0.660499  0.503453  0.843255  1
  Sb  Sb5  1  0.339501  0.496547  0.156745  1
  Sb  Sb6  1  0.185479  0.842972  0.339822  1
  Sb  Sb7  1  0.814521  0.157028  0.660178  1
  Sb  Sb8  1  0.503480  0.842725  0.666292  1
  Sb  Sb9  1  0.496520  0.157275  0.333708  1
  Sb  Sb10  1  0.837782  0.333403  0.178023  1
  Sb  Sb11  1  0.162218  0.666597  0.821977  1
  Sb  Sb12  1  0.843285  0.657786  0.503424  1
  Sb  Sb13  1  0.156715  0.342214  0.496576  1
  Ir  Ir14  1  0.000000  0.000000  0.500000  1
  Os  Os15  1  0.000000  0.500000  0.000000  1
  Os  Os16  1  0.500000  0.500000  0.500000  1
