# generated using pymatgen
data_La7Nd9Cd4PdRu3
_symmetry_space_group_name_H-M   'P 1'
_cell_length_a   9.94719124
_cell_length_b   10.01160764
_cell_length_c   10.05403068
_cell_angle_alpha   59.87236232
_cell_angle_beta   60.06090501
_cell_angle_gamma   60.34193637
_symmetry_Int_Tables_number   1
_chemical_formula_structural   La7Nd9Cd4PdRu3
_chemical_formula_sum   'La7 Nd9 Cd4 Pd1 Ru3'
_cell_volume   709.44144723
_cell_formula_units_Z   1
loop_
 _symmetry_equiv_pos_site_id
 _symmetry_equiv_pos_as_xyz
  1  'x, y, z'
loop_
 _atom_site_type_symbol
 _atom_site_label
 _atom_site_symmetry_multiplicity
 _atom_site_fract_x
 _atom_site_fract_y
 _atom_site_fract_z
 _atom_site_occupancy
  La  La0  1  0.342219  0.349179  0.353240  1
  La  La1  1  0.341704  0.348481  0.953642  1
  La  La2  1  0.344215  0.951283  0.349710  1
  La  La3  1  0.963427  0.347270  0.346841  1
  La  La4  1  0.819973  0.191149  0.188207  1
  La  La5  1  0.187394  0.815169  0.810707  1
  La  La6  1  0.189616  0.809499  0.187644  1
  Nd  Nd7  1  0.814287  0.193969  0.801752  1
  Nd  Nd8  1  0.189727  0.194275  0.805559  1
  Nd  Nd9  1  0.811218  0.802258  0.192702  1
  Nd  Nd10  1  0.930839  0.568765  0.566533  1
  Nd  Nd11  1  0.561711  0.936693  0.934747  1
  Nd  Nd12  1  0.560931  0.936976  0.567798  1
  Nd  Nd13  1  0.934216  0.564048  0.938811  1
  Nd  Nd14  1  0.559392  0.565950  0.937758  1
  Nd  Nd15  1  0.937071  0.941836  0.561839  1
  Cd  Cd16  1  0.582833  0.578891  0.579369  1
  Cd  Cd17  1  0.582401  0.581306  0.257568  1
  Cd  Cd18  1  0.580070  0.257298  0.583393  1
  Cd  Cd19  1  0.256036  0.578860  0.582864  1
  Pd  Pd20  1  0.576727  0.143848  0.140902  1
  Ru  Ru21  1  0.133040  0.132878  0.146722  1
  Ru  Ru22  1  0.148646  0.127617  0.577669  1
  Ru  Ru23  1  0.152309  0.582504  0.134024  1
