# generated using pymatgen
data_DyHo2Hf(Al8Pt3)3
_symmetry_space_group_name_H-M   'P 1'
_cell_length_a   7.51692354
_cell_length_b   7.52445197
_cell_length_c   13.09067903
_cell_angle_alpha   84.55619540
_cell_angle_beta   79.04171334
_cell_angle_gamma   59.89577304
_symmetry_Int_Tables_number   1
_chemical_formula_structural   DyHo2Hf(Al8Pt3)3
_chemical_formula_sum   'Dy1 Ho2 Hf1 Al24 Pt9'
_cell_volume   628.86667430
_cell_formula_units_Z   1
loop_
 _symmetry_equiv_pos_site_id
 _symmetry_equiv_pos_as_xyz
  1  'x, y, z'
loop_
 _atom_site_type_symbol
 _atom_site_label
 _atom_site_symmetry_multiplicity
 _atom_site_fract_x
 _atom_site_fract_y
 _atom_site_fract_z
 _atom_site_occupancy
  Dy  Dy0  1  0.606427  0.831878  0.191895  1
  Ho  Ho1  1  0.733915  0.498625  0.807663  1
  Ho  Ho2  1  0.266564  0.501188  0.192162  1
  Hf  Hf3  1  0.393751  0.168413  0.807506  1
  Al  Al4  1  0.681404  0.836891  0.941213  1
  Al  Al5  1  0.316675  0.166472  0.053976  1
  Al  Al6  1  0.146318  0.832805  0.562666  1
  Al  Al7  1  0.853240  0.167173  0.438156  1
  Al  Al8  1  0.479907  0.166755  0.560537  1
  Al  Al9  1  0.519422  0.833910  0.441236  1
  Al  Al10  1  0.217398  0.165478  0.329698  1
  Al  Al11  1  0.779668  0.836393  0.673460  1
  Al  Al12  1  0.435795  0.504881  0.673768  1
  Al  Al13  1  0.562635  0.493559  0.329112  1
  Al  Al14  1  0.110496  0.159604  0.672696  1
  Al  Al15  1  0.890458  0.839853  0.330332  1
  Al  Al16  1  0.354235  0.495878  0.941273  1
  Al  Al17  1  0.647475  0.500300  0.055518  1
  Al  Al18  1  0.019545  0.168125  0.949538  1
  Al  Al19  1  0.984556  0.832467  0.046919  1
  Al  Al20  1  0.186877  0.499170  0.441337  1
  Al  Al21  1  0.813610  0.500333  0.559250  1
  Al  Al22  1  0.733892  0.163969  0.183395  1
  Al  Al23  1  0.265703  0.841968  0.816551  1
  Al  Al24  1  0.066661  0.626170  0.815239  1
  Al  Al25  1  0.939160  0.368420  0.184425  1
  Al  Al26  1  0.850257  0.041295  0.815803  1
  Al  Al27  1  0.144683  0.958622  0.183779  1
  Pt  Pt28  1  0.120497  0.489876  0.639891  1
  Pt  Pt29  1  0.879365  0.508591  0.361431  1
  Pt  Pt30  1  0.657221  0.171799  0.998782  1
  Pt  Pt31  1  0.343685  0.828053  0.999306  1
  Pt  Pt32  1  0.537494  0.166735  0.361501  1
  Pt  Pt33  1  0.462984  0.833597  0.639729  1
  Pt  Pt34  1  0.776951  0.176228  0.638344  1
  Pt  Pt35  1  0.221073  0.824554  0.363007  1
  Pt  Pt36  1  0.000002  0.499977  0.998905  1
