# generated using pymatgen
data_YHoP2(Ru2C)2
_symmetry_space_group_name_H-M   'P 1'
_cell_length_a   5.84325909
_cell_length_b   5.84326004
_cell_length_c   7.06407400
_cell_angle_alpha   90.00000000
_cell_angle_beta   90.00000000
_cell_angle_gamma   142.21554509
_symmetry_Int_Tables_number   1
_chemical_formula_structural   YHoP2(Ru2C)2
_chemical_formula_sum   'Y1 Ho1 P2 Ru4 C2'
_cell_volume   147.77748432
_cell_formula_units_Z   1
loop_
 _symmetry_equiv_pos_site_id
 _symmetry_equiv_pos_as_xyz
  1  'x, y, z'
loop_
 _atom_site_type_symbol
 _atom_site_label
 _atom_site_symmetry_multiplicity
 _atom_site_fract_x
 _atom_site_fract_y
 _atom_site_fract_z
 _atom_site_occupancy
  Y  Y0  1  0.544006  0.455994  0.250000  1
  Ho  Ho1  1  0.456055  0.543945  0.750000  1
  P  P2  1  0.268546  0.731454  0.250000  1
  P  P3  1  0.731455  0.268545  0.750000  1
  Ru  Ru4  1  0.834606  0.165394  0.052843  1
  Ru  Ru5  1  0.165466  0.834534  0.946169  1
  Ru  Ru6  1  0.165466  0.834534  0.553831  1
  Ru  Ru7  1  0.834606  0.165394  0.447157  1
  C  C8  1  0.999897  0.000103  0.998575  1
  C  C9  1  0.999897  0.000103  0.501425  1
