# generated using pymatgen
data_Er2Co2P6Ir5Rh3
_symmetry_space_group_name_H-M   'P 1'
_cell_length_a   3.89334600
_cell_length_b   10.72450900
_cell_length_c   12.37898100
_cell_angle_alpha   90.00000000
_cell_angle_beta   90.00000000
_cell_angle_gamma   90.00000000
_symmetry_Int_Tables_number   1
_chemical_formula_structural   Er2Co2P6Ir5Rh3
_chemical_formula_sum   'Er4 Co4 P12 Ir10 Rh6'
_cell_volume   516.87474825
_cell_formula_units_Z   2
loop_
 _symmetry_equiv_pos_site_id
 _symmetry_equiv_pos_as_xyz
  1  'x, y, z'
loop_
 _atom_site_type_symbol
 _atom_site_label
 _atom_site_symmetry_multiplicity
 _atom_site_fract_x
 _atom_site_fract_y
 _atom_site_fract_z
 _atom_site_occupancy
  Er  Er0  1  0.250000  0.584453  0.709473  1
  Er  Er1  1  0.250000  0.915547  0.209473  1
  Er  Er2  1  0.750000  0.415045  0.290429  1
  Er  Er3  1  0.750000  0.084955  0.790429  1
  Co  Co4  1  0.250000  0.462139  0.934025  1
  Co  Co5  1  0.250000  0.037861  0.434025  1
  Co  Co6  1  0.750000  0.537951  0.066248  1
  Co  Co7  1  0.750000  0.962049  0.566248  1
  P  P8  1  0.250000  0.425657  0.106000  1
  P  P9  1  0.250000  0.074343  0.606000  1
  P  P10  1  0.750000  0.573966  0.894222  1
  P  P11  1  0.750000  0.926034  0.394222  1
  P  P12  1  0.250000  0.269870  0.871778  1
  P  P13  1  0.250000  0.230130  0.371778  1
  P  P14  1  0.750000  0.730201  0.128435  1
  P  P15  1  0.750000  0.769799  0.628435  1
  P  P16  1  0.250000  0.595514  0.386170  1
  P  P17  1  0.250000  0.904486  0.886170  1
  P  P18  1  0.750000  0.404108  0.614019  1
  P  P19  1  0.750000  0.095892  0.114019  1
  Ir  Ir20  1  0.750000  0.592442  0.521335  1
  Ir  Ir21  1  0.750000  0.907558  0.021335  1
  Ir  Ir22  1  0.250000  0.231029  0.179824  1
  Ir  Ir23  1  0.250000  0.268971  0.679824  1
  Ir  Ir24  1  0.750000  0.768372  0.820268  1
  Ir  Ir25  1  0.750000  0.731628  0.320268  1
  Ir  Ir26  1  0.250000  0.885690  0.698273  1
  Ir  Ir27  1  0.250000  0.614310  0.198273  1
  Ir  Ir28  1  0.750000  0.113839  0.301797  1
  Ir  Ir29  1  0.750000  0.386161  0.801797  1
  Rh  Rh30  1  0.250000  0.718773  0.980920  1
  Rh  Rh31  1  0.250000  0.781227  0.480920  1
  Rh  Rh32  1  0.750000  0.281609  0.018299  1
  Rh  Rh33  1  0.750000  0.218391  0.518299  1
  Rh  Rh34  1  0.250000  0.407962  0.478486  1
  Rh  Rh35  1  0.250000  0.092038  0.978486  1
