# generated using pymatgen
data_Tm4Fe8P12Ru5Rh7
_symmetry_space_group_name_H-M   'P 1'
_cell_length_a   3.77832700
_cell_length_b   10.49858331
_cell_length_c   12.16916846
_cell_angle_alpha   90.02968404
_cell_angle_beta   90.00000000
_cell_angle_gamma   90.00000000
_symmetry_Int_Tables_number   1
_chemical_formula_structural   Tm4Fe8P12Ru5Rh7
_chemical_formula_sum   'Tm4 Fe8 P12 Ru5 Rh7'
_cell_volume   482.71532360
_cell_formula_units_Z   1
loop_
 _symmetry_equiv_pos_site_id
 _symmetry_equiv_pos_as_xyz
  1  'x, y, z'
loop_
 _atom_site_type_symbol
 _atom_site_label
 _atom_site_symmetry_multiplicity
 _atom_site_fract_x
 _atom_site_fract_y
 _atom_site_fract_z
 _atom_site_occupancy
  Tm  Tm0  1  0.250000  0.578270  0.708670  1
  Tm  Tm1  1  0.250000  0.920963  0.209479  1
  Tm  Tm2  1  0.750000  0.420910  0.291954  1
  Tm  Tm3  1  0.750000  0.079254  0.790321  1
  Fe  Fe4  1  0.250000  0.878875  0.697971  1
  Fe  Fe5  1  0.250000  0.621459  0.198310  1
  Fe  Fe6  1  0.750000  0.120996  0.301780  1
  Fe  Fe7  1  0.750000  0.379029  0.800652  1
  Fe  Fe8  1  0.250000  0.461498  0.935898  1
  Fe  Fe9  1  0.250000  0.038405  0.435748  1
  Fe  Fe10  1  0.750000  0.538585  0.063886  1
  Fe  Fe11  1  0.750000  0.961175  0.563523  1
  P  P12  1  0.250000  0.437304  0.113570  1
  P  P13  1  0.250000  0.062347  0.612727  1
  P  P14  1  0.750000  0.562236  0.886517  1
  P  P15  1  0.750000  0.937329  0.386348  1
  P  P16  1  0.250000  0.272734  0.865953  1
  P  P17  1  0.250000  0.229702  0.368297  1
  P  P18  1  0.750000  0.727336  0.133892  1
  P  P19  1  0.750000  0.773111  0.633768  1
  P  P20  1  0.250000  0.599183  0.383911  1
  P  P21  1  0.250000  0.898227  0.882233  1
  P  P22  1  0.750000  0.398227  0.613488  1
  P  P23  1  0.750000  0.102303  0.117962  1
  Ru  Ru24  1  0.250000  0.707036  0.988275  1
  Ru  Ru25  1  0.250000  0.793566  0.487791  1
  Ru  Ru26  1  0.750000  0.293033  0.011350  1
  Ru  Ru27  1  0.750000  0.205441  0.512048  1
  Ru  Ru28  1  0.250000  0.406337  0.484077  1
  Rh  Rh29  1  0.250000  0.093708  0.980980  1
  Rh  Rh30  1  0.750000  0.596024  0.519515  1
  Rh  Rh31  1  0.750000  0.906328  0.018986  1
  Rh  Rh32  1  0.250000  0.231945  0.176964  1
  Rh  Rh33  1  0.250000  0.266906  0.676667  1
  Rh  Rh34  1  0.750000  0.767992  0.823538  1
  Rh  Rh35  1  0.750000  0.732224  0.322950  1
