# generated using pymatgen
data_Dy8Tc2B24IrRu
_symmetry_space_group_name_H-M   'P 1'
_cell_length_a   3.67632000
_cell_length_b   9.15398635
_cell_length_c   11.53952652
_cell_angle_alpha   89.77318469
_cell_angle_beta   90.00000000
_cell_angle_gamma   90.00000000
_symmetry_Int_Tables_number   1
_chemical_formula_structural   Dy8Tc2B24IrRu
_chemical_formula_sum   'Dy8 Tc2 B24 Ir1 Ru1'
_cell_volume   388.33644783
_cell_formula_units_Z   1
loop_
 _symmetry_equiv_pos_site_id
 _symmetry_equiv_pos_as_xyz
  1  'x, y, z'
loop_
 _atom_site_type_symbol
 _atom_site_label
 _atom_site_symmetry_multiplicity
 _atom_site_fract_x
 _atom_site_fract_y
 _atom_site_fract_z
 _atom_site_occupancy
  Dy  Dy0  1  0.000000  0.326792  0.418269  1
  Dy  Dy1  1  0.000000  0.675403  0.585030  1
  Dy  Dy2  1  0.000000  0.818021  0.085908  1
  Dy  Dy3  1  0.000000  0.179614  0.909647  1
  Dy  Dy4  1  0.000000  0.940544  0.373220  1
  Dy  Dy5  1  0.000000  0.057198  0.628081  1
  Dy  Dy6  1  0.000000  0.445494  0.128911  1
  Dy  Dy7  1  0.000000  0.556079  0.870850  1
  Tc  Tc8  1  0.000000  0.637995  0.320072  1
  Tc  Tc9  1  0.000000  0.361920  0.679615  1
  B  B10  1  0.500000  0.553001  0.432825  1
  B  B11  1  0.500000  0.447073  0.567478  1
  B  B12  1  0.500000  0.054097  0.066003  1
  B  B13  1  0.500000  0.946054  0.933234  1
  B  B14  1  0.500000  0.747592  0.418916  1
  B  B15  1  0.500000  0.252348  0.581213  1
  B  B16  1  0.500000  0.249091  0.079228  1
  B  B17  1  0.500000  0.751904  0.919406  1
  B  B18  1  0.500000  0.791301  0.265411  1
  B  B19  1  0.500000  0.208578  0.734146  1
  B  B20  1  0.500000  0.290549  0.233945  1
  B  B21  1  0.500000  0.710101  0.766519  1
  B  B22  1  0.500000  0.631673  0.185075  1
  B  B23  1  0.500000  0.368259  0.814462  1
  B  B24  1  0.500000  0.131374  0.315927  1
  B  B25  1  0.500000  0.869074  0.685998  1
  B  B26  1  0.500000  0.982838  0.212474  1
  B  B27  1  0.500000  0.016750  0.787975  1
  B  B28  1  0.500000  0.483110  0.287615  1
  B  B29  1  0.500000  0.517140  0.712593  1
  B  B30  1  0.500000  0.606764  0.029308  1
  B  B31  1  0.500000  0.392382  0.970730  1
  B  B32  1  0.500000  0.106763  0.470062  1
  B  B33  1  0.500000  0.893466  0.529764  1
  Ir  Ir34  1  0.000000  0.136781  0.177985  1
  Ru  Ru35  1  0.000000  0.862877  0.822104  1
