# generated using pymatgen
data_Er7Lu3CoBi5
_symmetry_space_group_name_H-M   'P 1'
_cell_length_a   7.98501808
_cell_length_b   9.33211309
_cell_length_c   11.99206400
_cell_angle_alpha   90.00000000
_cell_angle_beta   90.00000000
_cell_angle_gamma   90.01604255
_symmetry_Int_Tables_number   1
_chemical_formula_structural   Er7Lu3CoBi5
_chemical_formula_sum   'Er14 Lu6 Co2 Bi10'
_cell_volume   893.61369825
_cell_formula_units_Z   2
loop_
 _symmetry_equiv_pos_site_id
 _symmetry_equiv_pos_as_xyz
  1  'x, y, z'
loop_
 _atom_site_type_symbol
 _atom_site_label
 _atom_site_symmetry_multiplicity
 _atom_site_fract_x
 _atom_site_fract_y
 _atom_site_fract_z
 _atom_site_occupancy
  Er  Er0  1  0.069997  0.729617  0.436369  1
  Er  Er1  1  0.930003  0.270383  0.936369  1
  Er  Er2  1  0.070104  0.270248  0.436487  1
  Er  Er3  1  0.929896  0.729752  0.936487  1
  Er  Er4  1  0.428864  0.824156  0.563640  1
  Er  Er5  1  0.571136  0.175844  0.063640  1
  Er  Er6  1  0.572535  0.499742  0.772318  1
  Er  Er7  1  0.427465  0.500258  0.272318  1
  Er  Er8  1  0.259555  0.500209  0.993635  1
  Er  Er9  1  0.740445  0.499791  0.493635  1
  Er  Er10  1  0.090071  0.500265  0.718485  1
  Er  Er11  1  0.909929  0.499735  0.218485  1
  Er  Er12  1  0.371909  0.000140  0.308573  1
  Er  Er13  1  0.628091  0.999860  0.808573  1
  Lu  Lu14  1  0.427784  0.174320  0.563386  1
  Lu  Lu15  1  0.572216  0.825680  0.063386  1
  Lu  Lu16  1  0.907772  0.999778  0.200293  1
  Lu  Lu17  1  0.092228  0.000222  0.700293  1
  Lu  Lu18  1  0.197343  0.999790  0.996726  1
  Lu  Lu19  1  0.802657  0.000210  0.496726  1
  Co  Co20  1  0.172039  0.000770  0.488806  1
  Co  Co21  1  0.827961  0.999230  0.988806  1
  Bi  Bi22  1  0.813783  0.741996  0.671861  1
  Bi  Bi23  1  0.186217  0.258004  0.171861  1
  Bi  Bi24  1  0.680653  0.240797  0.325375  1
  Bi  Bi25  1  0.319347  0.759203  0.825375  1
  Bi  Bi26  1  0.680437  0.759384  0.325088  1
  Bi  Bi27  1  0.319563  0.240616  0.825088  1
  Bi  Bi28  1  0.813345  0.257959  0.671789  1
  Bi  Bi29  1  0.186655  0.742041  0.171789  1
  Bi  Bi30  1  0.346691  0.498805  0.527168  1
  Bi  Bi31  1  0.653309  0.501195  0.027168  1
