# generated using pymatgen
data_YbHoPd2Pb
_symmetry_space_group_name_H-M   'P 1'
_cell_length_a   7.87208700
_cell_length_b   7.86957700
_cell_length_c   3.65709200
_cell_angle_alpha   90.00000000
_cell_angle_beta   90.00000000
_cell_angle_gamma   90.00000000
_symmetry_Int_Tables_number   1
_chemical_formula_structural   YbHoPd2Pb
_chemical_formula_sum   'Yb2 Ho2 Pd4 Pb2'
_cell_volume   226.55683037
_cell_formula_units_Z   2
loop_
 _symmetry_equiv_pos_site_id
 _symmetry_equiv_pos_as_xyz
  1  'x, y, z'
loop_
 _atom_site_type_symbol
 _atom_site_label
 _atom_site_symmetry_multiplicity
 _atom_site_fract_x
 _atom_site_fract_y
 _atom_site_fract_z
 _atom_site_occupancy
  Yb  Yb0  1  0.671135  0.172041  0.500000  1
  Yb  Yb1  1  0.171135  0.327959  0.500000  1
  Ho  Ho2  1  0.829108  0.670232  0.500000  1
  Ho  Ho3  1  0.329108  0.829768  0.500000  1
  Pd  Pd4  1  0.374008  0.124281  0.000000  1
  Pd  Pd5  1  0.126367  0.626614  0.000000  1
  Pd  Pd6  1  0.626367  0.873386  0.000000  1
  Pd  Pd7  1  0.874008  0.375719  0.000000  1
  Pb  Pb8  1  0.999381  0.001536  0.000000  1
  Pb  Pb9  1  0.499381  0.498464  0.000000  1
