# generated using pymatgen
data_Na2Ca10Sb9
_symmetry_space_group_name_H-M   'P 1'
_cell_length_a   11.93938600
_cell_length_b   11.93938600
_cell_length_c   17.37753100
_cell_angle_alpha   90.00000000
_cell_angle_beta   90.00000000
_cell_angle_gamma   90.00000000
_symmetry_Int_Tables_number   1
_chemical_formula_structural   Na2Ca10Sb9
_chemical_formula_sum   'Na8 Ca40 Sb36'
_cell_volume   2477.14859010
_cell_formula_units_Z   4
loop_
 _symmetry_equiv_pos_site_id
 _symmetry_equiv_pos_as_xyz
  1  'x, y, z'
loop_
 _atom_site_type_symbol
 _atom_site_label
 _atom_site_symmetry_multiplicity
 _atom_site_fract_x
 _atom_site_fract_y
 _atom_site_fract_z
 _atom_site_occupancy
  Na  Na0  1  0.798727  0.201273  0.500000  1
  Na  Na1  1  0.298727  0.298727  0.000000  1
  Na  Na2  1  0.701273  0.701273  0.000000  1
  Na  Na3  1  0.201273  0.798727  0.500000  1
  Na  Na4  1  0.105826  0.105826  0.000000  1
  Na  Na5  1  0.394174  0.605826  0.500000  1
  Na  Na6  1  0.605826  0.394174  0.500000  1
  Na  Na7  1  0.894174  0.894174  0.000000  1
  Ca  Ca8  1  0.986812  0.663847  0.395099  1
  Ca  Ca9  1  0.986812  0.663847  0.604901  1
  Ca  Ca10  1  0.247221  0.512792  0.688433  1
  Ca  Ca11  1  0.012792  0.252779  0.188433  1
  Ca  Ca12  1  0.013188  0.336153  0.604901  1
  Ca  Ca13  1  0.500000  0.500000  0.843857  1
  Ca  Ca14  1  0.486812  0.836153  0.104901  1
  Ca  Ca15  1  0.747221  0.987208  0.811567  1
  Ca  Ca16  1  0.512792  0.247221  0.688433  1
  Ca  Ca17  1  0.013188  0.336153  0.395099  1
  Ca  Ca18  1  0.500000  0.500000  0.156143  1
  Ca  Ca19  1  0.487208  0.752779  0.311567  1
  Ca  Ca20  1  0.663847  0.986812  0.604901  1
  Ca  Ca21  1  0.663847  0.986812  0.395099  1
  Ca  Ca22  1  0.752779  0.487208  0.688433  1
  Ca  Ca23  1  0.987208  0.747221  0.188433  1
  Ca  Ca24  1  0.186589  0.813411  0.000000  1
  Ca  Ca25  1  0.000000  0.000000  0.656143  1
  Ca  Ca26  1  0.513188  0.163847  0.895099  1
  Ca  Ca27  1  0.252779  0.012792  0.811567  1
  Ca  Ca28  1  0.313411  0.313411  0.500000  1
  Ca  Ca29  1  0.000000  0.000000  0.343857  1
  Ca  Ca30  1  0.012792  0.252779  0.811567  1
  Ca  Ca31  1  0.486812  0.836153  0.895099  1
  Ca  Ca32  1  0.752779  0.487208  0.311567  1
  Ca  Ca33  1  0.836153  0.486812  0.104901  1
  Ca  Ca34  1  0.336153  0.013188  0.604901  1
  Ca  Ca35  1  0.487208  0.752779  0.688433  1
  Ca  Ca36  1  0.747221  0.987208  0.188433  1
  Ca  Ca37  1  0.336153  0.013188  0.395099  1
  Ca  Ca38  1  0.987208  0.747221  0.811567  1
  Ca  Ca39  1  0.512792  0.247221  0.311567  1
  Ca  Ca40  1  0.836153  0.486812  0.895099  1
  Ca  Ca41  1  0.163847  0.513188  0.895099  1
  Ca  Ca42  1  0.686589  0.686589  0.500000  1
  Ca  Ca43  1  0.247221  0.512792  0.311567  1
  Ca  Ca44  1  0.163847  0.513188  0.104901  1
  Ca  Ca45  1  0.513188  0.163847  0.104901  1
  Ca  Ca46  1  0.813411  0.186589  0.000000  1
  Ca  Ca47  1  0.252779  0.012792  0.188433  1
  Sb  Sb48  1  0.811582  0.188418  0.322413  1
  Sb  Sb49  1  0.500000  0.500000  0.642395  1
  Sb  Sb50  1  0.278971  0.721029  0.177745  1
  Sb  Sb51  1  0.721029  0.278971  0.177745  1
  Sb  Sb52  1  0.620046  0.379954  0.000000  1
  Sb  Sb53  1  0.000000  0.500000  0.250000  1
  Sb  Sb54  1  0.811582  0.188418  0.677587  1
  Sb  Sb55  1  0.311582  0.311582  0.177587  1
  Sb  Sb56  1  0.652708  0.978131  0.000000  1
  Sb  Sb57  1  0.188418  0.811582  0.322413  1
  Sb  Sb58  1  0.500000  0.000000  0.250000  1
  Sb  Sb59  1  0.778971  0.778971  0.677745  1
  Sb  Sb60  1  0.500000  0.000000  0.750000  1
  Sb  Sb61  1  0.500000  0.500000  0.357605  1
  Sb  Sb62  1  0.000000  0.000000  0.857605  1
  Sb  Sb63  1  0.721029  0.278971  0.822255  1
  Sb  Sb64  1  0.221029  0.221029  0.677745  1
  Sb  Sb65  1  0.188418  0.811582  0.677587  1
  Sb  Sb66  1  0.978131  0.652708  0.000000  1
  Sb  Sb67  1  0.778971  0.778971  0.322255  1
  Sb  Sb68  1  0.478131  0.847292  0.500000  1
  Sb  Sb69  1  0.152708  0.521869  0.500000  1
  Sb  Sb70  1  0.688418  0.688418  0.177587  1
  Sb  Sb71  1  0.879954  0.879954  0.500000  1
  Sb  Sb72  1  0.347292  0.021869  0.000000  1
  Sb  Sb73  1  0.847292  0.478131  0.500000  1
  Sb  Sb74  1  0.379954  0.620046  0.000000  1
  Sb  Sb75  1  0.521869  0.152708  0.500000  1
  Sb  Sb76  1  0.021869  0.347292  0.000000  1
  Sb  Sb77  1  0.221029  0.221029  0.322255  1
  Sb  Sb78  1  0.688418  0.688418  0.822413  1
  Sb  Sb79  1  0.120046  0.120046  0.500000  1
  Sb  Sb80  1  0.000000  0.500000  0.750000  1
  Sb  Sb81  1  0.278971  0.721029  0.822255  1
  Sb  Sb82  1  0.311582  0.311582  0.822413  1
  Sb  Sb83  1  0.000000  0.000000  0.142395  1
