# generated using pymatgen
data_Pr3DyAl16(SiIr3)2
_symmetry_space_group_name_H-M   'P 1'
_cell_length_a   7.59929917
_cell_length_b   7.60681323
_cell_length_c   9.47563300
_cell_angle_alpha   90.00000000
_cell_angle_beta   90.00000000
_cell_angle_gamma   119.64082447
_symmetry_Int_Tables_number   1
_chemical_formula_structural   Pr3DyAl16(SiIr3)2
_chemical_formula_sum   'Pr3 Dy1 Al16 Si2 Ir6'
_cell_volume   476.07529642
_cell_formula_units_Z   1
loop_
 _symmetry_equiv_pos_site_id
 _symmetry_equiv_pos_as_xyz
  1  'x, y, z'
loop_
 _atom_site_type_symbol
 _atom_site_label
 _atom_site_symmetry_multiplicity
 _atom_site_fract_x
 _atom_site_fract_y
 _atom_site_fract_z
 _atom_site_occupancy
  Pr  Pr0  1  0.995228  0.674595  0.750000  1
  Pr  Pr1  1  0.005105  0.325706  0.250000  1
  Pr  Pr2  1  0.674092  0.994799  0.750000  1
  Dy  Dy3  1  0.324638  0.005115  0.250000  1
  Al  Al4  1  0.003772  0.336492  0.573881  1
  Al  Al5  1  0.998611  0.665675  0.423322  1
  Al  Al6  1  0.998611  0.665675  0.076678  1
  Al  Al7  1  0.336421  0.003425  0.928686  1
  Al  Al8  1  0.003772  0.336492  0.926119  1
  Al  Al9  1  0.661343  0.996839  0.076472  1
  Al  Al10  1  0.661343  0.996839  0.423528  1
  Al  Al11  1  0.336421  0.003425  0.571314  1
  Al  Al12  1  0.337251  0.335448  0.055324  1
  Al  Al13  1  0.662634  0.662576  0.948600  1
  Al  Al14  1  0.662634  0.662576  0.551400  1
  Al  Al15  1  0.337251  0.335448  0.444676  1
  Al  Al16  1  0.335558  0.545843  0.750000  1
  Al  Al17  1  0.661501  0.450631  0.250000  1
  Al  Al18  1  0.545205  0.334396  0.750000  1
  Al  Al19  1  0.453351  0.666416  0.250000  1
  Si  Si20  1  0.132644  0.131883  0.750000  1
  Si  Si21  1  0.871073  0.869186  0.250000  1
  Ir  Ir22  1  0.670499  0.328699  0.499145  1
  Ir  Ir23  1  0.329154  0.671344  0.499220  1
  Ir  Ir24  1  0.329154  0.671344  0.000780  1
  Ir  Ir25  1  0.670499  0.328699  0.000855  1
  Ir  Ir26  1  0.001118  0.000217  0.498461  1
  Ir  Ir27  1  0.001118  0.000217  0.001539  1
