# generated using pymatgen
data_SmYAl20RuRh3
_symmetry_space_group_name_H-M   'P 1'
_cell_length_a   6.85673572
_cell_length_b   6.85424404
_cell_length_c   9.16359213
_cell_angle_alpha   90.10452689
_cell_angle_beta   90.08229908
_cell_angle_gamma   97.27220817
_symmetry_Int_Tables_number   1
_chemical_formula_structural   SmYAl20RuRh3
_chemical_formula_sum   'Sm1 Y1 Al20 Ru1 Rh3'
_cell_volume   427.20249392
_cell_formula_units_Z   1
loop_
 _symmetry_equiv_pos_site_id
 _symmetry_equiv_pos_as_xyz
  1  'x, y, z'
loop_
 _atom_site_type_symbol
 _atom_site_label
 _atom_site_symmetry_multiplicity
 _atom_site_fract_x
 _atom_site_fract_y
 _atom_site_fract_z
 _atom_site_occupancy
  Sm  Sm0  1  0.870299  0.127300  0.750139  1
  Y  Y1  1  0.130582  0.872073  0.249964  1
  Al  Al2  1  0.621004  0.376113  0.547650  1
  Al  Al3  1  0.378624  0.624214  0.452047  1
  Al  Al4  1  0.377980  0.622620  0.049344  1
  Al  Al5  1  0.621663  0.377727  0.950947  1
  Al  Al6  1  0.222867  0.221213  0.498971  1
  Al  Al7  1  0.777281  0.778681  0.500353  1
  Al  Al8  1  0.776530  0.776739  0.000315  1
  Al  Al9  1  0.223640  0.223132  0.000372  1
  Al  Al10  1  0.845112  0.155378  0.103877  1
  Al  Al11  1  0.155316  0.844202  0.896712  1
  Al  Al12  1  0.156216  0.845430  0.602075  1
  Al  Al13  1  0.844142  0.154133  0.397328  1
  Al  Al14  1  0.857203  0.590326  0.749509  1
  Al  Al15  1  0.142922  0.410600  0.250476  1
  Al  Al16  1  0.409817  0.142118  0.749002  1
  Al  Al17  1  0.589316  0.857811  0.250978  1
  Al  Al18  1  0.225650  0.481046  0.749941  1
  Al  Al19  1  0.774820  0.519477  0.250057  1
  Al  Al20  1  0.518403  0.775713  0.746997  1
  Al  Al21  1  0.481081  0.223836  0.252990  1
  Ru  Ru22  1  0.499746  0.000012  0.499538  1
  Rh  Rh23  1  0.999937  0.500020  0.499664  1
  Rh  Rh24  1  0.999943  0.500064  0.000349  1
  Rh  Rh25  1  0.499906  0.000021  0.000403  1
