# generated using pymatgen
data_Ho4Re2Os5W
_symmetry_space_group_name_H-M   'P 1'
_cell_length_a   5.29903297
_cell_length_b   5.23033451
_cell_length_c   8.98073400
_cell_angle_alpha   90.00000000
_cell_angle_beta   90.00000000
_cell_angle_gamma   117.26913070
_symmetry_Int_Tables_number   1
_chemical_formula_structural   Ho4Re2Os5W
_chemical_formula_sum   'Ho4 Re2 Os5 W1'
_cell_volume   221.24493679
_cell_formula_units_Z   1
loop_
 _symmetry_equiv_pos_site_id
 _symmetry_equiv_pos_as_xyz
  1  'x, y, z'
loop_
 _atom_site_type_symbol
 _atom_site_label
 _atom_site_symmetry_multiplicity
 _atom_site_fract_x
 _atom_site_fract_y
 _atom_site_fract_z
 _atom_site_occupancy
  Ho  Ho0  1  0.328096  0.670532  0.436844  1
  Ho  Ho1  1  0.669703  0.334569  0.563615  1
  Ho  Ho2  1  0.669703  0.334569  0.936385  1
  Ho  Ho3  1  0.328096  0.670532  0.063156  1
  Re  Re4  1  0.169316  0.825893  0.750000  1
  Re  Re5  1  0.169586  0.338211  0.750000  1
  Os  Os6  1  0.002205  0.009419  0.501228  1
  Os  Os7  1  0.002205  0.009419  0.998772  1
  Os  Os8  1  0.823894  0.647996  0.250000  1
  Os  Os9  1  0.348534  0.174454  0.250000  1
  Os  Os10  1  0.652997  0.823958  0.750000  1
  W  W11  1  0.835666  0.160448  0.250000  1
