# generated using pymatgen
data_Tb7Lu3Th6(MgRu)4
_symmetry_space_group_name_H-M   'P 1'
_cell_length_a   9.71226392
_cell_length_b   9.79966295
_cell_length_c   9.79705901
_cell_angle_alpha   59.41950673
_cell_angle_beta   60.30357930
_cell_angle_gamma   60.36868815
_symmetry_Int_Tables_number   1
_chemical_formula_structural   Tb7Lu3Th6(MgRu)4
_chemical_formula_sum   'Tb7 Lu3 Th6 Mg4 Ru4'
_cell_volume   659.68942619
_cell_formula_units_Z   1
loop_
 _symmetry_equiv_pos_site_id
 _symmetry_equiv_pos_as_xyz
  1  'x, y, z'
loop_
 _atom_site_type_symbol
 _atom_site_label
 _atom_site_symmetry_multiplicity
 _atom_site_fract_x
 _atom_site_fract_y
 _atom_site_fract_z
 _atom_site_occupancy
  Tb  Tb0  1  0.062362  0.062362  0.437638  1
  Tb  Tb1  1  0.185676  0.814090  0.816625  1
  Tb  Tb2  1  0.814090  0.185676  0.183609  1
  Tb  Tb3  1  0.810982  0.189390  0.813359  1
  Tb  Tb4  1  0.189390  0.810982  0.186268  1
  Tb  Tb5  1  0.811827  0.811827  0.188173  1
  Tb  Tb6  1  0.187814  0.187814  0.812186  1
  Lu  Lu7  1  0.439183  0.061587  0.438219  1
  Lu  Lu8  1  0.061587  0.439183  0.061011  1
  Lu  Lu9  1  0.438616  0.438616  0.061384  1
  Th  Th10  1  0.590593  0.600360  0.599773  1
  Th  Th11  1  0.600360  0.590593  0.209277  1
  Th  Th12  1  0.598450  0.209409  0.591919  1
  Th  Th13  1  0.209409  0.598450  0.600223  1
  Th  Th14  1  0.067859  0.433160  0.431508  1
  Th  Th15  1  0.433160  0.067859  0.067473  1
  Mg  Mg16  1  0.832210  0.828089  0.829850  1
  Mg  Mg17  1  0.828089  0.832210  0.509850  1
  Mg  Mg18  1  0.828429  0.509756  0.832817  1
  Mg  Mg19  1  0.509756  0.828429  0.828998  1
  Ru  Ru20  1  0.379720  0.395995  0.397414  1
  Ru  Ru21  1  0.395995  0.379720  0.826872  1
  Ru  Ru22  1  0.399558  0.824887  0.378510  1
  Ru  Ru23  1  0.824887  0.399558  0.397045  1
