# generated using pymatgen
data_Hf2ZrIn2OF12
_symmetry_space_group_name_H-M   'P 1'
_cell_length_a   11.04608599
_cell_length_b   11.04985921
_cell_length_c   11.04608539
_cell_angle_alpha   41.22983236
_cell_angle_beta   41.36896488
_cell_angle_gamma   41.22982757
_symmetry_Int_Tables_number   1
_chemical_formula_structural   Hf2ZrIn2OF12
_chemical_formula_sum   'Hf4 Zr2 In4 O2 F24'
_cell_volume   529.98906533
_cell_formula_units_Z   2
loop_
 _symmetry_equiv_pos_site_id
 _symmetry_equiv_pos_as_xyz
  1  'x, y, z'
loop_
 _atom_site_type_symbol
 _atom_site_label
 _atom_site_symmetry_multiplicity
 _atom_site_fract_x
 _atom_site_fract_y
 _atom_site_fract_z
 _atom_site_occupancy
  Hf  Hf0  1  0.575978  0.576346  0.028245  1
  Hf  Hf1  1  0.028245  0.576346  0.575978  1
  Hf  Hf2  1  0.575387  0.028540  0.575387  1
  Hf  Hf3  1  0.425135  0.970194  0.425135  1
  Zr  Zr4  1  0.971057  0.423739  0.424601  1
  Zr  Zr5  1  0.424601  0.423739  0.971057  1
  In  In6  1  0.000356  0.000655  0.000356  1
  In  In7  1  0.498339  0.500474  0.498339  1
  In  In8  1  0.142238  0.140865  0.142238  1
  In  In9  1  0.856374  0.858109  0.856374  1
  O  O10  1  0.713545  0.713399  0.713545  1
  O  O11  1  0.287786  0.286522  0.287786  1
  F  F12  1  0.703986  0.708802  0.374459  1
  F  F13  1  0.374459  0.708802  0.703986  1
  F  F14  1  0.708790  0.366143  0.708790  1
  F  F15  1  0.293255  0.627195  0.293255  1
  F  F16  1  0.292904  0.293272  0.625955  1
  F  F17  1  0.625955  0.293272  0.292904  1
  F  F18  1  0.907325  0.908899  0.406427  1
  F  F19  1  0.406427  0.908899  0.907325  1
  F  F20  1  0.649906  0.353490  0.999045  1
  F  F21  1  0.353818  0.999795  0.646704  1
  F  F22  1  0.000256  0.648877  0.353279  1
  F  F23  1  0.353279  0.648877  0.000256  1
  F  F24  1  0.646704  0.999795  0.353818  1
  F  F25  1  0.999045  0.353490  0.649906  1
  F  F26  1  0.917477  0.350726  0.349608  1
  F  F27  1  0.349608  0.350726  0.917477  1
  F  F28  1  0.350840  0.920420  0.350840  1
  F  F29  1  0.647176  0.083510  0.647176  1
  F  F30  1  0.083800  0.648219  0.647235  1
  F  F31  1  0.647235  0.648219  0.083800  1
  F  F32  1  0.595273  0.087114  0.095373  1
  F  F33  1  0.095373  0.087114  0.595273  1
  F  F34  1  0.089056  0.598406  0.089056  1
  F  F35  1  0.909015  0.407009  0.909015  1
