# generated using pymatgen
data_DyScFe14(SiC)3
_symmetry_space_group_name_H-M   'P 1'
_cell_length_a   6.40864322
_cell_length_b   6.40864297
_cell_length_c   6.40864277
_cell_angle_alpha   83.17807337
_cell_angle_beta   83.17807477
_cell_angle_gamma   83.17806086
_symmetry_Int_Tables_number   1
_chemical_formula_structural   DyScFe14(SiC)3
_chemical_formula_sum   'Dy1 Sc1 Fe14 Si3 C3'
_cell_volume   258.02699319
_cell_formula_units_Z   1
loop_
 _symmetry_equiv_pos_site_id
 _symmetry_equiv_pos_as_xyz
  1  'x, y, z'
loop_
 _atom_site_type_symbol
 _atom_site_label
 _atom_site_symmetry_multiplicity
 _atom_site_fract_x
 _atom_site_fract_y
 _atom_site_fract_z
 _atom_site_occupancy
  Dy  Dy0  1  0.348135  0.348135  0.348135  1
  Sc  Sc1  1  0.654942  0.654942  0.654942  1
  Fe  Fe2  1  0.716426  0.284915  0.998395  1
  Fe  Fe3  1  0.998395  0.716426  0.284915  1
  Fe  Fe4  1  0.284915  0.998395  0.716426  1
  Fe  Fe5  1  0.998395  0.284915  0.716426  1
  Fe  Fe6  1  0.716426  0.998395  0.284915  1
  Fe  Fe7  1  0.284915  0.716426  0.998395  1
  Fe  Fe8  1  0.342202  0.342202  0.858622  1
  Fe  Fe9  1  0.858622  0.342202  0.342202  1
  Fe  Fe10  1  0.342202  0.858622  0.342202  1
  Fe  Fe11  1  0.659571  0.659571  0.136597  1
  Fe  Fe12  1  0.136597  0.659571  0.659571  1
  Fe  Fe13  1  0.659571  0.136597  0.659571  1
  Fe  Fe14  1  0.901273  0.901273  0.901273  1
  Fe  Fe15  1  0.097079  0.097079  0.097079  1
  Si  Si16  1  0.001369  0.001369  0.499440  1
  Si  Si17  1  0.499440  0.001369  0.001369  1
  Si  Si18  1  0.001369  0.499440  0.001369  1
  C  C19  1  0.504288  0.504288  0.989580  1
  C  C20  1  0.989580  0.504288  0.504288  1
  C  C21  1  0.504288  0.989580  0.504288  1
