# generated using pymatgen
data_Lu4Ta6Si3Ge5
_symmetry_space_group_name_H-M   'P 1'
_cell_length_a   6.86101200
_cell_length_b   7.06377148
_cell_length_c   13.38538257
_cell_angle_alpha   90.11360251
_cell_angle_beta   90.00000000
_cell_angle_gamma   90.00000000
_symmetry_Int_Tables_number   1
_chemical_formula_structural   Lu4Ta6Si3Ge5
_chemical_formula_sum   'Lu8 Ta12 Si6 Ge10'
_cell_volume   648.71621614
_cell_formula_units_Z   2
loop_
 _symmetry_equiv_pos_site_id
 _symmetry_equiv_pos_as_xyz
  1  'x, y, z'
loop_
 _atom_site_type_symbol
 _atom_site_label
 _atom_site_symmetry_multiplicity
 _atom_site_fract_x
 _atom_site_fract_y
 _atom_site_fract_z
 _atom_site_occupancy
  Lu  Lu0  1  0.496351  0.673708  0.594471  1
  Lu  Lu1  1  0.996351  0.826292  0.905529  1
  Lu  Lu2  1  0.501040  0.329827  0.094498  1
  Lu  Lu3  1  0.001040  0.170173  0.405502  1
  Lu  Lu4  1  0.505143  0.325437  0.404874  1
  Lu  Lu5  1  0.005143  0.174563  0.095126  1
  Lu  Lu6  1  0.494346  0.670685  0.905966  1
  Lu  Lu7  1  0.994346  0.829315  0.594034  1
  Ta  Ta8  1  0.661831  0.171119  0.625647  1
  Ta  Ta9  1  0.161831  0.328881  0.874353  1
  Ta  Ta10  1  0.338940  0.821467  0.126008  1
  Ta  Ta11  1  0.838940  0.678533  0.373992  1
  Ta  Ta12  1  0.343398  0.825480  0.372819  1
  Ta  Ta13  1  0.843398  0.674520  0.127181  1
  Ta  Ta14  1  0.658500  0.174779  0.873237  1
  Ta  Ta15  1  0.158500  0.325221  0.626763  1
  Ta  Ta16  1  0.832934  0.485212  0.750020  1
  Ta  Ta17  1  0.332934  0.014788  0.749980  1
  Ta  Ta18  1  0.167811  0.513765  0.248024  1
  Ta  Ta19  1  0.667811  0.986235  0.251976  1
  Si  Si20  1  0.672044  0.963964  0.459284  1
  Si  Si21  1  0.172044  0.536036  0.040716  1
  Si  Si22  1  0.457831  0.378431  0.748961  1
  Si  Si23  1  0.957831  0.121569  0.751039  1
  Si  Si24  1  0.543904  0.620777  0.249614  1
  Si  Si25  1  0.043904  0.879223  0.250386  1
  Ge  Ge26  1  0.322291  0.034398  0.959901  1
  Ge  Ge27  1  0.822291  0.465602  0.540099  1
  Ge  Ge28  1  0.326281  0.034808  0.539404  1
  Ge  Ge29  1  0.826281  0.465192  0.960596  1
  Ge  Ge30  1  0.677553  0.966162  0.041245  1
  Ge  Ge31  1  0.177553  0.533838  0.458755  1
  Ge  Ge32  1  0.698382  0.859892  0.750479  1
  Ge  Ge33  1  0.198382  0.640108  0.749521  1
  Ge  Ge34  1  0.301420  0.138284  0.249415  1
  Ge  Ge35  1  0.801420  0.361716  0.250585  1
