# generated using pymatgen
data_Tb16Cd4NiRu3
_symmetry_space_group_name_H-M   'P 1'
_cell_length_a   9.59847423
_cell_length_b   9.67635086
_cell_length_c   9.67635100
_cell_angle_alpha   59.99999609
_cell_angle_beta   59.73124079
_cell_angle_gamma   59.73123937
_symmetry_Int_Tables_number   1
_chemical_formula_structural   Tb16Cd4NiRu3
_chemical_formula_sum   'Tb16 Cd4 Ni1 Ru3'
_cell_volume   632.89866571
_cell_formula_units_Z   1
loop_
 _symmetry_equiv_pos_site_id
 _symmetry_equiv_pos_as_xyz
  1  'x, y, z'
loop_
 _atom_site_type_symbol
 _atom_site_label
 _atom_site_symmetry_multiplicity
 _atom_site_fract_x
 _atom_site_fract_y
 _atom_site_fract_z
 _atom_site_occupancy
  Tb  Tb0  1  0.349699  0.346672  0.346672  1
  Tb  Tb1  1  0.349699  0.346672  0.956957  1
  Tb  Tb2  1  0.349699  0.956957  0.346672  1
  Tb  Tb3  1  0.958008  0.347331  0.347331  1
  Tb  Tb4  1  0.811296  0.188321  0.188321  1
  Tb  Tb5  1  0.189245  0.811198  0.811198  1
  Tb  Tb6  1  0.189245  0.811198  0.188358  1
  Tb  Tb7  1  0.811296  0.188321  0.812062  1
  Tb  Tb8  1  0.189245  0.188358  0.811198  1
  Tb  Tb9  1  0.811296  0.812062  0.188321  1
  Tb  Tb10  1  0.937087  0.561894  0.561894  1
  Tb  Tb11  1  0.559750  0.936777  0.936777  1
  Tb  Tb12  1  0.559750  0.936777  0.566695  1
  Tb  Tb13  1  0.937087  0.561894  0.939125  1
  Tb  Tb14  1  0.559750  0.566695  0.936777  1
  Tb  Tb15  1  0.937087  0.939125  0.561894  1
  Cd  Cd16  1  0.579720  0.580326  0.580326  1
  Cd  Cd17  1  0.579720  0.580326  0.259628  1
  Cd  Cd18  1  0.579720  0.259628  0.580326  1
  Cd  Cd19  1  0.258654  0.580448  0.580448  1
  Ni  Ni20  1  0.575183  0.141606  0.141606  1
  Ru  Ru21  1  0.142588  0.139519  0.139519  1
  Ru  Ru22  1  0.142588  0.139519  0.578374  1
  Ru  Ru23  1  0.142588  0.578374  0.139519  1
