# generated using pymatgen
data_KLa(GaO2)4
_symmetry_space_group_name_H-M   'P 1'
_cell_length_a   6.75074806
_cell_length_b   6.75074777
_cell_length_c   6.75074800
_cell_angle_alpha   103.92985244
_cell_angle_beta   93.33623165
_cell_angle_gamma   134.51298418
_symmetry_Int_Tables_number   1
_chemical_formula_structural   KLa(GaO2)4
_chemical_formula_sum   'K1 La1 Ga4 O8'
_cell_volume   201.15565583
_cell_formula_units_Z   1
loop_
 _symmetry_equiv_pos_site_id
 _symmetry_equiv_pos_as_xyz
  1  'x, y, z'
loop_
 _atom_site_type_symbol
 _atom_site_label
 _atom_site_symmetry_multiplicity
 _atom_site_fract_x
 _atom_site_fract_y
 _atom_site_fract_z
 _atom_site_occupancy
  K  K0  1  0.999562  0.999562  0.000000  1
  La  La1  1  0.074458  0.574458  0.500000  1
  Ga  Ga2  1  0.374063  0.832629  0.121587  1
  Ga  Ga3  1  0.711042  0.832629  0.458566  1
  Ga  Ga4  1  0.374063  0.252476  0.541434  1
  Ga  Ga5  1  0.711043  0.252476  0.878412  1
  O  O6  1  0.728246  0.197303  0.131725  1
  O  O7  1  0.408741  0.616997  0.208256  1
  O  O8  1  0.242447  0.915572  0.326875  1
  O  O9  1  0.065578  0.197304  0.469057  1
  O  O10  1  0.728246  0.596521  0.530943  1
  O  O11  1  0.588697  0.915572  0.673125  1
  O  O12  1  0.408742  0.200486  0.791744  1
  O  O13  1  0.065578  0.596522  0.868275  1
