# generated using pymatgen
data_Pm4Mn(CuO4)3
_symmetry_space_group_name_H-M   'P 1'
_cell_length_a   5.39758395
_cell_length_b   5.67195923
_cell_length_c   7.63169792
_cell_angle_alpha   89.83118192
_cell_angle_beta   89.95935139
_cell_angle_gamma   91.10092136
_symmetry_Int_Tables_number   1
_chemical_formula_structural   Pm4Mn(CuO4)3
_chemical_formula_sum   'Pm4 Mn1 Cu3 O12'
_cell_volume   233.59927371
_cell_formula_units_Z   1
loop_
 _symmetry_equiv_pos_site_id
 _symmetry_equiv_pos_as_xyz
  1  'x, y, z'
loop_
 _atom_site_type_symbol
 _atom_site_label
 _atom_site_symmetry_multiplicity
 _atom_site_fract_x
 _atom_site_fract_y
 _atom_site_fract_z
 _atom_site_occupancy
  Pm  Pm0  1  0.984367  0.068361  0.252856  1
  Pm  Pm1  1  0.515447  0.562848  0.253517  1
  Pm  Pm2  1  0.484555  0.437152  0.746483  1
  Pm  Pm3  1  0.015634  0.931638  0.747144  1
  Mn  Mn4  1  0.500001  0.000000  0.000000  1
  Cu  Cu5  1  0.000000  0.500000  0.000000  1
  Cu  Cu6  1  0.500001  0.000000  0.500000  1
  Cu  Cu7  1  0.000000  0.500000  0.500000  1
  O  O8  1  0.691981  0.290775  0.050223  1
  O  O9  1  0.784787  0.812867  0.049347  1
  O  O10  1  0.086025  0.479389  0.244737  1
  O  O11  1  0.405500  0.973383  0.244067  1
  O  O12  1  0.705445  0.298291  0.455991  1
  O  O13  1  0.792764  0.796105  0.456896  1
  O  O14  1  0.207235  0.203894  0.543104  1
  O  O15  1  0.294555  0.701707  0.544009  1
  O  O16  1  0.594502  0.026617  0.755933  1
  O  O17  1  0.913975  0.520610  0.755263  1
  O  O18  1  0.215212  0.187132  0.950653  1
  O  O19  1  0.308019  0.709223  0.949777  1
