# generated using pymatgen
data_TmTh(Si2Ni)2
_symmetry_space_group_name_H-M   'P 1'
_cell_length_a   8.42149706
_cell_length_b   8.42149729
_cell_length_c   4.02828200
_cell_angle_alpha   90.00000000
_cell_angle_beta   90.00000000
_cell_angle_gamma   152.06657649
_symmetry_Int_Tables_number   1
_chemical_formula_structural   TmTh(Si2Ni)2
_chemical_formula_sum   'Tm1 Th1 Si4 Ni2'
_cell_volume   133.83119235
_cell_formula_units_Z   1
loop_
 _symmetry_equiv_pos_site_id
 _symmetry_equiv_pos_as_xyz
  1  'x, y, z'
loop_
 _atom_site_type_symbol
 _atom_site_label
 _atom_site_symmetry_multiplicity
 _atom_site_fract_x
 _atom_site_fract_y
 _atom_site_fract_z
 _atom_site_occupancy
  Tm  Tm0  1  0.604129  0.395871  0.250000  1
  Th  Th1  1  0.394547  0.605453  0.750000  1
  Si  Si2  1  0.963854  0.036146  0.250000  1
  Si  Si3  1  0.042119  0.957881  0.750000  1
  Si  Si4  1  0.247494  0.752506  0.250000  1
  Si  Si5  1  0.747033  0.252967  0.750000  1
  Ni  Ni6  1  0.821745  0.178255  0.250000  1
  Ni  Ni7  1  0.179079  0.820921  0.750000  1
