# generated using pymatgen
data_Ac10InPb5Cl2
_symmetry_space_group_name_H-M   'P 1'
_cell_length_a   9.87236500
_cell_length_b   9.87236561
_cell_length_c   7.15703800
_cell_angle_alpha   90.00002902
_cell_angle_beta   90.00002321
_cell_angle_gamma   119.87992973
_symmetry_Int_Tables_number   1
_chemical_formula_structural   Ac10InPb5Cl2
_chemical_formula_sum   'Ac10 In1 Pb5 Cl2'
_cell_volume   604.82617041
_cell_formula_units_Z   1
loop_
 _symmetry_equiv_pos_site_id
 _symmetry_equiv_pos_as_xyz
  1  'x, y, z'
loop_
 _atom_site_type_symbol
 _atom_site_label
 _atom_site_symmetry_multiplicity
 _atom_site_fract_x
 _atom_site_fract_y
 _atom_site_fract_z
 _atom_site_occupancy
  Ac  Ac0  1  0.666180  0.335477  0.999902  1
  Ac  Ac1  1  0.335477  0.666181  0.999902  1
  Ac  Ac2  1  0.739556  0.739556  0.249998  1
  Ac  Ac3  1  0.260469  0.999639  0.250000  1
  Ac  Ac4  1  0.999638  0.260469  0.250000  1
  Ac  Ac5  1  0.666181  0.335477  0.500098  1
  Ac  Ac6  1  0.335478  0.666182  0.500098  1
  Ac  Ac7  1  0.262470  0.262470  0.749997  1
  Ac  Ac8  1  0.738791  0.996974  0.750001  1
  Ac  Ac9  1  0.996973  0.738790  0.750001  1
  In  In10  1  0.609944  0.609944  0.750000  1
  Pb  Pb11  1  0.611809  0.000568  0.250000  1
  Pb  Pb12  1  0.000569  0.611810  0.250000  1
  Pb  Pb13  1  0.388544  0.388544  0.250000  1
  Pb  Pb14  1  0.386799  0.999053  0.750000  1
  Pb  Pb15  1  0.999053  0.386798  0.750000  1
  Cl  Cl16  1  0.001036  0.001036  0.000705  1
  Cl  Cl17  1  0.001035  0.001034  0.499295  1
