# generated using pymatgen
data_BaMnCo2(PO4)3
_symmetry_space_group_name_H-M   'P 1'
_cell_length_a   9.29505549
_cell_length_b   9.29505537
_cell_length_c   9.29505477
_cell_angle_alpha   137.80869588
_cell_angle_beta   111.40252244
_cell_angle_gamma   83.92533631
_symmetry_Int_Tables_number   1
_chemical_formula_structural   BaMnCo2(PO4)3
_chemical_formula_sum   'Ba2 Mn2 Co4 P6 O24'
_cell_volume   484.45919579
_cell_formula_units_Z   2
loop_
 _symmetry_equiv_pos_site_id
 _symmetry_equiv_pos_as_xyz
  1  'x, y, z'
loop_
 _atom_site_type_symbol
 _atom_site_label
 _atom_site_symmetry_multiplicity
 _atom_site_fract_x
 _atom_site_fract_y
 _atom_site_fract_z
 _atom_site_occupancy
  Ba  Ba0  1  0.750000  0.856646  0.106646  1
  Ba  Ba1  1  0.250000  0.143354  0.893354  1
  Mn  Mn2  1  0.000000  0.500000  0.500000  1
  Mn  Mn3  1  0.500000  0.000000  0.500000  1
  Co  Co4  1  0.617157  0.617157  0.500000  1
  Co  Co5  1  0.882843  0.382843  0.000000  1
  Co  Co6  1  0.117157  0.617157  0.000000  1
  Co  Co7  1  0.382843  0.382843  0.500000  1
  P  P8  1  0.750000  0.346157  0.596157  1
  P  P9  1  0.250000  0.653843  0.403843  1
  P  P10  1  0.819128  0.819128  0.500000  1
  P  P11  1  0.680872  0.180872  0.000000  1
  P  P12  1  0.319128  0.819128  0.000000  1
  P  P13  1  0.180872  0.180872  0.500000  1
  O  O14  1  0.658461  0.125166  0.466704  1
  O  O15  1  0.341539  0.874834  0.533296  1
  O  O16  1  0.158461  0.691757  0.533296  1
  O  O17  1  0.841539  0.308243  0.466704  1
  O  O18  1  0.629789  0.487647  0.617437  1
  O  O19  1  0.129789  0.512353  0.142143  1
  O  O20  1  0.370211  0.512353  0.382563  1
  O  O21  1  0.870211  0.487647  0.857857  1
  O  O22  1  0.916183  0.062758  0.718256  1
  O  O23  1  0.655499  0.937242  0.853426  1
  O  O24  1  0.416183  0.697927  0.853426  1
  O  O25  1  0.155499  0.302073  0.718256  1
  O  O26  1  0.083817  0.937242  0.281744  1
  O  O27  1  0.344501  0.062758  0.146574  1
  O  O28  1  0.583817  0.302073  0.146574  1
  O  O29  1  0.844501  0.697927  0.281744  1
  O  O30  1  0.631856  0.789536  0.433148  1
  O  O31  1  0.643612  0.210464  0.842320  1
  O  O32  1  0.131856  0.698708  0.842320  1
  O  O33  1  0.143612  0.301292  0.433148  1
  O  O34  1  0.368144  0.210464  0.566852  1
  O  O35  1  0.356388  0.789536  0.157680  1
  O  O36  1  0.868144  0.301292  0.157680  1
  O  O37  1  0.856388  0.698708  0.566852  1
