# generated using pymatgen
data_SmBi3RuRh3O14
_symmetry_space_group_name_H-M   'P 1'
_cell_length_a   7.36667862
_cell_length_b   7.31705711
_cell_length_c   7.36667900
_cell_angle_alpha   59.77541388
_cell_angle_beta   60.00000276
_cell_angle_gamma   59.77541295
_symmetry_Int_Tables_number   1
_chemical_formula_structural   SmBi3RuRh3O14
_chemical_formula_sum   'Sm1 Bi3 Ru1 Rh3 O14'
_cell_volume   279.82227753
_cell_formula_units_Z   1
loop_
 _symmetry_equiv_pos_site_id
 _symmetry_equiv_pos_as_xyz
  1  'x, y, z'
loop_
 _atom_site_type_symbol
 _atom_site_label
 _atom_site_symmetry_multiplicity
 _atom_site_fract_x
 _atom_site_fract_y
 _atom_site_fract_z
 _atom_site_occupancy
  Sm  Sm0  1  0.125000  0.625000  0.125000  1
  Bi  Bi1  1  0.125000  0.125000  0.125000  1
  Bi  Bi2  1  0.625000  0.125000  0.125000  1
  Bi  Bi3  1  0.125000  0.125000  0.625000  1
  Ru  Ru4  1  0.625000  0.125000  0.625000  1
  Rh  Rh5  1  0.625000  0.625000  0.625000  1
  Rh  Rh6  1  0.625000  0.625000  0.125000  1
  Rh  Rh7  1  0.125000  0.625000  0.625000  1
  O  O8  1  0.251238  0.246287  0.251238  1
  O  O9  1  0.289009  0.710184  0.289009  1
  O  O10  1  0.950848  0.956738  0.546207  1
  O  O11  1  0.546207  0.956738  0.546207  1
  O  O12  1  0.711798  0.710184  0.289009  1
  O  O13  1  0.960991  0.539816  0.538202  1
  O  O14  1  0.703793  0.293262  0.703793  1
  O  O15  1  0.299152  0.293262  0.703793  1
  O  O16  1  0.703793  0.293262  0.299152  1
  O  O17  1  0.289009  0.710184  0.711798  1
  O  O18  1  0.960991  0.539816  0.960991  1
  O  O19  1  0.538202  0.539816  0.960991  1
  O  O20  1  0.998762  0.003713  0.998762  1
  O  O21  1  0.546207  0.956738  0.950848  1
