# generated using pymatgen
data_NdSi(GeRh2)3
_symmetry_space_group_name_H-M   'P 1'
_cell_length_a   7.18263000
_cell_length_b   7.18262946
_cell_length_c   3.87737100
_cell_angle_alpha   90.00000000
_cell_angle_beta   90.00000000
_cell_angle_gamma   119.99999328
_symmetry_Int_Tables_number   1
_chemical_formula_structural   NdSi(GeRh2)3
_chemical_formula_sum   'Nd1 Si1 Ge3 Rh6'
_cell_volume   173.23473518
_cell_formula_units_Z   1
loop_
 _symmetry_equiv_pos_site_id
 _symmetry_equiv_pos_as_xyz
  1  'x, y, z'
loop_
 _atom_site_type_symbol
 _atom_site_label
 _atom_site_symmetry_multiplicity
 _atom_site_fract_x
 _atom_site_fract_y
 _atom_site_fract_z
 _atom_site_occupancy
  Nd  Nd0  1  0.000000  0.000000  0.000000  1
  Si  Si1  1  0.333333  0.666667  0.000000  1
  Ge  Ge2  1  0.801747  0.603494  0.500000  1
  Ge  Ge3  1  0.396506  0.198253  0.500000  1
  Ge  Ge4  1  0.801747  0.198253  0.500000  1
  Rh  Rh5  1  0.530162  0.060323  0.000000  1
  Rh  Rh6  1  0.939677  0.469838  0.000000  1
  Rh  Rh7  1  0.530162  0.469838  0.000000  1
  Rh  Rh8  1  0.203357  0.406714  0.500000  1
  Rh  Rh9  1  0.593286  0.796643  0.500000  1
  Rh  Rh10  1  0.203357  0.796643  0.500000  1
