# generated using pymatgen
data_Y3TmAl8
_symmetry_space_group_name_H-M   'P 1'
_cell_length_a   9.62148190
_cell_length_b   9.62148227
_cell_length_c   9.62148308
_cell_angle_alpha   33.54817595
_cell_angle_beta   33.54817101
_cell_angle_gamma   33.54817669
_symmetry_Int_Tables_number   1
_chemical_formula_structural   Y3TmAl8
_chemical_formula_sum   'Y3 Tm1 Al8'
_cell_volume   242.29460820
_cell_formula_units_Z   1
loop_
 _symmetry_equiv_pos_site_id
 _symmetry_equiv_pos_as_xyz
  1  'x, y, z'
loop_
 _atom_site_type_symbol
 _atom_site_label
 _atom_site_symmetry_multiplicity
 _atom_site_fract_x
 _atom_site_fract_y
 _atom_site_fract_z
 _atom_site_occupancy
  Y  Y0  1  0.374889  0.374889  0.374889  1
  Y  Y1  1  0.999595  0.999595  0.999595  1
  Y  Y2  1  0.500376  0.500376  0.500376  1
  Tm  Tm3  1  0.875016  0.875016  0.875016  1
  Al  Al4  1  0.437061  0.936593  0.437061  1
  Al  Al5  1  0.937847  0.438650  0.937847  1
  Al  Al6  1  0.437061  0.437061  0.936593  1
  Al  Al7  1  0.937847  0.937847  0.438650  1
  Al  Al8  1  0.187576  0.187576  0.187576  1
  Al  Al9  1  0.687490  0.687490  0.687490  1
  Al  Al10  1  0.936593  0.437061  0.437061  1
  Al  Al11  1  0.438650  0.937847  0.937847  1
