# generated using pymatgen
data_LiDyCdNiPt2
_symmetry_space_group_name_H-M   'P 1'
_cell_length_a   5.07101999
_cell_length_b   5.24750137
_cell_length_c   5.24750177
_cell_angle_alpha   62.78264912
_cell_angle_beta   59.66432929
_cell_angle_gamma   59.66434463
_symmetry_Int_Tables_number   1
_chemical_formula_structural   LiDyCdNiPt2
_chemical_formula_sum   'Li1 Dy1 Cd1 Ni1 Pt2'
_cell_volume   100.10854054
_cell_formula_units_Z   1
loop_
 _symmetry_equiv_pos_site_id
 _symmetry_equiv_pos_as_xyz
  1  'x, y, z'
loop_
 _atom_site_type_symbol
 _atom_site_label
 _atom_site_symmetry_multiplicity
 _atom_site_fract_x
 _atom_site_fract_y
 _atom_site_fract_z
 _atom_site_occupancy
  Li  Li0  1  0.118460  0.629564  0.629564  1
  Dy  Dy1  1  0.259378  0.246662  0.246662  1
  Cd  Cd2  1  0.008003  0.992186  0.992186  1
  Ni  Ni3  1  0.619846  0.628665  0.628665  1
  Pt  Pt4  1  0.622158  0.626445  0.126478  1
  Pt  Pt5  1  0.622158  0.126478  0.626445  1
