# generated using pymatgen
data_YEr4(In2Au)2
_symmetry_space_group_name_H-M   'P 1'
_cell_length_a   3.63577800
_cell_length_b   8.19330400
_cell_length_c   18.34038700
_cell_angle_alpha   90.00000000
_cell_angle_beta   90.00000000
_cell_angle_gamma   90.00000000
_symmetry_Int_Tables_number   1
_chemical_formula_structural   YEr4(In2Au)2
_chemical_formula_sum   'Y2 Er8 In8 Au4'
_cell_volume   546.34241981
_cell_formula_units_Z   2
loop_
 _symmetry_equiv_pos_site_id
 _symmetry_equiv_pos_as_xyz
  1  'x, y, z'
loop_
 _atom_site_type_symbol
 _atom_site_label
 _atom_site_symmetry_multiplicity
 _atom_site_fract_x
 _atom_site_fract_y
 _atom_site_fract_z
 _atom_site_occupancy
  Y  Y0  1  0.000000  0.500000  0.500000  1
  Y  Y1  1  0.000000  0.000000  0.000000  1
  Er  Er2  1  0.000000  0.736585  0.282042  1
  Er  Er3  1  0.000000  0.263415  0.717958  1
  Er  Er4  1  0.000000  0.763415  0.782042  1
  Er  Er5  1  0.000000  0.236585  0.217958  1
  Er  Er6  1  0.000000  0.619455  0.080758  1
  Er  Er7  1  0.000000  0.380545  0.919242  1
  Er  Er8  1  0.000000  0.880545  0.580758  1
  Er  Er9  1  0.000000  0.119455  0.419242  1
  In  In10  1  0.500000  0.709192  0.933496  1
  In  In11  1  0.500000  0.290808  0.066504  1
  In  In12  1  0.500000  0.790808  0.433496  1
  In  In13  1  0.500000  0.209192  0.566504  1
  In  In14  1  0.500000  0.581039  0.647830  1
  In  In15  1  0.500000  0.418961  0.352170  1
  In  In16  1  0.500000  0.918961  0.147830  1
  In  In17  1  0.500000  0.081039  0.852170  1
  Au  Au18  1  0.500000  0.525927  0.196672  1
  Au  Au19  1  0.500000  0.474073  0.803328  1
  Au  Au20  1  0.500000  0.974073  0.696672  1
  Au  Au21  1  0.500000  0.025927  0.303328  1
