# generated using pymatgen
data_GdNb(TeO4)2
_symmetry_space_group_name_H-M   'P 1'
_cell_length_a   5.60848900
_cell_length_b   5.60848953
_cell_length_c   22.26038000
_cell_angle_alpha   90.00000000
_cell_angle_beta   90.00000000
_cell_angle_gamma   93.07085820
_symmetry_Int_Tables_number   1
_chemical_formula_structural   GdNb(TeO4)2
_chemical_formula_sum   'Gd4 Nb4 Te8 O32'
_cell_volume   699.19817298
_cell_formula_units_Z   4
loop_
 _symmetry_equiv_pos_site_id
 _symmetry_equiv_pos_as_xyz
  1  'x, y, z'
loop_
 _atom_site_type_symbol
 _atom_site_label
 _atom_site_symmetry_multiplicity
 _atom_site_fract_x
 _atom_site_fract_y
 _atom_site_fract_z
 _atom_site_occupancy
  Gd  Gd0  1  0.252036  0.252036  0.000000  1
  Gd  Gd1  1  0.747964  0.747964  0.000000  1
  Gd  Gd2  1  0.247964  0.247964  0.500000  1
  Gd  Gd3  1  0.752036  0.752036  0.500000  1
  Nb  Nb4  1  0.246168  0.253832  0.750000  1
  Nb  Nb5  1  0.746168  0.753832  0.750000  1
  Nb  Nb6  1  0.753832  0.746168  0.250000  1
  Nb  Nb7  1  0.253832  0.246168  0.250000  1
  Te  Te8  1  0.809367  0.190633  0.892900  1
  Te  Te9  1  0.190633  0.809367  0.107100  1
  Te  Te10  1  0.321651  0.678349  0.869015  1
  Te  Te11  1  0.678349  0.321651  0.130985  1
  Te  Te12  1  0.821651  0.178349  0.630985  1
  Te  Te13  1  0.178349  0.821651  0.369015  1
  Te  Te14  1  0.309367  0.690633  0.607100  1
  Te  Te15  1  0.690633  0.309367  0.392900  1
  O  O16  1  0.553286  0.067108  0.942408  1
  O  O17  1  0.932892  0.446714  0.942408  1
  O  O18  1  0.446714  0.932892  0.057592  1
  O  O19  1  0.067108  0.553286  0.057592  1
  O  O20  1  0.016898  0.983102  0.934215  1
  O  O21  1  0.983102  0.016898  0.065785  1
  O  O22  1  0.429070  0.570930  0.943951  1
  O  O23  1  0.570930  0.429070  0.056049  1
  O  O24  1  0.273662  0.355325  0.839200  1
  O  O25  1  0.644675  0.726338  0.839200  1
  O  O26  1  0.726338  0.644675  0.160800  1
  O  O27  1  0.355325  0.273662  0.160800  1
  O  O28  1  0.929070  0.070930  0.556049  1
  O  O29  1  0.070930  0.929070  0.443951  1
  O  O30  1  0.144675  0.226338  0.660800  1
  O  O31  1  0.773662  0.855325  0.660800  1
  O  O32  1  0.855325  0.773662  0.339200  1
  O  O33  1  0.226338  0.144675  0.339200  1
  O  O34  1  0.053286  0.567108  0.557592  1
  O  O35  1  0.432892  0.946714  0.557592  1
  O  O36  1  0.946714  0.432892  0.442408  1
  O  O37  1  0.567108  0.053286  0.442408  1
  O  O38  1  0.516898  0.483102  0.565785  1
  O  O39  1  0.483102  0.516898  0.434215  1
  O  O40  1  0.972001  0.027999  0.771182  1
  O  O41  1  0.027999  0.972001  0.228818  1
  O  O42  1  0.970910  0.529090  0.750000  1
  O  O43  1  0.470910  0.029090  0.750000  1
  O  O44  1  0.029090  0.470910  0.250000  1
  O  O45  1  0.529090  0.970910  0.250000  1
  O  O46  1  0.472001  0.527999  0.728818  1
  O  O47  1  0.527999  0.472001  0.271182  1
