# generated using pymatgen
data_Tb2Nd3P12Ru18Rh
_symmetry_space_group_name_H-M   'P 1'
_cell_length_a   4.01836800
_cell_length_b   12.62355244
_cell_length_c   12.57758301
_cell_angle_alpha   119.87886983
_cell_angle_beta   90.00000000
_cell_angle_gamma   90.00000000
_symmetry_Int_Tables_number   1
_chemical_formula_structural   Tb2Nd3P12Ru18Rh
_chemical_formula_sum   'Tb2 Nd3 P12 Ru18 Rh1'
_cell_volume   553.20732327
_cell_formula_units_Z   1
loop_
 _symmetry_equiv_pos_site_id
 _symmetry_equiv_pos_as_xyz
  1  'x, y, z'
loop_
 _atom_site_type_symbol
 _atom_site_label
 _atom_site_symmetry_multiplicity
 _atom_site_fract_x
 _atom_site_fract_y
 _atom_site_fract_z
 _atom_site_occupancy
  Tb  Tb0  1  0.000000  0.335598  0.667604  1
  Tb  Tb1  1  0.000000  0.664380  0.331994  1
  Nd  Nd2  1  0.500000  0.999999  0.183625  1
  Nd  Nd3  1  0.500000  0.184442  0.999676  1
  Nd  Nd4  1  0.500000  0.815556  0.815234  1
  P  P5  1  0.000000  0.999996  0.810488  1
  P  P6  1  0.000000  0.812719  0.000409  1
  P  P7  1  0.000000  0.187279  0.187692  1
  P  P8  1  0.500000  0.304976  0.479237  1
  P  P9  1  0.500000  0.177487  0.698213  1
  P  P10  1  0.500000  0.523130  0.827431  1
  P  P11  1  0.500000  0.822498  0.520720  1
  P  P12  1  0.500000  0.476867  0.304300  1
  P  P13  1  0.500000  0.695019  0.174255  1
  P  P14  1  0.000000  0.999999  0.371530  1
  P  P15  1  0.000000  0.374192  0.000007  1
  P  P16  1  0.000000  0.625806  0.625815  1
  Ru  Ru17  1  0.000000  0.554654  0.000922  1
  Ru  Ru18  1  0.000000  0.445344  0.446268  1
  Ru  Ru19  1  0.500000  0.999994  0.711429  1
  Ru  Ru20  1  0.500000  0.714627  0.001021  1
  Ru  Ru21  1  0.500000  0.285377  0.286405  1
  Ru  Ru22  1  0.000000  0.194657  0.381021  1
  Ru  Ru23  1  0.000000  0.185671  0.804932  1
  Ru  Ru24  1  0.000000  0.620806  0.815319  1
  Ru  Ru25  1  0.000000  0.814319  0.619250  1
  Ru  Ru26  1  0.000000  0.379199  0.194523  1
  Ru  Ru27  1  0.000000  0.805351  0.186367  1
  Ru  Ru28  1  0.500000  0.125611  0.493779  1
  Ru  Ru29  1  0.500000  0.369134  0.875802  1
  Ru  Ru30  1  0.500000  0.506752  0.632561  1
  Ru  Ru31  1  0.500000  0.630844  0.506652  1
  Ru  Ru32  1  0.500000  0.493234  0.125808  1
  Ru  Ru33  1  0.500000  0.874381  0.368161  1
  Ru  Ru34  1  0.000000  0.999997  0.998900  1
  Rh  Rh35  1  0.000000  0.000000  0.552649  1
