# generated using pymatgen
data_Cs8Y6CoBr20
_symmetry_space_group_name_H-M   'P 1'
_cell_length_a   12.72158543
_cell_length_b   12.72158627
_cell_length_c   12.72158600
_cell_angle_alpha   60.00000071
_cell_angle_beta   59.99999853
_cell_angle_gamma   60.00000270
_symmetry_Int_Tables_number   1
_chemical_formula_structural   Cs8Y6CoBr20
_chemical_formula_sum   'Cs8 Y6 Co1 Br20'
_cell_volume   1455.82365924
_cell_formula_units_Z   1
loop_
 _symmetry_equiv_pos_site_id
 _symmetry_equiv_pos_as_xyz
  1  'x, y, z'
loop_
 _atom_site_type_symbol
 _atom_site_label
 _atom_site_symmetry_multiplicity
 _atom_site_fract_x
 _atom_site_fract_y
 _atom_site_fract_z
 _atom_site_occupancy
  Cs  Cs0  1  0.359548  0.359548  0.359548  1
  Cs  Cs1  1  0.640452  0.640452  0.640452  1
  Cs  Cs2  1  0.359548  0.359548  0.921360  1
  Cs  Cs3  1  0.359548  0.921360  0.359548  1
  Cs  Cs4  1  0.640452  0.640452  0.078640  1
  Cs  Cs5  1  0.640452  0.078640  0.640452  1
  Cs  Cs6  1  0.921360  0.359548  0.359548  1
  Cs  Cs7  1  0.078640  0.640452  0.640452  1
  Y  Y8  1  0.850286  0.149714  0.149714  1
  Y  Y9  1  0.149714  0.850286  0.850286  1
  Y  Y10  1  0.149714  0.850286  0.149714  1
  Y  Y11  1  0.850286  0.149714  0.850286  1
  Y  Y12  1  0.149714  0.149714  0.850286  1
  Y  Y13  1  0.850286  0.850286  0.149714  1
  Co  Co14  1  0.000000  0.000000  0.000000  1
  Br  Br15  1  0.321390  0.000000  0.000000  1
  Br  Br16  1  0.678610  0.000000  0.000000  1
  Br  Br17  1  0.000000  0.321390  0.678610  1
  Br  Br18  1  0.000000  0.678610  0.321390  1
  Br  Br19  1  0.000000  0.321390  0.000000  1
  Br  Br20  1  0.678610  0.000000  0.321390  1
  Br  Br21  1  0.000000  0.678610  0.000000  1
  Br  Br22  1  0.321390  0.000000  0.678610  1
  Br  Br23  1  0.000000  0.000000  0.321390  1
  Br  Br24  1  0.000000  0.000000  0.678610  1
  Br  Br25  1  0.678610  0.321390  0.000000  1
  Br  Br26  1  0.321390  0.678610  0.000000  1
  Br  Br27  1  0.688898  0.311102  0.311102  1
  Br  Br28  1  0.311102  0.688898  0.688898  1
  Br  Br29  1  0.311102  0.688898  0.311102  1
  Br  Br30  1  0.688898  0.311102  0.688898  1
  Br  Br31  1  0.311102  0.311102  0.688898  1
  Br  Br32  1  0.688898  0.688898  0.311102  1
  Br  Br33  1  0.250000  0.250000  0.250000  1
  Br  Br34  1  0.750000  0.750000  0.750000  1
