# generated using pymatgen
data_Ta5Ti3Co7Si14Pd
_symmetry_space_group_name_H-M   'P 1'
_cell_length_a   9.23544040
_cell_length_b   9.25111416
_cell_length_c   9.21217240
_cell_angle_alpha   94.31209613
_cell_angle_beta   94.16008034
_cell_angle_gamma   148.51840394
_symmetry_Int_Tables_number   1
_chemical_formula_structural   Ta5Ti3Co7Si14Pd
_chemical_formula_sum   'Ta5 Ti3 Co7 Si14 Pd1'
_cell_volume   395.49762475
_cell_formula_units_Z   1
loop_
 _symmetry_equiv_pos_site_id
 _symmetry_equiv_pos_as_xyz
  1  'x, y, z'
loop_
 _atom_site_type_symbol
 _atom_site_label
 _atom_site_symmetry_multiplicity
 _atom_site_fract_x
 _atom_site_fract_y
 _atom_site_fract_z
 _atom_site_occupancy
  Ta  Ta0  1  0.133864  0.133982  0.267145  1
  Ta  Ta1  1  0.867224  0.867035  0.734307  1
  Ta  Ta2  1  0.867998  0.131677  0.002557  1
  Ta  Ta3  1  0.134138  0.870465  0.002065  1
  Ta  Ta4  1  0.501298  0.689704  0.191865  1
  Ti  Ti5  1  0.497225  0.309239  0.809117  1
  Ti  Ti6  1  0.312570  0.500263  0.809036  1
  Ti  Ti7  1  0.690833  0.501945  0.192506  1
  Co  Co8  1  0.104140  0.603956  0.207845  1
  Co  Co9  1  0.103402  0.898922  0.502654  1
  Co  Co10  1  0.399956  0.604246  0.503034  1
  Co  Co11  1  0.595947  0.398619  0.494704  1
  Co  Co12  1  0.898382  0.095472  0.494363  1
  Co  Co13  1  0.898945  0.398785  0.797007  1
  Co  Co14  1  0.598174  0.097524  0.196538  1
  Si  Si15  1  0.293436  0.293353  0.586854  1
  Si  Si16  1  0.708259  0.706903  0.414762  1
  Si  Si17  1  0.723843  0.316988  0.006166  1
  Si  Si18  1  0.278640  0.688633  0.004450  1
  Si  Si19  1  0.998127  0.295563  0.297349  1
  Si  Si20  1  0.978443  0.689861  0.702822  1
  Si  Si21  1  0.725670  0.013612  0.703209  1
  Si  Si22  1  0.298099  0.002040  0.295769  1
  Si  Si23  1  0.502475  0.908178  0.407232  1
  Si  Si24  1  0.520898  0.120150  0.586935  1
  Si  Si25  1  0.065524  0.466863  0.586195  1
  Si  Si26  1  0.902232  0.497565  0.405659  1
  Si  Si27  1  0.749142  0.748506  0.999953  1
  Si  Si28  1  0.251681  0.250784  0.999783  1
  Pd  Pd29  1  0.399434  0.899167  0.798118  1
