# generated using pymatgen
data_Hf2Zr2Mn4Si3Ge
_symmetry_space_group_name_H-M   'P 1'
_cell_length_a   3.69623600
_cell_length_b   6.58614852
_cell_length_c   7.67137918
_cell_angle_alpha   89.83447295
_cell_angle_beta   90.00000000
_cell_angle_gamma   90.00000000
_symmetry_Int_Tables_number   1
_chemical_formula_structural   Hf2Zr2Mn4Si3Ge
_chemical_formula_sum   'Hf2 Zr2 Mn4 Si3 Ge1'
_cell_volume   186.75096299
_cell_formula_units_Z   1
loop_
 _symmetry_equiv_pos_site_id
 _symmetry_equiv_pos_as_xyz
  1  'x, y, z'
loop_
 _atom_site_type_symbol
 _atom_site_label
 _atom_site_symmetry_multiplicity
 _atom_site_fract_x
 _atom_site_fract_y
 _atom_site_fract_z
 _atom_site_occupancy
  Hf  Hf0  1  0.500000  0.474620  0.316690  1
  Hf  Hf1  1  0.500000  0.973374  0.179927  1
  Zr  Zr2  1  0.000000  0.532549  0.680121  1
  Zr  Zr3  1  0.000000  0.023986  0.823086  1
  Mn  Mn4  1  0.000000  0.639642  0.067480  1
  Mn  Mn5  1  0.000000  0.135987  0.427536  1
  Mn  Mn6  1  0.500000  0.362824  0.940843  1
  Mn  Mn7  1  0.500000  0.855399  0.562769  1
  Si  Si8  1  0.000000  0.273137  0.122996  1
  Si  Si9  1  0.000000  0.772042  0.375590  1
  Si  Si10  1  0.500000  0.726815  0.881464  1
  Ge  Ge11  1  0.500000  0.229624  0.621499  1
