# generated using pymatgen
data_La6Yb2TlPd24
_symmetry_space_group_name_H-M   'P 1'
_cell_length_a   8.53827104
_cell_length_b   8.53827106
_cell_length_c   8.53827100
_cell_angle_alpha   89.92136673
_cell_angle_beta   89.92136673
_cell_angle_gamma   89.92136626
_symmetry_Int_Tables_number   1
_chemical_formula_structural   La6Yb2TlPd24
_chemical_formula_sum   'La6 Yb2 Tl1 Pd24'
_cell_volume   622.45589473
_cell_formula_units_Z   1
loop_
 _symmetry_equiv_pos_site_id
 _symmetry_equiv_pos_as_xyz
  1  'x, y, z'
loop_
 _atom_site_type_symbol
 _atom_site_label
 _atom_site_symmetry_multiplicity
 _atom_site_fract_x
 _atom_site_fract_y
 _atom_site_fract_z
 _atom_site_occupancy
  La  La0  1  0.746959  0.746924  0.248188  1
  La  La1  1  0.746963  0.248200  0.746922  1
  La  La2  1  0.253040  0.253076  0.751811  1
  La  La3  1  0.253036  0.751799  0.253079  1
  La  La4  1  0.248171  0.746923  0.746922  1
  La  La5  1  0.751830  0.253076  0.253076  1
  Yb  Yb6  1  0.248968  0.248985  0.248979  1
  Yb  Yb7  1  0.751034  0.751016  0.751023  1
  Tl  Tl8  1  0.000000  0.000000  0.000000  1
  Pd  Pd9  1  0.269116  0.499378  0.006181  1
  Pd  Pd10  1  0.730882  0.500622  0.993819  1
  Pd  Pd11  1  0.006181  0.269210  0.499370  1
  Pd  Pd12  1  0.499368  0.269342  0.006174  1
  Pd  Pd13  1  0.993819  0.730790  0.500629  1
  Pd  Pd14  1  0.500632  0.730658  0.993826  1
  Pd  Pd15  1  0.499369  0.006182  0.269333  1
  Pd  Pd16  1  0.269137  0.006186  0.499376  1
  Pd  Pd17  1  0.500631  0.993818  0.730667  1
  Pd  Pd18  1  0.730863  0.993814  0.500624  1
  Pd  Pd19  1  0.006186  0.499376  0.269176  1
  Pd  Pd20  1  0.993814  0.500624  0.730824  1
  Pd  Pd21  1  0.256342  0.497186  0.497189  1
  Pd  Pd22  1  0.743658  0.502814  0.502811  1
  Pd  Pd23  1  0.497183  0.256388  0.497205  1
  Pd  Pd24  1  0.502817  0.743612  0.502795  1
  Pd  Pd25  1  0.497186  0.497206  0.256362  1
  Pd  Pd26  1  0.502815  0.502793  0.743637  1
  Pd  Pd27  1  0.320427  0.002365  0.002362  1
  Pd  Pd28  1  0.679573  0.997635  0.997637  1
  Pd  Pd29  1  0.002340  0.320720  0.002329  1
  Pd  Pd30  1  0.997660  0.679279  0.997671  1
  Pd  Pd31  1  0.002348  0.002333  0.320677  1
  Pd  Pd32  1  0.997652  0.997667  0.679325  1
