# generated using pymatgen
data_Zr3TaNb2(SiTc)6
_symmetry_space_group_name_H-M   'P 1'
_cell_length_a   3.37882500
_cell_length_b   6.96686859
_cell_length_c   11.94100974
_cell_angle_alpha   89.77727963
_cell_angle_beta   90.00000000
_cell_angle_gamma   90.00000000
_symmetry_Int_Tables_number   1
_chemical_formula_structural   Zr3TaNb2(SiTc)6
_chemical_formula_sum   'Zr3 Ta1 Nb2 Si6 Tc6'
_cell_volume   281.08721286
_cell_formula_units_Z   1
loop_
 _symmetry_equiv_pos_site_id
 _symmetry_equiv_pos_as_xyz
  1  'x, y, z'
loop_
 _atom_site_type_symbol
 _atom_site_label
 _atom_site_symmetry_multiplicity
 _atom_site_fract_x
 _atom_site_fract_y
 _atom_site_fract_z
 _atom_site_occupancy
  Zr  Zr0  1  0.500000  0.297058  0.298471  1
  Zr  Zr1  1  0.500000  0.295340  0.701287  1
  Zr  Zr2  1  0.500000  0.798560  0.201941  1
  Ta  Ta3  1  0.500000  0.796596  0.799519  1
  Nb  Nb4  1  0.500000  0.405505  0.999243  1
  Nb  Nb5  1  0.500000  0.902558  0.501832  1
  Si  Si6  1  0.500000  0.004871  0.998393  1
  Si  Si7  1  0.500000  0.503154  0.499940  1
  Si  Si8  1  0.000000  0.991820  0.667081  1
  Si  Si9  1  0.000000  0.498723  0.160947  1
  Si  Si10  1  0.000000  0.502851  0.835401  1
  Si  Si11  1  0.000000  0.997189  0.339027  1
  Tc  Tc12  1  0.000000  0.246287  0.502071  1
  Tc  Tc13  1  0.000000  0.748941  0.995415  1
  Tc  Tc14  1  0.000000  0.628705  0.628747  1
  Tc  Tc15  1  0.000000  0.128845  0.124260  1
  Tc  Tc16  1  0.000000  0.125285  0.871785  1
  Tc  Tc17  1  0.000000  0.627908  0.374639  1
