# generated using pymatgen
data_Lu8In2IrRh
_symmetry_space_group_name_H-M   'P 1'
_cell_length_a   9.46505946
_cell_length_b   9.46506003
_cell_length_c   9.48627100
_cell_angle_alpha   59.92584490
_cell_angle_beta   59.92584290
_cell_angle_gamma   59.90829778
_symmetry_Int_Tables_number   1
_chemical_formula_structural   Lu8In2IrRh
_chemical_formula_sum   'Lu16 In4 Ir2 Rh2'
_cell_volume   599.84402821
_cell_formula_units_Z   2
loop_
 _symmetry_equiv_pos_site_id
 _symmetry_equiv_pos_as_xyz
  1  'x, y, z'
loop_
 _atom_site_type_symbol
 _atom_site_label
 _atom_site_symmetry_multiplicity
 _atom_site_fract_x
 _atom_site_fract_y
 _atom_site_fract_z
 _atom_site_occupancy
  Lu  Lu0  1  0.598969  0.598969  0.598463  1
  Lu  Lu1  1  0.598969  0.598969  0.203601  1
  Lu  Lu2  1  0.600764  0.201625  0.598806  1
  Lu  Lu3  1  0.201625  0.600764  0.598806  1
  Lu  Lu4  1  0.059114  0.439764  0.440776  1
  Lu  Lu5  1  0.439764  0.059114  0.060346  1
  Lu  Lu6  1  0.439764  0.059114  0.440776  1
  Lu  Lu7  1  0.059114  0.439764  0.060346  1
  Lu  Lu8  1  0.439907  0.439907  0.060093  1
  Lu  Lu9  1  0.060166  0.060166  0.439834  1
  Lu  Lu10  1  0.189259  0.810198  0.811789  1
  Lu  Lu11  1  0.810198  0.189259  0.188755  1
  Lu  Lu12  1  0.810198  0.189259  0.811789  1
  Lu  Lu13  1  0.189259  0.810198  0.188755  1
  Lu  Lu14  1  0.812292  0.812292  0.187708  1
  Lu  Lu15  1  0.190858  0.190858  0.809142  1
  In  In16  1  0.833462  0.833462  0.833387  1
  In  In17  1  0.833462  0.833462  0.499690  1
  In  In18  1  0.833484  0.500193  0.833162  1
  In  In19  1  0.500193  0.833484  0.833162  1
  Ir  Ir20  1  0.391284  0.391284  0.392268  1
  Ir  Ir21  1  0.391284  0.391284  0.825163  1
  Rh  Rh22  1  0.391267  0.825347  0.391692  1
  Rh  Rh23  1  0.825347  0.391267  0.391692  1
