# generated using pymatgen
data_HfV(As2O7)2
_symmetry_space_group_name_H-M   'P 1'
_cell_length_a   5.35280150
_cell_length_b   5.48276739
_cell_length_c   9.72012377
_cell_angle_alpha   80.24208438
_cell_angle_beta   82.43902515
_cell_angle_gamma   98.67798724
_symmetry_Int_Tables_number   1
_chemical_formula_structural   HfV(As2O7)2
_chemical_formula_sum   'Hf1 V1 As4 O14'
_cell_volume   274.28262029
_cell_formula_units_Z   1
loop_
 _symmetry_equiv_pos_site_id
 _symmetry_equiv_pos_as_xyz
  1  'x, y, z'
loop_
 _atom_site_type_symbol
 _atom_site_label
 _atom_site_symmetry_multiplicity
 _atom_site_fract_x
 _atom_site_fract_y
 _atom_site_fract_z
 _atom_site_occupancy
  Hf  Hf0  1  0.000000  0.000000  0.000000  1
  V  V1  1  0.000000  0.000000  0.500000  1
  As  As2  1  0.174277  0.434453  0.208085  1
  As  As3  1  0.447932  0.167147  0.692606  1
  As  As4  1  0.552068  0.832853  0.307394  1
  As  As5  1  0.825723  0.565547  0.791915  1
  O  O6  1  0.081501  0.702608  0.134737  1
  O  O7  1  0.765349  0.744484  0.913980  1
  O  O8  1  0.301110  0.978471  0.847987  1
  O  O9  1  0.036073  0.714177  0.642163  1
  O  O10  1  0.471750  0.528787  0.265291  1
  O  O11  1  0.717057  0.066085  0.632722  1
  O  O12  1  0.754693  0.778995  0.427341  1
  O  O13  1  0.245307  0.221005  0.572659  1
  O  O14  1  0.234651  0.255516  0.086020  1
  O  O15  1  0.698890  0.021529  0.152013  1
  O  O16  1  0.918499  0.297392  0.865263  1
  O  O17  1  0.963927  0.285823  0.357837  1
  O  O18  1  0.282943  0.933915  0.367278  1
  O  O19  1  0.528250  0.471213  0.734709  1
