# generated using pymatgen
data_Hf4FeSi3Ni3As
_symmetry_space_group_name_H-M   'P 1'
_cell_length_a   3.80440200
_cell_length_b   6.44345892
_cell_length_c   7.22534365
_cell_angle_alpha   90.52167591
_cell_angle_beta   90.00000000
_cell_angle_gamma   90.00000000
_symmetry_Int_Tables_number   1
_chemical_formula_structural   Hf4FeSi3Ni3As
_chemical_formula_sum   'Hf4 Fe1 Si3 Ni3 As1'
_cell_volume   177.11117779
_cell_formula_units_Z   1
loop_
 _symmetry_equiv_pos_site_id
 _symmetry_equiv_pos_as_xyz
  1  'x, y, z'
loop_
 _atom_site_type_symbol
 _atom_site_label
 _atom_site_symmetry_multiplicity
 _atom_site_fract_x
 _atom_site_fract_y
 _atom_site_fract_z
 _atom_site_occupancy
  Hf  Hf0  1  0.250000  0.017340  0.310541  1
  Hf  Hf1  1  0.250000  0.516539  0.182146  1
  Hf  Hf2  1  0.750000  0.981392  0.693692  1
  Hf  Hf3  1  0.750000  0.484472  0.816637  1
  Fe  Fe4  1  0.250000  0.135182  0.941858  1
  Si  Si5  1  0.250000  0.774538  0.888121  1
  Si  Si6  1  0.750000  0.729180  0.386116  1
  Si  Si7  1  0.750000  0.224767  0.106349  1
  Ni  Ni8  1  0.250000  0.653380  0.562701  1
  Ni  Ni9  1  0.750000  0.854114  0.064876  1
  Ni  Ni10  1  0.750000  0.358764  0.426781  1
  As  As11  1  0.250000  0.270332  0.620181  1
