# generated using pymatgen
data_Tb2YAl3Ga2Ni
_symmetry_space_group_name_H-M   'P 1'
_cell_length_a   6.97213200
_cell_length_b   6.96303341
_cell_length_c   4.26236700
_cell_angle_alpha   90.00000000
_cell_angle_beta   90.00000000
_cell_angle_gamma   120.04323466
_symmetry_Int_Tables_number   1
_chemical_formula_structural   Tb2YAl3Ga2Ni
_chemical_formula_sum   'Tb2 Y1 Al3 Ga2 Ni1'
_cell_volume   179.12499136
_cell_formula_units_Z   1
loop_
 _symmetry_equiv_pos_site_id
 _symmetry_equiv_pos_as_xyz
  1  'x, y, z'
loop_
 _atom_site_type_symbol
 _atom_site_label
 _atom_site_symmetry_multiplicity
 _atom_site_fract_x
 _atom_site_fract_y
 _atom_site_fract_z
 _atom_site_occupancy
  Tb  Tb0  1  0.999869  0.407336  0.500000  1
  Tb  Tb1  1  0.592532  0.592664  0.500000  1
  Y  Y2  1  0.407363  0.000000  0.500000  1
  Al  Al3  1  0.769346  0.000000  0.000000  1
  Al  Al4  1  0.000082  0.769527  0.000000  1
  Al  Al5  1  0.230555  0.230473  0.000000  1
  Ga  Ga6  1  0.333577  0.666825  0.000000  1
  Ga  Ga7  1  0.666753  0.333175  0.000000  1
  Ni  Ni8  1  0.999923  0.000000  0.500000  1
