# generated using pymatgen
data_Tb2YbNi19B10
_symmetry_space_group_name_H-M   'P 1'
_cell_length_a   7.86297832
_cell_length_b   7.86297763
_cell_length_c   5.75463784
_cell_angle_alpha   88.89337471
_cell_angle_beta   88.89337668
_cell_angle_gamma   67.34295835
_symmetry_Int_Tables_number   1
_chemical_formula_structural   Tb2YbNi19B10
_chemical_formula_sum   'Tb2 Yb1 Ni19 B10'
_cell_volume   328.24303124
_cell_formula_units_Z   1
loop_
 _symmetry_equiv_pos_site_id
 _symmetry_equiv_pos_as_xyz
  1  'x, y, z'
loop_
 _atom_site_type_symbol
 _atom_site_label
 _atom_site_symmetry_multiplicity
 _atom_site_fract_x
 _atom_site_fract_y
 _atom_site_fract_z
 _atom_site_occupancy
  Tb  Tb0  1  0.626202  0.626202  0.612485  1
  Tb  Tb1  1  0.373798  0.373798  0.387515  1
  Yb  Yb2  1  0.000000  0.000000  0.000000  1
  Ni  Ni3  1  0.622109  0.622109  0.125405  1
  Ni  Ni4  1  0.377891  0.377891  0.874595  1
  Ni  Ni5  1  0.837979  0.837979  0.704762  1
  Ni  Ni6  1  0.162021  0.162021  0.295238  1
  Ni  Ni7  1  0.819036  0.819036  0.269551  1
  Ni  Ni8  1  0.180964  0.180964  0.730449  1
  Ni  Ni9  1  0.000000  0.000000  0.500000  1
  Ni  Ni10  1  0.624653  0.121019  0.073119  1
  Ni  Ni11  1  0.375347  0.878981  0.926881  1
  Ni  Ni12  1  0.878981  0.375347  0.926881  1
  Ni  Ni13  1  0.121019  0.624653  0.073119  1
  Ni  Ni14  1  0.287055  0.771353  0.300511  1
  Ni  Ni15  1  0.712945  0.228647  0.699489  1
  Ni  Ni16  1  0.228647  0.712945  0.699489  1
  Ni  Ni17  1  0.771353  0.287055  0.300511  1
  Ni  Ni18  1  0.482334  0.954756  0.301174  1
  Ni  Ni19  1  0.517666  0.045244  0.698826  1
  Ni  Ni20  1  0.045244  0.517666  0.698826  1
  Ni  Ni21  1  0.954756  0.482334  0.301174  1
  B  B22  1  0.701352  0.063607  0.431224  1
  B  B23  1  0.298648  0.936393  0.568776  1
  B  B24  1  0.936393  0.298648  0.568776  1
  B  B25  1  0.063607  0.701352  0.431224  1
  B  B26  1  0.348898  0.142500  0.025528  1
  B  B27  1  0.651102  0.857500  0.974472  1
  B  B28  1  0.857500  0.651102  0.974472  1
  B  B29  1  0.142500  0.348898  0.025528  1
  B  B30  1  0.617136  0.382864  0.000000  1
  B  B31  1  0.382864  0.617136  0.000000  1
