# generated using pymatgen
data_Eu3ReN3
_symmetry_space_group_name_H-M   'P 1'
_cell_length_a   7.59894765
_cell_length_b   7.59317831
_cell_length_c   5.23550400
_cell_angle_alpha   90.00000000
_cell_angle_beta   90.00000000
_cell_angle_gamma   119.80845600
_symmetry_Int_Tables_number   1
_chemical_formula_structural   Eu3ReN3
_chemical_formula_sum   'Eu6 Re2 N6'
_cell_volume   262.12062158
_cell_formula_units_Z   2
loop_
 _symmetry_equiv_pos_site_id
 _symmetry_equiv_pos_as_xyz
  1  'x, y, z'
loop_
 _atom_site_type_symbol
 _atom_site_label
 _atom_site_symmetry_multiplicity
 _atom_site_fract_x
 _atom_site_fract_y
 _atom_site_fract_z
 _atom_site_occupancy
  Eu  Eu0  1  0.897453  0.636984  0.250000  1
  Eu  Eu1  1  0.738479  0.101006  0.250000  1
  Eu  Eu2  1  0.364505  0.263175  0.250000  1
  Eu  Eu3  1  0.102547  0.363016  0.750000  1
  Eu  Eu4  1  0.261521  0.898994  0.750000  1
  Eu  Eu5  1  0.635495  0.736825  0.750000  1
  Re  Re6  1  0.667873  0.333370  0.750000  1
  Re  Re7  1  0.332127  0.666630  0.250000  1
  N  N8  1  0.893492  0.597431  0.750000  1
  N  N9  1  0.700863  0.103848  0.750000  1
  N  N10  1  0.402818  0.297655  0.750000  1
  N  N11  1  0.106508  0.402569  0.250000  1
  N  N12  1  0.299137  0.896152  0.250000  1
  N  N13  1  0.597182  0.702345  0.250000  1
