# generated using pymatgen
data_Nd2ScAlIr2
_symmetry_space_group_name_H-M   'P 1'
_cell_length_a   4.36460800
_cell_length_b   7.23616700
_cell_length_c   8.30136600
_cell_angle_alpha   90.00000000
_cell_angle_beta   90.00000000
_cell_angle_gamma   90.00000000
_symmetry_Int_Tables_number   1
_chemical_formula_structural   Nd2ScAlIr2
_chemical_formula_sum   'Nd4 Sc2 Al2 Ir4'
_cell_volume   262.18231116
_cell_formula_units_Z   2
loop_
 _symmetry_equiv_pos_site_id
 _symmetry_equiv_pos_as_xyz
  1  'x, y, z'
loop_
 _atom_site_type_symbol
 _atom_site_label
 _atom_site_symmetry_multiplicity
 _atom_site_fract_x
 _atom_site_fract_y
 _atom_site_fract_z
 _atom_site_occupancy
  Nd  Nd0  1  0.750000  0.452633  0.178402  1
  Nd  Nd1  1  0.250000  0.047367  0.678402  1
  Nd  Nd2  1  0.750000  0.978690  0.321780  1
  Nd  Nd3  1  0.250000  0.521310  0.821780  1
  Sc  Sc4  1  0.750000  0.873742  0.938616  1
  Sc  Sc5  1  0.250000  0.626258  0.438616  1
  Al  Al6  1  0.750000  0.361141  0.564040  1
  Al  Al7  1  0.250000  0.138859  0.064040  1
  Ir  Ir8  1  0.750000  0.726659  0.615615  1
  Ir  Ir9  1  0.750000  0.233647  0.881546  1
  Ir  Ir10  1  0.250000  0.266353  0.381546  1
  Ir  Ir11  1  0.250000  0.773341  0.115615  1
