# generated using pymatgen
data_Na3AlB4O9
_symmetry_space_group_name_H-M   'P 1'
_cell_length_a   8.78282400
_cell_length_b   6.26241262
_cell_length_c   6.86971944
_cell_angle_alpha   81.13011816
_cell_angle_beta   90.00000000
_cell_angle_gamma   90.00000000
_symmetry_Int_Tables_number   1
_chemical_formula_structural   Na3AlB4O9
_chemical_formula_sum   'Na6 Al2 B8 O18'
_cell_volume   373.32738656
_cell_formula_units_Z   2
loop_
 _symmetry_equiv_pos_site_id
 _symmetry_equiv_pos_as_xyz
  1  'x, y, z'
loop_
 _atom_site_type_symbol
 _atom_site_label
 _atom_site_symmetry_multiplicity
 _atom_site_fract_x
 _atom_site_fract_y
 _atom_site_fract_z
 _atom_site_occupancy
  Na  Na0  1  0.464541  0.749504  0.178807  1
  Na  Na1  1  0.035459  0.749504  0.178807  1
  Na  Na2  1  0.750000  0.575431  0.490618  1
  Na  Na3  1  0.250000  0.424569  0.509382  1
  Na  Na4  1  0.964541  0.250496  0.821193  1
  Na  Na5  1  0.535459  0.250496  0.821193  1
  Al  Al6  1  0.750000  0.792050  0.857596  1
  Al  Al7  1  0.250000  0.207950  0.142404  1
  B  B8  1  0.750000  0.987913  0.208107  1
  B  B9  1  0.250000  0.883260  0.478277  1
  B  B10  1  0.456937  0.756206  0.721381  1
  B  B11  1  0.043063  0.756206  0.721381  1
  B  B12  1  0.956937  0.243794  0.278619  1
  B  B13  1  0.543063  0.243794  0.278619  1
  B  B14  1  0.750000  0.116740  0.521723  1
  B  B15  1  0.250000  0.012087  0.791893  1
  O  O16  1  0.391575  0.878433  0.851204  1
  O  O17  1  0.108425  0.878433  0.851204  1
  O  O18  1  0.750000  0.931856  0.420869  1
  O  O19  1  0.250000  0.938144  0.266980  1
  O  O20  1  0.389666  0.738066  0.542435  1
  O  O21  1  0.110334  0.738066  0.542435  1
  O  O22  1  0.750000  0.793379  0.114790  1
  O  O23  1  0.908798  0.646325  0.777939  1
  O  O24  1  0.591202  0.646325  0.777939  1
  O  O25  1  0.091202  0.353675  0.222061  1
  O  O26  1  0.408798  0.353675  0.222061  1
  O  O27  1  0.250000  0.206621  0.885210  1
  O  O28  1  0.889666  0.261934  0.457565  1
  O  O29  1  0.610334  0.261934  0.457565  1
  O  O30  1  0.750000  0.061856  0.733020  1
  O  O31  1  0.250000  0.068144  0.579131  1
  O  O32  1  0.891575  0.121567  0.148796  1
  O  O33  1  0.608425  0.121567  0.148796  1
