# generated using pymatgen
data_LiHf3(Co5As3)4
_symmetry_space_group_name_H-M   'P 1'
_cell_length_a   3.69762200
_cell_length_b   10.56618831
_cell_length_c   12.07132711
_cell_angle_alpha   90.12649600
_cell_angle_beta   90.00000000
_cell_angle_gamma   90.00000000
_symmetry_Int_Tables_number   1
_chemical_formula_structural   LiHf3(Co5As3)4
_chemical_formula_sum   'Li1 Hf3 Co20 As12'
_cell_volume   471.62282858
_cell_formula_units_Z   1
loop_
 _symmetry_equiv_pos_site_id
 _symmetry_equiv_pos_as_xyz
  1  'x, y, z'
loop_
 _atom_site_type_symbol
 _atom_site_label
 _atom_site_symmetry_multiplicity
 _atom_site_fract_x
 _atom_site_fract_y
 _atom_site_fract_z
 _atom_site_occupancy
  Li  Li0  1  0.750000  0.077523  0.798171  1
  Hf  Hf1  1  0.250000  0.577967  0.701223  1
  Hf  Hf2  1  0.250000  0.923049  0.201202  1
  Hf  Hf3  1  0.750000  0.421796  0.298134  1
  Co  Co4  1  0.250000  0.718873  0.992422  1
  Co  Co5  1  0.250000  0.784587  0.491177  1
  Co  Co6  1  0.750000  0.286614  0.004971  1
  Co  Co7  1  0.750000  0.214682  0.506851  1
  Co  Co8  1  0.250000  0.410838  0.483821  1
  Co  Co9  1  0.250000  0.090823  0.990048  1
  Co  Co10  1  0.750000  0.591255  0.515384  1
  Co  Co11  1  0.750000  0.907224  0.016888  1
  Co  Co12  1  0.250000  0.218605  0.181636  1
  Co  Co13  1  0.250000  0.287376  0.676274  1
  Co  Co14  1  0.750000  0.782774  0.823523  1
  Co  Co15  1  0.750000  0.717291  0.320476  1
  Co  Co16  1  0.250000  0.879979  0.697277  1
  Co  Co17  1  0.250000  0.612835  0.198732  1
  Co  Co18  1  0.750000  0.112372  0.300935  1
  Co  Co19  1  0.750000  0.387320  0.800806  1
  Co  Co20  1  0.250000  0.465586  0.929049  1
  Co  Co21  1  0.250000  0.032193  0.432484  1
  Co  Co22  1  0.750000  0.530534  0.069636  1
  Co  Co23  1  0.750000  0.968612  0.568858  1
  As  As24  1  0.250000  0.413558  0.114683  1
  As  As25  1  0.250000  0.084006  0.621814  1
  As  As26  1  0.750000  0.585370  0.884592  1
  As  As27  1  0.750000  0.914746  0.384830  1
  As  As28  1  0.250000  0.257998  0.865920  1
  As  As29  1  0.250000  0.234789  0.371279  1
  As  As30  1  0.750000  0.734670  0.130070  1
  As  As31  1  0.750000  0.765624  0.631419  1
  As  As32  1  0.250000  0.599275  0.388419  1
  As  As33  1  0.250000  0.907817  0.886443  1
  As  As34  1  0.750000  0.401169  0.610517  1
  As  As35  1  0.750000  0.100268  0.110036  1
