# generated using pymatgen
data_Na2(Al3Pt)3
_symmetry_space_group_name_H-M   'P 1'
_cell_length_a   7.58253313
_cell_length_b   7.58253307
_cell_length_c   9.58723000
_cell_angle_alpha   90.00000000
_cell_angle_beta   90.00000000
_cell_angle_gamma   119.58512230
_symmetry_Int_Tables_number   1
_chemical_formula_structural   Na2(Al3Pt)3
_chemical_formula_sum   'Na4 Al18 Pt6'
_cell_volume   479.35015596
_cell_formula_units_Z   2
loop_
 _symmetry_equiv_pos_site_id
 _symmetry_equiv_pos_as_xyz
  1  'x, y, z'
loop_
 _atom_site_type_symbol
 _atom_site_label
 _atom_site_symmetry_multiplicity
 _atom_site_fract_x
 _atom_site_fract_y
 _atom_site_fract_z
 _atom_site_occupancy
  Na  Na0  1  0.995500  0.670584  0.750000  1
  Na  Na1  1  0.004500  0.329416  0.250000  1
  Na  Na2  1  0.670584  0.995500  0.750000  1
  Na  Na3  1  0.329416  0.004500  0.250000  1
  Al  Al4  1  0.126425  0.126425  0.750000  1
  Al  Al5  1  0.873575  0.873575  0.250000  1
  Al  Al6  1  0.998870  0.334211  0.573677  1
  Al  Al7  1  0.001130  0.665789  0.426323  1
  Al  Al8  1  0.001130  0.665789  0.073677  1
  Al  Al9  1  0.334211  0.998870  0.926323  1
  Al  Al10  1  0.998870  0.334211  0.926323  1
  Al  Al11  1  0.665789  0.001130  0.073677  1
  Al  Al12  1  0.665789  0.001130  0.426323  1
  Al  Al13  1  0.334211  0.998870  0.573677  1
  Al  Al14  1  0.331357  0.331357  0.057753  1
  Al  Al15  1  0.668643  0.668643  0.942247  1
  Al  Al16  1  0.668643  0.668643  0.557753  1
  Al  Al17  1  0.331357  0.331357  0.442247  1
  Al  Al18  1  0.336064  0.545324  0.750000  1
  Al  Al19  1  0.663936  0.454676  0.250000  1
  Al  Al20  1  0.545324  0.336064  0.750000  1
  Al  Al21  1  0.454676  0.663936  0.250000  1
  Pt  Pt22  1  0.669738  0.330262  0.500000  1
  Pt  Pt23  1  0.330262  0.669738  0.500000  1
  Pt  Pt24  1  0.330262  0.669738  0.000000  1
  Pt  Pt25  1  0.669738  0.330262  0.000000  1
  Pt  Pt26  1  0.000000  0.000000  0.500000  1
  Pt  Pt27  1  0.000000  0.000000  0.000000  1
