# generated using pymatgen
data_NdNiBiSb
_symmetry_space_group_name_H-M   'P 1'
_cell_length_a   4.50106900
_cell_length_b   4.50106900
_cell_length_c   9.79154800
_cell_angle_alpha   90.00000000
_cell_angle_beta   90.00000000
_cell_angle_gamma   90.00000000
_symmetry_Int_Tables_number   1
_chemical_formula_structural   NdNiBiSb
_chemical_formula_sum   'Nd2 Ni2 Bi2 Sb2'
_cell_volume   198.37306267
_cell_formula_units_Z   2
loop_
 _symmetry_equiv_pos_site_id
 _symmetry_equiv_pos_as_xyz
  1  'x, y, z'
loop_
 _atom_site_type_symbol
 _atom_site_label
 _atom_site_symmetry_multiplicity
 _atom_site_fract_x
 _atom_site_fract_y
 _atom_site_fract_z
 _atom_site_occupancy
  Nd  Nd0  1  0.000000  0.500000  0.728503  1
  Nd  Nd1  1  0.500000  0.000000  0.271497  1
  Ni  Ni2  1  0.500000  0.500000  0.500000  1
  Ni  Ni3  1  0.000000  0.000000  0.500000  1
  Bi  Bi4  1  0.500000  0.500000  0.000000  1
  Bi  Bi5  1  0.000000  0.000000  0.000000  1
  Sb  Sb6  1  0.000000  0.500000  0.368976  1
  Sb  Sb7  1  0.500000  0.000000  0.631024  1
