# generated using pymatgen
data_Tb5TiRuO12
_symmetry_space_group_name_H-M   'P 1'
_cell_length_a   6.87534851
_cell_length_b   6.87534955
_cell_length_c   7.33175924
_cell_angle_alpha   74.42766372
_cell_angle_beta   74.42766214
_cell_angle_gamma   50.69427743
_symmetry_Int_Tables_number   1
_chemical_formula_structural   Tb5TiRuO12
_chemical_formula_sum   'Tb5 Ti1 Ru1 O12'
_cell_volume   256.06711643
_cell_formula_units_Z   1
loop_
 _symmetry_equiv_pos_site_id
 _symmetry_equiv_pos_as_xyz
  1  'x, y, z'
loop_
 _atom_site_type_symbol
 _atom_site_label
 _atom_site_symmetry_multiplicity
 _atom_site_fract_x
 _atom_site_fract_y
 _atom_site_fract_z
 _atom_site_occupancy
  Tb  Tb0  1  0.696177  0.689025  0.668281  1
  Tb  Tb1  1  0.695369  0.700306  0.140507  1
  Tb  Tb2  1  0.996734  0.003266  0.000000  1
  Tb  Tb3  1  0.299694  0.304631  0.859493  1
  Tb  Tb4  1  0.310975  0.303823  0.331719  1
  Ti  Ti5  1  0.232529  0.767471  0.500000  1
  Ru  Ru6  1  0.750619  0.249381  0.500000  1
  O  O7  1  0.401559  0.904147  0.924665  1
  O  O8  1  0.576749  0.094944  0.583486  1
  O  O9  1  0.905056  0.423251  0.416514  1
  O  O10  1  0.095853  0.598441  0.075335  1
  O  O11  1  0.999488  0.000323  0.316234  1
  O  O12  1  0.504453  0.496063  0.684634  1
  O  O13  1  0.902249  0.403911  0.926116  1
  O  O14  1  0.104411  0.571617  0.581437  1
  O  O15  1  0.428383  0.895589  0.418563  1
  O  O16  1  0.596089  0.097751  0.073884  1
  O  O17  1  0.503937  0.495547  0.315366  1
  O  O18  1  0.999677  0.000512  0.683766  1
