# generated using pymatgen
data_Ta4Ti3CuOs8
_symmetry_space_group_name_H-M   'P 1'
_cell_length_a   6.26369500
_cell_length_b   4.42944600
_cell_length_c   8.87397500
_cell_angle_alpha   90.00000000
_cell_angle_beta   89.99994673
_cell_angle_gamma   90.00000000
_symmetry_Int_Tables_number   1
_chemical_formula_structural   Ta4Ti3CuOs8
_chemical_formula_sum   'Ta4 Ti3 Cu1 Os8'
_cell_volume   246.20576321
_cell_formula_units_Z   1
loop_
 _symmetry_equiv_pos_site_id
 _symmetry_equiv_pos_as_xyz
  1  'x, y, z'
loop_
 _atom_site_type_symbol
 _atom_site_label
 _atom_site_symmetry_multiplicity
 _atom_site_fract_x
 _atom_site_fract_y
 _atom_site_fract_z
 _atom_site_occupancy
  Ta  Ta0  1  0.749998  0.250000  0.124997  1
  Ta  Ta1  1  0.249999  0.749999  0.365420  1
  Ta  Ta2  1  0.750001  0.250000  0.624999  1
  Ta  Ta3  1  0.249999  0.749999  0.884563  1
  Ti  Ti4  1  0.749999  0.749999  0.373845  1
  Ti  Ti5  1  0.250001  0.250000  0.625006  1
  Ti  Ti6  1  0.750001  0.749999  0.876146  1
  Cu  Cu7  1  0.250003  0.250000  0.125021  1
  Os  Os8  1  0.504362  0.749999  0.124991  1
  Os  Os9  1  0.995638  0.749999  0.124992  1
  Os  Os10  1  0.501346  0.250000  0.378159  1
  Os  Os11  1  0.998652  0.250000  0.378158  1
  Os  Os12  1  0.002088  0.749999  0.624993  1
  Os  Os13  1  0.497913  0.749999  0.624993  1
  Os  Os14  1  0.998666  0.250000  0.871858  1
  Os  Os15  1  0.501333  0.250000  0.871858  1
