# generated using pymatgen
data_CaYb3(Sc3Sn4)2
_symmetry_space_group_name_H-M   'P 1'
_cell_length_a   7.67571148
_cell_length_b   8.02892517
_cell_length_c   15.04587900
_cell_angle_alpha   89.91480836
_cell_angle_beta   89.86133827
_cell_angle_gamma   90.22366968
_symmetry_Int_Tables_number   1
_chemical_formula_structural   CaYb3(Sc3Sn4)2
_chemical_formula_sum   'Ca2 Yb6 Sc12 Sn16'
_cell_volume   927.23229495
_cell_formula_units_Z   2
loop_
 _symmetry_equiv_pos_site_id
 _symmetry_equiv_pos_as_xyz
  1  'x, y, z'
loop_
 _atom_site_type_symbol
 _atom_site_label
 _atom_site_symmetry_multiplicity
 _atom_site_fract_x
 _atom_site_fract_y
 _atom_site_fract_z
 _atom_site_occupancy
  Ca  Ca0  1  0.495642  0.321935  0.407934  1
  Ca  Ca1  1  0.504358  0.678065  0.592066  1
  Yb  Yb2  1  0.995545  0.177724  0.092336  1
  Yb  Yb3  1  0.004455  0.822276  0.907664  1
  Yb  Yb4  1  0.505149  0.677573  0.907976  1
  Yb  Yb5  1  0.004947  0.822121  0.591742  1
  Yb  Yb6  1  0.494851  0.322427  0.092024  1
  Yb  Yb7  1  0.995053  0.177879  0.408258  1
  Sc  Sc8  1  0.163761  0.499926  0.750120  1
  Sc  Sc9  1  0.836239  0.500074  0.249880  1
  Sc  Sc10  1  0.336406  0.999464  0.249917  1
  Sc  Sc11  1  0.663594  0.000536  0.750083  1
  Sc  Sc12  1  0.331277  0.159050  0.625960  1
  Sc  Sc13  1  0.668723  0.840950  0.374040  1
  Sc  Sc14  1  0.168405  0.659352  0.374354  1
  Sc  Sc15  1  0.669591  0.841058  0.125991  1
  Sc  Sc16  1  0.831595  0.340648  0.625646  1
  Sc  Sc17  1  0.330409  0.158942  0.874009  1
  Sc  Sc18  1  0.831091  0.340570  0.874071  1
  Sc  Sc19  1  0.168909  0.659430  0.125929  1
  Sn  Sn20  1  0.025636  0.126718  0.749709  1
  Sn  Sn21  1  0.974364  0.873282  0.250291  1
  Sn  Sn22  1  0.473947  0.626383  0.249774  1
  Sn  Sn23  1  0.526053  0.373617  0.750226  1
  Sn  Sn24  1  0.302241  0.855244  0.750512  1
  Sn  Sn25  1  0.697759  0.144756  0.249488  1
  Sn  Sn26  1  0.196914  0.355663  0.250222  1
  Sn  Sn27  1  0.803086  0.644337  0.749778  1
  Sn  Sn28  1  0.171362  0.457537  0.543313  1
  Sn  Sn29  1  0.828638  0.542463  0.456687  1
  Sn  Sn30  1  0.327797  0.958689  0.456537  1
  Sn  Sn31  1  0.828434  0.541658  0.043463  1
  Sn  Sn32  1  0.672203  0.041311  0.543463  1
  Sn  Sn33  1  0.171566  0.458342  0.956537  1
  Sn  Sn34  1  0.671451  0.041385  0.956503  1
  Sn  Sn35  1  0.328549  0.958615  0.043497  1
