# generated using pymatgen
data_K8Mn5Fe3P8(O4F)8
_symmetry_space_group_name_H-M   'P 1'
_cell_length_a   6.44680100
_cell_length_b   10.80440100
_cell_length_c   13.05242200
_cell_angle_alpha   90.00000000
_cell_angle_beta   90.00000000
_cell_angle_gamma   90.00000000
_symmetry_Int_Tables_number   1
_chemical_formula_structural   K8Mn5Fe3P8(O4F)8
_chemical_formula_sum   'K8 Mn5 Fe3 P8 O32 F8'
_cell_volume   909.15109394
_cell_formula_units_Z   1
loop_
 _symmetry_equiv_pos_site_id
 _symmetry_equiv_pos_as_xyz
  1  'x, y, z'
loop_
 _atom_site_type_symbol
 _atom_site_label
 _atom_site_symmetry_multiplicity
 _atom_site_fract_x
 _atom_site_fract_y
 _atom_site_fract_z
 _atom_site_occupancy
  K  K0  1  0.770194  0.200119  0.375469  1
  K  K1  1  0.305466  0.942538  0.894004  1
  K  K2  1  0.804025  0.446866  0.604238  1
  K  K3  1  0.193303  0.941895  0.396149  1
  K  K4  1  0.694644  0.439840  0.103450  1
  K  K5  1  0.270843  0.701942  0.125045  1
  K  K6  1  0.728659  0.203219  0.874790  1
  K  K7  1  0.230369  0.702705  0.623842  1
  Mn  Mn8  1  0.751831  0.748456  0.253731  1
  Mn  Mn9  1  0.249422  0.249998  0.747710  1
  Mn  Mn10  1  0.750100  0.749962  0.752495  1
  Mn  Mn11  1  0.252427  0.246439  0.246039  1
  Mn  Mn12  1  0.489998  0.494047  0.385154  1
  Fe  Fe13  1  0.506696  0.999691  0.613224  1
  Fe  Fe14  1  0.005077  0.499119  0.886693  1
  Fe  Fe15  1  0.995024  0.998562  0.112223  1
  P  P16  1  0.998942  0.493658  0.319108  1
  P  P17  1  0.498374  0.995581  0.180807  1
  P  P18  1  0.501060  0.498365  0.819047  1
  P  P19  1  0.000571  0.997601  0.681014  1
  P  P20  1  0.170649  0.247552  0.998136  1
  P  P21  1  0.828708  0.747293  0.001284  1
  P  P22  1  0.327215  0.249823  0.501199  1
  P  P23  1  0.669751  0.749559  0.499809  1
  O  O24  1  0.311564  0.967675  0.110467  1
  O  O25  1  0.811478  0.026085  0.613413  1
  O  O26  1  0.309934  0.526891  0.885516  1
  O  O27  1  0.690268  0.025619  0.115542  1
  O  O28  1  0.048166  0.381853  0.245368  1
  O  O29  1  0.955686  0.884444  0.754476  1
  O  O30  1  0.458424  0.385731  0.745840  1
  O  O31  1  0.539704  0.882344  0.253614  1
  O  O32  1  0.523464  0.863694  0.512167  1
  O  O33  1  0.478856  0.362319  0.485044  1
  O  O34  1  0.979566  0.858471  0.014825  1
  O  O35  1  0.019628  0.358711  0.985125  1
  O  O36  1  0.808904  0.462793  0.387007  1
  O  O37  1  0.189901  0.968337  0.612377  1
  O  O38  1  0.688491  0.469450  0.888809  1
  O  O39  1  0.185687  0.521632  0.389372  1
  O  O40  1  0.532089  0.633664  0.491509  1
  O  O41  1  0.471117  0.135534  0.514110  1
  O  O42  1  0.967027  0.629985  0.989610  1
  O  O43  1  0.443008  0.105156  0.255676  1
  O  O44  1  0.809117  0.767888  0.402789  1
  O  O45  1  0.191861  0.271340  0.597790  1
  O  O46  1  0.687357  0.767294  0.907101  1
  O  O47  1  0.314197  0.265999  0.091189  1
  O  O48  1  0.693317  0.729246  0.099856  1
  O  O49  1  0.306071  0.230428  0.899826  1
  O  O50  1  0.813083  0.735249  0.595258  1
  O  O51  1  0.188332  0.230595  0.406205  1
  O  O52  1  0.947763  0.604667  0.246056  1
  O  O53  1  0.052277  0.107549  0.755055  1
  O  O54  1  0.554924  0.609119  0.745151  1
  O  O55  1  0.032238  0.129940  0.010049  1
  F  F56  1  0.996990  0.871488  0.226057  1
  F  F57  1  0.001898  0.372322  0.773767  1
  F  F58  1  0.506407  0.869454  0.725436  1
  F  F59  1  0.497251  0.358888  0.268328  1
  F  F60  1  0.018111  0.117997  0.230218  1
  F  F61  1  0.984063  0.617891  0.769159  1
  F  F62  1  0.486372  0.114365  0.732025  1
  F  F63  1  0.512064  0.610269  0.274157  1
