# generated using pymatgen
data_Cd3HgRu3RhO14
_symmetry_space_group_name_H-M   'P 1'
_cell_length_a   7.31337652
_cell_length_b   7.21709838
_cell_length_c   7.31337600
_cell_angle_alpha   59.55771941
_cell_angle_beta   60.00000234
_cell_angle_gamma   59.55771862
_symmetry_Int_Tables_number   1
_chemical_formula_structural   Cd3HgRu3RhO14
_chemical_formula_sum   'Cd3 Hg1 Ru3 Rh1 O14'
_cell_volume   271.11128670
_cell_formula_units_Z   1
loop_
 _symmetry_equiv_pos_site_id
 _symmetry_equiv_pos_as_xyz
  1  'x, y, z'
loop_
 _atom_site_type_symbol
 _atom_site_label
 _atom_site_symmetry_multiplicity
 _atom_site_fract_x
 _atom_site_fract_y
 _atom_site_fract_z
 _atom_site_occupancy
  Cd  Cd0  1  0.125000  0.125000  0.625000  1
  Cd  Cd1  1  0.625000  0.125000  0.125000  1
  Cd  Cd2  1  0.125000  0.125000  0.125000  1
  Hg  Hg3  1  0.125000  0.625000  0.125000  1
  Ru  Ru4  1  0.625000  0.625000  0.125000  1
  Ru  Ru5  1  0.125000  0.625000  0.625000  1
  Ru  Ru6  1  0.625000  0.625000  0.625000  1
  Rh  Rh7  1  0.625000  0.125000  0.625000  1
  O  O8  1  0.692527  0.682777  0.312349  1
  O  O9  1  0.937651  0.567223  0.557473  1
  O  O10  1  0.547408  0.949614  0.955569  1
  O  O11  1  0.955569  0.949614  0.547408  1
  O  O12  1  0.937651  0.567223  0.937651  1
  O  O13  1  0.547408  0.949614  0.547408  1
  O  O14  1  0.312349  0.682777  0.312349  1
  O  O15  1  0.312349  0.682777  0.692527  1
  O  O16  1  0.702592  0.300386  0.294431  1
  O  O17  1  0.702592  0.300386  0.702592  1
  O  O18  1  0.557473  0.567223  0.937651  1
  O  O19  1  0.294431  0.300386  0.702592  1
  O  O20  1  0.246792  0.259625  0.246792  1
  O  O21  1  0.003208  0.990375  0.003208  1
