# generated using pymatgen
data_LiDyY2(Co4P3)2
_symmetry_space_group_name_H-M   'P 1'
_cell_length_a   3.71726900
_cell_length_b   10.58476900
_cell_length_c   12.19793500
_cell_angle_alpha   90.00000000
_cell_angle_beta   90.00000000
_cell_angle_gamma   90.00000000
_symmetry_Int_Tables_number   1
_chemical_formula_structural   LiDyY2(Co4P3)2
_chemical_formula_sum   'Li2 Dy2 Y4 Co16 P12'
_cell_volume   479.94524046
_cell_formula_units_Z   2
loop_
 _symmetry_equiv_pos_site_id
 _symmetry_equiv_pos_as_xyz
  1  'x, y, z'
loop_
 _atom_site_type_symbol
 _atom_site_label
 _atom_site_symmetry_multiplicity
 _atom_site_fract_x
 _atom_site_fract_y
 _atom_site_fract_z
 _atom_site_occupancy
  Li  Li0  1  0.500000  0.500000  0.152439  1
  Li  Li1  1  0.000000  0.000000  0.847471  1
  Dy  Dy2  1  0.500000  0.819328  0.205925  1
  Dy  Dy3  1  0.500000  0.180672  0.205925  1
  Y  Y4  1  0.000000  0.500000  0.522738  1
  Y  Y5  1  0.500000  0.000000  0.477185  1
  Y  Y6  1  0.000000  0.680882  0.794162  1
  Y  Y7  1  0.000000  0.319118  0.794162  1
  Co  Co8  1  0.500000  0.500000  0.704023  1
  Co  Co9  1  0.000000  0.000000  0.295800  1
  Co  Co10  1  0.000000  0.500000  0.987131  1
  Co  Co11  1  0.500000  0.000000  0.013023  1
  Co  Co12  1  0.500000  0.332825  0.997003  1
  Co  Co13  1  0.500000  0.667175  0.997003  1
  Co  Co14  1  0.000000  0.167195  0.003146  1
  Co  Co15  1  0.000000  0.832805  0.003146  1
  Co  Co16  1  0.500000  0.296586  0.431111  1
  Co  Co17  1  0.500000  0.703414  0.431111  1
  Co  Co18  1  0.000000  0.203335  0.568805  1
  Co  Co19  1  0.000000  0.796665  0.568805  1
  Co  Co20  1  0.500000  0.878724  0.706563  1
  Co  Co21  1  0.500000  0.121276  0.706563  1
  Co  Co22  1  0.000000  0.621428  0.293365  1
  Co  Co23  1  0.000000  0.378572  0.293365  1
  P  P24  1  0.500000  0.500000  0.885147  1
  P  P25  1  0.000000  0.000000  0.114973  1
  P  P26  1  0.500000  0.500000  0.345345  1
  P  P27  1  0.000000  0.000000  0.654640  1
  P  P28  1  0.500000  0.309276  0.615765  1
  P  P29  1  0.500000  0.690724  0.615765  1
  P  P30  1  0.000000  0.190665  0.384110  1
  P  P31  1  0.000000  0.809335  0.384110  1
  P  P32  1  0.500000  0.843683  0.893683  1
  P  P33  1  0.500000  0.156317  0.893683  1
  P  P34  1  0.000000  0.656510  0.106404  1
  P  P35  1  0.000000  0.343490  0.106404  1
