# generated using pymatgen
data_Tb11ThCo3Ni
_symmetry_space_group_name_H-M   'P 1'
_cell_length_a   6.27578052
_cell_length_b   6.92237877
_cell_length_c   9.61736500
_cell_angle_alpha   90.00000000
_cell_angle_beta   90.00000000
_cell_angle_gamma   91.15137760
_symmetry_Int_Tables_number   1
_chemical_formula_structural   Tb11ThCo3Ni
_chemical_formula_sum   'Tb11 Th1 Co3 Ni1'
_cell_volume   417.72600203
_cell_formula_units_Z   1
loop_
 _symmetry_equiv_pos_site_id
 _symmetry_equiv_pos_as_xyz
  1  'x, y, z'
loop_
 _atom_site_type_symbol
 _atom_site_label
 _atom_site_symmetry_multiplicity
 _atom_site_fract_x
 _atom_site_fract_y
 _atom_site_fract_z
 _atom_site_occupancy
  Tb  Tb0  1  0.325014  0.674360  0.068302  1
  Tb  Tb1  1  0.173660  0.174003  0.428842  1
  Tb  Tb2  1  0.674850  0.327664  0.567644  1
  Tb  Tb3  1  0.824189  0.824398  0.932076  1
  Tb  Tb4  1  0.674850  0.327664  0.932356  1
  Tb  Tb5  1  0.824189  0.824398  0.567924  1
  Tb  Tb6  1  0.325014  0.674360  0.431698  1
  Tb  Tb7  1  0.173660  0.174003  0.071158  1
  Tb  Tb8  1  0.642263  0.043581  0.250000  1
  Tb  Tb9  1  0.149038  0.463195  0.750000  1
  Tb  Tb10  1  0.361132  0.957200  0.750000  1
  Th  Th11  1  0.846583  0.550478  0.250000  1
  Co  Co12  1  0.042183  0.867736  0.250000  1
  Co  Co13  1  0.464991  0.390721  0.250000  1
  Co  Co14  1  0.555635  0.612848  0.750000  1
  Ni  Ni15  1  0.942750  0.113390  0.750000  1
