# generated using pymatgen
data_Pr4HoP12Ru19
_symmetry_space_group_name_H-M   'P 1'
_cell_length_a   12.64301600
_cell_length_b   12.64301597
_cell_length_c   4.01935100
_cell_angle_alpha   90.00000000
_cell_angle_beta   90.00000000
_cell_angle_gamma   120.00000008
_symmetry_Int_Tables_number   1
_chemical_formula_structural   Pr4HoP12Ru19
_chemical_formula_sum   'Pr4 Ho1 P12 Ru19'
_cell_volume   556.40104765
_cell_formula_units_Z   1
loop_
 _symmetry_equiv_pos_site_id
 _symmetry_equiv_pos_as_xyz
  1  'x, y, z'
loop_
 _atom_site_type_symbol
 _atom_site_label
 _atom_site_symmetry_multiplicity
 _atom_site_fract_x
 _atom_site_fract_y
 _atom_site_fract_z
 _atom_site_occupancy
  Pr  Pr0  1  0.999879  0.183931  0.500000  1
  Pr  Pr1  1  0.816069  0.815948  0.500000  1
  Pr  Pr2  1  0.184052  0.000121  0.500000  1
  Pr  Pr3  1  0.666667  0.333333  0.000000  1
  Ho  Ho4  1  0.333333  0.666667  0.000000  1
  P  P5  1  0.001282  0.812318  0.000000  1
  P  P6  1  0.187682  0.188965  0.000000  1
  P  P7  1  0.811035  0.998718  0.000000  1
  P  P8  1  0.694463  0.170347  0.500000  1
  P  P9  1  0.829653  0.524116  0.500000  1
  P  P10  1  0.475884  0.305537  0.500000  1
  P  P11  1  0.174003  0.694807  0.500000  1
  P  P12  1  0.520805  0.825997  0.500000  1
  P  P13  1  0.305193  0.479195  0.500000  1
  P  P14  1  0.999900  0.374643  0.000000  1
  P  P15  1  0.625357  0.625257  0.000000  1
  P  P16  1  0.374743  0.000100  0.000000  1
  Ru  Ru17  1  0.000396  0.554500  0.000000  1
  Ru  Ru18  1  0.445500  0.445896  0.000000  1
  Ru  Ru19  1  0.554104  0.999604  0.000000  1
  Ru  Ru20  1  0.001672  0.714300  0.500000  1
  Ru  Ru21  1  0.285700  0.287372  0.500000  1
  Ru  Ru22  1  0.712628  0.998328  0.500000  1
  Ru  Ru23  1  0.805107  0.183626  0.000000  1
  Ru  Ru24  1  0.816374  0.621481  0.000000  1
  Ru  Ru25  1  0.378519  0.194893  0.000000  1
  Ru  Ru26  1  0.186181  0.804415  0.000000  1
  Ru  Ru27  1  0.618234  0.813819  0.000000  1
  Ru  Ru28  1  0.195585  0.381766  0.000000  1
  Ru  Ru29  1  0.876667  0.366880  0.500000  1
  Ru  Ru30  1  0.633120  0.509787  0.500000  1
  Ru  Ru31  1  0.490213  0.123333  0.500000  1
  Ru  Ru32  1  0.367439  0.873122  0.500000  1
  Ru  Ru33  1  0.505683  0.632561  0.500000  1
  Ru  Ru34  1  0.126878  0.494317  0.500000  1
  Ru  Ru35  1  0.000000  0.000000  0.000000  1
