# generated using pymatgen
data_Lu16TlIn5CoTc
_symmetry_space_group_name_H-M   'P 1'
_cell_length_a   10.19400600
_cell_length_b   10.18920054
_cell_length_c   6.89869844
_cell_angle_alpha   90.06422919
_cell_angle_beta   90.00000000
_cell_angle_gamma   120.01560239
_symmetry_Int_Tables_number   1
_chemical_formula_structural   Lu16TlIn5CoTc
_chemical_formula_sum   'Lu16 Tl1 In5 Co1 Tc1'
_cell_volume   620.46047696
_cell_formula_units_Z   1
loop_
 _symmetry_equiv_pos_site_id
 _symmetry_equiv_pos_as_xyz
  1  'x, y, z'
loop_
 _atom_site_type_symbol
 _atom_site_label
 _atom_site_symmetry_multiplicity
 _atom_site_fract_x
 _atom_site_fract_y
 _atom_site_fract_z
 _atom_site_occupancy
  Lu  Lu0  1  0.531443  0.062888  0.525078  1
  Lu  Lu1  1  0.936386  0.468503  0.523361  1
  Lu  Lu2  1  0.532116  0.468503  0.523361  1
  Lu  Lu3  1  0.465291  0.930582  0.024710  1
  Lu  Lu4  1  0.070689  0.533879  0.025793  1
  Lu  Lu5  1  0.463191  0.533879  0.025793  1
  Lu  Lu6  1  0.179889  0.359778  0.729037  1
  Lu  Lu7  1  0.640910  0.820187  0.730567  1
  Lu  Lu8  1  0.179277  0.820187  0.730567  1
  Lu  Lu9  1  0.822658  0.645315  0.222473  1
  Lu  Lu10  1  0.354154  0.176700  0.226230  1
  Lu  Lu11  1  0.822548  0.176700  0.226230  1
  Lu  Lu12  1  0.666477  0.332952  0.900372  1
  Lu  Lu13  1  0.333575  0.667151  0.414202  1
  Lu  Lu14  1  0.000454  0.000908  0.505824  1
  Lu  Lu15  1  0.001384  0.002769  0.007303  1
  Tl  Tl16  1  0.837292  0.674584  0.767150  1
  In  In17  1  0.324714  0.162837  0.766594  1
  In  In18  1  0.838123  0.162837  0.766594  1
  In  In19  1  0.163213  0.326425  0.272665  1
  In  In20  1  0.673022  0.836328  0.272107  1
  In  In21  1  0.163307  0.836328  0.272107  1
  Co  Co22  1  0.333581  0.667163  0.799514  1
  Tc  Tc23  1  0.666308  0.332616  0.298045  1
