# generated using pymatgen
data_Ba3Dy2MoO9
_symmetry_space_group_name_H-M   'P 1'
_cell_length_a   6.09857100
_cell_length_b   6.09857126
_cell_length_c   7.46680400
_cell_angle_alpha   90.00000000
_cell_angle_beta   90.00000000
_cell_angle_gamma   119.99999317
_symmetry_Int_Tables_number   1
_chemical_formula_structural   Ba3Dy2MoO9
_chemical_formula_sum   'Ba3 Dy2 Mo1 O9'
_cell_volume   240.50361021
_cell_formula_units_Z   1
loop_
 _symmetry_equiv_pos_site_id
 _symmetry_equiv_pos_as_xyz
  1  'x, y, z'
loop_
 _atom_site_type_symbol
 _atom_site_label
 _atom_site_symmetry_multiplicity
 _atom_site_fract_x
 _atom_site_fract_y
 _atom_site_fract_z
 _atom_site_occupancy
  Ba  Ba0  1  0.000000  0.000000  0.500000  1
  Ba  Ba1  1  0.666667  0.333333  0.817463  1
  Ba  Ba2  1  0.333333  0.666667  0.182537  1
  Dy  Dy3  1  0.666667  0.333333  0.330927  1
  Dy  Dy4  1  0.333333  0.666667  0.669073  1
  Mo  Mo5  1  0.000000  0.000000  0.000000  1
  O  O6  1  0.695401  0.847701  0.850222  1
  O  O7  1  0.304599  0.152299  0.149778  1
  O  O8  1  0.000000  0.500000  0.500000  1
  O  O9  1  0.500000  0.000000  0.500000  1
  O  O10  1  0.152299  0.304599  0.850222  1
  O  O11  1  0.847701  0.695401  0.149778  1
  O  O12  1  0.500000  0.500000  0.500000  1
  O  O13  1  0.152299  0.847701  0.850222  1
  O  O14  1  0.847701  0.152299  0.149778  1
