# generated using pymatgen
data_PrEr3(WN3)4
_symmetry_space_group_name_H-M   'P 1'
_cell_length_a   7.30165252
_cell_length_b   7.30165262
_cell_length_c   6.25134531
_cell_angle_alpha   74.68740358
_cell_angle_beta   74.68740661
_cell_angle_gamma   82.43682523
_symmetry_Int_Tables_number   1
_chemical_formula_structural   PrEr3(WN3)4
_chemical_formula_sum   'Pr1 Er3 W4 N12'
_cell_volume   309.35477279
_cell_formula_units_Z   1
loop_
 _symmetry_equiv_pos_site_id
 _symmetry_equiv_pos_as_xyz
  1  'x, y, z'
loop_
 _atom_site_type_symbol
 _atom_site_label
 _atom_site_symmetry_multiplicity
 _atom_site_fract_x
 _atom_site_fract_y
 _atom_site_fract_z
 _atom_site_occupancy
  Pr  Pr0  1  0.701052  0.298948  0.750000  1
  Er  Er1  1  0.091147  0.908853  0.750000  1
  Er  Er2  1  0.291619  0.708381  0.250000  1
  Er  Er3  1  0.915205  0.084795  0.250000  1
  W  W4  1  0.379679  0.199547  0.243880  1
  W  W5  1  0.617408  0.800605  0.760952  1
  W  W6  1  0.800453  0.620321  0.256120  1
  W  W7  1  0.199395  0.382592  0.739048  1
  N  N8  1  0.623640  0.109680  0.168803  1
  N  N9  1  0.359209  0.360704  0.452291  1
  N  N10  1  0.008005  0.211742  0.852545  1
  N  N11  1  0.374794  0.894537  0.843628  1
  N  N12  1  0.788258  0.991995  0.647455  1
  N  N13  1  0.105463  0.625206  0.656372  1
  N  N14  1  0.890320  0.376360  0.331197  1
  N  N15  1  0.641233  0.649325  0.540739  1
  N  N16  1  0.639296  0.640791  0.047709  1
  N  N17  1  0.350675  0.358767  0.959261  1
  N  N18  1  0.003277  0.780128  0.148543  1
  N  N19  1  0.219872  0.996723  0.351457  1
