# generated using pymatgen
data_Tm3Pa(MnB6)2
_symmetry_space_group_name_H-M   'P 1'
_cell_length_a   3.56102200
_cell_length_b   9.02978421
_cell_length_c   11.37771676
_cell_angle_alpha   90.27105915
_cell_angle_beta   90.00000000
_cell_angle_gamma   90.00000000
_symmetry_Int_Tables_number   1
_chemical_formula_structural   Tm3Pa(MnB6)2
_chemical_formula_sum   'Tm6 Pa2 Mn4 B24'
_cell_volume   365.84934913
_cell_formula_units_Z   2
loop_
 _symmetry_equiv_pos_site_id
 _symmetry_equiv_pos_as_xyz
  1  'x, y, z'
loop_
 _atom_site_type_symbol
 _atom_site_label
 _atom_site_symmetry_multiplicity
 _atom_site_fract_x
 _atom_site_fract_y
 _atom_site_fract_z
 _atom_site_occupancy
  Tm  Tm0  1  0.000000  0.824941  0.084837  1
  Tm  Tm1  1  0.000000  0.175059  0.915163  1
  Tm  Tm2  1  0.000000  0.943222  0.369992  1
  Tm  Tm3  1  0.000000  0.056778  0.630008  1
  Tm  Tm4  1  0.000000  0.442628  0.128491  1
  Tm  Tm5  1  0.000000  0.557372  0.871509  1
  Pa  Pa6  1  0.000000  0.322946  0.413306  1
  Pa  Pa7  1  0.000000  0.677054  0.586694  1
  Mn  Mn8  1  0.000000  0.636015  0.323836  1
  Mn  Mn9  1  0.000000  0.363985  0.676164  1
  Mn  Mn10  1  0.000000  0.140663  0.182261  1
  Mn  Mn11  1  0.000000  0.859337  0.817739  1
  B  B12  1  0.500000  0.554420  0.431653  1
  B  B13  1  0.500000  0.445580  0.568347  1
  B  B14  1  0.500000  0.053966  0.067441  1
  B  B15  1  0.500000  0.946034  0.932559  1
  B  B16  1  0.500000  0.747762  0.417547  1
  B  B17  1  0.500000  0.252238  0.582453  1
  B  B18  1  0.500000  0.246864  0.080646  1
  B  B19  1  0.500000  0.753136  0.919354  1
  B  B20  1  0.500000  0.790354  0.265093  1
  B  B21  1  0.500000  0.209646  0.734907  1
  B  B22  1  0.500000  0.290229  0.232771  1
  B  B23  1  0.500000  0.709771  0.767229  1
  B  B24  1  0.500000  0.631712  0.185266  1
  B  B25  1  0.500000  0.368288  0.814734  1
  B  B26  1  0.500000  0.131308  0.313101  1
  B  B27  1  0.500000  0.868692  0.686899  1
  B  B28  1  0.500000  0.983760  0.210856  1
  B  B29  1  0.500000  0.016240  0.789144  1
  B  B30  1  0.500000  0.485306  0.287161  1
  B  B31  1  0.500000  0.514694  0.712839  1
  B  B32  1  0.500000  0.605281  0.029370  1
  B  B33  1  0.500000  0.394719  0.970630  1
  B  B34  1  0.500000  0.106868  0.470541  1
  B  B35  1  0.500000  0.893132  0.529459  1
