# generated using pymatgen
data_Nd4TaPd15
_symmetry_space_group_name_H-M   'P 1'
_cell_length_a   4.15642800
_cell_length_b   4.15642800
_cell_length_c   20.82138100
_cell_angle_alpha   90.00000000
_cell_angle_beta   90.00000000
_cell_angle_gamma   90.00000000
_symmetry_Int_Tables_number   1
_chemical_formula_structural   Nd4TaPd15
_chemical_formula_sum   'Nd4 Ta1 Pd15'
_cell_volume   359.70796524
_cell_formula_units_Z   1
loop_
 _symmetry_equiv_pos_site_id
 _symmetry_equiv_pos_as_xyz
  1  'x, y, z'
loop_
 _atom_site_type_symbol
 _atom_site_label
 _atom_site_symmetry_multiplicity
 _atom_site_fract_x
 _atom_site_fract_y
 _atom_site_fract_z
 _atom_site_occupancy
  Nd  Nd0  1  0.000000  0.000000  0.197309  1
  Nd  Nd1  1  0.000000  0.000000  0.398245  1
  Nd  Nd2  1  0.000000  0.000000  0.601755  1
  Nd  Nd3  1  0.000000  0.000000  0.802691  1
  Ta  Ta4  1  0.000000  0.000000  0.000000  1
  Pd  Pd5  1  0.500000  0.500000  0.000000  1
  Pd  Pd6  1  0.500000  0.500000  0.191704  1
  Pd  Pd7  1  0.500000  0.500000  0.397469  1
  Pd  Pd8  1  0.500000  0.500000  0.602531  1
  Pd  Pd9  1  0.500000  0.500000  0.808296  1
  Pd  Pd10  1  0.500000  0.000000  0.087810  1
  Pd  Pd11  1  0.500000  0.000000  0.295662  1
  Pd  Pd12  1  0.500000  0.000000  0.500000  1
  Pd  Pd13  1  0.500000  0.000000  0.704338  1
  Pd  Pd14  1  0.500000  0.000000  0.912190  1
  Pd  Pd15  1  0.000000  0.500000  0.087810  1
  Pd  Pd16  1  0.000000  0.500000  0.295662  1
  Pd  Pd17  1  0.000000  0.500000  0.500000  1
  Pd  Pd18  1  0.000000  0.500000  0.704338  1
  Pd  Pd19  1  0.000000  0.500000  0.912190  1
