# generated using pymatgen
data_YbHo5Er4(In2Pt)4
_symmetry_space_group_name_H-M   'P 1'
_cell_length_a   3.60329900
_cell_length_b   8.16204897
_cell_length_c   18.24131916
_cell_angle_alpha   89.94417705
_cell_angle_beta   90.00000000
_cell_angle_gamma   90.00000000
_symmetry_Int_Tables_number   1
_chemical_formula_structural   YbHo5Er4(In2Pt)4
_chemical_formula_sum   'Yb1 Ho5 Er4 In8 Pt4'
_cell_volume   536.48246704
_cell_formula_units_Z   1
loop_
 _symmetry_equiv_pos_site_id
 _symmetry_equiv_pos_as_xyz
  1  'x, y, z'
loop_
 _atom_site_type_symbol
 _atom_site_label
 _atom_site_symmetry_multiplicity
 _atom_site_fract_x
 _atom_site_fract_y
 _atom_site_fract_z
 _atom_site_occupancy
  Yb  Yb0  1  0.000000  0.000000  0.000000  1
  Ho  Ho1  1  0.000000  0.242985  0.220148  1
  Ho  Ho2  1  0.000000  0.757015  0.779852  1
  Ho  Ho3  1  0.000000  0.257111  0.720170  1
  Ho  Ho4  1  0.000000  0.742889  0.279830  1
  Ho  Ho5  1  0.000000  0.500000  0.500000  1
  Er  Er6  1  0.000000  0.117010  0.414344  1
  Er  Er7  1  0.000000  0.882990  0.585656  1
  Er  Er8  1  0.000000  0.382583  0.914308  1
  Er  Er9  1  0.000000  0.617417  0.085692  1
  In  In10  1  0.500000  0.423040  0.351160  1
  In  In11  1  0.500000  0.576960  0.648840  1
  In  In12  1  0.500000  0.076764  0.851007  1
  In  In13  1  0.500000  0.923236  0.148993  1
  In  In14  1  0.500000  0.293096  0.066575  1
  In  In15  1  0.500000  0.706904  0.933425  1
  In  In16  1  0.500000  0.207281  0.566356  1
  In  In17  1  0.500000  0.792719  0.433644  1
  Pt  Pt18  1  0.500000  0.024953  0.303653  1
  Pt  Pt19  1  0.500000  0.975047  0.696347  1
  Pt  Pt20  1  0.500000  0.475684  0.803505  1
  Pt  Pt21  1  0.500000  0.524316  0.196495  1
