# generated using pymatgen
data_EuLu(NiAs)2
_symmetry_space_group_name_H-M   'P 1'
_cell_length_a   4.04695800
_cell_length_b   4.04695799
_cell_length_c   16.15907200
_cell_angle_alpha   90.00000000
_cell_angle_beta   90.00000000
_cell_angle_gamma   119.99998375
_symmetry_Int_Tables_number   1
_chemical_formula_structural   EuLu(NiAs)2
_chemical_formula_sum   'Eu2 Lu2 Ni4 As4'
_cell_volume   229.19466912
_cell_formula_units_Z   2
loop_
 _symmetry_equiv_pos_site_id
 _symmetry_equiv_pos_as_xyz
  1  'x, y, z'
loop_
 _atom_site_type_symbol
 _atom_site_label
 _atom_site_symmetry_multiplicity
 _atom_site_fract_x
 _atom_site_fract_y
 _atom_site_fract_z
 _atom_site_occupancy
  Eu  Eu0  1  0.000000  0.000000  0.000000  1
  Eu  Eu1  1  0.000000  0.000000  0.500000  1
  Lu  Lu2  1  0.000000  0.000000  0.250000  1
  Lu  Lu3  1  0.000000  0.000000  0.750000  1
  Ni  Ni4  1  0.333333  0.666667  0.143214  1
  Ni  Ni5  1  0.666667  0.333333  0.856786  1
  Ni  Ni6  1  0.666667  0.333333  0.643214  1
  Ni  Ni7  1  0.333333  0.666667  0.356786  1
  As  As8  1  0.333333  0.666667  0.628091  1
  As  As9  1  0.666667  0.333333  0.371909  1
  As  As10  1  0.666667  0.333333  0.128091  1
  As  As11  1  0.333333  0.666667  0.871909  1
