# generated using pymatgen
data_Tm5Zr3(ReB6)4
_symmetry_space_group_name_H-M   'P 1'
_cell_length_a   3.60889300
_cell_length_b   9.03850367
_cell_length_c   11.39972807
_cell_angle_alpha   89.97162464
_cell_angle_beta   90.00000000
_cell_angle_gamma   90.00000000
_symmetry_Int_Tables_number   1
_chemical_formula_structural   Tm5Zr3(ReB6)4
_chemical_formula_sum   'Tm5 Zr3 Re4 B24'
_cell_volume   371.84760024
_cell_formula_units_Z   1
loop_
 _symmetry_equiv_pos_site_id
 _symmetry_equiv_pos_as_xyz
  1  'x, y, z'
loop_
 _atom_site_type_symbol
 _atom_site_label
 _atom_site_symmetry_multiplicity
 _atom_site_fract_x
 _atom_site_fract_y
 _atom_site_fract_z
 _atom_site_occupancy
  Tm  Tm0  1  0.000000  0.321436  0.412771  1
  Tm  Tm1  1  0.000000  0.678181  0.586056  1
  Tm  Tm2  1  0.000000  0.821585  0.086712  1
  Tm  Tm3  1  0.000000  0.178758  0.914258  1
  Tm  Tm4  1  0.000000  0.944032  0.372214  1
  Zr  Zr5  1  0.000000  0.056491  0.629189  1
  Zr  Zr6  1  0.000000  0.444077  0.127134  1
  Zr  Zr7  1  0.000000  0.556159  0.872572  1
  Re  Re8  1  0.000000  0.636233  0.318417  1
  Re  Re9  1  0.000000  0.360778  0.681735  1
  Re  Re10  1  0.000000  0.142106  0.178132  1
  Re  Re11  1  0.000000  0.860326  0.820281  1
  B  B12  1  0.500000  0.551973  0.433498  1
  B  B13  1  0.500000  0.446137  0.566257  1
  B  B14  1  0.500000  0.053974  0.066026  1
  B  B15  1  0.500000  0.946669  0.934078  1
  B  B16  1  0.500000  0.749449  0.418228  1
  B  B17  1  0.500000  0.248148  0.581970  1
  B  B18  1  0.500000  0.252283  0.080542  1
  B  B19  1  0.500000  0.748338  0.918987  1
  B  B20  1  0.500000  0.792870  0.263797  1
  B  B21  1  0.500000  0.205951  0.736655  1
  B  B22  1  0.500000  0.294311  0.234820  1
  B  B23  1  0.500000  0.705867  0.764157  1
  B  B24  1  0.500000  0.630297  0.183315  1
  B  B25  1  0.500000  0.369609  0.816729  1
  B  B26  1  0.500000  0.132049  0.315475  1
  B  B27  1  0.500000  0.869207  0.683700  1
  B  B28  1  0.500000  0.982975  0.212065  1
  B  B29  1  0.500000  0.018189  0.787844  1
  B  B30  1  0.500000  0.480667  0.286718  1
  B  B31  1  0.500000  0.518710  0.712705  1
  B  B32  1  0.500000  0.601425  0.027129  1
  B  B33  1  0.500000  0.399383  0.972290  1
  B  B34  1  0.500000  0.102553  0.474236  1
  B  B35  1  0.500000  0.898805  0.529304  1
