# generated using pymatgen
data_Tb15Dy5(IrPt2)4
_symmetry_space_group_name_H-M   'P 1'
_cell_length_a   11.09523602
_cell_length_b   11.09408501
_cell_length_c   6.35422701
_cell_angle_alpha   90.00041387
_cell_angle_beta   89.99365018
_cell_angle_gamma   89.99649864
_symmetry_Int_Tables_number   1
_chemical_formula_structural   Tb15Dy5(IrPt2)4
_chemical_formula_sum   'Tb15 Dy5 Ir4 Pt8'
_cell_volume   782.15127421
_cell_formula_units_Z   1
loop_
 _symmetry_equiv_pos_site_id
 _symmetry_equiv_pos_as_xyz
  1  'x, y, z'
loop_
 _atom_site_type_symbol
 _atom_site_label
 _atom_site_symmetry_multiplicity
 _atom_site_fract_x
 _atom_site_fract_y
 _atom_site_fract_z
 _atom_site_occupancy
  Tb  Tb0  1  0.294408  0.087895  0.375177  1
  Tb  Tb1  1  0.294476  0.912187  0.875235  1
  Tb  Tb2  1  0.705538  0.087826  0.875275  1
  Tb  Tb3  1  0.705545  0.912205  0.375273  1
  Tb  Tb4  1  0.587795  0.794500  0.875276  1
  Tb  Tb5  1  0.587792  0.205497  0.375292  1
  Tb  Tb6  1  0.412205  0.794471  0.375267  1
  Tb  Tb7  1  0.412163  0.205512  0.875312  1
  Tb  Tb8  1  0.205426  0.412088  0.624721  1
  Tb  Tb9  1  0.205474  0.587653  0.124752  1
  Tb  Tb10  1  0.794654  0.412111  0.124724  1
  Tb  Tb11  1  0.794496  0.587826  0.624719  1
  Tb  Tb12  1  0.912181  0.705492  0.124810  1
  Tb  Tb13  1  0.912304  0.294506  0.624687  1
  Tb  Tb14  1  0.087800  0.705534  0.624801  1
  Dy  Dy15  1  0.087757  0.294801  0.124536  1
  Dy  Dy16  1  0.000012  0.000033  0.499954  1
  Dy  Dy17  1  0.000055  0.000152  0.000061  1
  Dy  Dy18  1  0.500010  0.500013  0.000048  1
  Dy  Dy19  1  0.499971  0.499973  0.500006  1
  Ir  Ir20  1  0.499977  0.000014  0.120751  1
  Ir  Ir21  1  0.500003  0.999998  0.620794  1
  Ir  Ir22  1  0.000115  0.499738  0.879395  1
  Ir  Ir23  1  0.000078  0.499795  0.378965  1
  Pt  Pt24  1  0.847013  0.153246  0.249877  1
  Pt  Pt25  1  0.846845  0.846837  0.749953  1
  Pt  Pt26  1  0.153022  0.153346  0.750516  1
  Pt  Pt27  1  0.153150  0.846819  0.249977  1
  Pt  Pt28  1  0.653145  0.346870  0.749955  1
  Pt  Pt29  1  0.653132  0.653145  0.250003  1
  Pt  Pt30  1  0.346591  0.346787  0.249879  1
  Pt  Pt31  1  0.346865  0.653129  0.750007  1
