# generated using pymatgen
data_AcLuS3
_symmetry_space_group_name_H-M   'P 1'
_cell_length_a   6.71498797
_cell_length_b   6.71498833
_cell_length_c   9.69893400
_cell_angle_alpha   90.00000000
_cell_angle_beta   90.00000000
_cell_angle_gamma   145.24578806
_symmetry_Int_Tables_number   1
_chemical_formula_structural   AcLuS3
_chemical_formula_sum   'Ac2 Lu2 S6'
_cell_volume   249.30610392
_cell_formula_units_Z   2
loop_
 _symmetry_equiv_pos_site_id
 _symmetry_equiv_pos_as_xyz
  1  'x, y, z'
loop_
 _atom_site_type_symbol
 _atom_site_label
 _atom_site_symmetry_multiplicity
 _atom_site_fract_x
 _atom_site_fract_y
 _atom_site_fract_z
 _atom_site_occupancy
  Ac  Ac0  1  0.254969  0.745031  0.750000  1
  Ac  Ac1  1  0.745031  0.254969  0.250000  1
  Lu  Lu2  1  0.000000  0.000000  0.000000  1
  Lu  Lu3  1  0.000000  0.000000  0.500000  1
  S  S4  1  0.076958  0.923042  0.250000  1
  S  S5  1  0.923042  0.076958  0.750000  1
  S  S6  1  0.637852  0.362148  0.557589  1
  S  S7  1  0.362148  0.637852  0.442411  1
  S  S8  1  0.637852  0.362148  0.942411  1
  S  S9  1  0.362148  0.637852  0.057589  1
