# generated using pymatgen
data_Tb3Sc3FeBi2
_symmetry_space_group_name_H-M   'P 1'
_cell_length_a   8.01083809
_cell_length_b   8.01098106
_cell_length_c   4.19965500
_cell_angle_alpha   90.00000000
_cell_angle_beta   90.00000000
_cell_angle_gamma   119.98226993
_symmetry_Int_Tables_number   1
_chemical_formula_structural   Tb3Sc3FeBi2
_chemical_formula_sum   'Tb3 Sc3 Fe1 Bi2'
_cell_volume   233.44547967
_cell_formula_units_Z   1
loop_
 _symmetry_equiv_pos_site_id
 _symmetry_equiv_pos_as_xyz
  1  'x, y, z'
loop_
 _atom_site_type_symbol
 _atom_site_label
 _atom_site_symmetry_multiplicity
 _atom_site_fract_x
 _atom_site_fract_y
 _atom_site_fract_z
 _atom_site_occupancy
  Tb  Tb0  1  0.999974  0.612288  0.500000  1
  Tb  Tb1  1  0.387596  0.387596  0.500000  1
  Tb  Tb2  1  0.612285  0.999973  0.500000  1
  Sc  Sc3  1  0.219816  0.000080  0.000000  1
  Sc  Sc4  1  0.780282  0.780276  0.000000  1
  Sc  Sc5  1  0.000080  0.219822  0.000000  1
  Fe  Fe6  1  0.999940  0.999941  0.500000  1
  Bi  Bi7  1  0.333350  0.666676  0.000000  1
  Bi  Bi8  1  0.666677  0.333348  0.000000  1
