# generated using pymatgen
data_SmGdB10Pt
_symmetry_space_group_name_H-M   'P 1'
_cell_length_a   4.18802900
_cell_length_b   5.71583216
_cell_length_c   11.40306731
_cell_angle_alpha   89.97312199
_cell_angle_beta   90.00000000
_cell_angle_gamma   90.00000000
_symmetry_Int_Tables_number   1
_chemical_formula_structural   SmGdB10Pt
_chemical_formula_sum   'Sm2 Gd2 B20 Pt2'
_cell_volume   272.96740304
_cell_formula_units_Z   2
loop_
 _symmetry_equiv_pos_site_id
 _symmetry_equiv_pos_as_xyz
  1  'x, y, z'
loop_
 _atom_site_type_symbol
 _atom_site_label
 _atom_site_symmetry_multiplicity
 _atom_site_fract_x
 _atom_site_fract_y
 _atom_site_fract_z
 _atom_site_occupancy
  Sm  Sm0  1  0.500000  0.190444  0.359666  1
  Sm  Sm1  1  0.500000  0.809556  0.640334  1
  Gd  Gd2  1  0.500000  0.310854  0.859772  1
  Gd  Gd3  1  0.500000  0.689146  0.140228  1
  B  B4  1  0.000000  0.383687  0.043783  1
  B  B5  1  0.000000  0.616313  0.956217  1
  B  B6  1  0.000000  0.116579  0.544053  1
  B  B7  1  0.000000  0.883421  0.455947  1
  B  B8  1  0.000000  0.361444  0.197469  1
  B  B9  1  0.000000  0.638556  0.802531  1
  B  B10  1  0.000000  0.138909  0.697870  1
  B  B11  1  0.000000  0.861091  0.302130  1
  B  B12  1  0.000000  0.054348  0.193783  1
  B  B13  1  0.000000  0.945652  0.806217  1
  B  B14  1  0.000000  0.445024  0.694305  1
  B  B15  1  0.000000  0.554976  0.305695  1
  B  B16  1  0.302608  0.219221  0.119862  1
  B  B17  1  0.697392  0.780779  0.880138  1
  B  B18  1  0.302608  0.780779  0.880138  1
  B  B19  1  0.697580  0.281591  0.620269  1
  B  B20  1  0.697392  0.219221  0.119862  1
  B  B21  1  0.302420  0.718409  0.379731  1
  B  B22  1  0.697580  0.718409  0.379731  1
  B  B23  1  0.302420  0.281591  0.620269  1
  Pt  Pt24  1  0.000000  0.000000  0.000000  1
  Pt  Pt25  1  0.000000  0.500000  0.500000  1
