# generated using pymatgen
data_TbNd4Y(AlI)4
_symmetry_space_group_name_H-M   'P 1'
_cell_length_a   9.84825895
_cell_length_b   9.84825975
_cell_length_c   12.03794669
_cell_angle_alpha   59.71003578
_cell_angle_beta   59.71003312
_cell_angle_gamma   25.16052698
_symmetry_Int_Tables_number   1
_chemical_formula_structural   TbNd4Y(AlI)4
_chemical_formula_sum   'Tb1 Nd4 Y1 Al4 I4'
_cell_volume   424.96405955
_cell_formula_units_Z   1
loop_
 _symmetry_equiv_pos_site_id
 _symmetry_equiv_pos_as_xyz
  1  'x, y, z'
loop_
 _atom_site_type_symbol
 _atom_site_label
 _atom_site_symmetry_multiplicity
 _atom_site_fract_x
 _atom_site_fract_y
 _atom_site_fract_z
 _atom_site_occupancy
  Tb  Tb0  1  0.168975  0.168975  0.609436  1
  Nd  Nd1  1  0.755360  0.755360  0.800281  1
  Nd  Nd2  1  0.244627  0.244627  0.199762  1
  Nd  Nd3  1  0.534826  0.534826  0.311800  1
  Nd  Nd4  1  0.465156  0.465156  0.687989  1
  Y  Y5  1  0.831083  0.831083  0.390805  1
  Al  Al6  1  0.926124  0.926124  0.529581  1
  Al  Al7  1  0.074004  0.074004  0.470126  1
  Al  Al8  1  0.336291  0.336291  0.581295  1
  Al  Al9  1  0.663762  0.663762  0.418567  1
  I  I10  1  0.421623  0.421623  0.176242  1
  I  I11  1  0.578117  0.578117  0.824220  1
  I  I12  1  0.860112  0.860112  0.942222  1
  I  I13  1  0.139940  0.139940  0.057675  1
