# generated using pymatgen
data_Hf3Zr2Nb(B2Ru5)2
_symmetry_space_group_name_H-M   'P 1'
_cell_length_a   9.49073615
_cell_length_b   9.49413914
_cell_length_c   3.13019900
_cell_angle_alpha   90.00000000
_cell_angle_beta   90.00000000
_cell_angle_gamma   90.22404819
_symmetry_Int_Tables_number   1
_chemical_formula_structural   Hf3Zr2Nb(B2Ru5)2
_chemical_formula_sum   'Hf3 Zr2 Nb1 B4 Ru10'
_cell_volume   282.04871135
_cell_formula_units_Z   1
loop_
 _symmetry_equiv_pos_site_id
 _symmetry_equiv_pos_as_xyz
  1  'x, y, z'
loop_
 _atom_site_type_symbol
 _atom_site_label
 _atom_site_symmetry_multiplicity
 _atom_site_fract_x
 _atom_site_fract_y
 _atom_site_fract_z
 _atom_site_occupancy
  Hf  Hf0  1  0.325123  0.824441  0.000000  1
  Hf  Hf1  1  0.674877  0.175559  0.000000  1
  Hf  Hf2  1  0.500000  0.500000  0.000000  1
  Zr  Zr3  1  0.823915  0.675431  0.000000  1
  Zr  Zr4  1  0.176085  0.324569  0.000000  1
  Nb  Nb5  1  0.000000  0.000000  0.000000  1
  B  B6  1  0.620569  0.878109  0.000000  1
  B  B7  1  0.379431  0.121891  0.000000  1
  B  B8  1  0.122760  0.621542  0.000000  1
  B  B9  1  0.877240  0.378458  0.000000  1
  Ru  Ru10  1  0.572889  0.721660  0.500000  1
  Ru  Ru11  1  0.427111  0.278340  0.500000  1
  Ru  Ru12  1  0.070582  0.782497  0.500000  1
  Ru  Ru13  1  0.929418  0.217503  0.500000  1
  Ru  Ru14  1  0.279059  0.575465  0.500000  1
  Ru  Ru15  1  0.720941  0.424535  0.500000  1
  Ru  Ru16  1  0.218237  0.068287  0.500000  1
  Ru  Ru17  1  0.781763  0.931713  0.500000  1
  Ru  Ru18  1  0.500000  0.000000  0.500000  1
  Ru  Ru19  1  0.000000  0.500000  0.500000  1
