# generated using pymatgen
data_Dy2Ho2(Al8Pt3)3
_symmetry_space_group_name_H-M   'P 1'
_cell_length_a   7.52450418
_cell_length_b   7.54577215
_cell_length_c   13.16966713
_cell_angle_alpha   84.57398994
_cell_angle_beta   79.11791403
_cell_angle_gamma   59.97301771
_symmetry_Int_Tables_number   1
_chemical_formula_structural   Dy2Ho2(Al8Pt3)3
_chemical_formula_sum   'Dy2 Ho2 Al24 Pt9'
_cell_volume   635.75269701
_cell_formula_units_Z   1
loop_
 _symmetry_equiv_pos_site_id
 _symmetry_equiv_pos_as_xyz
  1  'x, y, z'
loop_
 _atom_site_type_symbol
 _atom_site_label
 _atom_site_symmetry_multiplicity
 _atom_site_fract_x
 _atom_site_fract_y
 _atom_site_fract_z
 _atom_site_occupancy
  Dy  Dy0  1  0.734155  0.498464  0.807560  1
  Dy  Dy1  1  0.265845  0.501536  0.192440  1
  Ho  Ho2  1  0.393436  0.168464  0.807773  1
  Ho  Ho3  1  0.606564  0.831536  0.192227  1
  Al  Al4  1  0.684396  0.833734  0.944511  1
  Al  Al5  1  0.315604  0.166266  0.055489  1
  Al  Al6  1  0.146986  0.832294  0.561171  1
  Al  Al7  1  0.853014  0.167706  0.438829  1
  Al  Al8  1  0.479729  0.166845  0.558705  1
  Al  Al9  1  0.520271  0.833155  0.441295  1
  Al  Al10  1  0.217285  0.165161  0.329949  1
  Al  Al11  1  0.782715  0.834839  0.670051  1
  Al  Al12  1  0.437940  0.506034  0.670043  1
  Al  Al13  1  0.562060  0.493966  0.329957  1
  Al  Al14  1  0.109886  0.160021  0.669308  1
  Al  Al15  1  0.890114  0.839979  0.330692  1
  Al  Al16  1  0.353288  0.498864  0.944622  1
  Al  Al17  1  0.646712  0.501136  0.055378  1
  Al  Al18  1  0.014885  0.167907  0.953068  1
  Al  Al19  1  0.985115  0.832093  0.046932  1
  Al  Al20  1  0.186789  0.498851  0.441245  1
  Al  Al21  1  0.813211  0.501149  0.558755  1
  Al  Al22  1  0.734257  0.163806  0.183257  1
  Al  Al23  1  0.265743  0.836194  0.816743  1
  Al  Al24  1  0.061962  0.631444  0.815489  1
  Al  Al25  1  0.938038  0.368556  0.184511  1
  Al  Al26  1  0.854616  0.041703  0.815979  1
  Al  Al27  1  0.145384  0.958297  0.184021  1
  Pt  Pt28  1  0.120208  0.492107  0.638857  1
  Pt  Pt29  1  0.879792  0.507893  0.361143  1
  Pt  Pt30  1  0.657249  0.171139  0.999922  1
  Pt  Pt31  1  0.342751  0.828861  0.000078  1
  Pt  Pt32  1  0.538173  0.166615  0.361142  1
  Pt  Pt33  1  0.461827  0.833385  0.638858  1
  Pt  Pt34  1  0.779018  0.174830  0.637286  1
  Pt  Pt35  1  0.220982  0.825170  0.362714  1
  Pt  Pt36  1  0.000000  0.500000  0.000000  1
