# generated using pymatgen
data_Ac6LuScBi10
_symmetry_space_group_name_H-M   'P 1'
_cell_length_a   10.11280500
_cell_length_b   10.11280522
_cell_length_c   6.84024700
_cell_angle_alpha   90.00000000
_cell_angle_beta   90.00000000
_cell_angle_gamma   120.00000255
_symmetry_Int_Tables_number   1
_chemical_formula_structural   Ac6LuScBi10
_chemical_formula_sum   'Ac6 Lu1 Sc1 Bi10'
_cell_volume   605.82289282
_cell_formula_units_Z   1
loop_
 _symmetry_equiv_pos_site_id
 _symmetry_equiv_pos_as_xyz
  1  'x, y, z'
loop_
 _atom_site_type_symbol
 _atom_site_label
 _atom_site_symmetry_multiplicity
 _atom_site_fract_x
 _atom_site_fract_y
 _atom_site_fract_z
 _atom_site_occupancy
  Ac  Ac0  1  0.000000  0.619513  0.249451  1
  Ac  Ac1  1  0.380487  0.380487  0.249451  1
  Ac  Ac2  1  0.380487  0.000000  0.750549  1
  Ac  Ac3  1  0.619513  0.619513  0.750549  1
  Ac  Ac4  1  0.619513  0.000000  0.249451  1
  Ac  Ac5  1  0.000000  0.380487  0.750549  1
  Lu  Lu6  1  0.000000  0.000000  0.000000  1
  Sc  Sc7  1  0.000000  0.000000  0.500000  1
  Bi  Bi8  1  0.000000  0.257784  0.254142  1
  Bi  Bi9  1  0.333333  0.666667  0.500000  1
  Bi  Bi10  1  0.666667  0.333333  0.000000  1
  Bi  Bi11  1  0.333333  0.666667  0.000000  1
  Bi  Bi12  1  0.257784  0.257784  0.745858  1
  Bi  Bi13  1  0.742216  0.000000  0.745858  1
  Bi  Bi14  1  0.000000  0.742216  0.745858  1
  Bi  Bi15  1  0.742216  0.742216  0.254142  1
  Bi  Bi16  1  0.257784  0.000000  0.254142  1
  Bi  Bi17  1  0.666667  0.333333  0.500000  1
