# generated using pymatgen
data_Tb8Sc12Ga11Ge5
_symmetry_space_group_name_H-M   'P 1'
_cell_length_a   7.25822186
_cell_length_b   7.55326196
_cell_length_c   14.40605941
_cell_angle_alpha   90.02221184
_cell_angle_beta   89.98356484
_cell_angle_gamma   90.05314509
_symmetry_Int_Tables_number   1
_chemical_formula_structural   Tb8Sc12Ga11Ge5
_chemical_formula_sum   'Tb8 Sc12 Ga11 Ge5'
_cell_volume   789.78657982
_cell_formula_units_Z   1
loop_
 _symmetry_equiv_pos_site_id
 _symmetry_equiv_pos_as_xyz
  1  'x, y, z'
loop_
 _atom_site_type_symbol
 _atom_site_label
 _atom_site_symmetry_multiplicity
 _atom_site_fract_x
 _atom_site_fract_y
 _atom_site_fract_z
 _atom_site_occupancy
  Tb  Tb0  1  0.006881  0.176775  0.095248  1
  Tb  Tb1  1  0.993331  0.820560  0.905106  1
  Tb  Tb2  1  0.492835  0.678213  0.904910  1
  Tb  Tb3  1  0.993185  0.822269  0.595359  1
  Tb  Tb4  1  0.507158  0.322105  0.095153  1
  Tb  Tb5  1  0.006488  0.177521  0.404453  1
  Tb  Tb6  1  0.506721  0.322385  0.404420  1
  Tb  Tb7  1  0.493245  0.678091  0.595499  1
  Sc  Sc8  1  0.169116  0.501160  0.749726  1
  Sc  Sc9  1  0.831358  0.499365  0.250059  1
  Sc  Sc10  1  0.330904  0.001036  0.250104  1
  Sc  Sc11  1  0.668494  0.999036  0.749697  1
  Sc  Sc12  1  0.331499  0.169451  0.622870  1
  Sc  Sc13  1  0.668275  0.830309  0.377044  1
  Sc  Sc14  1  0.168181  0.669893  0.377107  1
  Sc  Sc15  1  0.667633  0.829642  0.122993  1
  Sc  Sc16  1  0.831266  0.330318  0.622841  1
  Sc  Sc17  1  0.331584  0.170415  0.877728  1
  Sc  Sc18  1  0.831923  0.331678  0.877138  1
  Sc  Sc19  1  0.169503  0.669495  0.122425  1
  Ga  Ga20  1  0.034207  0.118251  0.750691  1
  Ga  Ga21  1  0.965351  0.881010  0.250113  1
  Ga  Ga22  1  0.465057  0.618465  0.249713  1
  Ga  Ga23  1  0.534436  0.381605  0.749905  1
  Ga  Ga24  1  0.163026  0.462525  0.541259  1
  Ga  Ga25  1  0.836829  0.537187  0.458780  1
  Ga  Ga26  1  0.336747  0.962794  0.458772  1
  Ga  Ga27  1  0.836581  0.537873  0.041525  1
  Ga  Ga28  1  0.663241  0.037068  0.541145  1
  Ga  Ga29  1  0.163190  0.462858  0.958938  1
  Ga  Ga30  1  0.666105  0.038048  0.958351  1
  Ge  Ge31  1  0.292367  0.869218  0.750570  1
  Ge  Ge32  1  0.707501  0.130891  0.249300  1
  Ge  Ge33  1  0.207549  0.368596  0.249665  1
  Ge  Ge34  1  0.792023  0.630890  0.750230  1
  Ge  Ge35  1  0.336212  0.963003  0.041163  1
