# generated using pymatgen
data_Hf5CrSb2
_symmetry_space_group_name_H-M   'P 1'
_cell_length_a   5.55819830
_cell_length_b   8.27255446
_cell_length_c   8.27255962
_cell_angle_alpha   83.47548386
_cell_angle_beta   70.35096815
_cell_angle_gamma   70.35109435
_symmetry_Int_Tables_number   1
_chemical_formula_structural   Hf5CrSb2
_chemical_formula_sum   'Hf10 Cr2 Sb4'
_cell_volume   337.36775615
_cell_formula_units_Z   2
loop_
 _symmetry_equiv_pos_site_id
 _symmetry_equiv_pos_as_xyz
  1  'x, y, z'
loop_
 _atom_site_type_symbol
 _atom_site_label
 _atom_site_symmetry_multiplicity
 _atom_site_fract_x
 _atom_site_fract_y
 _atom_site_fract_z
 _atom_site_occupancy
  Hf  Hf0  1  0.071001  0.130384  0.728160  1
  Hf  Hf1  1  0.928999  0.869616  0.271840  1
  Hf  Hf2  1  0.798784  0.272100  0.130661  1
  Hf  Hf3  1  0.429000  0.271839  0.869614  1
  Hf  Hf4  1  0.201216  0.727900  0.869339  1
  Hf  Hf5  1  0.571000  0.728161  0.130386  1
  Hf  Hf6  1  0.701216  0.869337  0.727900  1
  Hf  Hf7  1  0.298784  0.130663  0.272100  1
  Hf  Hf8  1  0.250000  0.499746  0.500254  1
  Hf  Hf9  1  0.750000  0.500254  0.499746  1
  Cr  Cr10  1  0.250015  0.000450  0.999548  1
  Cr  Cr11  1  0.749985  0.999550  0.000452  1
  Sb  Sb12  1  0.163567  0.499989  0.172467  1
  Sb  Sb13  1  0.836433  0.500011  0.827533  1
  Sb  Sb14  1  0.336433  0.827532  0.500011  1
  Sb  Sb15  1  0.663567  0.172468  0.499989  1
