# generated using pymatgen
data_YLuSc2(CrB6)2
_symmetry_space_group_name_H-M   'P 1'
_cell_length_a   3.45025000
_cell_length_b   8.99087000
_cell_length_c   11.33469200
_cell_angle_alpha   89.99687673
_cell_angle_beta   90.00000000
_cell_angle_gamma   90.00000000
_symmetry_Int_Tables_number   1
_chemical_formula_structural   YLuSc2(CrB6)2
_chemical_formula_sum   'Y2 Lu2 Sc4 Cr4 B24'
_cell_volume   351.61063773
_cell_formula_units_Z   2
loop_
 _symmetry_equiv_pos_site_id
 _symmetry_equiv_pos_as_xyz
  1  'x, y, z'
loop_
 _atom_site_type_symbol
 _atom_site_label
 _atom_site_symmetry_multiplicity
 _atom_site_fract_x
 _atom_site_fract_y
 _atom_site_fract_z
 _atom_site_occupancy
  Y  Y0  1  0.000000  0.322651  0.414628  1
  Y  Y1  1  0.000000  0.677349  0.585372  1
  Lu  Lu2  1  0.000000  0.823070  0.085236  1
  Lu  Lu3  1  0.000000  0.176930  0.914764  1
  Sc  Sc4  1  0.000000  0.443261  0.130282  1
  Sc  Sc5  1  0.000000  0.556739  0.869718  1
  Sc  Sc6  1  0.000000  0.943162  0.368751  1
  Sc  Sc7  1  0.000000  0.056838  0.631249  1
  Cr  Cr8  1  0.000000  0.140934  0.180993  1
  Cr  Cr9  1  0.000000  0.859066  0.819007  1
  Cr  Cr10  1  0.000000  0.642044  0.317198  1
  Cr  Cr11  1  0.000000  0.357956  0.682802  1
  B  B12  1  0.500000  0.054237  0.066675  1
  B  B13  1  0.500000  0.945763  0.933325  1
  B  B14  1  0.500000  0.554975  0.432011  1
  B  B15  1  0.500000  0.445025  0.567989  1
  B  B16  1  0.500000  0.252681  0.081391  1
  B  B17  1  0.500000  0.747319  0.918609  1
  B  B18  1  0.500000  0.753332  0.416931  1
  B  B19  1  0.500000  0.246668  0.583069  1
  B  B20  1  0.500000  0.294348  0.235020  1
  B  B21  1  0.500000  0.705652  0.764980  1
  B  B22  1  0.500000  0.794955  0.263222  1
  B  B23  1  0.500000  0.205045  0.736778  1
  B  B24  1  0.500000  0.129279  0.316209  1
  B  B25  1  0.500000  0.870721  0.683791  1
  B  B26  1  0.500000  0.630439  0.182462  1
  B  B27  1  0.500000  0.369561  0.817538  1
  B  B28  1  0.500000  0.482913  0.286040  1
  B  B29  1  0.500000  0.517087  0.713960  1
  B  B30  1  0.500000  0.981899  0.212467  1
  B  B31  1  0.500000  0.018101  0.787533  1
  B  B32  1  0.500000  0.095866  0.473969  1
  B  B33  1  0.500000  0.904134  0.526031  1
  B  B34  1  0.500000  0.597132  0.026333  1
  B  B35  1  0.500000  0.402868  0.973667  1
