# generated using pymatgen
data_Rb4PuUTe6
_symmetry_space_group_name_H-M   'P 1'
_cell_length_a   8.23497404
_cell_length_b   8.23980519
_cell_length_c   8.88436894
_cell_angle_alpha   80.54408668
_cell_angle_beta   81.28619428
_cell_angle_gamma   120.36786910
_symmetry_Int_Tables_number   1
_chemical_formula_structural   Rb4PuUTe6
_chemical_formula_sum   'Rb4 Pu1 U1 Te6'
_cell_volume   493.19609889
_cell_formula_units_Z   1
loop_
 _symmetry_equiv_pos_site_id
 _symmetry_equiv_pos_as_xyz
  1  'x, y, z'
loop_
 _atom_site_type_symbol
 _atom_site_label
 _atom_site_symmetry_multiplicity
 _atom_site_fract_x
 _atom_site_fract_y
 _atom_site_fract_z
 _atom_site_occupancy
  Rb  Rb0  1  0.500471  0.500111  0.999891  1
  Rb  Rb1  1  0.653660  0.347807  0.500034  1
  Rb  Rb2  1  0.348254  0.650733  0.499512  1
  Rb  Rb3  1  0.997525  0.001654  0.500557  1
  Pu  Pu4  1  0.830605  0.167227  0.000094  1
  U  U5  1  0.167501  0.831909  0.999975  1
  Te  Te6  1  0.814771  0.803428  0.200622  1
  Te  Te7  1  0.196231  0.187181  0.799579  1
  Te  Te8  1  0.420265  0.047226  0.205771  1
  Te  Te9  1  0.559222  0.942334  0.794504  1
  Te  Te10  1  0.953731  0.580663  0.793833  1
  Te  Te11  1  0.057766  0.439726  0.205629  1
