# generated using pymatgen
data_Ce3Dy5(MnZn)2
_symmetry_space_group_name_H-M   'P 1'
_cell_length_a   9.35538226
_cell_length_b   9.35538176
_cell_length_c   9.44528467
_cell_angle_alpha   60.39664528
_cell_angle_beta   60.39664739
_cell_angle_gamma   59.71421843
_symmetry_Int_Tables_number   1
_chemical_formula_structural   Ce3Dy5(MnZn)2
_chemical_formula_sum   'Ce6 Dy10 Mn4 Zn4'
_cell_volume   586.73663098
_cell_formula_units_Z   2
loop_
 _symmetry_equiv_pos_site_id
 _symmetry_equiv_pos_as_xyz
  1  'x, y, z'
loop_
 _atom_site_type_symbol
 _atom_site_label
 _atom_site_symmetry_multiplicity
 _atom_site_fract_x
 _atom_site_fract_y
 _atom_site_fract_z
 _atom_site_occupancy
  Ce  Ce0  1  0.186975  0.811636  0.181169  1
  Ce  Ce1  1  0.811636  0.186976  0.181170  1
  Ce  Ce2  1  0.334420  0.334420  0.963045  1
  Ce  Ce3  1  0.328715  0.966461  0.364627  1
  Ce  Ce4  1  0.966461  0.328715  0.364627  1
  Ce  Ce5  1  0.360043  0.360043  0.323625  1
  Dy  Dy6  1  0.562791  0.562791  0.921704  1
  Dy  Dy7  1  0.928436  0.549306  0.946931  1
  Dy  Dy8  1  0.549306  0.928436  0.946931  1
  Dy  Dy9  1  0.926855  0.926855  0.579684  1
  Dy  Dy10  1  0.564644  0.940581  0.558622  1
  Dy  Dy11  1  0.940581  0.564644  0.558622  1
  Dy  Dy12  1  0.193395  0.193395  0.784107  1
  Dy  Dy13  1  0.800033  0.183765  0.816906  1
  Dy  Dy14  1  0.183764  0.800034  0.816906  1
  Dy  Dy15  1  0.801967  0.801968  0.194819  1
  Mn  Mn16  1  0.128286  0.128286  0.537607  1
  Mn  Mn17  1  0.172109  0.591393  0.176520  1
  Mn  Mn18  1  0.591393  0.172109  0.176520  1
  Mn  Mn19  1  0.173388  0.173388  0.093173  1
  Zn  Zn20  1  0.582528  0.582528  0.271288  1
  Zn  Zn21  1  0.574485  0.266744  0.577574  1
  Zn  Zn22  1  0.266744  0.574485  0.577574  1
  Zn  Zn23  1  0.571041  0.571041  0.586250  1
