# generated using pymatgen
data_Zr10AlSn6Sb
_symmetry_space_group_name_H-M   'P 1'
_cell_length_a   8.83354400
_cell_length_b   8.83354442
_cell_length_c   5.92579900
_cell_angle_alpha   90.00000000
_cell_angle_beta   90.00000000
_cell_angle_gamma   119.99999841
_symmetry_Int_Tables_number   1
_chemical_formula_structural   Zr10AlSn6Sb
_chemical_formula_sum   'Zr10 Al1 Sn6 Sb1'
_cell_volume   400.44929103
_cell_formula_units_Z   1
loop_
 _symmetry_equiv_pos_site_id
 _symmetry_equiv_pos_as_xyz
  1  'x, y, z'
loop_
 _atom_site_type_symbol
 _atom_site_label
 _atom_site_symmetry_multiplicity
 _atom_site_fract_x
 _atom_site_fract_y
 _atom_site_fract_z
 _atom_site_occupancy
  Zr  Zr0  1  0.333333  0.666667  0.000000  1
  Zr  Zr1  1  0.666667  0.333333  0.500000  1
  Zr  Zr2  1  0.666667  0.333333  0.000000  1
  Zr  Zr3  1  0.333333  0.666667  0.500000  1
  Zr  Zr4  1  0.275665  0.000000  0.261089  1
  Zr  Zr5  1  0.275665  0.275665  0.738911  1
  Zr  Zr6  1  0.000000  0.724335  0.738911  1
  Zr  Zr7  1  0.000000  0.275665  0.261089  1
  Zr  Zr8  1  0.724335  0.724335  0.261089  1
  Zr  Zr9  1  0.724335  0.000000  0.738911  1
  Al  Al10  1  0.000000  0.000000  0.500000  1
  Sn  Sn11  1  0.612033  0.000000  0.249721  1
  Sn  Sn12  1  0.612033  0.612033  0.750279  1
  Sn  Sn13  1  0.000000  0.387967  0.750279  1
  Sn  Sn14  1  0.000000  0.612033  0.249721  1
  Sn  Sn15  1  0.387967  0.387967  0.249721  1
  Sn  Sn16  1  0.387967  0.000000  0.750279  1
  Sb  Sb17  1  0.000000  0.000000  0.000000  1
