# generated using pymatgen
data_Sm6Cd22PdS
_symmetry_space_group_name_H-M   'P 1'
_cell_length_a   9.92055793
_cell_length_b   9.97059284
_cell_length_c   9.97059200
_cell_angle_alpha   60.21642833
_cell_angle_beta   60.16585765
_cell_angle_gamma   60.16585583
_symmetry_Int_Tables_number   1
_chemical_formula_structural   Sm6Cd22PdS
_chemical_formula_sum   'Sm6 Cd22 Pd1 S1'
_cell_volume   700.25482710
_cell_formula_units_Z   1
loop_
 _symmetry_equiv_pos_site_id
 _symmetry_equiv_pos_as_xyz
  1  'x, y, z'
loop_
 _atom_site_type_symbol
 _atom_site_label
 _atom_site_symmetry_multiplicity
 _atom_site_fract_x
 _atom_site_fract_y
 _atom_site_fract_z
 _atom_site_occupancy
  Sm  Sm0  1  0.798833  0.797724  0.202276  1
  Sm  Sm1  1  0.201167  0.797724  0.202276  1
  Sm  Sm2  1  0.796748  0.203252  0.203252  1
  Sm  Sm3  1  0.201167  0.202276  0.797724  1
  Sm  Sm4  1  0.798833  0.202276  0.797724  1
  Sm  Sm5  1  0.203252  0.796748  0.796748  1
  Cd  Cd6  1  0.838619  0.825470  0.497290  1
  Cd  Cd7  1  0.838619  0.497290  0.825470  1
  Cd  Cd8  1  0.492946  0.835100  0.835100  1
  Cd  Cd9  1  0.836854  0.835100  0.835100  1
  Cd  Cd10  1  0.161381  0.174530  0.502710  1
  Cd  Cd11  1  0.161381  0.502710  0.174530  1
  Cd  Cd12  1  0.507054  0.164900  0.164900  1
  Cd  Cd13  1  0.163146  0.164900  0.164900  1
  Cd  Cd14  1  0.621640  0.620528  0.136191  1
  Cd  Cd15  1  0.621640  0.136191  0.620528  1
  Cd  Cd16  1  0.134829  0.615700  0.615700  1
  Cd  Cd17  1  0.633772  0.615700  0.615700  1
  Cd  Cd18  1  0.378360  0.379472  0.863809  1
  Cd  Cd19  1  0.378360  0.863809  0.379472  1
  Cd  Cd20  1  0.865171  0.384300  0.384300  1
  Cd  Cd21  1  0.366228  0.384300  0.384300  1
  Cd  Cd22  1  0.000000  0.000000  0.500000  1
  Cd  Cd23  1  0.500000  0.000000  0.500000  1
  Cd  Cd24  1  0.500000  0.500000  0.000000  1
  Cd  Cd25  1  0.000000  0.500000  0.000000  1
  Cd  Cd26  1  0.500000  0.000000  0.000000  1
  Cd  Cd27  1  0.500000  0.500000  0.500000  1
  Pd  Pd28  1  0.000000  0.500000  0.500000  1
  S  S29  1  0.000000  0.000000  0.000000  1
