# generated using pymatgen
data_Er3MgZn2Ge2Pd
_symmetry_space_group_name_H-M   'P 1'
_cell_length_a   7.00384500
_cell_length_b   7.00388446
_cell_length_c   4.28536400
_cell_angle_alpha   90.00000000
_cell_angle_beta   90.00000000
_cell_angle_gamma   120.00018598
_symmetry_Int_Tables_number   1
_chemical_formula_structural   Er3MgZn2Ge2Pd
_chemical_formula_sum   'Er3 Mg1 Zn2 Ge2 Pd1'
_cell_volume   182.05098543
_cell_formula_units_Z   1
loop_
 _symmetry_equiv_pos_site_id
 _symmetry_equiv_pos_as_xyz
  1  'x, y, z'
loop_
 _atom_site_type_symbol
 _atom_site_label
 _atom_site_symmetry_multiplicity
 _atom_site_fract_x
 _atom_site_fract_y
 _atom_site_fract_z
 _atom_site_occupancy
  Er  Er0  1  0.419754  0.419427  0.500000  1
  Er  Er1  1  0.580246  0.999673  0.500000  1
  Er  Er2  1  0.000000  0.591794  0.500000  1
  Mg  Mg3  1  0.000000  0.229939  0.000000  1
  Zn  Zn4  1  0.756955  0.758290  0.000000  1
  Zn  Zn5  1  0.243045  0.001336  0.000000  1
  Ge  Ge6  1  0.665587  0.335927  0.000000  1
  Ge  Ge7  1  0.334413  0.670341  0.000000  1
  Pd  Pd8  1  0.000000  0.993274  0.500000  1
