# generated using pymatgen
data_SrBi3Ir3RuO14
_symmetry_space_group_name_H-M   'P 1'
_cell_length_a   7.38590136
_cell_length_b   7.35530440
_cell_length_c   7.35530478
_cell_angle_alpha   60.35805506
_cell_angle_beta   60.43862278
_cell_angle_gamma   60.43862093
_symmetry_Int_Tables_number   1
_chemical_formula_structural   SrBi3Ir3RuO14
_chemical_formula_sum   'Sr1 Bi3 Ir3 Ru1 O14'
_cell_volume   285.17691441
_cell_formula_units_Z   1
loop_
 _symmetry_equiv_pos_site_id
 _symmetry_equiv_pos_as_xyz
  1  'x, y, z'
loop_
 _atom_site_type_symbol
 _atom_site_label
 _atom_site_symmetry_multiplicity
 _atom_site_fract_x
 _atom_site_fract_y
 _atom_site_fract_z
 _atom_site_occupancy
  Sr  Sr0  1  0.125000  0.125000  0.125000  1
  Bi  Bi1  1  0.125000  0.125000  0.625000  1
  Bi  Bi2  1  0.125000  0.625000  0.125000  1
  Bi  Bi3  1  0.625000  0.125000  0.125000  1
  Ir  Ir4  1  0.625000  0.625000  0.125000  1
  Ir  Ir5  1  0.625000  0.125000  0.625000  1
  Ir  Ir6  1  0.625000  0.625000  0.625000  1
  Ru  Ru7  1  0.125000  0.625000  0.625000  1
  O  O8  1  0.256284  0.254537  0.254537  1
  O  O9  1  0.993716  0.995463  0.995463  1
  O  O10  1  0.545365  0.952549  0.546585  1
  O  O11  1  0.300397  0.690082  0.300764  1
  O  O12  1  0.545365  0.546585  0.952549  1
  O  O13  1  0.950099  0.547269  0.547269  1
  O  O14  1  0.552662  0.953768  0.953768  1
  O  O15  1  0.949603  0.949236  0.559918  1
  O  O16  1  0.949603  0.559918  0.949236  1
  O  O17  1  0.697338  0.296232  0.296232  1
  O  O18  1  0.299901  0.702731  0.702731  1
  O  O19  1  0.704635  0.297451  0.703415  1
  O  O20  1  0.300397  0.300764  0.690082  1
  O  O21  1  0.704635  0.703415  0.297451  1
