# generated using pymatgen
data_Dy15Er4LuSn16
_symmetry_space_group_name_H-M   'P 1'
_cell_length_a   8.01337330
_cell_length_b   8.15209137
_cell_length_c   15.44452404
_cell_angle_alpha   90.00506273
_cell_angle_beta   90.00643692
_cell_angle_gamma   89.97165421
_symmetry_Int_Tables_number   1
_chemical_formula_structural   Dy15Er4LuSn16
_chemical_formula_sum   'Dy15 Er4 Lu1 Sn16'
_cell_volume   1008.92500250
_cell_formula_units_Z   1
loop_
 _symmetry_equiv_pos_site_id
 _symmetry_equiv_pos_as_xyz
  1  'x, y, z'
loop_
 _atom_site_type_symbol
 _atom_site_label
 _atom_site_symmetry_multiplicity
 _atom_site_fract_x
 _atom_site_fract_y
 _atom_site_fract_z
 _atom_site_occupancy
  Dy  Dy0  1  0.868062  0.662731  0.622343  1
  Dy  Dy1  1  0.632060  0.163042  0.377895  1
  Dy  Dy2  1  0.132103  0.337046  0.121582  1
  Dy  Dy3  1  0.632084  0.163076  0.122133  1
  Dy  Dy4  1  0.132104  0.337037  0.378389  1
  Dy  Dy5  1  0.367677  0.836896  0.622453  1
  Dy  Dy6  1  0.868125  0.662723  0.877680  1
  Dy  Dy7  1  0.520751  0.320988  0.902438  1
  Dy  Dy8  1  0.021169  0.179531  0.597637  1
  Dy  Dy9  1  0.479340  0.679333  0.402893  1
  Dy  Dy10  1  0.979231  0.820617  0.097430  1
  Dy  Dy11  1  0.479289  0.679359  0.097030  1
  Dy  Dy12  1  0.979264  0.820648  0.402575  1
  Dy  Dy13  1  0.520752  0.321050  0.597576  1
  Dy  Dy14  1  0.021216  0.179507  0.902357  1
  Er  Er15  1  0.367597  0.836975  0.877558  1
  Er  Er16  1  0.698667  0.997304  0.750047  1
  Er  Er17  1  0.800865  0.496928  0.249986  1
  Er  Er18  1  0.300892  0.002884  0.249981  1
  Lu  Lu19  1  0.199065  0.503460  0.750061  1
  Sn  Sn20  1  0.292554  0.035769  0.041377  1
  Sn  Sn21  1  0.792358  0.463713  0.458350  1
  Sn  Sn22  1  0.707765  0.963995  0.542016  1
  Sn  Sn23  1  0.207915  0.536137  0.957077  1
  Sn  Sn24  1  0.707422  0.963914  0.957941  1
  Sn  Sn25  1  0.207715  0.535803  0.542851  1
  Sn  Sn26  1  0.292477  0.036001  0.458422  1
  Sn  Sn27  1  0.792338  0.463707  0.041652  1
  Sn  Sn28  1  0.563576  0.617906  0.750092  1
  Sn  Sn29  1  0.065692  0.880555  0.750097  1
  Sn  Sn30  1  0.434079  0.381124  0.249992  1
  Sn  Sn31  1  0.934635  0.118944  0.249994  1
  Sn  Sn32  1  0.329806  0.149775  0.750082  1
  Sn  Sn33  1  0.831002  0.352310  0.750009  1
  Sn  Sn34  1  0.670034  0.851684  0.249999  1
  Sn  Sn35  1  0.170316  0.647533  0.250006  1
