# generated using pymatgen
data_Li8Er8BiPb7
_symmetry_space_group_name_H-M   'P 1'
_cell_length_a   9.50085169
_cell_length_b   9.50402489
_cell_length_c   7.24444548
_cell_angle_alpha   89.99999493
_cell_angle_beta   90.07409505
_cell_angle_gamma   120.01104776
_symmetry_Int_Tables_number   1
_chemical_formula_structural   Li8Er8BiPb7
_chemical_formula_sum   'Li8 Er8 Bi1 Pb7'
_cell_volume   566.44407908
_cell_formula_units_Z   1
loop_
 _symmetry_equiv_pos_site_id
 _symmetry_equiv_pos_as_xyz
  1  'x, y, z'
loop_
 _atom_site_type_symbol
 _atom_site_label
 _atom_site_symmetry_multiplicity
 _atom_site_fract_x
 _atom_site_fract_y
 _atom_site_fract_z
 _atom_site_occupancy
  Li  Li0  1  0.166863  0.333545  0.212031  1
  Li  Li1  1  0.166863  0.833317  0.212031  1
  Li  Li2  1  0.666378  0.833189  0.212724  1
  Li  Li3  1  0.666575  0.333287  0.326068  1
  Li  Li4  1  0.834456  0.665297  0.711260  1
  Li  Li5  1  0.333405  0.166703  0.711985  1
  Li  Li6  1  0.834456  0.169159  0.711260  1
  Li  Li7  1  0.330948  0.665475  0.827071  1
  Er  Er8  1  0.003473  0.001737  0.001159  1
  Er  Er9  1  0.509913  0.025240  0.008756  1
  Er  Er10  1  0.509913  0.484673  0.008756  1
  Er  Er11  1  0.975547  0.487773  0.006373  1
  Er  Er12  1  0.002458  0.001229  0.496962  1
  Er  Er13  1  0.486897  0.978110  0.504191  1
  Er  Er14  1  0.024404  0.512202  0.505841  1
  Er  Er15  1  0.486897  0.508788  0.504191  1
  Bi  Bi16  1  0.666391  0.833195  0.768147  1
  Pb  Pb17  1  0.334044  0.667022  0.241063  1
  Pb  Pb18  1  0.832705  0.666427  0.269369  1
  Pb  Pb19  1  0.333885  0.166943  0.269316  1
  Pb  Pb20  1  0.832705  0.166279  0.269369  1
  Pb  Pb21  1  0.666517  0.333258  0.740670  1
  Pb  Pb22  1  0.167153  0.333817  0.769695  1
  Pb  Pb23  1  0.167153  0.833335  0.769695  1
