# generated using pymatgen
data_Tb9Ho11CoBi8Ru3
_symmetry_space_group_name_H-M   'P 1'
_cell_length_a   7.98851070
_cell_length_b   9.00421700
_cell_length_c   12.43542515
_cell_angle_alpha   90.00000000
_cell_angle_beta   89.75019849
_cell_angle_gamma   90.00000000
_symmetry_Int_Tables_number   1
_chemical_formula_structural   Tb9Ho11CoBi8Ru3
_chemical_formula_sum   'Tb9 Ho11 Co1 Bi8 Ru3'
_cell_volume   894.47515927
_cell_formula_units_Z   1
loop_
 _symmetry_equiv_pos_site_id
 _symmetry_equiv_pos_as_xyz
  1  'x, y, z'
loop_
 _atom_site_type_symbol
 _atom_site_label
 _atom_site_symmetry_multiplicity
 _atom_site_fract_x
 _atom_site_fract_y
 _atom_site_fract_z
 _atom_site_occupancy
  Tb  Tb0  1  0.345351  0.750000  0.701501  1
  Tb  Tb1  1  0.656512  0.250000  0.293560  1
  Tb  Tb2  1  0.843645  0.250000  0.792640  1
  Tb  Tb3  1  0.155166  0.750000  0.205656  1
  Tb  Tb4  1  0.879465  0.750000  0.806586  1
  Tb  Tb5  1  0.119804  0.250000  0.192882  1
  Tb  Tb6  1  0.379348  0.250000  0.692296  1
  Tb  Tb7  1  0.616647  0.750000  0.311982  1
  Tb  Tb8  1  0.054163  0.750000  0.496845  1
  Ho  Ho9  1  0.675695  0.543369  0.563811  1
  Ho  Ho10  1  0.324876  0.461759  0.436886  1
  Ho  Ho11  1  0.176090  0.458199  0.935701  1
  Ho  Ho12  1  0.324876  0.038241  0.436886  1
  Ho  Ho13  1  0.823696  0.542592  0.064439  1
  Ho  Ho14  1  0.675695  0.956631  0.563811  1
  Ho  Ho15  1  0.823696  0.957408  0.064439  1
  Ho  Ho16  1  0.176090  0.041801  0.935701  1
  Ho  Ho17  1  0.947576  0.250000  0.503329  1
  Ho  Ho18  1  0.554467  0.250000  0.003573  1
  Ho  Ho19  1  0.445583  0.750000  0.995785  1
  Co  Co20  1  0.429929  0.750000  0.491134  1
  Bi  Bi21  1  0.570791  0.508545  0.827483  1
  Bi  Bi22  1  0.428869  0.492153  0.172535  1
  Bi  Bi23  1  0.071817  0.491556  0.672066  1
  Bi  Bi24  1  0.428869  0.007847  0.172535  1
  Bi  Bi25  1  0.928588  0.508392  0.328363  1
  Bi  Bi26  1  0.570791  0.991455  0.827483  1
  Bi  Bi27  1  0.928588  0.991608  0.328363  1
  Bi  Bi28  1  0.071817  0.008444  0.672066  1
  Ru  Ru29  1  0.073673  0.750000  0.989119  1
  Ru  Ru30  1  0.925371  0.250000  0.010506  1
  Ru  Ru31  1  0.572458  0.250000  0.510037  1
