# generated using pymatgen
data_Dy5Tm3P12(IrRh3)4
_symmetry_space_group_name_H-M   'P 1'
_cell_length_a   12.99047400
_cell_length_b   12.99047581
_cell_length_c   3.96542800
_cell_angle_alpha   90.00000000
_cell_angle_beta   90.00000000
_cell_angle_gamma   120.00000049
_symmetry_Int_Tables_number   1
_chemical_formula_structural   Dy5Tm3P12(IrRh3)4
_chemical_formula_sum   'Dy5 Tm3 P12 Ir4 Rh12'
_cell_volume   579.52310404
_cell_formula_units_Z   1
loop_
 _symmetry_equiv_pos_site_id
 _symmetry_equiv_pos_as_xyz
  1  'x, y, z'
loop_
 _atom_site_type_symbol
 _atom_site_label
 _atom_site_symmetry_multiplicity
 _atom_site_fract_x
 _atom_site_fract_y
 _atom_site_fract_z
 _atom_site_occupancy
  Dy  Dy0  1  0.333333  0.666667  0.500000  1
  Dy  Dy1  1  0.666667  0.333333  0.500000  1
  Dy  Dy2  1  0.000000  0.813111  0.000000  1
  Dy  Dy3  1  0.186889  0.186889  0.000000  1
  Dy  Dy4  1  0.813111  0.000000  0.000000  1
  Tm  Tm5  1  0.000000  0.445376  0.500000  1
  Tm  Tm6  1  0.554624  0.554624  0.500000  1
  Tm  Tm7  1  0.445376  0.000000  0.500000  1
  P  P8  1  0.000000  0.651364  0.500000  1
  P  P9  1  0.348636  0.348636  0.500000  1
  P  P10  1  0.651364  0.000000  0.500000  1
  P  P11  1  0.517326  0.689585  0.000000  1
  P  P12  1  0.310415  0.827741  0.000000  1
  P  P13  1  0.172259  0.482674  0.000000  1
  P  P14  1  0.482674  0.172259  0.000000  1
  P  P15  1  0.689585  0.517326  0.000000  1
  P  P16  1  0.827741  0.310415  0.000000  1
  P  P17  1  0.000000  0.176637  0.500000  1
  P  P18  1  0.823363  0.823363  0.500000  1
  P  P19  1  0.176637  0.000000  0.500000  1
  Ir  Ir20  1  0.000000  0.274418  0.000000  1
  Ir  Ir21  1  0.725582  0.725582  0.000000  1
  Ir  Ir22  1  0.274418  0.000000  0.000000  1
  Ir  Ir23  1  0.000000  0.000000  0.500000  1
  Rh  Rh24  1  0.513295  0.869273  0.000000  1
  Rh  Rh25  1  0.130727  0.644022  0.000000  1
  Rh  Rh26  1  0.355978  0.486705  0.000000  1
  Rh  Rh27  1  0.486705  0.355978  0.000000  1
  Rh  Rh28  1  0.869273  0.513295  0.000000  1
  Rh  Rh29  1  0.644022  0.130727  0.000000  1
  Rh  Rh30  1  0.628019  0.806575  0.500000  1
  Rh  Rh31  1  0.193425  0.821444  0.500000  1
  Rh  Rh32  1  0.178556  0.371981  0.500000  1
  Rh  Rh33  1  0.371981  0.178556  0.500000  1
  Rh  Rh34  1  0.806575  0.628019  0.500000  1
  Rh  Rh35  1  0.821444  0.193425  0.500000  1
