# generated using pymatgen
data_Ho3Lu3Ni2
_symmetry_space_group_name_H-M   'P 1'
_cell_length_a   6.22918694
_cell_length_b   6.70438892
_cell_length_c   9.36132100
_cell_angle_alpha   90.00452939
_cell_angle_beta   89.65959089
_cell_angle_gamma   89.93074561
_symmetry_Int_Tables_number   1
_chemical_formula_structural   Ho3Lu3Ni2
_chemical_formula_sum   'Ho6 Lu6 Ni4'
_cell_volume   390.94865003
_cell_formula_units_Z   2
loop_
 _symmetry_equiv_pos_site_id
 _symmetry_equiv_pos_as_xyz
  1  'x, y, z'
loop_
 _atom_site_type_symbol
 _atom_site_label
 _atom_site_symmetry_multiplicity
 _atom_site_fract_x
 _atom_site_fract_y
 _atom_site_fract_z
 _atom_site_occupancy
  Ho  Ho0  1  0.633630  0.030849  0.249857  1
  Ho  Ho1  1  0.366370  0.969151  0.750143  1
  Ho  Ho2  1  0.135335  0.469485  0.751058  1
  Ho  Ho3  1  0.864665  0.530515  0.248942  1
  Ho  Ho4  1  0.318520  0.678526  0.434016  1
  Ho  Ho5  1  0.681480  0.321474  0.565984  1
  Lu  Lu6  1  0.180104  0.178354  0.064917  1
  Lu  Lu7  1  0.819896  0.821646  0.935083  1
  Lu  Lu8  1  0.681070  0.320510  0.936112  1
  Lu  Lu9  1  0.820928  0.821421  0.566021  1
  Lu  Lu10  1  0.318930  0.679490  0.063888  1
  Lu  Lu11  1  0.179072  0.178579  0.433979  1
  Ni  Ni12  1  0.445214  0.393481  0.245314  1
  Ni  Ni13  1  0.554786  0.606519  0.754686  1
  Ni  Ni14  1  0.949025  0.104645  0.750830  1
  Ni  Ni15  1  0.050975  0.895355  0.249170  1
