# generated using pymatgen
data_Tb4SnB4Ir9
_symmetry_space_group_name_H-M   'P 1'
_cell_length_a   10.94007207
_cell_length_b   10.94007105
_cell_length_c   10.94007189
_cell_angle_alpha   29.49992330
_cell_angle_beta   29.49991893
_cell_angle_gamma   29.49992609
_symmetry_Int_Tables_number   1
_chemical_formula_structural   Tb4SnB4Ir9
_chemical_formula_sum   'Tb4 Sn1 B4 Ir9'
_cell_volume   281.02404237
_cell_formula_units_Z   1
loop_
 _symmetry_equiv_pos_site_id
 _symmetry_equiv_pos_as_xyz
  1  'x, y, z'
loop_
 _atom_site_type_symbol
 _atom_site_label
 _atom_site_symmetry_multiplicity
 _atom_site_fract_x
 _atom_site_fract_y
 _atom_site_fract_z
 _atom_site_occupancy
  Tb  Tb0  1  0.148909  0.148909  0.148909  1
  Tb  Tb1  1  0.950928  0.950928  0.950928  1
  Tb  Tb2  1  0.851091  0.851091  0.851091  1
  Tb  Tb3  1  0.049072  0.049072  0.049072  1
  Sn  Sn4  1  0.500000  0.500000  0.500000  1
  B  B5  1  0.616600  0.616600  0.616600  1
  B  B6  1  0.716655  0.716655  0.716655  1
  B  B7  1  0.383400  0.383400  0.383400  1
  B  B8  1  0.283345  0.283345  0.283345  1
  Ir  Ir9  1  0.403540  0.906466  0.403540  1
  Ir  Ir10  1  0.906466  0.403540  0.403540  1
  Ir  Ir11  1  0.500000  0.500000  0.000000  1
  Ir  Ir12  1  0.500000  0.000000  0.500000  1
  Ir  Ir13  1  0.000000  0.500000  0.500000  1
  Ir  Ir14  1  0.596460  0.093534  0.596460  1
  Ir  Ir15  1  0.596460  0.596460  0.093534  1
  Ir  Ir16  1  0.093534  0.596460  0.596460  1
  Ir  Ir17  1  0.403540  0.403540  0.906466  1
