# generated using pymatgen
data_Ta4Ti2AlGa3(IrC)2
_symmetry_space_group_name_H-M   'P 1'
_cell_length_a   8.26830487
_cell_length_b   8.26763635
_cell_length_c   8.27944900
_cell_angle_alpha   59.95801286
_cell_angle_beta   59.94842791
_cell_angle_gamma   60.09191490
_symmetry_Int_Tables_number   1
_chemical_formula_structural   Ta4Ti2AlGa3(IrC)2
_chemical_formula_sum   'Ta8 Ti4 Al2 Ga6 Ir4 C4'
_cell_volume   400.20009173
_cell_formula_units_Z   2
loop_
 _symmetry_equiv_pos_site_id
 _symmetry_equiv_pos_as_xyz
  1  'x, y, z'
loop_
 _atom_site_type_symbol
 _atom_site_label
 _atom_site_symmetry_multiplicity
 _atom_site_fract_x
 _atom_site_fract_y
 _atom_site_fract_z
 _atom_site_occupancy
  Ta  Ta0  1  0.691263  0.691045  0.309532  1
  Ta  Ta1  1  0.311444  0.310098  0.688433  1
  Ta  Ta2  1  0.560593  0.561965  0.939560  1
  Ta  Ta3  1  0.941720  0.558839  0.559334  1
  Ta  Ta4  1  0.558407  0.940183  0.940882  1
  Ta  Ta5  1  0.941346  0.939981  0.559470  1
  Ta  Ta6  1  0.690018  0.310183  0.690286  1
  Ta  Ta7  1  0.939945  0.560134  0.939312  1
  Ti  Ti8  1  0.559922  0.939548  0.561511  1
  Ti  Ti9  1  0.311887  0.688567  0.689372  1
  Ti  Ti10  1  0.688165  0.310684  0.311740  1
  Ti  Ti11  1  0.310407  0.688938  0.310143  1
  Al  Al12  1  0.250329  0.916246  0.914704  1
  Al  Al13  1  0.337208  0.332941  0.331732  1
  Ga  Ga14  1  0.916513  0.912253  0.912543  1
  Ga  Ga15  1  0.989135  0.335114  0.335099  1
  Ga  Ga16  1  0.335479  0.986650  0.341298  1
  Ga  Ga17  1  0.335361  0.340887  0.989039  1
  Ga  Ga18  1  0.912857  0.258306  0.916575  1
  Ga  Ga19  1  0.910641  0.915880  0.261097  1
  Ir  Ir20  1  0.129650  0.122102  0.122574  1
  Ir  Ir21  1  0.623816  0.125021  0.124943  1
  Ir  Ir22  1  0.127071  0.625060  0.127316  1
  Ir  Ir23  1  0.126664  0.127824  0.624706  1
  C  C24  1  0.622327  0.628955  0.624814  1
  C  C25  1  0.129481  0.626081  0.621968  1
  C  C26  1  0.625890  0.123699  0.622132  1
  C  C27  1  0.622459  0.622815  0.129887  1
