# generated using pymatgen
data_Y4Al16Co3Si2Ir3
_symmetry_space_group_name_H-M   'P 1'
_cell_length_a   7.45957256
_cell_length_b   7.45957202
_cell_length_c   9.29567735
_cell_angle_alpha   89.91389655
_cell_angle_beta   89.91389475
_cell_angle_gamma   119.62247742
_symmetry_Int_Tables_number   1
_chemical_formula_structural   Y4Al16Co3Si2Ir3
_chemical_formula_sum   'Y4 Al16 Co3 Si2 Ir3'
_cell_volume   449.65267156
_cell_formula_units_Z   1
loop_
 _symmetry_equiv_pos_site_id
 _symmetry_equiv_pos_as_xyz
  1  'x, y, z'
loop_
 _atom_site_type_symbol
 _atom_site_label
 _atom_site_symmetry_multiplicity
 _atom_site_fract_x
 _atom_site_fract_y
 _atom_site_fract_z
 _atom_site_occupancy
  Y  Y0  1  0.996746  0.674697  0.249647  1
  Y  Y1  1  0.008152  0.329504  0.750364  1
  Y  Y2  1  0.670496  0.991848  0.249636  1
  Y  Y3  1  0.325303  0.003254  0.750353  1
  Al  Al4  1  0.992664  0.329754  0.072918  1
  Al  Al5  1  0.992980  0.665107  0.927015  1
  Al  Al6  1  0.996830  0.670043  0.575078  1
  Al  Al7  1  0.329957  0.003170  0.424922  1
  Al  Al8  1  0.000700  0.328715  0.425238  1
  Al  Al9  1  0.671285  0.999300  0.574763  1
  Al  Al10  1  0.670246  0.007336  0.927082  1
  Al  Al11  1  0.334893  0.007020  0.072985  1
  Al  Al12  1  0.330689  0.330189  0.552936  1
  Al  Al13  1  0.669811  0.669311  0.447064  1
  Al  Al14  1  0.669850  0.666161  0.050292  1
  Al  Al15  1  0.333839  0.330150  0.949708  1
  Al  Al16  1  0.335266  0.542247  0.249203  1
  Al  Al17  1  0.663420  0.445766  0.756419  1
  Al  Al18  1  0.554234  0.336580  0.243581  1
  Al  Al19  1  0.457753  0.664734  0.750797  1
  Co  Co20  1  0.670221  0.329779  0.000000  1
  Co  Co21  1  0.999183  0.000817  0.000000  1
  Co  Co22  1  0.999863  0.000136  0.500000  1
  Si  Si23  1  0.118671  0.119903  0.248635  1
  Si  Si24  1  0.880097  0.881329  0.751365  1
  Ir  Ir25  1  0.327282  0.672718  0.000000  1
  Ir  Ir26  1  0.327917  0.672082  0.500000  1
  Ir  Ir27  1  0.671651  0.328349  0.500000  1
