# generated using pymatgen
data_Tb4HoTl2InBr
_symmetry_space_group_name_H-M   'P 1'
_cell_length_a   9.22866785
_cell_length_b   9.22866932
_cell_length_c   6.79800123
_cell_angle_alpha   89.98724865
_cell_angle_beta   89.98724924
_cell_angle_gamma   120.02956283
_symmetry_Int_Tables_number   1
_chemical_formula_structural   Tb4HoTl2InBr
_chemical_formula_sum   'Tb8 Ho2 Tl4 In2 Br2'
_cell_volume   501.25702937
_cell_formula_units_Z   2
loop_
 _symmetry_equiv_pos_site_id
 _symmetry_equiv_pos_as_xyz
  1  'x, y, z'
loop_
 _atom_site_type_symbol
 _atom_site_label
 _atom_site_symmetry_multiplicity
 _atom_site_fract_x
 _atom_site_fract_y
 _atom_site_fract_z
 _atom_site_occupancy
  Tb  Tb0  1  0.733448  0.733448  0.251598  1
  Tb  Tb1  1  0.999394  0.733306  0.748164  1
  Tb  Tb2  1  0.733306  0.999394  0.748164  1
  Tb  Tb3  1  0.266552  0.266552  0.748402  1
  Tb  Tb4  1  0.000606  0.266694  0.251836  1
  Tb  Tb5  1  0.266694  0.000606  0.251836  1
  Tb  Tb6  1  0.333985  0.666015  0.000000  1
  Tb  Tb7  1  0.666015  0.333985  0.000000  1
  Ho  Ho8  1  0.334061  0.665939  0.500000  1
  Ho  Ho9  1  0.665939  0.334061  0.500000  1
  Tl  Tl10  1  0.393264  0.000180  0.746925  1
  Tl  Tl11  1  0.999820  0.606736  0.253075  1
  Tl  Tl12  1  0.606736  0.999820  0.253075  1
  Tl  Tl13  1  0.000180  0.393264  0.746925  1
  In  In14  1  0.393777  0.393777  0.252489  1
  In  In15  1  0.606223  0.606223  0.747511  1
  Br  Br16  1  0.000000  0.000000  0.500000  1
  Br  Br17  1  0.000000  0.000000  0.000000  1
