# generated using pymatgen
data_Hf4Zr6Zn2SnBi4Pb
_symmetry_space_group_name_H-M   'P 1'
_cell_length_a   8.81052300
_cell_length_b   8.78599868
_cell_length_c   5.93037700
_cell_angle_alpha   90.00000000
_cell_angle_beta   90.00000000
_cell_angle_gamma   119.90796199
_symmetry_Int_Tables_number   1
_chemical_formula_structural   Hf4Zr6Zn2SnBi4Pb
_chemical_formula_sum   'Hf4 Zr6 Zn2 Sn1 Bi4 Pb1'
_cell_volume   397.93101631
_cell_formula_units_Z   1
loop_
 _symmetry_equiv_pos_site_id
 _symmetry_equiv_pos_as_xyz
  1  'x, y, z'
loop_
 _atom_site_type_symbol
 _atom_site_label
 _atom_site_symmetry_multiplicity
 _atom_site_fract_x
 _atom_site_fract_y
 _atom_site_fract_z
 _atom_site_occupancy
  Hf  Hf0  1  0.670601  0.334544  0.002488  1
  Hf  Hf1  1  0.329833  0.663341  0.002565  1
  Hf  Hf2  1  0.329833  0.663341  0.497435  1
  Hf  Hf3  1  0.670601  0.334544  0.497512  1
  Zr  Zr4  1  0.735467  0.734862  0.750000  1
  Zr  Zr5  1  0.264526  0.999187  0.750000  1
  Zr  Zr6  1  0.999826  0.265613  0.750000  1
  Zr  Zr7  1  0.263109  0.268623  0.250000  1
  Zr  Zr8  1  0.736868  0.004640  0.250000  1
  Zr  Zr9  1  0.999243  0.731132  0.250000  1
  Zn  Zn10  1  0.999553  0.999663  0.002452  1
  Zn  Zn11  1  0.999553  0.999663  0.497548  1
  Sn  Sn12  1  0.999934  0.385467  0.250000  1
  Bi  Bi13  1  0.387235  0.386229  0.750000  1
  Bi  Bi14  1  0.613577  0.998619  0.750000  1
  Bi  Bi15  1  0.999667  0.613223  0.750000  1
  Bi  Bi16  1  0.384963  0.000808  0.250000  1
  Pb  Pb17  1  0.615611  0.616504  0.250000  1
