# generated using pymatgen
data_K2Rb4(MoH9)3
_symmetry_space_group_name_H-M   'P 1'
_cell_length_a   9.47913838
_cell_length_b   10.29967991
_cell_length_c   6.15580200
_cell_angle_alpha   90.00000000
_cell_angle_beta   90.00000000
_cell_angle_gamma   122.90730563
_symmetry_Int_Tables_number   1
_chemical_formula_structural   K2Rb4(MoH9)3
_chemical_formula_sum   'K2 Rb4 Mo3 H27'
_cell_volume   504.57311831
_cell_formula_units_Z   1
loop_
 _symmetry_equiv_pos_site_id
 _symmetry_equiv_pos_as_xyz
  1  'x, y, z'
loop_
 _atom_site_type_symbol
 _atom_site_label
 _atom_site_symmetry_multiplicity
 _atom_site_fract_x
 _atom_site_fract_y
 _atom_site_fract_z
 _atom_site_occupancy
  K  K0  1  0.741407  0.761762  0.500000  1
  K  K1  1  0.258593  0.020353  0.500000  1
  Rb  Rb2  1  0.000000  0.210582  0.500000  1
  Rb  Rb3  1  0.000000  0.605621  0.000000  1
  Rb  Rb4  1  0.392338  0.396635  0.000000  1
  Rb  Rb5  1  0.607662  0.004297  0.000000  1
  Mo  Mo6  1  0.716396  0.348985  0.500000  1
  Mo  Mo7  1  0.283604  0.632589  0.500000  1
  Mo  Mo8  1  0.000000  0.977193  0.000000  1
  H  H9  1  0.768470  0.313297  0.753988  1
  H  H10  1  0.784815  0.518080  0.665258  1
  H  H11  1  0.544289  0.237941  0.660105  1
  H  H12  1  0.231530  0.544828  0.246012  1
  H  H13  1  0.544289  0.237941  0.339895  1
  H  H14  1  0.768470  0.313297  0.246012  1
  H  H15  1  0.784815  0.518080  0.334742  1
  H  H16  1  0.215185  0.733266  0.665258  1
  H  H17  1  0.455711  0.693653  0.660105  1
  H  H18  1  0.187544  0.980266  0.000000  1
  H  H19  1  0.812456  0.792723  0.000000  1
  H  H20  1  0.000000  0.145897  0.000000  1
  H  H21  1  0.859339  0.970416  0.197468  1
  H  H22  1  0.140661  0.111078  0.802532  1
  H  H23  1  0.000000  0.860599  0.785476  1
  H  H24  1  0.000000  0.860599  0.214524  1
  H  H25  1  0.140661  0.111078  0.197468  1
  H  H26  1  0.859339  0.970416  0.802532  1
  H  H27  1  0.174849  0.731106  0.500000  1
  H  H28  1  0.430477  0.826486  0.500000  1
  H  H29  1  0.324845  0.485884  0.500000  1
  H  H30  1  0.569523  0.396008  0.500000  1
  H  H31  1  0.825151  0.556257  0.500000  1
  H  H32  1  0.675155  0.161040  0.500000  1
  H  H33  1  0.231530  0.544828  0.753988  1
  H  H34  1  0.215185  0.733266  0.334742  1
  H  H35  1  0.455711  0.693653  0.339895  1
