# generated using pymatgen
data_Ac2Sb4Pt
_symmetry_space_group_name_H-M   'P 1'
_cell_length_a   4.61673800
_cell_length_b   4.61673800
_cell_length_c   10.27896100
_cell_angle_alpha   90.00000000
_cell_angle_beta   90.00000000
_cell_angle_gamma   90.00000000
_symmetry_Int_Tables_number   1
_chemical_formula_structural   Ac2Sb4Pt
_chemical_formula_sum   'Ac2 Sb4 Pt1'
_cell_volume   219.08854761
_cell_formula_units_Z   1
loop_
 _symmetry_equiv_pos_site_id
 _symmetry_equiv_pos_as_xyz
  1  'x, y, z'
loop_
 _atom_site_type_symbol
 _atom_site_label
 _atom_site_symmetry_multiplicity
 _atom_site_fract_x
 _atom_site_fract_y
 _atom_site_fract_z
 _atom_site_occupancy
  Ac  Ac0  1  0.500000  0.000000  0.762611  1
  Ac  Ac1  1  0.000000  0.500000  0.237389  1
  Sb  Sb2  1  0.500000  0.000000  0.127832  1
  Sb  Sb3  1  0.000000  0.500000  0.872168  1
  Sb  Sb4  1  0.500000  0.500000  0.500000  1
  Sb  Sb5  1  0.000000  0.000000  0.500000  1
  Pt  Pt6  1  0.500000  0.500000  0.000000  1
