# generated using pymatgen
data_Sm3Dy5(SiBr6)2
_symmetry_space_group_name_H-M   'P 1'
_cell_length_a   4.08972400
_cell_length_b   13.38540429
_cell_length_c   14.14560575
_cell_angle_alpha   89.78153138
_cell_angle_beta   90.00000000
_cell_angle_gamma   90.00000000
_symmetry_Int_Tables_number   1
_chemical_formula_structural   Sm3Dy5(SiBr6)2
_chemical_formula_sum   'Sm3 Dy5 Si2 Br12'
_cell_volume   774.36173766
_cell_formula_units_Z   1
loop_
 _symmetry_equiv_pos_site_id
 _symmetry_equiv_pos_as_xyz
  1  'x, y, z'
loop_
 _atom_site_type_symbol
 _atom_site_label
 _atom_site_symmetry_multiplicity
 _atom_site_fract_x
 _atom_site_fract_y
 _atom_site_fract_z
 _atom_site_occupancy
  Sm  Sm0  1  0.000000  0.120142  0.579877  1
  Sm  Sm1  1  0.000000  0.879947  0.419888  1
  Sm  Sm2  1  0.000000  0.618855  0.920684  1
  Dy  Dy3  1  0.500000  0.117930  0.341472  1
  Dy  Dy4  1  0.500000  0.882529  0.658051  1
  Dy  Dy5  1  0.500000  0.616630  0.157980  1
  Dy  Dy6  1  0.500000  0.382380  0.842639  1
  Dy  Dy7  1  0.000000  0.381692  0.078849  1
  Si  Si8  1  0.500000  0.000178  0.499675  1
  Si  Si9  1  0.500000  0.498088  0.001266  1
  Br  Br10  1  0.500000  0.246261  0.163234  1
  Br  Br11  1  0.500000  0.758538  0.835008  1
  Br  Br12  1  0.500000  0.739786  0.333889  1
  Br  Br13  1  0.500000  0.259565  0.666572  1
  Br  Br14  1  0.000000  0.254053  0.407010  1
  Br  Br15  1  0.000000  0.746106  0.592572  1
  Br  Br16  1  0.000000  0.753215  0.092146  1
  Br  Br17  1  0.000000  0.247392  0.911820  1
  Br  Br18  1  0.000000  0.006950  0.242304  1
  Br  Br19  1  0.000000  0.993793  0.757223  1
  Br  Br20  1  0.000000  0.501966  0.254448  1
  Br  Br21  1  0.000000  0.494005  0.743394  1
