# generated using pymatgen
data_Y8Si8Pd3Pt5
_symmetry_space_group_name_H-M   'P 1'
_cell_length_a   4.28137100
_cell_length_b   7.52872364
_cell_length_c   14.09348111
_cell_angle_alpha   89.92410428
_cell_angle_beta   90.00000000
_cell_angle_gamma   90.00000000
_symmetry_Int_Tables_number   1
_chemical_formula_structural   Y8Si8Pd3Pt5
_chemical_formula_sum   'Y8 Si8 Pd3 Pt5'
_cell_volume   454.27842919
_cell_formula_units_Z   1
loop_
 _symmetry_equiv_pos_site_id
 _symmetry_equiv_pos_as_xyz
  1  'x, y, z'
loop_
 _atom_site_type_symbol
 _atom_site_label
 _atom_site_symmetry_multiplicity
 _atom_site_fract_x
 _atom_site_fract_y
 _atom_site_fract_z
 _atom_site_occupancy
  Y  Y0  1  0.500000  0.796386  0.750824  1
  Y  Y1  1  0.000000  0.203580  0.749574  1
  Y  Y2  1  0.500000  0.795566  0.249796  1
  Y  Y3  1  0.000000  0.202868  0.249946  1
  Y  Y4  1  0.500000  0.705649  0.999979  1
  Y  Y5  1  0.000000  0.294119  0.499352  1
  Y  Y6  1  0.500000  0.700046  0.500293  1
  Y  Y7  1  0.000000  0.299851  0.999992  1
  Si  Si8  1  0.500000  0.403201  0.642940  1
  Si  Si9  1  0.000000  0.596496  0.857975  1
  Si  Si10  1  0.500000  0.403907  0.352593  1
  Si  Si11  1  0.000000  0.592844  0.144283  1
  Si  Si12  1  0.500000  0.094313  0.092905  1
  Si  Si13  1  0.000000  0.908119  0.408622  1
  Si  Si14  1  0.500000  0.092442  0.908284  1
  Si  Si15  1  0.000000  0.907633  0.592130  1
  Pd  Pd16  1  0.000000  0.580388  0.344156  1
  Pd  Pd17  1  0.500000  0.422859  0.838864  1
  Pd  Pd18  1  0.000000  0.577996  0.659092  1
  Pt  Pt19  1  0.500000  0.074018  0.607982  1
  Pt  Pt20  1  0.000000  0.926076  0.892364  1
  Pt  Pt21  1  0.500000  0.074518  0.392311  1
  Pt  Pt22  1  0.000000  0.923948  0.108295  1
  Pt  Pt23  1  0.500000  0.423177  0.157449  1
