# generated using pymatgen
data_HoNi3BIr
_symmetry_space_group_name_H-M   'P 1'
_cell_length_a   5.17231700
_cell_length_b   5.05528861
_cell_length_c   7.07934200
_cell_angle_alpha   90.00000000
_cell_angle_beta   90.00000000
_cell_angle_gamma   120.76878002
_symmetry_Int_Tables_number   1
_chemical_formula_structural   HoNi3BIr
_chemical_formula_sum   'Ho2 Ni6 B2 Ir2'
_cell_volume   159.05152966
_cell_formula_units_Z   2
loop_
 _symmetry_equiv_pos_site_id
 _symmetry_equiv_pos_as_xyz
  1  'x, y, z'
loop_
 _atom_site_type_symbol
 _atom_site_label
 _atom_site_symmetry_multiplicity
 _atom_site_fract_x
 _atom_site_fract_y
 _atom_site_fract_z
 _atom_site_occupancy
  Ho  Ho0  1  0.000000  0.000000  0.500000  1
  Ho  Ho1  1  0.000000  0.000000  0.000000  1
  Ni  Ni2  1  0.500000  0.000000  0.798146  1
  Ni  Ni3  1  0.000000  0.500000  0.788739  1
  Ni  Ni4  1  0.346215  0.692431  0.500000  1
  Ni  Ni5  1  0.653785  0.307569  0.500000  1
  Ni  Ni6  1  0.500000  0.000000  0.201854  1
  Ni  Ni7  1  0.500000  0.500000  0.211261  1
  B  B8  1  0.330711  0.661423  0.000000  1
  B  B9  1  0.669289  0.338577  0.000000  1
  Ir  Ir10  1  0.000000  0.500000  0.216468  1
  Ir  Ir11  1  0.500000  0.500000  0.783532  1
