# generated using pymatgen
data_Zr10ZnGa(BiSb)2
_symmetry_space_group_name_H-M   'P 1'
_cell_length_a   5.61518226
_cell_length_b   8.41350887
_cell_length_c   8.43842433
_cell_angle_alpha   96.37453596
_cell_angle_beta   109.43366217
_cell_angle_gamma   70.50645691
_symmetry_Int_Tables_number   1
_chemical_formula_structural   Zr10ZnGa(BiSb)2
_chemical_formula_sum   'Zr10 Zn1 Ga1 Bi2 Sb2'
_cell_volume   354.39741151
_cell_formula_units_Z   1
loop_
 _symmetry_equiv_pos_site_id
 _symmetry_equiv_pos_as_xyz
  1  'x, y, z'
loop_
 _atom_site_type_symbol
 _atom_site_label
 _atom_site_symmetry_multiplicity
 _atom_site_fract_x
 _atom_site_fract_y
 _atom_site_fract_z
 _atom_site_occupancy
  Zr  Zr0  1  0.422378  0.866711  0.710681  1
  Zr  Zr1  1  0.578409  0.133289  0.289319  1
  Zr  Zr2  1  0.929356  0.283943  0.143012  1
  Zr  Zr3  1  0.070288  0.716057  0.856988  1
  Zr  Zr4  1  0.713655  0.716057  0.143012  1
  Zr  Zr5  1  0.286700  0.283943  0.856988  1
  Zr  Zr6  1  0.788304  0.133289  0.710681  1
  Zr  Zr7  1  0.210911  0.866711  0.289319  1
  Zr  Zr8  1  0.248151  0.500000  0.500000  1
  Zr  Zr9  1  0.751849  0.500000  0.500000  1
  Zn  Zn10  1  0.750000  0.000000  0.000000  1
  Ga  Ga11  1  0.250000  0.000000  0.000000  1
  Bi  Bi12  1  0.334060  0.500000  0.168122  1
  Bi  Bi13  1  0.665940  0.500000  0.831878  1
  Sb  Sb14  1  0.836623  0.826752  0.500000  1
  Sb  Sb15  1  0.163377  0.173248  0.500000  1
