# generated using pymatgen
data_Yb7Cu(PdO6)2
_symmetry_space_group_name_H-M   'P 1'
_cell_length_a   6.39335201
_cell_length_b   6.39335265
_cell_length_c   6.39335354
_cell_angle_alpha   90.38668100
_cell_angle_beta   90.38668143
_cell_angle_gamma   90.38669867
_symmetry_Int_Tables_number   1
_chemical_formula_structural   Yb7Cu(PdO6)2
_chemical_formula_sum   'Yb7 Cu1 Pd2 O12'
_cell_volume   261.31009641
_cell_formula_units_Z   1
loop_
 _symmetry_equiv_pos_site_id
 _symmetry_equiv_pos_as_xyz
  1  'x, y, z'
loop_
 _atom_site_type_symbol
 _atom_site_label
 _atom_site_symmetry_multiplicity
 _atom_site_fract_x
 _atom_site_fract_y
 _atom_site_fract_z
 _atom_site_occupancy
  Yb  Yb0  1  0.750000  0.750000  0.750000  1
  Yb  Yb1  1  0.750000  0.120729  0.379271  1
  Yb  Yb2  1  0.379271  0.750000  0.120729  1
  Yb  Yb3  1  0.120729  0.379271  0.750000  1
  Yb  Yb4  1  0.250000  0.886779  0.613221  1
  Yb  Yb5  1  0.613221  0.250000  0.886779  1
  Yb  Yb6  1  0.886779  0.613221  0.250000  1
  Cu  Cu7  1  0.250000  0.250000  0.250000  1
  Pd  Pd8  1  0.000627  0.000627  0.000627  1
  Pd  Pd9  1  0.499373  0.499373  0.499373  1
  O  O10  1  0.575381  0.801124  0.442926  1
  O  O11  1  0.442926  0.575381  0.801124  1
  O  O12  1  0.801124  0.442926  0.575381  1
  O  O13  1  0.924619  0.057074  0.698876  1
  O  O14  1  0.698876  0.924619  0.057074  1
  O  O15  1  0.057074  0.698876  0.924619  1
  O  O16  1  0.418529  0.198814  0.549841  1
  O  O17  1  0.549841  0.418529  0.198814  1
  O  O18  1  0.198814  0.549841  0.418529  1
  O  O19  1  0.081471  0.950159  0.301186  1
  O  O20  1  0.950159  0.301186  0.081471  1
  O  O21  1  0.301186  0.081471  0.950159  1
