# generated using pymatgen
data_CeHo7Cu3Si12Rh
_symmetry_space_group_name_H-M   'P 1'
_cell_length_a   8.01408500
_cell_length_b   8.01408588
_cell_length_c   8.07267300
_cell_angle_alpha   89.99995710
_cell_angle_beta   90.00004290
_cell_angle_gamma   120.00009955
_symmetry_Int_Tables_number   1
_chemical_formula_structural   CeHo7Cu3Si12Rh
_chemical_formula_sum   'Ce1 Ho7 Cu3 Si12 Rh1'
_cell_volume   449.00946250
_cell_formula_units_Z   1
loop_
 _symmetry_equiv_pos_site_id
 _symmetry_equiv_pos_as_xyz
  1  'x, y, z'
loop_
 _atom_site_type_symbol
 _atom_site_label
 _atom_site_symmetry_multiplicity
 _atom_site_fract_x
 _atom_site_fract_y
 _atom_site_fract_z
 _atom_site_occupancy
  Ce  Ce0  1  0.000000  0.000000  0.250277  1
  Ho  Ho1  1  0.000000  0.000000  0.750120  1
  Ho  Ho2  1  0.999307  0.499653  0.251744  1
  Ho  Ho3  1  0.500346  0.499654  0.251744  1
  Ho  Ho4  1  0.500933  0.001866  0.748282  1
  Ho  Ho5  1  0.500347  0.000693  0.251744  1
  Ho  Ho6  1  0.500932  0.499068  0.748283  1
  Ho  Ho7  1  0.998134  0.499067  0.748282  1
  Cu  Cu8  1  0.333332  0.666668  0.996742  1
  Cu  Cu9  1  0.333333  0.666667  0.500788  1
  Cu  Cu10  1  0.666667  0.333333  0.000097  1
  Si  Si11  1  0.169174  0.338348  0.999820  1
  Si  Si12  1  0.661652  0.830826  0.999820  1
  Si  Si13  1  0.168397  0.336795  0.502848  1
  Si  Si14  1  0.338523  0.169262  0.998046  1
  Si  Si15  1  0.169174  0.830826  0.999820  1
  Si  Si16  1  0.663205  0.831603  0.502848  1
  Si  Si17  1  0.830738  0.661477  0.998046  1
  Si  Si18  1  0.335244  0.167621  0.499355  1
  Si  Si19  1  0.168397  0.831603  0.502848  1
  Si  Si20  1  0.832379  0.664756  0.499355  1
  Si  Si21  1  0.830739  0.169261  0.998047  1
  Si  Si22  1  0.832379  0.167621  0.499355  1
  Rh  Rh23  1  0.666667  0.333333  0.501690  1
