# generated using pymatgen
data_TmScV3Si7Pt9
_symmetry_space_group_name_H-M   'P 1'
_cell_length_a   9.86185100
_cell_length_b   9.86185119
_cell_length_c   3.88507900
_cell_angle_alpha   90.00000000
_cell_angle_beta   90.00000000
_cell_angle_gamma   119.99999602
_symmetry_Int_Tables_number   1
_chemical_formula_structural   TmScV3Si7Pt9
_chemical_formula_sum   'Tm1 Sc1 V3 Si7 Pt9'
_cell_volume   327.22568453
_cell_formula_units_Z   1
loop_
 _symmetry_equiv_pos_site_id
 _symmetry_equiv_pos_as_xyz
  1  'x, y, z'
loop_
 _atom_site_type_symbol
 _atom_site_label
 _atom_site_symmetry_multiplicity
 _atom_site_fract_x
 _atom_site_fract_y
 _atom_site_fract_z
 _atom_site_occupancy
  Tm  Tm0  1  0.333333  0.666667  0.500000  1
  Sc  Sc1  1  0.000000  0.000000  0.000000  1
  V  V2  1  0.881069  0.450744  0.500000  1
  V  V3  1  0.569675  0.118931  0.500000  1
  V  V4  1  0.549256  0.430325  0.500000  1
  Si  Si5  1  0.254038  0.209899  0.500000  1
  Si  Si6  1  0.790101  0.044141  0.500000  1
  Si  Si7  1  0.955859  0.745962  0.500000  1
  Si  Si8  1  0.553653  0.632711  0.000000  1
  Si  Si9  1  0.367289  0.920940  0.000000  1
  Si  Si10  1  0.079060  0.446347  0.000000  1
  Si  Si11  1  0.666667  0.333333  0.000000  1
  Pt  Pt12  1  0.221675  0.946129  0.500000  1
  Pt  Pt13  1  0.053871  0.275547  0.500000  1
  Pt  Pt14  1  0.724453  0.778325  0.500000  1
  Pt  Pt15  1  0.305118  0.409961  0.000000  1
  Pt  Pt16  1  0.590039  0.895158  0.000000  1
  Pt  Pt17  1  0.104842  0.694882  0.000000  1
  Pt  Pt18  1  0.390479  0.178202  0.000000  1
  Pt  Pt19  1  0.821798  0.212278  0.000000  1
  Pt  Pt20  1  0.787722  0.609521  0.000000  1
