# generated using pymatgen
data_Tm2ZnBRh5
_symmetry_space_group_name_H-M   'P 1'
_cell_length_a   5.90894707
_cell_length_b   5.75582092
_cell_length_c   5.75582033
_cell_angle_alpha   61.76804036
_cell_angle_beta   59.11597900
_cell_angle_gamma   59.11598394
_symmetry_Int_Tables_number   1
_chemical_formula_structural   Tm2ZnBRh5
_chemical_formula_sum   'Tm2 Zn1 B1 Rh5'
_cell_volume   138.22209682
_cell_formula_units_Z   1
loop_
 _symmetry_equiv_pos_site_id
 _symmetry_equiv_pos_as_xyz
  1  'x, y, z'
loop_
 _atom_site_type_symbol
 _atom_site_label
 _atom_site_symmetry_multiplicity
 _atom_site_fract_x
 _atom_site_fract_y
 _atom_site_fract_z
 _atom_site_occupancy
  Tm  Tm0  1  0.249394  0.250606  0.250606  1
  Tm  Tm1  1  0.749394  0.750606  0.750606  1
  Zn  Zn2  1  0.781905  0.218094  0.218094  1
  B  B3  1  0.489584  0.510416  0.510416  1
  Rh  Rh4  1  0.248085  0.751914  0.249153  1
  Rh  Rh5  1  0.750846  0.751914  0.249153  1
  Rh  Rh6  1  0.248085  0.249153  0.751914  1
  Rh  Rh7  1  0.750846  0.249153  0.751914  1
  Rh  Rh8  1  0.231859  0.768140  0.768140  1
