# generated using pymatgen
data_TbHo5Al24GaOs7
_symmetry_space_group_name_H-M   'P 1'
_cell_length_a   8.85938750
_cell_length_b   8.85881488
_cell_length_c   9.54637203
_cell_angle_alpha   90.13551090
_cell_angle_beta   89.84614492
_cell_angle_gamma   119.88670340
_symmetry_Int_Tables_number   1
_chemical_formula_structural   TbHo5Al24GaOs7
_chemical_formula_sum   'Tb1 Ho5 Al24 Ga1 Os7'
_cell_volume   649.59268004
_cell_formula_units_Z   1
loop_
 _symmetry_equiv_pos_site_id
 _symmetry_equiv_pos_as_xyz
  1  'x, y, z'
loop_
 _atom_site_type_symbol
 _atom_site_label
 _atom_site_symmetry_multiplicity
 _atom_site_fract_x
 _atom_site_fract_y
 _atom_site_fract_z
 _atom_site_occupancy
  Tb  Tb0  1  0.191923  0.384746  0.245237  1
  Ho  Ho1  1  0.807936  0.614503  0.754598  1
  Ho  Ho2  1  0.614598  0.808085  0.245443  1
  Ho  Ho3  1  0.385485  0.192039  0.754556  1
  Ho  Ho4  1  0.194575  0.805563  0.256189  1
  Ho  Ho5  1  0.805435  0.194633  0.743765  1
  Al  Al6  1  0.327219  0.673153  0.022270  1
  Al  Al7  1  0.672847  0.327131  0.977503  1
  Al  Al8  1  0.665959  0.334060  0.518864  1
  Al  Al9  1  0.334189  0.666198  0.481333  1
  Al  Al10  1  0.162557  0.325704  0.571436  1
  Al  Al11  1  0.837502  0.674296  0.428833  1
  Al  Al12  1  0.674308  0.837438  0.571259  1
  Al  Al13  1  0.852980  0.678771  0.081865  1
  Al  Al14  1  0.325785  0.162441  0.428873  1
  Al  Al15  1  0.146993  0.321218  0.917899  1
  Al  Al16  1  0.162903  0.837058  0.576252  1
  Al  Al17  1  0.321282  0.146841  0.081784  1
  Al  Al18  1  0.836896  0.162847  0.423850  1
  Al  Al19  1  0.678801  0.853025  0.918080  1
  Al  Al20  1  0.836624  0.163023  0.076532  1
  Al  Al21  1  0.163168  0.836884  0.923340  1
  Al  Al22  1  0.561903  0.120666  0.249520  1
  Al  Al23  1  0.438094  0.879311  0.750484  1
  Al  Al24  1  0.878992  0.438178  0.249528  1
  Al  Al25  1  0.120708  0.561924  0.750445  1
  Al  Al26  1  0.566044  0.434403  0.258388  1
  Al  Al27  1  0.434314  0.565683  0.741715  1
  Al  Al28  1  0.998581  0.000759  0.250767  1
  Al  Al29  1  0.001168  0.998788  0.749242  1
  Ga  Ga30  1  0.500057  0.500057  0.999952  1
  Os  Os31  1  0.500084  0.000105  0.999949  1
  Os  Os32  1  0.999839  0.500132  0.999743  1
  Os  Os33  1  0.500079  0.000140  0.500069  1
  Os  Os34  1  0.999883  0.500086  0.500204  1
  Os  Os35  1  0.500289  0.500113  0.500217  1
  Os  Os36  1  0.000011  0.000002  0.999951  1
  Os  Os37  1  0.999988  0.999995  0.500061  1
