# generated using pymatgen
data_YTmIn(AsRh2)6
_symmetry_space_group_name_H-M   'P 1'
_cell_length_a   10.05238100
_cell_length_b   10.05238134
_cell_length_c   3.96157800
_cell_angle_alpha   90.00000000
_cell_angle_beta   90.00000000
_cell_angle_gamma   119.99999558
_symmetry_Int_Tables_number   1
_chemical_formula_structural   YTmIn(AsRh2)6
_chemical_formula_sum   'Y1 Tm1 In1 As6 Rh12'
_cell_volume   346.68636258
_cell_formula_units_Z   1
loop_
 _symmetry_equiv_pos_site_id
 _symmetry_equiv_pos_as_xyz
  1  'x, y, z'
loop_
 _atom_site_type_symbol
 _atom_site_label
 _atom_site_symmetry_multiplicity
 _atom_site_fract_x
 _atom_site_fract_y
 _atom_site_fract_z
 _atom_site_occupancy
  Y  Y0  1  0.000000  0.000000  0.245798  1
  Tm  Tm1  1  0.333333  0.666667  0.755723  1
  In  In2  1  0.666667  0.333333  0.587575  1
  As  As3  1  0.954482  0.216130  0.747160  1
  As  As4  1  0.783870  0.738352  0.747160  1
  As  As5  1  0.261648  0.045518  0.747160  1
  As  As6  1  0.378211  0.449668  0.254581  1
  As  As7  1  0.550332  0.928543  0.254581  1
  As  As8  1  0.071457  0.621789  0.254581  1
  Rh  Rh9  1  0.732767  0.949886  0.750043  1
  Rh  Rh10  1  0.050114  0.782881  0.750043  1
  Rh  Rh11  1  0.217119  0.267233  0.750043  1
  Rh  Rh12  1  0.601318  0.719708  0.252079  1
  Rh  Rh13  1  0.280292  0.881611  0.252079  1
  Rh  Rh14  1  0.118389  0.398682  0.252079  1
  Rh  Rh15  1  0.959479  0.462489  0.756924  1
  Rh  Rh16  1  0.537511  0.496990  0.756924  1
  Rh  Rh17  1  0.503010  0.040521  0.756924  1
  Rh  Rh18  1  0.388758  0.209314  0.244241  1
  Rh  Rh19  1  0.790686  0.179442  0.244241  1
  Rh  Rh20  1  0.820558  0.611242  0.244241  1
