# generated using pymatgen
data_SrLa6SeBr12
_symmetry_space_group_name_H-M   'P 1'
_cell_length_a   9.50272951
_cell_length_b   9.50052684
_cell_length_c   9.50159900
_cell_angle_alpha   106.02967686
_cell_angle_beta   106.03886600
_cell_angle_gamma   106.02410442
_symmetry_Int_Tables_number   1
_chemical_formula_structural   SrLa6SeBr12
_chemical_formula_sum   'Sr1 La6 Se1 Br12'
_cell_volume   732.46115436
_cell_formula_units_Z   1
loop_
 _symmetry_equiv_pos_site_id
 _symmetry_equiv_pos_as_xyz
  1  'x, y, z'
loop_
 _atom_site_type_symbol
 _atom_site_label
 _atom_site_symmetry_multiplicity
 _atom_site_fract_x
 _atom_site_fract_y
 _atom_site_fract_z
 _atom_site_occupancy
  Sr  Sr0  1  0.500000  0.500000  0.500000  1
  La  La1  1  0.104390  0.320347  0.021737  1
  La  La2  1  0.320329  0.021713  0.104463  1
  La  La3  1  0.021750  0.104461  0.320332  1
  La  La4  1  0.978249  0.895539  0.679668  1
  La  La5  1  0.679671  0.978286  0.895536  1
  La  La6  1  0.895610  0.679653  0.978263  1
  Se  Se7  1  0.000000  0.000000  0.000000  1
  Br  Br8  1  0.228230  0.678863  0.075464  1
  Br  Br9  1  0.453789  0.370619  0.149466  1
  Br  Br10  1  0.678887  0.075490  0.228186  1
  Br  Br11  1  0.924566  0.771788  0.321137  1
  Br  Br12  1  0.149458  0.453854  0.370619  1
  Br  Br13  1  0.370600  0.149434  0.453840  1
  Br  Br14  1  0.629400  0.850566  0.546160  1
  Br  Br15  1  0.850541  0.546146  0.629381  1
  Br  Br16  1  0.075435  0.228213  0.678864  1
  Br  Br17  1  0.321114  0.924511  0.771814  1
  Br  Br18  1  0.546210  0.629380  0.850534  1
  Br  Br19  1  0.771770  0.321138  0.924536  1
