# generated using pymatgen
data_DyEr3(MoN3)4
_symmetry_space_group_name_H-M   'P 1'
_cell_length_a   7.31212627
_cell_length_b   7.31212584
_cell_length_c   6.25708922
_cell_angle_alpha   73.30066428
_cell_angle_beta   73.30066944
_cell_angle_gamma   81.10847901
_symmetry_Int_Tables_number   1
_chemical_formula_structural   DyEr3(MoN3)4
_chemical_formula_sum   'Dy1 Er3 Mo4 N12'
_cell_volume   305.97885693
_cell_formula_units_Z   1
loop_
 _symmetry_equiv_pos_site_id
 _symmetry_equiv_pos_as_xyz
  1  'x, y, z'
loop_
 _atom_site_type_symbol
 _atom_site_label
 _atom_site_symmetry_multiplicity
 _atom_site_fract_x
 _atom_site_fract_y
 _atom_site_fract_z
 _atom_site_occupancy
  Dy  Dy0  1  0.292496  0.707504  0.750000  1
  Er  Er1  1  0.912264  0.087736  0.750000  1
  Er  Er2  1  0.708412  0.291588  0.250000  1
  Er  Er3  1  0.086744  0.913256  0.250000  1
  Mo  Mo4  1  0.800851  0.618780  0.772578  1
  Mo  Mo5  1  0.199002  0.380644  0.228485  1
  Mo  Mo6  1  0.619356  0.800998  0.271515  1
  Mo  Mo7  1  0.381220  0.199149  0.727422  1
  N  N8  1  0.217751  0.000290  0.847640  1
  N  N9  1  0.368746  0.346124  0.429748  1
  N  N10  1  0.633301  0.653969  0.568607  1
  N  N11  1  0.626567  0.110448  0.661166  1
  N  N12  1  0.999710  0.782249  0.652360  1
  N  N13  1  0.781040  0.001672  0.152619  1
  N  N14  1  0.110794  0.626044  0.163260  1
  N  N15  1  0.889552  0.373433  0.838834  1
  N  N16  1  0.998328  0.218960  0.347381  1
  N  N17  1  0.346031  0.366699  0.931393  1
  N  N18  1  0.653876  0.631254  0.070252  1
  N  N19  1  0.373956  0.889206  0.336740  1
