# generated using pymatgen
data_Tb2DyInGa8Ru3
_symmetry_space_group_name_H-M   'P 1'
_cell_length_a   6.46066535
_cell_length_b   6.46196304
_cell_length_c   6.48338135
_cell_angle_alpha   90.00469287
_cell_angle_beta   90.01103420
_cell_angle_gamma   89.98831002
_symmetry_Int_Tables_number   1
_chemical_formula_structural   Tb2DyInGa8Ru3
_chemical_formula_sum   'Tb2 Dy1 In1 Ga8 Ru3'
_cell_volume   270.67195801
_cell_formula_units_Z   1
loop_
 _symmetry_equiv_pos_site_id
 _symmetry_equiv_pos_as_xyz
  1  'x, y, z'
loop_
 _atom_site_type_symbol
 _atom_site_label
 _atom_site_symmetry_multiplicity
 _atom_site_fract_x
 _atom_site_fract_y
 _atom_site_fract_z
 _atom_site_occupancy
  Tb  Tb0  1  0.499997  0.000017  0.499997  1
  Tb  Tb1  1  0.999960  0.499992  0.499993  1
  Dy  Dy2  1  0.500004  0.499996  0.000011  1
  In  In3  1  0.499979  0.500016  0.500003  1
  Ga  Ga4  1  0.208951  0.208912  0.791582  1
  Ga  Ga5  1  0.208978  0.791083  0.208443  1
  Ga  Ga6  1  0.791032  0.208920  0.208452  1
  Ga  Ga7  1  0.791038  0.791061  0.791550  1
  Ga  Ga8  1  0.791060  0.791104  0.208429  1
  Ga  Ga9  1  0.791025  0.208922  0.791559  1
  Ga  Ga10  1  0.208978  0.791058  0.791554  1
  Ga  Ga11  1  0.208974  0.208919  0.208443  1
  Ru  Ru12  1  0.000013  0.000008  0.499995  1
  Ru  Ru13  1  0.000045  0.500002  0.999991  1
  Ru  Ru14  1  0.499966  0.999990  0.000000  1
