# generated using pymatgen
data_Zr2Sc(Tc2W)3
_symmetry_space_group_name_H-M   'P 1'
_cell_length_a   4.49597400
_cell_length_b   6.37568100
_cell_length_c   13.60678900
_cell_angle_alpha   90.00000000
_cell_angle_beta   90.00033410
_cell_angle_gamma   90.00000000
_symmetry_Int_Tables_number   1
_chemical_formula_structural   Zr2Sc(Tc2W)3
_chemical_formula_sum   'Zr4 Sc2 Tc12 W6'
_cell_volume   390.03719169
_cell_formula_units_Z   2
loop_
 _symmetry_equiv_pos_site_id
 _symmetry_equiv_pos_as_xyz
  1  'x, y, z'
loop_
 _atom_site_type_symbol
 _atom_site_label
 _atom_site_symmetry_multiplicity
 _atom_site_fract_x
 _atom_site_fract_y
 _atom_site_fract_z
 _atom_site_occupancy
  Zr  Zr0  1  0.000006  0.000000  0.998091  1
  Zr  Zr1  1  0.499947  0.500000  0.165794  1
  Zr  Zr2  1  0.999945  0.000000  0.334190  1
  Zr  Zr3  1  0.500006  0.500000  0.501900  1
  Sc  Sc4  1  0.000048  0.000000  0.667388  1
  Sc  Sc5  1  0.500024  0.500000  0.832691  1
  Tc  Tc6  1  0.500005  0.250430  0.999618  1
  Tc  Tc7  1  0.500005  0.749571  0.999618  1
  Tc  Tc8  1  0.999953  0.248730  0.166513  1
  Tc  Tc9  1  0.999953  0.751269  0.166513  1
  Tc  Tc10  1  0.499949  0.251277  0.333460  1
  Tc  Tc11  1  0.499949  0.748722  0.333460  1
  Tc  Tc12  1  0.000009  0.249573  0.500372  1
  Tc  Tc13  1  0.000009  0.750426  0.500372  1
  Tc  Tc14  1  0.500064  0.249175  0.667077  1
  Tc  Tc15  1  0.500064  0.750824  0.667077  1
  Tc  Tc16  1  0.000060  0.250823  0.832941  1
  Tc  Tc17  1  0.000060  0.749176  0.832941  1
  W  W18  1  0.000008  0.500000  0.996475  1
  W  W19  1  0.499953  0.000000  0.165832  1
  W  W20  1  0.999959  0.500000  0.334140  1
  W  W21  1  0.500009  0.000000  0.503515  1
  W  W22  1  0.000058  0.500000  0.669673  1
  W  W23  1  0.500056  0.000000  0.830347  1
