# generated using pymatgen
data_Y20IrRu3Pt8
_symmetry_space_group_name_H-M   'P 1'
_cell_length_a   11.04673500
_cell_length_b   11.04673500
_cell_length_c   6.42678800
_cell_angle_alpha   90.00000000
_cell_angle_beta   90.00000000
_cell_angle_gamma   90.00000000
_symmetry_Int_Tables_number   1
_chemical_formula_structural   Y20IrRu3Pt8
_chemical_formula_sum   'Y20 Ir1 Ru3 Pt8'
_cell_volume   784.26321575
_cell_formula_units_Z   1
loop_
 _symmetry_equiv_pos_site_id
 _symmetry_equiv_pos_as_xyz
  1  'x, y, z'
loop_
 _atom_site_type_symbol
 _atom_site_label
 _atom_site_symmetry_multiplicity
 _atom_site_fract_x
 _atom_site_fract_y
 _atom_site_fract_z
 _atom_site_occupancy
  Y  Y0  1  0.296440  0.086570  0.373957  1
  Y  Y1  1  0.296631  0.913429  0.873999  1
  Y  Y2  1  0.703369  0.086571  0.873999  1
  Y  Y3  1  0.703560  0.913430  0.373957  1
  Y  Y4  1  0.586571  0.796631  0.873999  1
  Y  Y5  1  0.586570  0.203560  0.373957  1
  Y  Y6  1  0.413430  0.796440  0.373957  1
  Y  Y7  1  0.413429  0.203369  0.873999  1
  Y  Y8  1  0.204505  0.412669  0.626760  1
  Y  Y9  1  0.204364  0.587252  0.124999  1
  Y  Y10  1  0.795636  0.412748  0.124999  1
  Y  Y11  1  0.795495  0.587331  0.626760  1
  Y  Y12  1  0.912748  0.704364  0.124999  1
  Y  Y13  1  0.912669  0.295495  0.626760  1
  Y  Y14  1  0.087331  0.704505  0.626760  1
  Y  Y15  1  0.087252  0.295636  0.124999  1
  Y  Y16  1  0.000000  0.000000  0.499986  1
  Y  Y17  1  0.000000  0.000000  0.999837  1
  Y  Y18  1  0.500000  0.500000  0.999837  1
  Y  Y19  1  0.500000  0.500000  0.499986  1
  Ir  Ir20  1  0.000000  0.500000  0.377340  1
  Ru  Ru21  1  0.500000  0.000000  0.124833  1
  Ru  Ru22  1  0.500000  0.000000  0.624591  1
  Ru  Ru23  1  0.000000  0.500000  0.875536  1
  Pt  Pt24  1  0.846253  0.153924  0.249930  1
  Pt  Pt25  1  0.846292  0.845931  0.749868  1
  Pt  Pt26  1  0.153708  0.154069  0.749868  1
  Pt  Pt27  1  0.153747  0.846076  0.249930  1
  Pt  Pt28  1  0.654069  0.346292  0.749868  1
  Pt  Pt29  1  0.653924  0.653747  0.249930  1
  Pt  Pt30  1  0.346076  0.346253  0.249930  1
  Pt  Pt31  1  0.345931  0.653708  0.749868  1
