# generated using pymatgen
data_Ho4Co19P12Os
_symmetry_space_group_name_H-M   'P 1'
_cell_length_a   3.65745800
_cell_length_b   10.28065860
_cell_length_c   11.71282534
_cell_angle_alpha   90.09005739
_cell_angle_beta   90.00000000
_cell_angle_gamma   90.00000000
_symmetry_Int_Tables_number   1
_chemical_formula_structural   Ho4Co19P12Os
_chemical_formula_sum   'Ho4 Co19 P12 Os1'
_cell_volume   440.41430387
_cell_formula_units_Z   1
loop_
 _symmetry_equiv_pos_site_id
 _symmetry_equiv_pos_as_xyz
  1  'x, y, z'
loop_
 _atom_site_type_symbol
 _atom_site_label
 _atom_site_symmetry_multiplicity
 _atom_site_fract_x
 _atom_site_fract_y
 _atom_site_fract_z
 _atom_site_occupancy
  Ho  Ho0  1  0.250000  0.583734  0.702570  1
  Ho  Ho1  1  0.250000  0.918518  0.202026  1
  Ho  Ho2  1  0.750000  0.416183  0.297577  1
  Ho  Ho3  1  0.750000  0.085913  0.795035  1
  Co  Co4  1  0.250000  0.782461  0.492566  1
  Co  Co5  1  0.750000  0.284328  0.009308  1
  Co  Co6  1  0.750000  0.216619  0.508156  1
  Co  Co7  1  0.250000  0.406604  0.488224  1
  Co  Co8  1  0.250000  0.093846  0.987295  1
  Co  Co9  1  0.750000  0.592792  0.511915  1
  Co  Co10  1  0.750000  0.908661  0.010536  1
  Co  Co11  1  0.250000  0.220366  0.177519  1
  Co  Co12  1  0.250000  0.278422  0.676008  1
  Co  Co13  1  0.750000  0.778487  0.823041  1
  Co  Co14  1  0.750000  0.722421  0.323332  1
  Co  Co15  1  0.250000  0.883583  0.698847  1
  Co  Co16  1  0.250000  0.613676  0.201887  1
  Co  Co17  1  0.750000  0.115901  0.301511  1
  Co  Co18  1  0.750000  0.383051  0.800505  1
  Co  Co19  1  0.250000  0.464662  0.932854  1
  Co  Co20  1  0.250000  0.031653  0.431848  1
  Co  Co21  1  0.750000  0.533582  0.068582  1
  Co  Co22  1  0.750000  0.967748  0.568529  1
  P  P23  1  0.250000  0.416618  0.113441  1
  P  P24  1  0.250000  0.081569  0.611699  1
  P  P25  1  0.750000  0.578815  0.885885  1
  P  P26  1  0.750000  0.919003  0.387994  1
  P  P27  1  0.250000  0.269709  0.868875  1
  P  P28  1  0.250000  0.228824  0.370404  1
  P  P29  1  0.750000  0.730121  0.133488  1
  P  P30  1  0.750000  0.770638  0.629237  1
  P  P31  1  0.250000  0.600434  0.392909  1
  P  P32  1  0.250000  0.905543  0.888298  1
  P  P33  1  0.750000  0.398409  0.608340  1
  P  P34  1  0.750000  0.102659  0.109007  1
  Os  Os35  1  0.250000  0.714450  0.990752  1
