# generated using pymatgen
data_YCd2(P3Pd10)2
_symmetry_space_group_name_H-M   'P 1'
_cell_length_a   8.63304947
_cell_length_b   8.63304938
_cell_length_c   8.63304900
_cell_angle_alpha   59.99999762
_cell_angle_beta   59.99999797
_cell_angle_gamma   59.99999608
_symmetry_Int_Tables_number   1
_chemical_formula_structural   YCd2(P3Pd10)2
_chemical_formula_sum   'Y1 Cd2 P6 Pd20'
_cell_volume   454.96463028
_cell_formula_units_Z   1
loop_
 _symmetry_equiv_pos_site_id
 _symmetry_equiv_pos_as_xyz
  1  'x, y, z'
loop_
 _atom_site_type_symbol
 _atom_site_label
 _atom_site_symmetry_multiplicity
 _atom_site_fract_x
 _atom_site_fract_y
 _atom_site_fract_z
 _atom_site_occupancy
  Y  Y0  1  0.750000  0.750000  0.750000  1
  Cd  Cd1  1  0.250000  0.250000  0.250000  1
  Cd  Cd2  1  0.000000  0.000000  0.000000  1
  P  P3  1  0.734431  0.265569  0.265569  1
  P  P4  1  0.265569  0.734431  0.734431  1
  P  P5  1  0.265569  0.734431  0.265569  1
  P  P6  1  0.734431  0.265569  0.734431  1
  P  P7  1  0.265569  0.265569  0.734431  1
  P  P8  1  0.734431  0.734431  0.265569  1
  Pd  Pd9  1  0.382650  0.382650  0.382650  1
  Pd  Pd10  1  0.613833  0.613833  0.613833  1
  Pd  Pd11  1  0.382650  0.382650  0.852050  1
  Pd  Pd12  1  0.382650  0.852050  0.382650  1
  Pd  Pd13  1  0.613833  0.613833  0.158503  1
  Pd  Pd14  1  0.613833  0.158503  0.613833  1
  Pd  Pd15  1  0.852050  0.382650  0.382650  1
  Pd  Pd16  1  0.158503  0.613833  0.613833  1
  Pd  Pd17  1  0.345556  0.998160  0.998160  1
  Pd  Pd18  1  0.658124  0.998160  0.998160  1
  Pd  Pd19  1  0.998160  0.345556  0.658124  1
  Pd  Pd20  1  0.998160  0.658124  0.345556  1
  Pd  Pd21  1  0.998160  0.345556  0.998160  1
  Pd  Pd22  1  0.658124  0.998160  0.345556  1
  Pd  Pd23  1  0.998160  0.658124  0.998160  1
  Pd  Pd24  1  0.345556  0.998160  0.658124  1
  Pd  Pd25  1  0.998160  0.998160  0.345556  1
  Pd  Pd26  1  0.998160  0.998160  0.658124  1
  Pd  Pd27  1  0.658124  0.345556  0.998160  1
  Pd  Pd28  1  0.345556  0.658124  0.998160  1
