# generated using pymatgen
data_Tb3Mg3SiGePd
_symmetry_space_group_name_H-M   'P 1'
_cell_length_a   7.27715200
_cell_length_b   7.27715157
_cell_length_c   4.29790600
_cell_angle_alpha   90.00000000
_cell_angle_beta   90.00000000
_cell_angle_gamma   120.00000197
_symmetry_Int_Tables_number   1
_chemical_formula_structural   Tb3Mg3SiGePd
_chemical_formula_sum   'Tb3 Mg3 Si1 Ge1 Pd1'
_cell_volume   197.11079182
_cell_formula_units_Z   1
loop_
 _symmetry_equiv_pos_site_id
 _symmetry_equiv_pos_as_xyz
  1  'x, y, z'
loop_
 _atom_site_type_symbol
 _atom_site_label
 _atom_site_symmetry_multiplicity
 _atom_site_fract_x
 _atom_site_fract_y
 _atom_site_fract_z
 _atom_site_occupancy
  Tb  Tb0  1  0.584033  0.001471  0.000000  1
  Tb  Tb1  1  0.998529  0.582562  0.000000  1
  Tb  Tb2  1  0.417438  0.415967  0.000000  1
  Mg  Mg3  1  0.243763  0.000905  0.500000  1
  Mg  Mg4  1  0.999095  0.242857  0.500000  1
  Mg  Mg5  1  0.757143  0.756237  0.500000  1
  Si  Si6  1  0.666667  0.333333  0.500000  1
  Ge  Ge7  1  0.333333  0.666667  0.500000  1
  Pd  Pd8  1  0.000000  0.000000  0.000000  1
