# generated using pymatgen
data_NdEr3Zn10SiSn
_symmetry_space_group_name_H-M   'P 1'
_cell_length_a   8.27803029
_cell_length_b   8.27803091
_cell_length_c   8.88770192
_cell_angle_alpha   90.44404202
_cell_angle_beta   89.55595807
_cell_angle_gamma   149.70585512
_symmetry_Int_Tables_number   1
_chemical_formula_structural   NdEr3Zn10SiSn
_chemical_formula_sum   'Nd1 Er3 Zn10 Si1 Sn1'
_cell_volume   307.21224998
_cell_formula_units_Z   1
loop_
 _symmetry_equiv_pos_site_id
 _symmetry_equiv_pos_as_xyz
  1  'x, y, z'
loop_
 _atom_site_type_symbol
 _atom_site_label
 _atom_site_symmetry_multiplicity
 _atom_site_fract_x
 _atom_site_fract_y
 _atom_site_fract_z
 _atom_site_occupancy
  Nd  Nd0  1  0.001000  0.999000  0.013936  1
  Er  Er1  1  0.198365  0.801635  0.254507  1
  Er  Er2  1  0.798318  0.201682  0.746044  1
  Er  Er3  1  0.000252  0.999748  0.481065  1
  Zn  Zn4  1  0.812668  0.187332  0.386956  1
  Zn  Zn5  1  0.185901  0.814099  0.609673  1
  Zn  Zn6  1  0.809219  0.190781  0.104634  1
  Zn  Zn7  1  0.190053  0.809947  0.898141  1
  Zn  Zn8  1  0.648479  0.351521  0.476783  1
  Zn  Zn9  1  0.343455  0.656545  0.514245  1
  Zn  Zn10  1  0.650062  0.349938  0.032295  1
  Zn  Zn11  1  0.346224  0.653776  0.979987  1
  Zn  Zn12  1  0.401475  0.598525  0.248639  1
  Zn  Zn13  1  0.610380  0.389620  0.755373  1
  Si  Si14  1  0.555668  0.444332  0.255898  1
  Sn  Sn15  1  0.448479  0.551521  0.741825  1
