# generated using pymatgen
data_TaNb11Al5Au3N4
_symmetry_space_group_name_H-M   'P 1'
_cell_length_a   7.10265555
_cell_length_b   7.10331341
_cell_length_c   7.10173117
_cell_angle_alpha   90.21264629
_cell_angle_beta   90.23271996
_cell_angle_gamma   90.19321735
_symmetry_Int_Tables_number   1
_chemical_formula_structural   TaNb11Al5Au3N4
_chemical_formula_sum   'Ta1 Nb11 Al5 Au3 N4'
_cell_volume   358.29182080
_cell_formula_units_Z   1
loop_
 _symmetry_equiv_pos_site_id
 _symmetry_equiv_pos_as_xyz
  1  'x, y, z'
loop_
 _atom_site_type_symbol
 _atom_site_label
 _atom_site_symmetry_multiplicity
 _atom_site_fract_x
 _atom_site_fract_y
 _atom_site_fract_z
 _atom_site_occupancy
  Ta  Ta0  1  0.785352  0.955339  0.383715  1
  Nb  Nb1  1  0.711500  0.038510  0.869745  1
  Nb  Nb2  1  0.211521  0.454906  0.126596  1
  Nb  Nb3  1  0.291684  0.545892  0.624211  1
  Nb  Nb4  1  0.954509  0.383468  0.784798  1
  Nb  Nb5  1  0.038797  0.869360  0.711600  1
  Nb  Nb6  1  0.454175  0.127266  0.212036  1
  Nb  Nb7  1  0.546008  0.624028  0.292152  1
  Nb  Nb8  1  0.385520  0.785302  0.955513  1
  Nb  Nb9  1  0.869625  0.710877  0.038601  1
  Nb  Nb10  1  0.127139  0.211901  0.454199  1
  Nb  Nb11  1  0.623614  0.291881  0.545958  1
  Al  Al12  1  0.676512  0.676881  0.676411  1
  Al  Al13  1  0.571575  0.424437  0.931116  1
  Al  Al14  1  0.424547  0.930943  0.571440  1
  Al  Al15  1  0.930793  0.571537  0.424292  1
  Al  Al16  1  0.070810  0.070740  0.070322  1
  Au  Au17  1  0.177666  0.821342  0.316736  1
  Au  Au18  1  0.316513  0.178506  0.820983  1
  Au  Au19  1  0.821160  0.315989  0.178849  1
  N  N20  1  0.879951  0.126442  0.621909  1
  N  N21  1  0.625966  0.882481  0.130299  1
  N  N22  1  0.127839  0.624544  0.881334  1
  N  N23  1  0.377222  0.377429  0.377185  1
