# generated using pymatgen
data_Ta4V4GaSi3
_symmetry_space_group_name_H-M   'P 1'
_cell_length_a   3.38041200
_cell_length_b   6.64117328
_cell_length_c   7.99062535
_cell_angle_alpha   89.89951424
_cell_angle_beta   90.00000000
_cell_angle_gamma   90.00000000
_symmetry_Int_Tables_number   1
_chemical_formula_structural   Ta4V4GaSi3
_chemical_formula_sum   'Ta4 V4 Ga1 Si3'
_cell_volume   179.38847877
_cell_formula_units_Z   1
loop_
 _symmetry_equiv_pos_site_id
 _symmetry_equiv_pos_as_xyz
  1  'x, y, z'
loop_
 _atom_site_type_symbol
 _atom_site_label
 _atom_site_symmetry_multiplicity
 _atom_site_fract_x
 _atom_site_fract_y
 _atom_site_fract_z
 _atom_site_occupancy
  Ta  Ta0  1  0.250000  0.046467  0.831454  1
  Ta  Ta1  1  0.250000  0.547450  0.671108  1
  Ta  Ta2  1  0.750000  0.957124  0.160540  1
  Ta  Ta3  1  0.750000  0.441995  0.332341  1
  V  V4  1  0.250000  0.132582  0.439805  1
  V  V5  1  0.250000  0.627180  0.058739  1
  V  V6  1  0.750000  0.875834  0.567366  1
  V  V7  1  0.750000  0.371512  0.937972  1
  Ga  Ga8  1  0.250000  0.751535  0.361558  1
  Si  Si9  1  0.250000  0.252949  0.137139  1
  Si  Si10  1  0.750000  0.248705  0.639175  1
  Si  Si11  1  0.750000  0.746667  0.862806  1
