# generated using pymatgen
data_Hf5Sb9Pd
_symmetry_space_group_name_H-M   'P 1'
_cell_length_a   9.02294800
_cell_length_b   9.02294800
_cell_length_c   8.64421500
_cell_angle_alpha   90.00000000
_cell_angle_beta   90.00000000
_cell_angle_gamma   90.00000000
_symmetry_Int_Tables_number   1
_chemical_formula_structural   Hf5Sb9Pd
_chemical_formula_sum   'Hf10 Sb18 Pd2'
_cell_volume   703.75658116
_cell_formula_units_Z   2
loop_
 _symmetry_equiv_pos_site_id
 _symmetry_equiv_pos_as_xyz
  1  'x, y, z'
loop_
 _atom_site_type_symbol
 _atom_site_label
 _atom_site_symmetry_multiplicity
 _atom_site_fract_x
 _atom_site_fract_y
 _atom_site_fract_z
 _atom_site_occupancy
  Hf  Hf0  1  0.500000  0.000000  0.258515  1
  Hf  Hf1  1  0.000000  0.500000  0.741485  1
  Hf  Hf2  1  0.295062  0.604386  0.267457  1
  Hf  Hf3  1  0.704938  0.395614  0.267457  1
  Hf  Hf4  1  0.795062  0.104386  0.732543  1
  Hf  Hf5  1  0.204938  0.895614  0.732543  1
  Hf  Hf6  1  0.395614  0.295062  0.732543  1
  Hf  Hf7  1  0.604386  0.704938  0.732543  1
  Hf  Hf8  1  0.895614  0.795062  0.267457  1
  Hf  Hf9  1  0.104386  0.204938  0.267457  1
  Sb  Sb10  1  0.781776  0.589935  0.001073  1
  Sb  Sb11  1  0.218224  0.410065  0.001073  1
  Sb  Sb12  1  0.281776  0.089935  0.998927  1
  Sb  Sb13  1  0.718224  0.910065  0.998927  1
  Sb  Sb14  1  0.410065  0.781776  0.998927  1
  Sb  Sb15  1  0.589935  0.218224  0.998927  1
  Sb  Sb16  1  0.910065  0.281776  0.001073  1
  Sb  Sb17  1  0.089935  0.718224  0.001073  1
  Sb  Sb18  1  0.000000  0.500000  0.385785  1
  Sb  Sb19  1  0.500000  0.000000  0.614215  1
  Sb  Sb20  1  0.197897  0.902189  0.376272  1
  Sb  Sb21  1  0.802103  0.097811  0.376272  1
  Sb  Sb22  1  0.697897  0.402189  0.623728  1
  Sb  Sb23  1  0.302103  0.597811  0.623728  1
  Sb  Sb24  1  0.097811  0.197897  0.623728  1
  Sb  Sb25  1  0.902189  0.802103  0.623728  1
  Sb  Sb26  1  0.597811  0.697897  0.376272  1
  Sb  Sb27  1  0.402189  0.302103  0.376272  1
  Pd  Pd28  1  0.500000  0.500000  0.000000  1
  Pd  Pd29  1  0.000000  0.000000  0.000000  1
