# generated using pymatgen
data_Tb3Ho3Al16Os7
_symmetry_space_group_name_H-M   'P 1'
_cell_length_a   8.95415880
_cell_length_b   8.94991113
_cell_length_c   8.94645000
_cell_angle_alpha   60.04394487
_cell_angle_beta   59.99712660
_cell_angle_gamma   59.95898759
_symmetry_Int_Tables_number   1
_chemical_formula_structural   Tb3Ho3Al16Os7
_chemical_formula_sum   'Tb3 Ho3 Al16 Os7'
_cell_volume   506.96615946
_cell_formula_units_Z   1
loop_
 _symmetry_equiv_pos_site_id
 _symmetry_equiv_pos_as_xyz
  1  'x, y, z'
loop_
 _atom_site_type_symbol
 _atom_site_label
 _atom_site_symmetry_multiplicity
 _atom_site_fract_x
 _atom_site_fract_y
 _atom_site_fract_z
 _atom_site_occupancy
  Tb  Tb0  1  0.211625  0.788376  0.788439  1
  Tb  Tb1  1  0.788438  0.211561  0.211626  1
  Tb  Tb2  1  0.788303  0.211698  0.788301  1
  Ho  Ho3  1  0.787878  0.787828  0.212178  1
  Ho  Ho4  1  0.211942  0.788050  0.211966  1
  Ho  Ho5  1  0.212175  0.212122  0.787866  1
  Al  Al6  1  0.832129  0.832122  0.832418  1
  Al  Al7  1  0.832488  0.832109  0.503002  1
  Al  Al8  1  0.503002  0.832400  0.832487  1
  Al  Al9  1  0.832419  0.503330  0.832129  1
  Al  Al10  1  0.167892  0.167512  0.167599  1
  Al  Al11  1  0.167878  0.167871  0.496670  1
  Al  Al12  1  0.167600  0.496997  0.167891  1
  Al  Al13  1  0.496670  0.167581  0.167878  1
  Al  Al14  1  0.620999  0.621025  0.620594  1
  Al  Al15  1  0.620665  0.621144  0.137454  1
  Al  Al16  1  0.137453  0.620737  0.620666  1
  Al  Al17  1  0.620594  0.137383  0.620998  1
  Al  Al18  1  0.378856  0.379334  0.379263  1
  Al  Al19  1  0.378976  0.379001  0.862617  1
  Al  Al20  1  0.379263  0.862546  0.378857  1
  Al  Al21  1  0.862617  0.379405  0.378976  1
  Os  Os22  1  0.499943  0.500056  0.499943  1
  Os  Os23  1  0.000258  0.500207  0.499794  1
  Os  Os24  1  0.499796  0.999742  0.000257  1
  Os  Os25  1  0.500039  0.999959  0.500041  1
  Os  Os26  1  0.499790  0.500211  0.000266  1
  Os  Os27  1  0.000039  0.499963  0.000037  1
  Os  Os28  1  0.000271  0.999730  0.499789  1
