# generated using pymatgen
data_NdSm7(Te3N2)2
_symmetry_space_group_name_H-M   'P 1'
_cell_length_a   7.36126678
_cell_length_b   11.27909000
_cell_length_c   11.70248902
_cell_angle_alpha   90.00000000
_cell_angle_beta   90.19578614
_cell_angle_gamma   90.00000000
_symmetry_Int_Tables_number   1
_chemical_formula_structural   NdSm7(Te3N2)2
_chemical_formula_sum   'Nd2 Sm14 Te12 N8'
_cell_volume   971.63315608
_cell_formula_units_Z   2
loop_
 _symmetry_equiv_pos_site_id
 _symmetry_equiv_pos_as_xyz
  1  'x, y, z'
loop_
 _atom_site_type_symbol
 _atom_site_label
 _atom_site_symmetry_multiplicity
 _atom_site_fract_x
 _atom_site_fract_y
 _atom_site_fract_z
 _atom_site_occupancy
  Nd  Nd0  1  0.853787  0.610780  0.048939  1
  Nd  Nd1  1  0.646213  0.110780  0.951061  1
  Sm  Sm2  1  0.145441  0.391277  0.952125  1
  Sm  Sm3  1  0.409086  0.157248  0.250650  1
  Sm  Sm4  1  0.354559  0.891277  0.047875  1
  Sm  Sm5  1  0.736820  0.467256  0.748733  1
  Sm  Sm6  1  0.855366  0.608668  0.451690  1
  Sm  Sm7  1  0.763180  0.967256  0.251267  1
  Sm  Sm8  1  0.264463  0.532103  0.250966  1
  Sm  Sm9  1  0.144884  0.391372  0.547943  1
  Sm  Sm10  1  0.355116  0.891372  0.452057  1
  Sm  Sm11  1  0.090914  0.657248  0.749350  1
  Sm  Sm12  1  0.910078  0.341908  0.250221  1
  Sm  Sm13  1  0.235537  0.032103  0.749034  1
  Sm  Sm14  1  0.644634  0.108668  0.548310  1
  Sm  Sm15  1  0.589922  0.841908  0.749779  1
  Te  Te16  1  0.066101  0.136048  0.080307  1
  Te  Te17  1  0.084618  0.778900  0.249936  1
  Te  Te18  1  0.564309  0.364634  0.082120  1
  Te  Te19  1  0.582549  0.722234  0.252846  1
  Te  Te20  1  0.935691  0.864634  0.917880  1
  Te  Te21  1  0.433899  0.636048  0.919693  1
  Te  Te22  1  0.917451  0.222234  0.747154  1
  Te  Te23  1  0.934670  0.863489  0.579641  1
  Te  Te24  1  0.065240  0.136323  0.420077  1
  Te  Te25  1  0.434760  0.636323  0.579923  1
  Te  Te26  1  0.565330  0.363489  0.420359  1
  Te  Te27  1  0.415382  0.278900  0.750064  1
  N  N28  1  0.448695  0.968514  0.621908  1
  N  N29  1  0.550586  0.030653  0.123217  1
  N  N30  1  0.948617  0.531620  0.621265  1
  N  N31  1  0.051305  0.468514  0.378092  1
  N  N32  1  0.949414  0.530653  0.876783  1
  N  N33  1  0.053873  0.466972  0.122475  1
  N  N34  1  0.551383  0.031620  0.378735  1
  N  N35  1  0.446127  0.966972  0.877525  1
