# generated using pymatgen
data_Nd6Al19Os13
_symmetry_space_group_name_H-M   'P 1'
_cell_length_a   8.92814700
_cell_length_b   8.98754210
_cell_length_c   9.55708900
_cell_angle_alpha   90.00000000
_cell_angle_beta   90.00000000
_cell_angle_gamma   119.78163258
_symmetry_Int_Tables_number   1
_chemical_formula_structural   Nd6Al19Os13
_chemical_formula_sum   'Nd6 Al19 Os13'
_cell_volume   665.59486159
_cell_formula_units_Z   1
loop_
 _symmetry_equiv_pos_site_id
 _symmetry_equiv_pos_as_xyz
  1  'x, y, z'
loop_
 _atom_site_type_symbol
 _atom_site_label
 _atom_site_symmetry_multiplicity
 _atom_site_fract_x
 _atom_site_fract_y
 _atom_site_fract_z
 _atom_site_occupancy
  Nd  Nd0  1  0.200708  0.401417  0.250000  1
  Nd  Nd1  1  0.802822  0.605644  0.750000  1
  Nd  Nd2  1  0.602354  0.807268  0.250000  1
  Nd  Nd3  1  0.400881  0.195986  0.750000  1
  Nd  Nd4  1  0.204913  0.807268  0.250000  1
  Nd  Nd5  1  0.795106  0.195986  0.750000  1
  Al  Al6  1  0.160117  0.320234  0.579852  1
  Al  Al7  1  0.839387  0.678775  0.418336  1
  Al  Al8  1  0.679028  0.839177  0.580698  1
  Al  Al9  1  0.839387  0.678775  0.081664  1
  Al  Al10  1  0.328693  0.159331  0.420562  1
  Al  Al11  1  0.160117  0.320234  0.920148  1
  Al  Al12  1  0.160150  0.839177  0.580698  1
  Al  Al13  1  0.328693  0.159331  0.079438  1
  Al  Al14  1  0.830638  0.159331  0.420562  1
  Al  Al15  1  0.679028  0.839177  0.919302  1
  Al  Al16  1  0.830638  0.159331  0.079438  1
  Al  Al17  1  0.160150  0.839177  0.919302  1
  Al  Al18  1  0.433876  0.867753  0.750000  1
  Al  Al19  1  0.868480  0.432901  0.250000  1
  Al  Al20  1  0.126011  0.560231  0.750000  1
  Al  Al21  1  0.564420  0.432901  0.250000  1
  Al  Al22  1  0.434219  0.560231  0.750000  1
  Al  Al23  1  0.001431  0.002861  0.250000  1
  Al  Al24  1  0.001633  0.003266  0.750000  1
  Os  Os25  1  0.331663  0.663327  0.972758  1
  Os  Os26  1  0.669447  0.338895  0.016773  1
  Os  Os27  1  0.669447  0.338895  0.483227  1
  Os  Os28  1  0.331663  0.663327  0.527242  1
  Os  Os29  1  0.571101  0.142202  0.250000  1
  Os  Os30  1  0.495910  0.991820  0.999992  1
  Os  Os31  1  0.999128  0.499671  0.999358  1
  Os  Os32  1  0.495910  0.991820  0.500008  1
  Os  Os33  1  0.500542  0.499671  0.999358  1
  Os  Os34  1  0.999128  0.499671  0.500642  1
  Os  Os35  1  0.500542  0.499671  0.500642  1
  Os  Os36  1  0.001317  0.002633  0.002089  1
  Os  Os37  1  0.001317  0.002633  0.497911  1
