# generated using pymatgen
data_ErIrF7
_symmetry_space_group_name_H-M   'P 1'
_cell_length_a   5.50876200
_cell_length_b   8.82196551
_cell_length_c   11.89741859
_cell_angle_alpha   62.70125532
_cell_angle_beta   90.00000000
_cell_angle_gamma   90.00000000
_symmetry_Int_Tables_number   1
_chemical_formula_structural   ErIrF7
_chemical_formula_sum   'Er4 Ir4 F28'
_cell_volume   513.79721859
_cell_formula_units_Z   4
loop_
 _symmetry_equiv_pos_site_id
 _symmetry_equiv_pos_as_xyz
  1  'x, y, z'
loop_
 _atom_site_type_symbol
 _atom_site_label
 _atom_site_symmetry_multiplicity
 _atom_site_fract_x
 _atom_site_fract_y
 _atom_site_fract_z
 _atom_site_occupancy
  Er  Er0  1  0.760555  0.813865  0.764808  1
  Er  Er1  1  0.260555  0.186135  0.735192  1
  Er  Er2  1  0.239445  0.186135  0.235192  1
  Er  Er3  1  0.739445  0.813865  0.264808  1
  Ir  Ir4  1  0.758996  0.272885  0.956420  1
  Ir  Ir5  1  0.258996  0.727115  0.543580  1
  Ir  Ir6  1  0.241004  0.727115  0.043580  1
  Ir  Ir7  1  0.741004  0.272885  0.456420  1
  F  F8  1  0.438069  0.704131  0.914760  1
  F  F9  1  0.938069  0.295869  0.585240  1
  F  F10  1  0.561931  0.295869  0.085240  1
  F  F11  1  0.061931  0.704131  0.414760  1
  F  F12  1  0.437889  0.275619  0.544650  1
  F  F13  1  0.937889  0.724381  0.955350  1
  F  F14  1  0.562111  0.724381  0.455350  1
  F  F15  1  0.062111  0.275619  0.044650  1
  F  F16  1  0.776062  0.520935  0.859315  1
  F  F17  1  0.276062  0.479065  0.640685  1
  F  F18  1  0.223938  0.479065  0.140685  1
  F  F19  1  0.723938  0.520935  0.359315  1
  F  F20  1  0.754175  0.024941  0.050427  1
  F  F21  1  0.254175  0.975059  0.449573  1
  F  F22  1  0.245825  0.975059  0.949573  1
  F  F23  1  0.745825  0.024941  0.550427  1
  F  F24  1  0.964632  0.725848  0.637845  1
  F  F25  1  0.464632  0.274152  0.862155  1
  F  F26  1  0.035368  0.274152  0.362155  1
  F  F27  1  0.535368  0.725848  0.137845  1
  F  F28  1  0.048850  0.747016  0.175790  1
  F  F29  1  0.548850  0.252984  0.324210  1
  F  F30  1  0.951150  0.252984  0.824210  1
  F  F31  1  0.451150  0.747016  0.675790  1
  F  F32  1  0.417132  0.970701  0.232483  1
  F  F33  1  0.917132  0.029299  0.267517  1
  F  F34  1  0.582868  0.029299  0.767517  1
  F  F35  1  0.082868  0.970701  0.732483  1
