# generated using pymatgen
data_Tb2Mg(Ga3Ni2)3
_symmetry_space_group_name_H-M   'P 1'
_cell_length_a   8.94726100
_cell_length_b   8.94726011
_cell_length_c   4.07183100
_cell_angle_alpha   90.00000000
_cell_angle_beta   90.00000000
_cell_angle_gamma   120.00000700
_symmetry_Int_Tables_number   1
_chemical_formula_structural   Tb2Mg(Ga3Ni2)3
_chemical_formula_sum   'Tb2 Mg1 Ga9 Ni6'
_cell_volume   282.29326367
_cell_formula_units_Z   1
loop_
 _symmetry_equiv_pos_site_id
 _symmetry_equiv_pos_as_xyz
  1  'x, y, z'
loop_
 _atom_site_type_symbol
 _atom_site_label
 _atom_site_symmetry_multiplicity
 _atom_site_fract_x
 _atom_site_fract_y
 _atom_site_fract_z
 _atom_site_occupancy
  Tb  Tb0  1  0.333333  0.666667  0.500000  1
  Tb  Tb1  1  0.666667  0.333333  0.500000  1
  Mg  Mg2  1  0.000000  0.000000  0.000000  1
  Ga  Ga3  1  0.000000  0.296285  0.500000  1
  Ga  Ga4  1  0.000000  0.500000  0.000000  1
  Ga  Ga5  1  0.500000  0.500000  0.000000  1
  Ga  Ga6  1  0.500000  0.000000  0.000000  1
  Ga  Ga7  1  0.703715  0.000000  0.500000  1
  Ga  Ga8  1  0.703715  0.703715  0.500000  1
  Ga  Ga9  1  0.296285  0.000000  0.500000  1
  Ga  Ga10  1  0.000000  0.703715  0.500000  1
  Ga  Ga11  1  0.296285  0.296285  0.500000  1
  Ni  Ni12  1  0.823223  0.176777  0.000000  1
  Ni  Ni13  1  0.823223  0.646447  0.000000  1
  Ni  Ni14  1  0.176777  0.823223  0.000000  1
  Ni  Ni15  1  0.646447  0.823223  0.000000  1
  Ni  Ni16  1  0.353553  0.176777  0.000000  1
  Ni  Ni17  1  0.176777  0.353553  0.000000  1
