# generated using pymatgen
data_YbY3Al8
_symmetry_space_group_name_H-M   'P 1'
_cell_length_a   9.67465493
_cell_length_b   9.67465439
_cell_length_c   9.67465442
_cell_angle_alpha   33.59221618
_cell_angle_beta   33.59222327
_cell_angle_gamma   33.59221993
_symmetry_Int_Tables_number   1
_chemical_formula_structural   YbY3Al8
_chemical_formula_sum   'Yb1 Y3 Al8'
_cell_volume   246.92313182
_cell_formula_units_Z   1
loop_
 _symmetry_equiv_pos_site_id
 _symmetry_equiv_pos_as_xyz
  1  'x, y, z'
loop_
 _atom_site_type_symbol
 _atom_site_label
 _atom_site_symmetry_multiplicity
 _atom_site_fract_x
 _atom_site_fract_y
 _atom_site_fract_z
 _atom_site_occupancy
  Yb  Yb0  1  0.812207  0.812207  0.812207  1
  Y  Y1  1  0.312887  0.312887  0.312887  1
  Y  Y2  1  0.688065  0.688065  0.688065  1
  Y  Y3  1  0.186777  0.186777  0.186777  1
  Al  Al4  1  0.499832  0.499832  0.499832  1
  Al  Al5  1  0.000148  0.000148  0.000148  1
  Al  Al6  1  0.249900  0.249900  0.748603  1
  Al  Al7  1  0.750050  0.750050  0.251584  1
  Al  Al8  1  0.249900  0.748603  0.249900  1
  Al  Al9  1  0.750050  0.251584  0.750050  1
  Al  Al10  1  0.748603  0.249900  0.249900  1
  Al  Al11  1  0.251584  0.750050  0.750050  1
