# generated using pymatgen
data_Ho2MgSi(PPd4)5
_symmetry_space_group_name_H-M   'P 1'
_cell_length_a   8.64369126
_cell_length_b   8.63712756
_cell_length_c   8.63712850
_cell_angle_alpha   60.05027754
_cell_angle_beta   59.97485533
_cell_angle_gamma   59.97485996
_symmetry_Int_Tables_number   1
_chemical_formula_structural   Ho2MgSi(PPd4)5
_chemical_formula_sum   'Ho2 Mg1 Si1 P5 Pd20'
_cell_volume   455.95547745
_cell_formula_units_Z   1
loop_
 _symmetry_equiv_pos_site_id
 _symmetry_equiv_pos_as_xyz
  1  'x, y, z'
loop_
 _atom_site_type_symbol
 _atom_site_label
 _atom_site_symmetry_multiplicity
 _atom_site_fract_x
 _atom_site_fract_y
 _atom_site_fract_z
 _atom_site_occupancy
  Ho  Ho0  1  0.250383  0.249617  0.249617  1
  Ho  Ho1  1  0.750383  0.749617  0.749617  1
  Mg  Mg2  1  0.998923  0.001077  0.001077  1
  Si  Si3  1  0.736380  0.263620  0.263620  1
  P  P4  1  0.262450  0.737550  0.737550  1
  P  P5  1  0.264087  0.735913  0.262712  1
  P  P6  1  0.737288  0.262712  0.735913  1
  P  P7  1  0.264087  0.262712  0.735913  1
  P  P8  1  0.737288  0.735913  0.262712  1
  Pd  Pd9  1  0.382883  0.384832  0.384832  1
  Pd  Pd10  1  0.615129  0.615640  0.615640  1
  Pd  Pd11  1  0.384360  0.384871  0.846409  1
  Pd  Pd12  1  0.384360  0.846409  0.384871  1
  Pd  Pd13  1  0.615168  0.617117  0.152546  1
  Pd  Pd14  1  0.615168  0.152546  0.617117  1
  Pd  Pd15  1  0.847454  0.384832  0.384832  1
  Pd  Pd16  1  0.153591  0.615640  0.615640  1
  Pd  Pd17  1  0.343199  0.000526  0.000526  1
  Pd  Pd18  1  0.655749  0.000526  0.000526  1
  Pd  Pd19  1  0.999474  0.344251  0.656801  1
  Pd  Pd20  1  0.999474  0.656801  0.344251  1
  Pd  Pd21  1  0.001748  0.344982  0.998252  1
  Pd  Pd22  1  0.655018  0.998252  0.344982  1
  Pd  Pd23  1  0.000054  0.655460  0.999946  1
  Pd  Pd24  1  0.344540  0.999946  0.655460  1
  Pd  Pd25  1  0.001748  0.998252  0.344982  1
  Pd  Pd26  1  0.000054  0.999946  0.655460  1
  Pd  Pd27  1  0.655018  0.344982  0.998252  1
  Pd  Pd28  1  0.344540  0.655460  0.999946  1
