# generated using pymatgen
data_Pr10TlGa2Si3
_symmetry_space_group_name_H-M   'P 1'
_cell_length_a   7.93248910
_cell_length_b   7.93249029
_cell_length_c   9.20652500
_cell_angle_alpha   115.24268998
_cell_angle_beta   115.24269403
_cell_angle_gamma   90.30415322
_symmetry_Int_Tables_number   1
_chemical_formula_structural   Pr10TlGa2Si3
_chemical_formula_sum   'Pr10 Tl1 Ga2 Si3'
_cell_volume   461.38940585
_cell_formula_units_Z   1
loop_
 _symmetry_equiv_pos_site_id
 _symmetry_equiv_pos_as_xyz
  1  'x, y, z'
loop_
 _atom_site_type_symbol
 _atom_site_label
 _atom_site_symmetry_multiplicity
 _atom_site_fract_x
 _atom_site_fract_y
 _atom_site_fract_z
 _atom_site_occupancy
  Pr  Pr0  1  0.521410  0.519720  0.047387  1
  Pr  Pr1  1  0.980280  0.978590  0.952613  1
  Pr  Pr2  1  0.980524  0.823942  0.284460  1
  Pr  Pr3  1  0.305842  0.456612  0.282883  1
  Pr  Pr4  1  0.826244  0.308424  0.281280  1
  Pr  Pr5  1  0.448870  0.972506  0.279734  1
  Pr  Pr6  1  0.043388  0.194158  0.717117  1
  Pr  Pr7  1  0.676058  0.519476  0.715540  1
  Pr  Pr8  1  0.191576  0.673756  0.718720  1
  Pr  Pr9  1  0.527494  0.051130  0.720266  1
  Tl  Tl10  1  0.748205  0.751795  0.500000  1
  Ga  Ga11  1  0.248961  0.251039  0.500000  1
  Ga  Ga12  1  0.619057  0.880943  0.000000  1
  Si  Si13  1  0.381680  0.118320  0.000000  1
  Si  Si14  1  0.885363  0.384952  0.000269  1
  Si  Si15  1  0.115048  0.614637  0.999731  1
