# generated using pymatgen
data_SrCa5LaNi4Sn13
_symmetry_space_group_name_H-M   'P 1'
_cell_length_a   11.32827606
_cell_length_b   11.33920306
_cell_length_c   4.66666200
_cell_angle_alpha   90.00000000
_cell_angle_beta   90.00000000
_cell_angle_gamma   89.98779644
_symmetry_Int_Tables_number   1
_chemical_formula_structural   SrCa5LaNi4Sn13
_chemical_formula_sum   'Sr1 Ca5 La1 Ni4 Sn13'
_cell_volume   599.44962604
_cell_formula_units_Z   1
loop_
 _symmetry_equiv_pos_site_id
 _symmetry_equiv_pos_as_xyz
  1  'x, y, z'
loop_
 _atom_site_type_symbol
 _atom_site_label
 _atom_site_symmetry_multiplicity
 _atom_site_fract_x
 _atom_site_fract_y
 _atom_site_fract_z
 _atom_site_occupancy
  Sr  Sr0  1  0.000000  0.500000  0.000000  1
  Ca  Ca1  1  0.837459  0.168666  0.000000  1
  Ca  Ca2  1  0.830027  0.838478  0.000000  1
  Ca  Ca3  1  0.162541  0.831334  0.000000  1
  Ca  Ca4  1  0.169973  0.161522  0.000000  1
  Ca  Ca5  1  0.500000  0.000000  0.000000  1
  La  La6  1  0.500000  0.500000  0.500000  1
  Ni  Ni7  1  0.776125  0.619108  0.500000  1
  Ni  Ni8  1  0.381386  0.776378  0.500000  1
  Ni  Ni9  1  0.618614  0.223622  0.500000  1
  Ni  Ni10  1  0.223875  0.380892  0.500000  1
  Sn  Sn11  1  0.018272  0.280594  0.500000  1
  Sn  Sn12  1  0.981728  0.719406  0.500000  1
  Sn  Sn13  1  0.216497  0.613025  0.500000  1
  Sn  Sn14  1  0.577682  0.305805  0.000000  1
  Sn  Sn15  1  0.693031  0.578130  0.000000  1
  Sn  Sn16  1  0.783503  0.386975  0.500000  1
  Sn  Sn17  1  0.715558  0.018083  0.500000  1
  Sn  Sn18  1  0.000000  0.000000  0.500000  1
  Sn  Sn19  1  0.284442  0.981917  0.500000  1
  Sn  Sn20  1  0.422318  0.694195  0.000000  1
  Sn  Sn21  1  0.611728  0.784706  0.500000  1
  Sn  Sn22  1  0.306969  0.421870  0.000000  1
  Sn  Sn23  1  0.388272  0.215294  0.500000  1
