# generated using pymatgen
data_Cs2Pr2CdHgSe6
_symmetry_space_group_name_H-M   'P 1'
_cell_length_a   4.44034100
_cell_length_b   8.43272467
_cell_length_c   11.52936500
_cell_angle_alpha   90.00000000
_cell_angle_beta   90.00000000
_cell_angle_gamma   74.73520903
_symmetry_Int_Tables_number   1
_chemical_formula_structural   Cs2Pr2CdHgSe6
_chemical_formula_sum   'Cs2 Pr2 Cd1 Hg1 Se6'
_cell_volume   416.47663343
_cell_formula_units_Z   1
loop_
 _symmetry_equiv_pos_site_id
 _symmetry_equiv_pos_as_xyz
  1  'x, y, z'
loop_
 _atom_site_type_symbol
 _atom_site_label
 _atom_site_symmetry_multiplicity
 _atom_site_fract_x
 _atom_site_fract_y
 _atom_site_fract_z
 _atom_site_occupancy
  Cs  Cs0  1  0.256808  0.486386  0.250000  1
  Cs  Cs1  1  0.743284  0.513430  0.750000  1
  Pr  Pr2  1  0.001009  0.997982  0.997434  1
  Pr  Pr3  1  0.001009  0.997982  0.502566  1
  Cd  Cd4  1  0.540203  0.919594  0.250000  1
  Hg  Hg5  1  0.456016  0.087969  0.750000  1
  Se  Se6  1  0.621365  0.757268  0.051894  1
  Se  Se7  1  0.941441  0.117118  0.250000  1
  Se  Se8  1  0.621365  0.757268  0.448106  1
  Se  Se9  1  0.377596  0.244812  0.549147  1
  Se  Se10  1  0.062313  0.875375  0.750000  1
  Se  Se11  1  0.377596  0.244812  0.950852  1
