# generated using pymatgen
data_Tb5SiBi2
_symmetry_space_group_name_H-M   'P 1'
_cell_length_a   12.15349900
_cell_length_b   9.21889300
_cell_length_c   8.08497100
_cell_angle_alpha   90.00000000
_cell_angle_beta   90.00000000
_cell_angle_gamma   90.00000000
_symmetry_Int_Tables_number   1
_chemical_formula_structural   Tb5SiBi2
_chemical_formula_sum   'Tb20 Si4 Bi8'
_cell_volume   905.85475922
_cell_formula_units_Z   4
loop_
 _symmetry_equiv_pos_site_id
 _symmetry_equiv_pos_as_xyz
  1  'x, y, z'
loop_
 _atom_site_type_symbol
 _atom_site_label
 _atom_site_symmetry_multiplicity
 _atom_site_fract_x
 _atom_site_fract_y
 _atom_site_fract_z
 _atom_site_occupancy
  Tb  Tb0  1  0.063353  0.551886  0.820140  1
  Tb  Tb1  1  0.563353  0.948114  0.679860  1
  Tb  Tb2  1  0.936647  0.051886  0.179860  1
  Tb  Tb3  1  0.436647  0.448114  0.320140  1
  Tb  Tb4  1  0.936647  0.448114  0.179860  1
  Tb  Tb5  1  0.436647  0.051886  0.320140  1
  Tb  Tb6  1  0.063353  0.948114  0.820140  1
  Tb  Tb7  1  0.563353  0.551886  0.679860  1
  Tb  Tb8  1  0.001108  0.750000  0.459825  1
  Tb  Tb9  1  0.501108  0.750000  0.040175  1
  Tb  Tb10  1  0.998892  0.250000  0.540175  1
  Tb  Tb11  1  0.498892  0.250000  0.959825  1
  Tb  Tb12  1  0.211550  0.750000  0.165465  1
  Tb  Tb13  1  0.711550  0.750000  0.334535  1
  Tb  Tb14  1  0.788450  0.250000  0.834535  1
  Tb  Tb15  1  0.288450  0.250000  0.665465  1
  Tb  Tb16  1  0.295371  0.750000  0.635659  1
  Tb  Tb17  1  0.795371  0.750000  0.864341  1
  Tb  Tb18  1  0.704629  0.250000  0.364341  1
  Tb  Tb19  1  0.204629  0.250000  0.135659  1
  Si  Si20  1  0.479674  0.750000  0.413903  1
  Si  Si21  1  0.979674  0.750000  0.086097  1
  Si  Si22  1  0.520326  0.250000  0.586097  1
  Si  Si23  1  0.020326  0.250000  0.913903  1
  Bi  Bi24  1  0.325701  0.511034  0.932098  1
  Bi  Bi25  1  0.825701  0.988966  0.567902  1
  Bi  Bi26  1  0.674299  0.011034  0.067902  1
  Bi  Bi27  1  0.174299  0.488966  0.432098  1
  Bi  Bi28  1  0.674299  0.488966  0.067902  1
  Bi  Bi29  1  0.174299  0.011034  0.432098  1
  Bi  Bi30  1  0.325701  0.988966  0.932098  1
  Bi  Bi31  1  0.825701  0.511034  0.567902  1
