# generated using pymatgen
data_SrMg2CuIr8
_symmetry_space_group_name_H-M   'P 1'
_cell_length_a   8.81085900
_cell_length_b   8.81085900
_cell_length_c   5.14254100
_cell_angle_alpha   90.00000000
_cell_angle_beta   90.00000000
_cell_angle_gamma   90.00000000
_symmetry_Int_Tables_number   1
_chemical_formula_structural   SrMg2CuIr8
_chemical_formula_sum   'Sr2 Mg4 Cu2 Ir16'
_cell_volume   399.22181565
_cell_formula_units_Z   2
loop_
 _symmetry_equiv_pos_site_id
 _symmetry_equiv_pos_as_xyz
  1  'x, y, z'
loop_
 _atom_site_type_symbol
 _atom_site_label
 _atom_site_symmetry_multiplicity
 _atom_site_fract_x
 _atom_site_fract_y
 _atom_site_fract_z
 _atom_site_occupancy
  Sr  Sr0  1  0.000000  0.000000  0.000000  1
  Sr  Sr1  1  0.500000  0.500000  0.000000  1
  Mg  Mg2  1  0.121213  0.621213  0.000000  1
  Mg  Mg3  1  0.878787  0.378787  0.000000  1
  Mg  Mg4  1  0.621213  0.878787  0.000000  1
  Mg  Mg5  1  0.378787  0.121213  0.000000  1
  Cu  Cu6  1  0.500000  0.000000  0.500000  1
  Cu  Cu7  1  0.000000  0.500000  0.500000  1
  Ir  Ir8  1  0.206923  0.062869  0.500000  1
  Ir  Ir9  1  0.793077  0.937131  0.500000  1
  Ir  Ir10  1  0.062869  0.793077  0.500000  1
  Ir  Ir11  1  0.706923  0.437131  0.500000  1
  Ir  Ir12  1  0.937131  0.206923  0.500000  1
  Ir  Ir13  1  0.293077  0.562869  0.500000  1
  Ir  Ir14  1  0.562869  0.706923  0.500000  1
  Ir  Ir15  1  0.437131  0.293077  0.500000  1
  Ir  Ir16  1  0.676165  0.176165  0.238034  1
  Ir  Ir17  1  0.323835  0.823835  0.761966  1
  Ir  Ir18  1  0.323835  0.823835  0.238034  1
  Ir  Ir19  1  0.176165  0.323835  0.238034  1
  Ir  Ir20  1  0.176165  0.323835  0.761966  1
  Ir  Ir21  1  0.676165  0.176165  0.761966  1
  Ir  Ir22  1  0.823835  0.676165  0.761966  1
  Ir  Ir23  1  0.823835  0.676165  0.238034  1
