# generated using pymatgen
data_K9Rb3(FeS3)4
_symmetry_space_group_name_H-M   'P 1'
_cell_length_a   13.27134349
_cell_length_b   7.86054435
_cell_length_c   9.96767500
_cell_angle_alpha   53.34092617
_cell_angle_beta   89.46781291
_cell_angle_gamma   89.96807363
_symmetry_Int_Tables_number   1
_chemical_formula_structural   K9Rb3(FeS3)4
_chemical_formula_sum   'K9 Rb3 Fe4 S12'
_cell_volume   834.10008153
_cell_formula_units_Z   1
loop_
 _symmetry_equiv_pos_site_id
 _symmetry_equiv_pos_as_xyz
  1  'x, y, z'
loop_
 _atom_site_type_symbol
 _atom_site_label
 _atom_site_symmetry_multiplicity
 _atom_site_fract_x
 _atom_site_fract_y
 _atom_site_fract_z
 _atom_site_occupancy
  K  K0  1  0.898369  0.313477  0.403167  1
  K  K1  1  0.615833  0.371764  0.471979  1
  K  K2  1  0.114538  0.634274  0.022499  1
  K  K3  1  0.383545  0.633974  0.527258  1
  K  K4  1  0.887865  0.356584  0.979350  1
  K  K5  1  0.609042  0.313226  0.904002  1
  K  K6  1  0.105302  0.681430  0.597679  1
  K  K7  1  0.389258  0.696135  0.093153  1
  K  K8  1  0.187728  0.180552  0.550344  1
  Rb  Rb9  1  0.310454  0.188015  0.053597  1
  Rb  Rb10  1  0.685930  0.814684  0.949298  1
  Rb  Rb11  1  0.813113  0.814591  0.455393  1
  Fe  Fe12  1  0.067374  0.948542  0.153319  1
  Fe  Fe13  1  0.565423  0.046933  0.346679  1
  Fe  Fe14  1  0.431009  0.965497  0.649943  1
  Fe  Fe15  1  0.935380  0.040949  0.846955  1
  S  S16  1  0.414339  0.197638  0.357649  1
  S  S17  1  0.911829  0.814554  0.140161  1
  S  S18  1  0.582342  0.813951  0.639878  1
  S  S19  1  0.090830  0.176056  0.859077  1
  S  S20  1  0.695278  0.282594  0.220885  1
  S  S21  1  0.189304  0.700012  0.286731  1
  S  S22  1  0.302869  0.726590  0.776216  1
  S  S23  1  0.810903  0.285177  0.718222  1
  S  S24  1  0.546254  0.866651  0.239369  1
  S  S25  1  0.054502  0.135598  0.256968  1
  S  S26  1  0.451304  0.143334  0.758760  1
  S  S27  1  0.950084  0.857214  0.741467  1
