# generated using pymatgen
data_Tb3Yb(ReC2)2
_symmetry_space_group_name_H-M   'P 1'
_cell_length_a   5.14844800
_cell_length_b   6.56385431
_cell_length_c   10.03855026
_cell_angle_alpha   88.94368888
_cell_angle_beta   90.00000000
_cell_angle_gamma   90.00000000
_symmetry_Int_Tables_number   1
_chemical_formula_structural   Tb3Yb(ReC2)2
_chemical_formula_sum   'Tb6 Yb2 Re4 C8'
_cell_volume   339.18173003
_cell_formula_units_Z   2
loop_
 _symmetry_equiv_pos_site_id
 _symmetry_equiv_pos_as_xyz
  1  'x, y, z'
loop_
 _atom_site_type_symbol
 _atom_site_label
 _atom_site_symmetry_multiplicity
 _atom_site_fract_x
 _atom_site_fract_y
 _atom_site_fract_z
 _atom_site_occupancy
  Tb  Tb0  1  0.250000  0.689392  0.553427  1
  Tb  Tb1  1  0.750000  0.310608  0.446573  1
  Tb  Tb2  1  0.750000  0.818217  0.053656  1
  Tb  Tb3  1  0.250000  0.181783  0.946344  1
  Tb  Tb4  1  0.250000  0.534067  0.221490  1
  Tb  Tb5  1  0.750000  0.465933  0.778510  1
  Yb  Yb6  1  0.750000  0.964857  0.722058  1
  Yb  Yb7  1  0.250000  0.035143  0.277942  1
  Re  Re8  1  0.250000  0.720654  0.861348  1
  Re  Re9  1  0.750000  0.279346  0.138652  1
  Re  Re10  1  0.750000  0.774684  0.361740  1
  Re  Re11  1  0.250000  0.225316  0.638260  1
  C  C12  1  0.250000  0.456038  0.759421  1
  C  C13  1  0.750000  0.543962  0.240579  1
  C  C14  1  0.750000  0.042999  0.259781  1
  C  C15  1  0.250000  0.957001  0.740219  1
  C  C16  1  0.250000  0.813092  0.041524  1
  C  C17  1  0.750000  0.186908  0.958476  1
  C  C18  1  0.750000  0.680259  0.543176  1
  C  C19  1  0.250000  0.319741  0.456824  1
