# generated using pymatgen
data_Hf4TiVSb2
_symmetry_space_group_name_H-M   'P 1'
_cell_length_a   5.45724867
_cell_length_b   8.23001741
_cell_length_c   8.23001681
_cell_angle_alpha   83.68916435
_cell_angle_beta   70.63739883
_cell_angle_gamma   70.63740692
_symmetry_Int_Tables_number   1
_chemical_formula_structural   Hf4TiVSb2
_chemical_formula_sum   'Hf8 Ti2 V2 Sb4'
_cell_volume   329.00548644
_cell_formula_units_Z   2
loop_
 _symmetry_equiv_pos_site_id
 _symmetry_equiv_pos_as_xyz
  1  'x, y, z'
loop_
 _atom_site_type_symbol
 _atom_site_label
 _atom_site_symmetry_multiplicity
 _atom_site_fract_x
 _atom_site_fract_y
 _atom_site_fract_z
 _atom_site_occupancy
  Hf  Hf0  1  0.076724  0.129419  0.717134  1
  Hf  Hf1  1  0.923276  0.870581  0.282866  1
  Hf  Hf2  1  0.793857  0.282866  0.129419  1
  Hf  Hf3  1  0.423276  0.282866  0.870581  1
  Hf  Hf4  1  0.206143  0.717134  0.870581  1
  Hf  Hf5  1  0.576724  0.717134  0.129419  1
  Hf  Hf6  1  0.706143  0.870581  0.717134  1
  Hf  Hf7  1  0.293857  0.129419  0.282866  1
  Ti  Ti8  1  0.250000  0.500000  0.500000  1
  Ti  Ti9  1  0.750000  0.500000  0.500000  1
  V  V10  1  0.250000  0.000000  0.000000  1
  V  V11  1  0.750000  0.000000  0.000000  1
  Sb  Sb12  1  0.156926  0.500000  0.186149  1
  Sb  Sb13  1  0.843074  0.500000  0.813851  1
  Sb  Sb14  1  0.343074  0.813851  0.500000  1
  Sb  Sb15  1  0.656926  0.186149  0.500000  1
