# generated using pymatgen
data_Tb7Er9Cd4(NiIr)2
_symmetry_space_group_name_H-M   'P 1'
_cell_length_a   9.56916341
_cell_length_b   9.56916371
_cell_length_c   9.62462000
_cell_angle_alpha   59.80809982
_cell_angle_beta   59.80809875
_cell_angle_gamma   59.59472733
_symmetry_Int_Tables_number   1
_chemical_formula_structural   Tb7Er9Cd4(NiIr)2
_chemical_formula_sum   'Tb7 Er9 Cd4 Ni2 Ir2'
_cell_volume   619.45618599
_cell_formula_units_Z   1
loop_
 _symmetry_equiv_pos_site_id
 _symmetry_equiv_pos_as_xyz
  1  'x, y, z'
loop_
 _atom_site_type_symbol
 _atom_site_label
 _atom_site_symmetry_multiplicity
 _atom_site_fract_x
 _atom_site_fract_y
 _atom_site_fract_z
 _atom_site_occupancy
  Tb  Tb0  1  0.811879  0.811879  0.188121  1
  Tb  Tb1  1  0.938966  0.559101  0.565338  1
  Tb  Tb2  1  0.559101  0.938966  0.936595  1
  Tb  Tb3  1  0.559101  0.938966  0.565338  1
  Tb  Tb4  1  0.938966  0.559101  0.936595  1
  Tb  Tb5  1  0.565387  0.565387  0.934613  1
  Tb  Tb6  1  0.940048  0.940048  0.559952  1
  Er  Er7  1  0.350152  0.350152  0.343710  1
  Er  Er8  1  0.350152  0.350152  0.955986  1
  Er  Er9  1  0.351840  0.953642  0.347259  1
  Er  Er10  1  0.953642  0.351840  0.347259  1
  Er  Er11  1  0.809959  0.187209  0.190166  1
  Er  Er12  1  0.187209  0.809959  0.812667  1
  Er  Er13  1  0.187209  0.809959  0.190166  1
  Er  Er14  1  0.809959  0.187209  0.812667  1
  Er  Er15  1  0.188248  0.188248  0.811752  1
  Cd  Cd16  1  0.578679  0.578679  0.583550  1
  Cd  Cd17  1  0.578679  0.578679  0.259091  1
  Cd  Cd18  1  0.579901  0.256587  0.581755  1
  Cd  Cd19  1  0.256587  0.579901  0.581755  1
  Ni  Ni20  1  0.144038  0.574126  0.140917  1
  Ni  Ni21  1  0.574126  0.144038  0.140917  1
  Ir  Ir22  1  0.143084  0.143084  0.140845  1
  Ir  Ir23  1  0.143084  0.143084  0.572987  1
