# generated using pymatgen
data_Y5Er5Cd4(InPd)4
_symmetry_space_group_name_H-M   'P 1'
_cell_length_a   3.61927200
_cell_length_b   8.06026380
_cell_length_c   18.32039367
_cell_angle_alpha   89.79653755
_cell_angle_beta   90.00000000
_cell_angle_gamma   90.00000000
_symmetry_Int_Tables_number   1
_chemical_formula_structural   Y5Er5Cd4(InPd)4
_chemical_formula_sum   'Y5 Er5 Cd4 In4 Pd4'
_cell_volume   534.44441369
_cell_formula_units_Z   1
loop_
 _symmetry_equiv_pos_site_id
 _symmetry_equiv_pos_as_xyz
  1  'x, y, z'
loop_
 _atom_site_type_symbol
 _atom_site_label
 _atom_site_symmetry_multiplicity
 _atom_site_fract_x
 _atom_site_fract_y
 _atom_site_fract_z
 _atom_site_occupancy
  Y  Y0  1  0.000000  0.500676  0.499702  1
  Y  Y1  1  0.000000  0.998824  0.999711  1
  Y  Y2  1  0.000000  0.747698  0.282150  1
  Y  Y3  1  0.000000  0.253661  0.717149  1
  Y  Y4  1  0.000000  0.752814  0.782628  1
  Er  Er5  1  0.000000  0.247073  0.218097  1
  Er  Er6  1  0.000000  0.613765  0.085084  1
  Er  Er7  1  0.000000  0.383954  0.916150  1
  Er  Er8  1  0.000000  0.885360  0.583975  1
  Er  Er9  1  0.000000  0.116141  0.415278  1
  Cd  Cd10  1  0.500000  0.704946  0.933558  1
  Cd  Cd11  1  0.500000  0.292038  0.067664  1
  Cd  Cd12  1  0.500000  0.795414  0.432853  1
  Cd  Cd13  1  0.500000  0.206332  0.566318  1
  In  In14  1  0.500000  0.574437  0.648036  1
  In  In15  1  0.500000  0.426653  0.351912  1
  In  In16  1  0.500000  0.927797  0.148018  1
  In  In17  1  0.500000  0.073828  0.851716  1
  Pd  Pd18  1  0.500000  0.527150  0.196657  1
  Pd  Pd19  1  0.500000  0.467653  0.804409  1
  Pd  Pd20  1  0.500000  0.968910  0.695788  1
  Pd  Pd21  1  0.500000  0.034878  0.303146  1
