# generated using pymatgen
data_NaCaSbS3
_symmetry_space_group_name_H-M   'P 1'
_cell_length_a   5.79738306
_cell_length_b   5.79738318
_cell_length_c   17.98653394
_cell_angle_alpha   80.81244413
_cell_angle_beta   80.81244465
_cell_angle_gamma   90.16648267
_symmetry_Int_Tables_number   1
_chemical_formula_structural   NaCaSbS3
_chemical_formula_sum   'Na4 Ca4 Sb4 S12'
_cell_volume   588.85957472
_cell_formula_units_Z   4
loop_
 _symmetry_equiv_pos_site_id
 _symmetry_equiv_pos_as_xyz
  1  'x, y, z'
loop_
 _atom_site_type_symbol
 _atom_site_label
 _atom_site_symmetry_multiplicity
 _atom_site_fract_x
 _atom_site_fract_y
 _atom_site_fract_z
 _atom_site_occupancy
  Na  Na0  1  0.195080  0.484679  0.074237  1
  Na  Na1  1  0.515321  0.804920  0.425763  1
  Na  Na2  1  0.804920  0.515321  0.925763  1
  Na  Na3  1  0.484679  0.195080  0.574237  1
  Ca  Ca4  1  0.091756  0.908244  0.250000  1
  Ca  Ca5  1  0.908244  0.091756  0.750000  1
  Ca  Ca6  1  0.592895  0.407105  0.250000  1
  Ca  Ca7  1  0.407105  0.592895  0.750000  1
  Sb  Sb8  1  0.940351  0.713938  0.588926  1
  Sb  Sb9  1  0.286062  0.059649  0.911074  1
  Sb  Sb10  1  0.059649  0.286062  0.411074  1
  Sb  Sb11  1  0.713938  0.940351  0.088926  1
  S  S12  1  0.022356  0.861852  0.410082  1
  S  S13  1  0.138148  0.977644  0.089918  1
  S  S14  1  0.977644  0.138148  0.589918  1
  S  S15  1  0.861852  0.022356  0.910082  1
  S  S16  1  0.685453  0.516632  0.090003  1
  S  S17  1  0.483368  0.314547  0.409997  1
  S  S18  1  0.314547  0.483368  0.909997  1
  S  S19  1  0.516632  0.685453  0.590003  1
  S  S20  1  0.090048  0.398641  0.262464  1
  S  S21  1  0.601359  0.909952  0.237536  1
  S  S22  1  0.909952  0.601359  0.737536  1
  S  S23  1  0.398641  0.090048  0.762464  1
