# generated using pymatgen
data_DyZr3(Al3Rh)6
_symmetry_space_group_name_H-M   'P 1'
_cell_length_a   7.50220970
_cell_length_b   7.49375651
_cell_length_c   9.34077400
_cell_angle_alpha   90.00000000
_cell_angle_beta   90.00000000
_cell_angle_gamma   119.74009937
_symmetry_Int_Tables_number   1
_chemical_formula_structural   DyZr3(Al3Rh)6
_chemical_formula_sum   'Dy1 Zr3 Al18 Rh6'
_cell_volume   455.96731598
_cell_formula_units_Z   1
loop_
 _symmetry_equiv_pos_site_id
 _symmetry_equiv_pos_as_xyz
  1  'x, y, z'
loop_
 _atom_site_type_symbol
 _atom_site_label
 _atom_site_symmetry_multiplicity
 _atom_site_fract_x
 _atom_site_fract_y
 _atom_site_fract_z
 _atom_site_occupancy
  Dy  Dy0  1  0.329807  0.006064  0.250000  1
  Zr  Zr1  1  0.994139  0.670897  0.750000  1
  Zr  Zr2  1  0.006195  0.330194  0.250000  1
  Zr  Zr3  1  0.670495  0.994089  0.750000  1
  Al  Al4  1  0.120334  0.121764  0.750000  1
  Al  Al5  1  0.873192  0.876988  0.250000  1
  Al  Al6  1  0.996779  0.334245  0.576428  1
  Al  Al7  1  0.000260  0.662604  0.426664  1
  Al  Al8  1  0.000260  0.662604  0.073336  1
  Al  Al9  1  0.334577  0.997523  0.919763  1
  Al  Al10  1  0.996779  0.334245  0.923572  1
  Al  Al11  1  0.668645  0.002854  0.073482  1
  Al  Al12  1  0.668645  0.002854  0.426518  1
  Al  Al13  1  0.334577  0.997523  0.580237  1
  Al  Al14  1  0.331169  0.333830  0.054813  1
  Al  Al15  1  0.668713  0.668583  0.940558  1
  Al  Al16  1  0.668713  0.668583  0.559442  1
  Al  Al17  1  0.331169  0.333830  0.445187  1
  Al  Al18  1  0.337584  0.553238  0.750000  1
  Al  Al19  1  0.667070  0.451917  0.250000  1
  Al  Al20  1  0.555079  0.339014  0.750000  1
  Al  Al21  1  0.446163  0.657257  0.250000  1
  Rh  Rh22  1  0.672213  0.327753  0.501128  1
  Rh  Rh23  1  0.328355  0.673258  0.501649  1
  Rh  Rh24  1  0.328355  0.673258  0.998351  1
  Rh  Rh25  1  0.672213  0.327753  0.998872  1
  Rh  Rh26  1  0.999260  0.998639  0.501361  1
  Rh  Rh27  1  0.999260  0.998639  0.998639  1
