# generated using pymatgen
data_YbNi2(Sn3Ru)2
_symmetry_space_group_name_H-M   'P 1'
_cell_length_a   6.87782610
_cell_length_b   6.87782668
_cell_length_c   6.74052600
_cell_angle_alpha   119.90730090
_cell_angle_beta   119.90730364
_cell_angle_gamma   91.30132452
_symmetry_Int_Tables_number   1
_chemical_formula_structural   YbNi2(Sn3Ru)2
_chemical_formula_sum   'Yb1 Ni2 Sn6 Ru2'
_cell_volume   223.42589862
_cell_formula_units_Z   1
loop_
 _symmetry_equiv_pos_site_id
 _symmetry_equiv_pos_as_xyz
  1  'x, y, z'
loop_
 _atom_site_type_symbol
 _atom_site_label
 _atom_site_symmetry_multiplicity
 _atom_site_fract_x
 _atom_site_fract_y
 _atom_site_fract_z
 _atom_site_occupancy
  Yb  Yb0  1  0.994134  0.994134  0.000000  1
  Ni  Ni1  1  0.603691  0.244082  0.000000  1
  Ni  Ni2  1  0.244082  0.603691  0.000000  1
  Sn  Sn3  1  0.890690  0.531502  0.000000  1
  Sn  Sn4  1  0.531502  0.890690  0.000000  1
  Sn  Sn5  1  0.459716  0.459716  0.337144  1
  Sn  Sn6  1  0.503760  0.003759  0.500001  1
  Sn  Sn7  1  0.003759  0.503760  0.500001  1
  Sn  Sn8  1  0.122573  0.122573  0.662857  1
  Ru  Ru9  1  0.735486  0.735486  0.324879  1
  Ru  Ru10  1  0.410609  0.410609  0.675123  1
