# generated using pymatgen
data_CeH11Ru2
_symmetry_space_group_name_H-M   'P 1'
_cell_length_a   4.70406618
_cell_length_b   4.71053111
_cell_length_c   6.23191031
_cell_angle_alpha   112.52379078
_cell_angle_beta   90.10382440
_cell_angle_gamma   119.86837295
_symmetry_Int_Tables_number   1
_chemical_formula_structural   CeH11Ru2
_chemical_formula_sum   'Ce1 H11 Ru2'
_cell_volume   107.36958754
_cell_formula_units_Z   1
loop_
 _symmetry_equiv_pos_site_id
 _symmetry_equiv_pos_as_xyz
  1  'x, y, z'
loop_
 _atom_site_type_symbol
 _atom_site_label
 _atom_site_symmetry_multiplicity
 _atom_site_fract_x
 _atom_site_fract_y
 _atom_site_fract_z
 _atom_site_occupancy
  Ce  Ce0  1  0.590441  0.114698  0.804738  1
  H  H1  1  0.415501  0.559980  0.398714  1
  H  H2  1  0.652318  0.766703  0.997026  1
  H  H3  1  0.402220  0.099854  0.233522  1
  H  H4  1  0.983801  0.438748  0.223320  1
  H  H5  1  0.739018  0.676157  0.223000  1
  H  H6  1  0.025138  0.538972  0.633961  1
  H  H7  1  0.538170  0.498970  0.645086  1
  H  H8  1  0.153881  0.685323  0.958718  1
  H  H9  1  0.175914  0.240393  0.979952  1
  H  H10  1  0.019639  0.976396  0.596461  1
  H  H11  1  0.710018  0.108738  0.398917  1
  Ru  Ru12  1  0.376963  0.682222  0.162522  1
  Ru  Ru13  1  0.768081  0.526506  0.444308  1
