# generated using pymatgen
data_NdHo5Co8(P6Rh5)2
_symmetry_space_group_name_H-M   'P 1'
_cell_length_a   3.78930900
_cell_length_b   10.94722700
_cell_length_c   12.55374800
_cell_angle_alpha   90.00000000
_cell_angle_beta   90.00000000
_cell_angle_gamma   90.00000000
_symmetry_Int_Tables_number   1
_chemical_formula_structural   NdHo5Co8(P6Rh5)2
_chemical_formula_sum   'Nd1 Ho5 Co8 P12 Rh10'
_cell_volume   520.75991987
_cell_formula_units_Z   1
loop_
 _symmetry_equiv_pos_site_id
 _symmetry_equiv_pos_as_xyz
  1  'x, y, z'
loop_
 _atom_site_type_symbol
 _atom_site_label
 _atom_site_symmetry_multiplicity
 _atom_site_fract_x
 _atom_site_fract_y
 _atom_site_fract_z
 _atom_site_occupancy
  Nd  Nd0  1  0.500000  0.000000  0.475667  1
  Ho  Ho1  1  0.000000  0.500000  0.517772  1
  Ho  Ho2  1  0.500000  0.815484  0.197102  1
  Ho  Ho3  1  0.500000  0.184516  0.197102  1
  Ho  Ho4  1  0.000000  0.679775  0.804223  1
  Ho  Ho5  1  0.000000  0.320225  0.804223  1
  Co  Co6  1  0.000000  0.500000  0.992529  1
  Co  Co7  1  0.500000  0.000000  0.010762  1
  Co  Co8  1  0.000000  0.620114  0.283284  1
  Co  Co9  1  0.000000  0.379886  0.283284  1
  Co  Co10  1  0.500000  0.334748  0.997678  1
  Co  Co11  1  0.500000  0.665252  0.997678  1
  Co  Co12  1  0.000000  0.168915  0.006727  1
  Co  Co13  1  0.000000  0.831085  0.006727  1
  P  P14  1  0.500000  0.317491  0.619733  1
  P  P15  1  0.500000  0.682509  0.619733  1
  P  P16  1  0.000000  0.194558  0.370793  1
  P  P17  1  0.000000  0.805442  0.370793  1
  P  P18  1  0.500000  0.500000  0.894963  1
  P  P19  1  0.000000  0.000000  0.105879  1
  P  P20  1  0.500000  0.839452  0.905208  1
  P  P21  1  0.500000  0.160548  0.905208  1
  P  P22  1  0.000000  0.656458  0.103844  1
  P  P23  1  0.000000  0.343542  0.103844  1
  P  P24  1  0.500000  0.500000  0.340902  1
  P  P25  1  0.000000  0.000000  0.656400  1
  Rh  Rh26  1  0.500000  0.302257  0.425724  1
  Rh  Rh27  1  0.500000  0.697743  0.425724  1
  Rh  Rh28  1  0.000000  0.209150  0.570326  1
  Rh  Rh29  1  0.000000  0.790850  0.570326  1
  Rh  Rh30  1  0.500000  0.872071  0.717460  1
  Rh  Rh31  1  0.500000  0.127929  0.717460  1
  Rh  Rh32  1  0.500000  0.500000  0.157739  1
  Rh  Rh33  1  0.000000  0.000000  0.844298  1
  Rh  Rh34  1  0.500000  0.500000  0.709402  1
  Rh  Rh35  1  0.000000  0.000000  0.289482  1
