# generated using pymatgen
data_Gd4Ho5ScSn8
_symmetry_space_group_name_H-M   'P 1'
_cell_length_a   8.15110200
_cell_length_b   8.06380600
_cell_length_c   15.16936200
_cell_angle_alpha   90.00000000
_cell_angle_beta   90.00000000
_cell_angle_gamma   90.00000000
_symmetry_Int_Tables_number   1
_chemical_formula_structural   Gd4Ho5ScSn8
_chemical_formula_sum   'Gd8 Ho10 Sc2 Sn16'
_cell_volume   997.06555706
_cell_formula_units_Z   2
loop_
 _symmetry_equiv_pos_site_id
 _symmetry_equiv_pos_as_xyz
  1  'x, y, z'
loop_
 _atom_site_type_symbol
 _atom_site_label
 _atom_site_symmetry_multiplicity
 _atom_site_fract_x
 _atom_site_fract_y
 _atom_site_fract_z
 _atom_site_occupancy
  Gd  Gd0  1  0.995340  0.176696  0.405816  1
  Gd  Gd1  1  0.494965  0.323070  0.405611  1
  Gd  Gd2  1  0.504660  0.676696  0.905816  1
  Gd  Gd3  1  0.504660  0.676696  0.594184  1
  Gd  Gd4  1  0.005035  0.823070  0.594389  1
  Gd  Gd5  1  0.005035  0.823070  0.905611  1
  Gd  Gd6  1  0.494965  0.323070  0.094389  1
  Gd  Gd7  1  0.995340  0.176696  0.094184  1
  Ho  Ho8  1  0.344217  0.163119  0.625069  1
  Ho  Ho9  1  0.654669  0.837059  0.373750  1
  Ho  Ho10  1  0.673701  0.000936  0.750000  1
  Ho  Ho11  1  0.155783  0.663119  0.374931  1
  Ho  Ho12  1  0.845331  0.337059  0.873750  1
  Ho  Ho13  1  0.845331  0.337059  0.626250  1
  Ho  Ho14  1  0.826299  0.500936  0.250000  1
  Ho  Ho15  1  0.344217  0.163119  0.874931  1
  Ho  Ho16  1  0.155783  0.663119  0.125069  1
  Ho  Ho17  1  0.654669  0.837059  0.126250  1
  Sc  Sc18  1  0.325731  0.996979  0.250000  1
  Sc  Sc19  1  0.174269  0.496979  0.750000  1
  Sn  Sn20  1  0.307863  0.843402  0.750000  1
  Sn  Sn21  1  0.459209  0.616407  0.250000  1
  Sn  Sn22  1  0.040791  0.116407  0.750000  1
  Sn  Sn23  1  0.533782  0.387393  0.750000  1
  Sn  Sn24  1  0.183894  0.462838  0.545398  1
  Sn  Sn25  1  0.966218  0.887393  0.250000  1
  Sn  Sn26  1  0.684836  0.149563  0.250000  1
  Sn  Sn27  1  0.815261  0.539878  0.041638  1
  Sn  Sn28  1  0.316106  0.962838  0.045398  1
  Sn  Sn29  1  0.183894  0.462838  0.954602  1
  Sn  Sn30  1  0.684739  0.039878  0.541638  1
  Sn  Sn31  1  0.316106  0.962838  0.454602  1
  Sn  Sn32  1  0.815261  0.539878  0.458362  1
  Sn  Sn33  1  0.815164  0.649563  0.750000  1
  Sn  Sn34  1  0.192137  0.343402  0.250000  1
  Sn  Sn35  1  0.684739  0.039878  0.958362  1
