# generated using pymatgen
data_LaY4Pd13Au2
_symmetry_space_group_name_H-M   'P 1'
_cell_length_a   4.19987700
_cell_length_b   4.17309200
_cell_length_c   20.75330900
_cell_angle_alpha   90.00000000
_cell_angle_beta   90.00000000
_cell_angle_gamma   90.00000000
_symmetry_Int_Tables_number   1
_chemical_formula_structural   LaY4Pd13Au2
_chemical_formula_sum   'La1 Y4 Pd13 Au2'
_cell_volume   363.73231213
_cell_formula_units_Z   1
loop_
 _symmetry_equiv_pos_site_id
 _symmetry_equiv_pos_as_xyz
  1  'x, y, z'
loop_
 _atom_site_type_symbol
 _atom_site_label
 _atom_site_symmetry_multiplicity
 _atom_site_fract_x
 _atom_site_fract_y
 _atom_site_fract_z
 _atom_site_occupancy
  La  La0  1  0.000000  0.000000  0.997980  1
  Y  Y1  1  0.000000  0.000000  0.200672  1
  Y  Y2  1  0.000000  0.000000  0.397235  1
  Y  Y3  1  0.000000  0.000000  0.604842  1
  Y  Y4  1  0.000000  0.000000  0.798839  1
  Pd  Pd5  1  0.500000  0.500000  0.001221  1
  Pd  Pd6  1  0.500000  0.500000  0.398108  1
  Pd  Pd7  1  0.500000  0.500000  0.600749  1
  Pd  Pd8  1  0.500000  0.500000  0.799324  1
  Pd  Pd9  1  0.500000  0.000000  0.102884  1
  Pd  Pd10  1  0.500000  0.000000  0.299317  1
  Pd  Pd11  1  0.500000  0.000000  0.700353  1
  Pd  Pd12  1  0.500000  0.000000  0.897486  1
  Pd  Pd13  1  0.000000  0.500000  0.102938  1
  Pd  Pd14  1  0.000000  0.500000  0.299295  1
  Pd  Pd15  1  0.000000  0.500000  0.499597  1
  Pd  Pd16  1  0.000000  0.500000  0.700552  1
  Pd  Pd17  1  0.000000  0.500000  0.897425  1
  Au  Au18  1  0.500000  0.500000  0.200918  1
  Au  Au19  1  0.500000  0.000000  0.500262  1
