# generated using pymatgen
data_Tb15ErIn2Ag2(PtRh)2
_symmetry_space_group_name_H-M   'P 1'
_cell_length_a   9.62158908
_cell_length_b   9.62158887
_cell_length_c   9.62406500
_cell_angle_alpha   59.99148997
_cell_angle_beta   59.99149068
_cell_angle_gamma   60.03844858
_symmetry_Int_Tables_number   1
_chemical_formula_structural   Tb15ErIn2Ag2(PtRh)2
_chemical_formula_sum   'Tb15 Er1 In2 Ag2 Pt2 Rh2'
_cell_volume   630.09681125
_cell_formula_units_Z   1
loop_
 _symmetry_equiv_pos_site_id
 _symmetry_equiv_pos_as_xyz
  1  'x, y, z'
loop_
 _atom_site_type_symbol
 _atom_site_label
 _atom_site_symmetry_multiplicity
 _atom_site_fract_x
 _atom_site_fract_y
 _atom_site_fract_z
 _atom_site_occupancy
  Tb  Tb0  1  0.809064  0.190122  0.808806  1
  Tb  Tb1  1  0.191612  0.186486  0.811107  1
  Tb  Tb2  1  0.647370  0.054446  0.647725  1
  Tb  Tb3  1  0.063994  0.064264  0.435379  1
  Tb  Tb4  1  0.437529  0.438143  0.062110  1
  Tb  Tb5  1  0.647860  0.651205  0.647398  1
  Tb  Tb6  1  0.809736  0.186478  0.194182  1
  Tb  Tb7  1  0.192930  0.810018  0.809200  1
  Tb  Tb8  1  0.057382  0.648288  0.645290  1
  Tb  Tb9  1  0.437077  0.067269  0.060367  1
  Tb  Tb10  1  0.437689  0.067203  0.434684  1
  Tb  Tb11  1  0.067035  0.438090  0.060368  1
  Tb  Tb12  1  0.645208  0.649374  0.056434  1
  Tb  Tb13  1  0.189121  0.810927  0.189867  1
  Tb  Tb14  1  0.067010  0.438742  0.434075  1
  Er  Er15  1  0.808149  0.807334  0.195195  1
  In  In16  1  0.416529  0.742594  0.420208  1
  In  In17  1  0.742482  0.416632  0.420212  1
  Ag  Ag18  1  0.416231  0.416360  0.417490  1
  Ag  Ag19  1  0.416295  0.416449  0.749422  1
  Pt  Pt20  1  0.857705  0.429864  0.856642  1
  Pt  Pt21  1  0.856539  0.856227  0.858604  1
  Rh  Rh22  1  0.857013  0.856720  0.427426  1
  Rh  Rh23  1  0.428440  0.856764  0.857808  1
