# generated using pymatgen
data_YbY9In3Tc
_symmetry_space_group_name_H-M   'P 1'
_cell_length_a   9.77029500
_cell_length_b   9.77029553
_cell_length_c   9.83748600
_cell_angle_alpha   90.00000000
_cell_angle_beta   90.00000000
_cell_angle_gamma   120.00000158
_symmetry_Int_Tables_number   1
_chemical_formula_structural   YbY9In3Tc
_chemical_formula_sum   'Yb2 Y18 In6 Tc2'
_cell_volume   813.26134320
_cell_formula_units_Z   2
loop_
 _symmetry_equiv_pos_site_id
 _symmetry_equiv_pos_as_xyz
  1  'x, y, z'
loop_
 _atom_site_type_symbol
 _atom_site_label
 _atom_site_symmetry_multiplicity
 _atom_site_fract_x
 _atom_site_fract_y
 _atom_site_fract_z
 _atom_site_occupancy
  Yb  Yb0  1  0.000000  0.000000  0.500000  1
  Yb  Yb1  1  0.000000  0.000000  0.000000  1
  Y  Y2  1  0.209224  0.790776  0.437254  1
  Y  Y3  1  0.209224  0.418449  0.437254  1
  Y  Y4  1  0.581551  0.790776  0.437254  1
  Y  Y5  1  0.790776  0.209224  0.562746  1
  Y  Y6  1  0.790776  0.581551  0.562746  1
  Y  Y7  1  0.418449  0.209224  0.562746  1
  Y  Y8  1  0.790776  0.209224  0.937254  1
  Y  Y9  1  0.790776  0.581551  0.937254  1
  Y  Y10  1  0.418449  0.209224  0.937254  1
  Y  Y11  1  0.209224  0.790776  0.062746  1
  Y  Y12  1  0.209224  0.418449  0.062746  1
  Y  Y13  1  0.581551  0.790776  0.062746  1
  Y  Y14  1  0.539109  0.460891  0.250000  1
  Y  Y15  1  0.539109  0.078218  0.250000  1
  Y  Y16  1  0.921782  0.460891  0.250000  1
  Y  Y17  1  0.460891  0.539109  0.750000  1
  Y  Y18  1  0.460891  0.921782  0.750000  1
  Y  Y19  1  0.078218  0.539109  0.750000  1
  In  In20  1  0.884305  0.115695  0.250000  1
  In  In21  1  0.884305  0.768611  0.250000  1
  In  In22  1  0.231389  0.115695  0.250000  1
  In  In23  1  0.115695  0.884305  0.750000  1
  In  In24  1  0.115695  0.231389  0.750000  1
  In  In25  1  0.768611  0.884305  0.750000  1
  Tc  Tc26  1  0.333333  0.666667  0.250000  1
  Tc  Tc27  1  0.666667  0.333333  0.750000  1
