# generated using pymatgen
data_HoTcH5
_symmetry_space_group_name_H-M   'P 1'
_cell_length_a   4.59898100
_cell_length_b   4.36720100
_cell_length_c   11.58148900
_cell_angle_alpha   90.00000000
_cell_angle_beta   90.00000000
_cell_angle_gamma   90.00000000
_symmetry_Int_Tables_number   1
_chemical_formula_structural   HoTcH5
_chemical_formula_sum   'Ho4 Tc4 H20'
_cell_volume   232.61043589
_cell_formula_units_Z   4
loop_
 _symmetry_equiv_pos_site_id
 _symmetry_equiv_pos_as_xyz
  1  'x, y, z'
loop_
 _atom_site_type_symbol
 _atom_site_label
 _atom_site_symmetry_multiplicity
 _atom_site_fract_x
 _atom_site_fract_y
 _atom_site_fract_z
 _atom_site_occupancy
  Ho  Ho0  1  0.249834  0.246231  0.646133  1
  Ho  Ho1  1  0.749834  0.253769  0.353867  1
  Ho  Ho2  1  0.250166  0.753769  0.146133  1
  Ho  Ho3  1  0.750166  0.746231  0.853867  1
  Tc  Tc4  1  0.249604  0.210358  0.913243  1
  Tc  Tc5  1  0.749604  0.289642  0.086757  1
  Tc  Tc6  1  0.250396  0.789642  0.413243  1
  Tc  Tc7  1  0.750396  0.710358  0.586757  1
  H  H8  1  0.484093  0.507475  0.497932  1
  H  H9  1  0.984093  0.992525  0.502068  1
  H  H10  1  0.015907  0.492525  0.997932  1
  H  H11  1  0.515907  0.007475  0.002068  1
  H  H12  1  0.250267  0.886300  0.833260  1
  H  H13  1  0.750267  0.613700  0.166740  1
  H  H14  1  0.249733  0.113700  0.333260  1
  H  H15  1  0.749733  0.386300  0.666740  1
  H  H16  1  0.982243  0.285789  0.813775  1
  H  H17  1  0.482243  0.214211  0.186225  1
  H  H18  1  0.517757  0.714211  0.313775  1
  H  H19  1  0.017757  0.785789  0.686225  1
  H  H20  1  0.515986  0.287790  0.813623  1
  H  H21  1  0.015986  0.212210  0.186377  1
  H  H22  1  0.984014  0.712210  0.313623  1
  H  H23  1  0.484014  0.787790  0.686377  1
  H  H24  1  0.983659  0.007313  0.002226  1
  H  H25  1  0.483659  0.492687  0.997774  1
  H  H26  1  0.516341  0.992687  0.502226  1
  H  H27  1  0.016341  0.507313  0.497774  1
