# generated using pymatgen
data_YbZrGa9Ir2Pd
_symmetry_space_group_name_H-M   'P 1'
_cell_length_a   7.56227521
_cell_length_b   7.56062547
_cell_length_c   9.41046900
_cell_angle_alpha   90.00000000
_cell_angle_beta   90.00000000
_cell_angle_gamma   119.91039076
_symmetry_Int_Tables_number   1
_chemical_formula_structural   YbZrGa9Ir2Pd
_chemical_formula_sum   'Yb2 Zr2 Ga18 Ir4 Pd2'
_cell_volume   466.38389728
_cell_formula_units_Z   2
loop_
 _symmetry_equiv_pos_site_id
 _symmetry_equiv_pos_as_xyz
  1  'x, y, z'
loop_
 _atom_site_type_symbol
 _atom_site_label
 _atom_site_symmetry_multiplicity
 _atom_site_fract_x
 _atom_site_fract_y
 _atom_site_fract_z
 _atom_site_occupancy
  Yb  Yb0  1  0.996111  0.668690  0.250000  1
  Yb  Yb1  1  0.003889  0.331310  0.750000  1
  Zr  Zr2  1  0.672028  0.996978  0.250000  1
  Zr  Zr3  1  0.327972  0.003022  0.750000  1
  Ga  Ga4  1  0.126341  0.127887  0.250000  1
  Ga  Ga5  1  0.873659  0.872113  0.750000  1
  Ga  Ga6  1  0.996524  0.335913  0.082054  1
  Ga  Ga7  1  0.003476  0.664087  0.917946  1
  Ga  Ga8  1  0.003476  0.664087  0.582054  1
  Ga  Ga9  1  0.338297  0.997112  0.417781  1
  Ga  Ga10  1  0.996524  0.335913  0.417946  1
  Ga  Ga11  1  0.661703  0.002888  0.582219  1
  Ga  Ga12  1  0.661703  0.002888  0.917781  1
  Ga  Ga13  1  0.338297  0.997112  0.082219  1
  Ga  Ga14  1  0.333513  0.332353  0.571247  1
  Ga  Ga15  1  0.666487  0.667647  0.428753  1
  Ga  Ga16  1  0.666487  0.667647  0.071247  1
  Ga  Ga17  1  0.333513  0.332353  0.928753  1
  Ga  Ga18  1  0.338228  0.549962  0.250000  1
  Ga  Ga19  1  0.661772  0.450038  0.750000  1
  Ga  Ga20  1  0.547347  0.336325  0.250000  1
  Ga  Ga21  1  0.452653  0.663675  0.750000  1
  Ir  Ir22  1  0.669754  0.327163  0.000250  1
  Ir  Ir23  1  0.330246  0.672837  0.999750  1
  Ir  Ir24  1  0.330246  0.672837  0.500250  1
  Ir  Ir25  1  0.669754  0.327163  0.499750  1
  Pd  Pd26  1  0.000000  0.000000  0.000000  1
  Pd  Pd27  1  0.000000  0.000000  0.500000  1
