# generated using pymatgen
data_Tm2Mn5Fe5Co2P7
_symmetry_space_group_name_H-M   'P 1'
_cell_length_a   9.16386419
_cell_length_b   9.05874489
_cell_length_c   3.57396000
_cell_angle_alpha   90.00000000
_cell_angle_beta   90.00000000
_cell_angle_gamma   120.23461571
_symmetry_Int_Tables_number   1
_chemical_formula_structural   Tm2Mn5Fe5Co2P7
_chemical_formula_sum   'Tm2 Mn5 Fe5 Co2 P7'
_cell_volume   256.32761449
_cell_formula_units_Z   1
loop_
 _symmetry_equiv_pos_site_id
 _symmetry_equiv_pos_as_xyz
  1  'x, y, z'
loop_
 _atom_site_type_symbol
 _atom_site_label
 _atom_site_symmetry_multiplicity
 _atom_site_fract_x
 _atom_site_fract_y
 _atom_site_fract_z
 _atom_site_occupancy
  Tm  Tm0  1  0.326559  0.663378  0.000000  1
  Tm  Tm1  1  0.006015  0.002034  0.500000  1
  Mn  Mn2  1  0.719131  0.957888  0.000000  1
  Mn  Mn3  1  0.617841  0.721881  0.500000  1
  Mn  Mn4  1  0.772095  0.207625  0.500000  1
  Mn  Mn5  1  0.441082  0.230807  0.500000  1
  Mn  Mn6  1  0.790794  0.559631  0.500000  1
  Fe  Fe7  1  0.238176  0.276375  0.000000  1
  Fe  Fe8  1  0.041146  0.762642  0.000000  1
  Fe  Fe9  1  0.940724  0.451155  0.000000  1
  Fe  Fe10  1  0.509724  0.059694  0.000000  1
  Fe  Fe11  1  0.547650  0.490709  0.000000  1
  Co  Co12  1  0.104012  0.386473  0.500000  1
  Co  Co13  1  0.279296  0.896093  0.500000  1
  P  P14  1  0.969043  0.221099  0.000000  1
  P  P15  1  0.254473  0.035474  0.000000  1
  P  P16  1  0.790947  0.745539  0.000000  1
  P  P17  1  0.071320  0.621368  0.500000  1
  P  P18  1  0.537768  0.925499  0.500000  1
  P  P19  1  0.374855  0.449747  0.500000  1
  P  P20  1  0.667354  0.334887  0.000000  1
