# generated using pymatgen
data_Sr3Be2Pd7
_symmetry_space_group_name_H-M   'P 1'
_cell_length_a   8.70331803
_cell_length_b   8.70331833
_cell_length_c   8.70331741
_cell_angle_alpha   37.83881716
_cell_angle_beta   37.83881193
_cell_angle_gamma   37.83881518
_symmetry_Int_Tables_number   1
_chemical_formula_structural   Sr3Be2Pd7
_chemical_formula_sum   'Sr3 Be2 Pd7'
_cell_volume   222.62708899
_cell_formula_units_Z   1
loop_
 _symmetry_equiv_pos_site_id
 _symmetry_equiv_pos_as_xyz
  1  'x, y, z'
loop_
 _atom_site_type_symbol
 _atom_site_label
 _atom_site_symmetry_multiplicity
 _atom_site_fract_x
 _atom_site_fract_y
 _atom_site_fract_z
 _atom_site_occupancy
  Sr  Sr0  1  0.358252  0.358252  0.358252  1
  Sr  Sr1  1  0.500000  0.500000  0.500000  1
  Sr  Sr2  1  0.641747  0.641747  0.641747  1
  Be  Be3  1  0.167156  0.167156  0.167156  1
  Be  Be4  1  0.832844  0.832844  0.832844  1
  Pd  Pd5  1  0.000000  0.000000  0.000000  1
  Pd  Pd6  1  0.570757  0.068567  0.068568  1
  Pd  Pd7  1  0.068567  0.570757  0.068568  1
  Pd  Pd8  1  0.931433  0.931433  0.429242  1
  Pd  Pd9  1  0.068567  0.068567  0.570758  1
  Pd  Pd10  1  0.931433  0.429243  0.931432  1
  Pd  Pd11  1  0.429243  0.931433  0.931432  1
