# generated using pymatgen
data_Nd4ThW2C7
_symmetry_space_group_name_H-M   'P 1'
_cell_length_a   8.78963654
_cell_length_b   8.78963638
_cell_length_c   3.53471800
_cell_angle_alpha   90.00000000
_cell_angle_beta   90.00000000
_cell_angle_gamma   125.19040442
_symmetry_Int_Tables_number   1
_chemical_formula_structural   Nd4ThW2C7
_chemical_formula_sum   'Nd4 Th1 W2 C7'
_cell_volume   223.17573279
_cell_formula_units_Z   1
loop_
 _symmetry_equiv_pos_site_id
 _symmetry_equiv_pos_as_xyz
  1  'x, y, z'
loop_
 _atom_site_type_symbol
 _atom_site_label
 _atom_site_symmetry_multiplicity
 _atom_site_fract_x
 _atom_site_fract_y
 _atom_site_fract_z
 _atom_site_occupancy
  Nd  Nd0  1  0.064288  0.325673  0.500000  1
  Nd  Nd1  1  0.935712  0.674327  0.500000  1
  Nd  Nd2  1  0.674327  0.935712  0.500000  1
  Nd  Nd3  1  0.325673  0.064288  0.500000  1
  Th  Th4  1  0.500000  0.500000  0.000000  1
  W  W5  1  0.712048  0.287952  0.000000  1
  W  W6  1  0.287952  0.712048  0.000000  1
  C  C7  1  0.628802  0.371198  0.500000  1
  C  C8  1  0.371198  0.628802  0.500000  1
  C  C9  1  0.000000  0.000000  0.000000  1
  C  C10  1  0.167745  0.167745  0.000000  1
  C  C11  1  0.832255  0.832255  0.000000  1
  C  C12  1  0.000000  0.500000  0.000000  1
  C  C13  1  0.500000  0.000000  0.000000  1
