# generated using pymatgen
data_Lu6Nb(Fe3Co8)2
_symmetry_space_group_name_H-M   'P 1'
_cell_length_a   8.35894053
_cell_length_b   8.35894112
_cell_length_c   8.35894000
_cell_angle_alpha   60.00000445
_cell_angle_beta   60.00000210
_cell_angle_gamma   59.99999918
_symmetry_Int_Tables_number   1
_chemical_formula_structural   Lu6Nb(Fe3Co8)2
_chemical_formula_sum   'Lu6 Nb1 Fe6 Co16'
_cell_volume   412.98923420
_cell_formula_units_Z   1
loop_
 _symmetry_equiv_pos_site_id
 _symmetry_equiv_pos_as_xyz
  1  'x, y, z'
loop_
 _atom_site_type_symbol
 _atom_site_label
 _atom_site_symmetry_multiplicity
 _atom_site_fract_x
 _atom_site_fract_y
 _atom_site_fract_z
 _atom_site_occupancy
  Lu  Lu0  1  0.711928  0.288076  0.288012  1
  Lu  Lu1  1  0.288072  0.711924  0.711988  1
  Lu  Lu2  1  0.288033  0.711890  0.288053  1
  Lu  Lu3  1  0.287997  0.288097  0.711930  1
  Lu  Lu4  1  0.711967  0.288110  0.711947  1
  Lu  Lu5  1  0.712003  0.711903  0.288070  1
  Nb  Nb6  1  0.000000  0.000000  0.000000  1
  Fe  Fe7  1  0.500000  0.000000  0.000000  1
  Fe  Fe8  1  0.000000  0.500000  0.500000  1
  Fe  Fe9  1  0.000000  0.500000  0.000000  1
  Fe  Fe10  1  0.000000  0.000000  0.500000  1
  Fe  Fe11  1  0.500000  0.000000  0.500000  1
  Fe  Fe12  1  0.500000  0.500000  0.000000  1
  Co  Co13  1  0.323897  0.323779  0.323798  1
  Co  Co14  1  0.323897  0.323848  0.028477  1
  Co  Co15  1  0.028528  0.323792  0.323874  1
  Co  Co16  1  0.323811  0.028599  0.323853  1
  Co  Co17  1  0.676103  0.676221  0.676202  1
  Co  Co18  1  0.676103  0.676152  0.971523  1
  Co  Co19  1  0.676189  0.971401  0.676147  1
  Co  Co20  1  0.971472  0.676208  0.676126  1
  Co  Co21  1  0.124761  0.124750  0.124764  1
  Co  Co22  1  0.124783  0.124727  0.625763  1
  Co  Co23  1  0.625812  0.124746  0.124781  1
  Co  Co24  1  0.124790  0.625690  0.124786  1
  Co  Co25  1  0.875239  0.875250  0.875236  1
  Co  Co26  1  0.875217  0.875273  0.374237  1
  Co  Co27  1  0.875210  0.374310  0.875214  1
  Co  Co28  1  0.374188  0.875254  0.875219  1
