# generated using pymatgen
data_Ho4Pa(MnB3)2
_symmetry_space_group_name_H-M   'P 1'
_cell_length_a   5.41626954
_cell_length_b   5.41626999
_cell_length_c   7.99972340
_cell_angle_alpha   70.21273752
_cell_angle_beta   70.21273738
_cell_angle_gamma   60.00001001
_symmetry_Int_Tables_number   1
_chemical_formula_structural   Ho4Pa(MnB3)2
_chemical_formula_sum   'Ho4 Pa1 Mn2 B6'
_cell_volume   187.06761347
_cell_formula_units_Z   1
loop_
 _symmetry_equiv_pos_site_id
 _symmetry_equiv_pos_as_xyz
  1  'x, y, z'
loop_
 _atom_site_type_symbol
 _atom_site_label
 _atom_site_symmetry_multiplicity
 _atom_site_fract_x
 _atom_site_fract_y
 _atom_site_fract_z
 _atom_site_occupancy
  Ho  Ho0  1  0.252603  0.252603  0.242190  1
  Ho  Ho1  1  0.747397  0.747397  0.757810  1
  Ho  Ho2  1  0.414229  0.414229  0.757314  1
  Ho  Ho3  1  0.585771  0.585771  0.242686  1
  Pa  Pa4  1  0.000000  0.000000  0.000000  1
  Mn  Mn5  1  0.107993  0.107993  0.676019  1
  Mn  Mn6  1  0.892007  0.892007  0.323981  1
  B  B7  1  0.166546  0.833454  0.500000  1
  B  B8  1  0.833454  0.500000  0.500000  1
  B  B9  1  0.500000  0.166546  0.500000  1
  B  B10  1  0.166546  0.500000  0.500000  1
  B  B11  1  0.500000  0.833454  0.500000  1
  B  B12  1  0.833454  0.166546  0.500000  1
