# generated using pymatgen
data_LaNb3(CuH6)2
_symmetry_space_group_name_H-M   'P 1'
_cell_length_a   6.05123000
_cell_length_b   6.05122872
_cell_length_c   4.74490500
_cell_angle_alpha   90.00000000
_cell_angle_beta   90.00000000
_cell_angle_gamma   119.99999608
_symmetry_Int_Tables_number   1
_chemical_formula_structural   LaNb3(CuH6)2
_chemical_formula_sum   'La1 Nb3 Cu2 H12'
_cell_volume   150.46843325
_cell_formula_units_Z   1
loop_
 _symmetry_equiv_pos_site_id
 _symmetry_equiv_pos_as_xyz
  1  'x, y, z'
loop_
 _atom_site_type_symbol
 _atom_site_label
 _atom_site_symmetry_multiplicity
 _atom_site_fract_x
 _atom_site_fract_y
 _atom_site_fract_z
 _atom_site_occupancy
  La  La0  1  0.000000  0.000000  0.000000  1
  Nb  Nb1  1  0.500000  0.000000  0.500000  1
  Nb  Nb2  1  0.000000  0.500000  0.500000  1
  Nb  Nb3  1  0.500000  0.500000  0.500000  1
  Cu  Cu4  1  0.666667  0.333333  0.000000  1
  Cu  Cu5  1  0.333333  0.666667  0.000000  1
  H  H6  1  0.797014  0.594029  0.744208  1
  H  H7  1  0.202986  0.405971  0.255792  1
  H  H8  1  0.202986  0.797014  0.255792  1
  H  H9  1  0.797014  0.202986  0.255792  1
  H  H10  1  0.594029  0.797014  0.255792  1
  H  H11  1  0.405971  0.202986  0.255792  1
  H  H12  1  0.405971  0.202986  0.744208  1
  H  H13  1  0.202986  0.405971  0.744208  1
  H  H14  1  0.797014  0.202986  0.744208  1
  H  H15  1  0.594029  0.797014  0.744208  1
  H  H16  1  0.797014  0.594029  0.255792  1
  H  H17  1  0.202986  0.797014  0.744208  1
