# generated using pymatgen
data_LaGd4LuTa2O14
_symmetry_space_group_name_H-M   'P 1'
_cell_length_a   6.52713257
_cell_length_b   6.55609115
_cell_length_c   7.60028425
_cell_angle_alpha   89.84401770
_cell_angle_beta   90.06557979
_cell_angle_gamma   108.86874396
_symmetry_Int_Tables_number   1
_chemical_formula_structural   LaGd4LuTa2O14
_chemical_formula_sum   'La1 Gd4 Lu1 Ta2 O14'
_cell_volume   307.75632647
_cell_formula_units_Z   1
loop_
 _symmetry_equiv_pos_site_id
 _symmetry_equiv_pos_as_xyz
  1  'x, y, z'
loop_
 _atom_site_type_symbol
 _atom_site_label
 _atom_site_symmetry_multiplicity
 _atom_site_fract_x
 _atom_site_fract_y
 _atom_site_fract_z
 _atom_site_occupancy
  La  La0  1  0.501277  0.501843  0.497489  1
  Gd  Gd1  1  0.468769  0.463249  0.000971  1
  Gd  Gd2  1  0.998643  0.534348  0.243520  1
  Gd  Gd3  1  0.998559  0.467405  0.748436  1
  Gd  Gd4  1  0.533006  0.997828  0.755886  1
  Lu  Lu5  1  0.468302  0.997879  0.252067  1
  Ta  Ta6  1  0.000085  0.000304  0.497755  1
  Ta  Ta7  1  0.996355  0.997608  0.001816  1
  O  O8  1  0.936627  0.057887  0.749591  1
  O  O9  1  0.068578  0.937212  0.250096  1
  O  O10  1  0.361227  0.649484  0.240219  1
  O  O11  1  0.637133  0.357393  0.757166  1
  O  O12  1  0.368503  0.631825  0.758893  1
  O  O13  1  0.624949  0.355874  0.244131  1
  O  O14  1  0.325214  0.074286  0.978254  1
  O  O15  1  0.683508  0.939256  0.460951  1
  O  O16  1  0.318071  0.060881  0.530472  1
  O  O17  1  0.696634  0.962592  0.048807  1
  O  O18  1  0.070568  0.318285  0.465550  1
  O  O19  1  0.935513  0.688905  0.963821  1
  O  O20  1  0.925646  0.680237  0.528696  1
  O  O21  1  0.082833  0.325422  0.025416  1
