# generated using pymatgen
data_Y4TaGe8Mo5
_symmetry_space_group_name_H-M   'P 1'
_cell_length_a   6.94607000
_cell_length_b   7.09390200
_cell_length_c   13.20844200
_cell_angle_alpha   90.00000000
_cell_angle_beta   90.00000000
_cell_angle_gamma   90.00000000
_symmetry_Int_Tables_number   1
_chemical_formula_structural   Y4TaGe8Mo5
_chemical_formula_sum   'Y8 Ta2 Ge16 Mo10'
_cell_volume   650.84254357
_cell_formula_units_Z   2
loop_
 _symmetry_equiv_pos_site_id
 _symmetry_equiv_pos_as_xyz
  1  'x, y, z'
loop_
 _atom_site_type_symbol
 _atom_site_label
 _atom_site_symmetry_multiplicity
 _atom_site_fract_x
 _atom_site_fract_y
 _atom_site_fract_z
 _atom_site_occupancy
  Y  Y0  1  0.491221  0.328415  0.092441  1
  Y  Y1  1  0.991221  0.171585  0.407559  1
  Y  Y2  1  0.510676  0.669648  0.592768  1
  Y  Y3  1  0.010676  0.830352  0.907232  1
  Y  Y4  1  0.510676  0.669648  0.907232  1
  Y  Y5  1  0.010676  0.830352  0.592768  1
  Y  Y6  1  0.491221  0.328415  0.407559  1
  Y  Y7  1  0.991221  0.171585  0.092441  1
  Ta  Ta8  1  0.336999  0.986556  0.250000  1
  Ta  Ta9  1  0.836999  0.513444  0.250000  1
  Ge  Ge10  1  0.813225  0.642414  0.750000  1
  Ge  Ge11  1  0.313225  0.857586  0.750000  1
  Ge  Ge12  1  0.192351  0.357761  0.250000  1
  Ge  Ge13  1  0.692351  0.142239  0.250000  1
  Ge  Ge14  1  0.531309  0.366602  0.750000  1
  Ge  Ge15  1  0.031309  0.133398  0.750000  1
  Ge  Ge16  1  0.466280  0.625781  0.250000  1
  Ge  Ge17  1  0.966280  0.874219  0.250000  1
  Ge  Ge18  1  0.669844  0.046263  0.548403  1
  Ge  Ge19  1  0.169844  0.453737  0.951597  1
  Ge  Ge20  1  0.328318  0.953684  0.044509  1
  Ge  Ge21  1  0.828318  0.546316  0.455491  1
  Ge  Ge22  1  0.328318  0.953684  0.455491  1
  Ge  Ge23  1  0.828318  0.546316  0.044509  1
  Ge  Ge24  1  0.669844  0.046263  0.951597  1
  Ge  Ge25  1  0.169844  0.453737  0.548403  1
  Mo  Mo26  1  0.667472  0.005607  0.750000  1
  Mo  Mo27  1  0.167472  0.494393  0.750000  1
  Mo  Mo28  1  0.830962  0.343264  0.628208  1
  Mo  Mo29  1  0.330962  0.156736  0.871792  1
  Mo  Mo30  1  0.165162  0.657998  0.125736  1
  Mo  Mo31  1  0.665162  0.842002  0.374264  1
  Mo  Mo32  1  0.165162  0.657998  0.374264  1
  Mo  Mo33  1  0.665162  0.842002  0.125736  1
  Mo  Mo34  1  0.830962  0.343264  0.871792  1
  Mo  Mo35  1  0.330962  0.156736  0.628208  1
