# generated using pymatgen
data_Hf4Pd15Pb
_symmetry_space_group_name_H-M   'P 1'
_cell_length_a   4.04204100
_cell_length_b   4.04204100
_cell_length_c   20.18686000
_cell_angle_alpha   90.00000000
_cell_angle_beta   90.00000000
_cell_angle_gamma   90.00000000
_symmetry_Int_Tables_number   1
_chemical_formula_structural   Hf4Pd15Pb
_chemical_formula_sum   'Hf4 Pd15 Pb1'
_cell_volume   329.81484543
_cell_formula_units_Z   1
loop_
 _symmetry_equiv_pos_site_id
 _symmetry_equiv_pos_as_xyz
  1  'x, y, z'
loop_
 _atom_site_type_symbol
 _atom_site_label
 _atom_site_symmetry_multiplicity
 _atom_site_fract_x
 _atom_site_fract_y
 _atom_site_fract_z
 _atom_site_occupancy
  Hf  Hf0  1  0.000000  0.000000  0.201268  1
  Hf  Hf1  1  0.000000  0.000000  0.400198  1
  Hf  Hf2  1  0.000000  0.000000  0.599802  1
  Hf  Hf3  1  0.000000  0.000000  0.798732  1
  Pd  Pd4  1  0.500000  0.500000  0.000000  1
  Pd  Pd5  1  0.500000  0.500000  0.204075  1
  Pd  Pd6  1  0.500000  0.500000  0.401203  1
  Pd  Pd7  1  0.500000  0.500000  0.598797  1
  Pd  Pd8  1  0.500000  0.500000  0.795925  1
  Pd  Pd9  1  0.500000  0.000000  0.106839  1
  Pd  Pd10  1  0.500000  0.000000  0.302563  1
  Pd  Pd11  1  0.500000  0.000000  0.500000  1
  Pd  Pd12  1  0.500000  0.000000  0.697437  1
  Pd  Pd13  1  0.500000  0.000000  0.893161  1
  Pd  Pd14  1  0.000000  0.500000  0.106839  1
  Pd  Pd15  1  0.000000  0.500000  0.302563  1
  Pd  Pd16  1  0.000000  0.500000  0.500000  1
  Pd  Pd17  1  0.000000  0.500000  0.697437  1
  Pd  Pd18  1  0.000000  0.500000  0.893161  1
  Pb  Pb19  1  0.000000  0.000000  0.000000  1
