# generated using pymatgen
data_Er2ScB2Ir4Ru
_symmetry_space_group_name_H-M   'P 1'
_cell_length_a   3.11621100
_cell_length_b   9.78725200
_cell_length_c   9.78725200
_cell_angle_alpha   90.00000000
_cell_angle_beta   90.00000000
_cell_angle_gamma   90.00000000
_symmetry_Int_Tables_number   1
_chemical_formula_structural   Er2ScB2Ir4Ru
_chemical_formula_sum   'Er4 Sc2 B4 Ir8 Ru2'
_cell_volume   298.50279189
_cell_formula_units_Z   2
loop_
 _symmetry_equiv_pos_site_id
 _symmetry_equiv_pos_as_xyz
  1  'x, y, z'
loop_
 _atom_site_type_symbol
 _atom_site_label
 _atom_site_symmetry_multiplicity
 _atom_site_fract_x
 _atom_site_fract_y
 _atom_site_fract_z
 _atom_site_occupancy
  Er  Er0  1  0.000000  0.174761  0.674761  1
  Er  Er1  1  0.000000  0.825239  0.325239  1
  Er  Er2  1  0.000000  0.325239  0.174761  1
  Er  Er3  1  0.000000  0.674761  0.825239  1
  Sc  Sc4  1  0.000000  0.000000  0.000000  1
  Sc  Sc5  1  0.000000  0.500000  0.500000  1
  B  B6  1  0.000000  0.619348  0.119348  1
  B  B7  1  0.000000  0.380652  0.880652  1
  B  B8  1  0.000000  0.880652  0.619348  1
  B  B9  1  0.000000  0.119348  0.380652  1
  Ir  Ir10  1  0.500000  0.070885  0.223669  1
  Ir  Ir11  1  0.500000  0.929115  0.776331  1
  Ir  Ir12  1  0.500000  0.776331  0.070885  1
  Ir  Ir13  1  0.500000  0.429115  0.723669  1
  Ir  Ir14  1  0.500000  0.223669  0.929115  1
  Ir  Ir15  1  0.500000  0.570885  0.276331  1
  Ir  Ir16  1  0.500000  0.723669  0.570885  1
  Ir  Ir17  1  0.500000  0.276331  0.429115  1
  Ru  Ru18  1  0.500000  0.000000  0.500000  1
  Ru  Ru19  1  0.500000  0.500000  0.000000  1
