# generated using pymatgen
data_Dy2HoGa6Co5Ni4
_symmetry_space_group_name_H-M   'P 1'
_cell_length_a   4.07125000
_cell_length_b   8.71795066
_cell_length_c   8.73686887
_cell_angle_alpha   59.82991214
_cell_angle_beta   90.00000000
_cell_angle_gamma   90.00000000
_symmetry_Int_Tables_number   1
_chemical_formula_structural   Dy2HoGa6Co5Ni4
_chemical_formula_sum   'Dy2 Ho1 Ga6 Co5 Ni4'
_cell_volume   268.09068739
_cell_formula_units_Z   1
loop_
 _symmetry_equiv_pos_site_id
 _symmetry_equiv_pos_as_xyz
  1  'x, y, z'
loop_
 _atom_site_type_symbol
 _atom_site_label
 _atom_site_symmetry_multiplicity
 _atom_site_fract_x
 _atom_site_fract_y
 _atom_site_fract_z
 _atom_site_occupancy
  Dy  Dy0  1  0.500000  0.664303  0.670957  1
  Dy  Dy1  1  0.000000  0.000234  0.998348  1
  Ho  Ho2  1  0.500000  0.331740  0.333734  1
  Ga  Ga3  1  0.000000  0.508757  0.490712  1
  Ga  Ga4  1  0.000000  0.490210  0.000854  1
  Ga  Ga5  1  0.000000  0.003638  0.508359  1
  Ga  Ga6  1  0.500000  0.274877  0.725231  1
  Ga  Ga7  1  0.500000  0.725980  0.999234  1
  Ga  Ga8  1  0.500000  0.000137  0.272278  1
  Co  Co9  1  0.000000  0.176540  0.186763  1
  Co  Co10  1  0.000000  0.187401  0.636685  1
  Co  Co11  1  0.000000  0.634207  0.178259  1
  Co  Co12  1  0.000000  0.813352  0.821004  1
  Co  Co13  1  0.000000  0.364329  0.813518  1
  Ni  Ni14  1  0.000000  0.821412  0.368516  1
  Ni  Ni15  1  0.500000  0.702814  0.295525  1
  Ni  Ni16  1  0.500000  0.298866  0.999606  1
  Ni  Ni17  1  0.500000  0.001103  0.700517  1
