# generated using pymatgen
data_Sr13Pr7Si15Hg
_symmetry_space_group_name_H-M   'P 1'
_cell_length_a   8.26348004
_cell_length_b   8.23034007
_cell_length_c   15.56411317
_cell_angle_alpha   89.94984104
_cell_angle_beta   89.40776279
_cell_angle_gamma   89.75103762
_symmetry_Int_Tables_number   1
_chemical_formula_structural   Sr13Pr7Si15Hg
_chemical_formula_sum   'Sr13 Pr7 Si15 Hg1'
_cell_volume   1058.46789955
_cell_formula_units_Z   1
loop_
 _symmetry_equiv_pos_site_id
 _symmetry_equiv_pos_as_xyz
  1  'x, y, z'
loop_
 _atom_site_type_symbol
 _atom_site_label
 _atom_site_symmetry_multiplicity
 _atom_site_fract_x
 _atom_site_fract_y
 _atom_site_fract_z
 _atom_site_occupancy
  Sr  Sr0  1  0.312222  0.307792  0.999489  1
  Sr  Sr1  1  0.189309  0.810761  0.251131  1
  Sr  Sr2  1  0.807956  0.185783  0.752597  1
  Sr  Sr3  1  0.682830  0.689318  0.496254  1
  Sr  Sr4  1  0.367276  0.013474  0.452495  1
  Sr  Sr5  1  0.490855  0.865048  0.704819  1
  Sr  Sr6  1  0.511760  0.129999  0.205255  1
  Sr  Sr7  1  0.866898  0.486359  0.292621  1
  Sr  Sr8  1  0.131397  0.522615  0.799619  1
  Sr  Sr9  1  0.630899  0.988765  0.956263  1
  Sr  Sr10  1  0.003061  0.368115  0.536917  1
  Sr  Sr11  1  0.992694  0.629429  0.050389  1
  Sr  Sr12  1  0.131975  0.982693  0.878934  1
  Pr  Pr13  1  0.511698  0.626723  0.126565  1
  Pr  Pr14  1  0.502241  0.375880  0.623410  1
  Pr  Pr15  1  0.639220  0.513825  0.879446  1
  Pr  Pr16  1  0.368343  0.488329  0.374685  1
  Pr  Pr17  1  0.869369  0.010522  0.373246  1
  Pr  Pr18  1  0.991001  0.130069  0.126388  1
  Pr  Pr19  1  0.996509  0.863180  0.619400  1
  Si  Si20  1  0.353631  0.703710  0.951509  1
  Si  Si21  1  0.650825  0.288075  0.441945  1
  Si  Si22  1  0.713694  0.349863  0.058789  1
  Si  Si23  1  0.284408  0.652412  0.554775  1
  Si  Si24  1  0.789600  0.848815  0.196687  1
  Si  Si25  1  0.151630  0.210455  0.305220  1
  Si  Si26  1  0.837973  0.792500  0.797552  1
  Si  Si27  1  0.283406  0.910205  0.059723  1
  Si  Si28  1  0.586034  0.777144  0.304520  1
  Si  Si29  1  0.431522  0.234231  0.805668  1
  Si  Si30  1  0.775880  0.583349  0.693384  1
  Si  Si31  1  0.222594  0.412921  0.196903  1
  Si  Si32  1  0.716056  0.084713  0.551698  1
  Si  Si33  1  0.915238  0.283817  0.949128  1
  Si  Si34  1  0.084686  0.720511  0.444822  1
  Hg  Hg35  1  0.205307  0.158602  0.687754  1
