# generated using pymatgen
data_Er5ZnCo5
_symmetry_space_group_name_H-M   'P 1'
_cell_length_a   5.38765551
_cell_length_b   5.38765553
_cell_length_c   20.44001600
_cell_angle_alpha   90.00000000
_cell_angle_beta   90.00000000
_cell_angle_gamma   136.07129465
_symmetry_Int_Tables_number   1
_chemical_formula_structural   Er5ZnCo5
_chemical_formula_sum   'Er10 Zn2 Co10'
_cell_volume   411.61561469
_cell_formula_units_Z   2
loop_
 _symmetry_equiv_pos_site_id
 _symmetry_equiv_pos_as_xyz
  1  'x, y, z'
loop_
 _atom_site_type_symbol
 _atom_site_label
 _atom_site_symmetry_multiplicity
 _atom_site_fract_x
 _atom_site_fract_y
 _atom_site_fract_z
 _atom_site_occupancy
  Er  Er0  1  0.290697  0.709303  0.250000  1
  Er  Er1  1  0.294172  0.705828  0.065138  1
  Er  Er2  1  0.996896  0.003104  0.843220  1
  Er  Er3  1  0.709303  0.290697  0.750000  1
  Er  Er4  1  0.705828  0.294172  0.565138  1
  Er  Er5  1  0.003104  0.996896  0.343220  1
  Er  Er6  1  0.996896  0.003104  0.656780  1
  Er  Er7  1  0.705828  0.294172  0.934862  1
  Er  Er8  1  0.003104  0.996896  0.156780  1
  Er  Er9  1  0.294172  0.705828  0.434862  1
  Zn  Zn10  1  0.000000  0.000000  0.500000  1
  Zn  Zn11  1  0.000000  0.000000  0.000000  1
  Co  Co12  1  0.291881  0.708119  0.654837  1
  Co  Co13  1  0.586161  0.413839  0.439864  1
  Co  Co14  1  0.413303  0.586697  0.750000  1
  Co  Co15  1  0.413839  0.586161  0.939864  1
  Co  Co16  1  0.586697  0.413303  0.250000  1
  Co  Co17  1  0.413839  0.586161  0.560136  1
  Co  Co18  1  0.708119  0.291881  0.345163  1
  Co  Co19  1  0.708119  0.291881  0.154837  1
  Co  Co20  1  0.586161  0.413839  0.060136  1
  Co  Co21  1  0.291881  0.708119  0.845163  1
