# generated using pymatgen
data_Cs6ErTmBi4
_symmetry_space_group_name_H-M   'P 1'
_cell_length_a   10.69032000
_cell_length_b   10.69032183
_cell_length_c   10.69032100
_cell_angle_alpha   127.15594595
_cell_angle_beta   70.79702438
_cell_angle_gamma   136.46296951
_symmetry_Int_Tables_number   1
_chemical_formula_structural   Cs6ErTmBi4
_chemical_formula_sum   'Cs6 Er1 Tm1 Bi4'
_cell_volume   657.37484748
_cell_formula_units_Z   1
loop_
 _symmetry_equiv_pos_site_id
 _symmetry_equiv_pos_as_xyz
  1  'x, y, z'
loop_
 _atom_site_type_symbol
 _atom_site_label
 _atom_site_symmetry_multiplicity
 _atom_site_fract_x
 _atom_site_fract_y
 _atom_site_fract_z
 _atom_site_occupancy
  Cs  Cs0  1  0.250000  0.250000  0.000000  1
  Cs  Cs1  1  0.750000  0.750000  0.000000  1
  Cs  Cs2  1  0.315415  0.803351  0.118494  1
  Cs  Cs3  1  0.184585  0.303081  0.487937  1
  Cs  Cs4  1  0.815145  0.696650  0.512064  1
  Cs  Cs5  1  0.684855  0.196918  0.881505  1
  Er  Er6  1  0.250000  0.749999  0.499999  1
  Tm  Tm7  1  0.750000  0.250000  0.500000  1
  Bi  Bi8  1  0.904819  0.312079  0.219306  1
  Bi  Bi9  1  0.595181  0.814488  0.407261  1
  Bi  Bi10  1  0.407229  0.187921  0.592739  1
  Bi  Bi11  1  0.092771  0.685512  0.780693  1
