# generated using pymatgen
data_LaTb4Nd(RuO7)2
_symmetry_space_group_name_H-M   'P 1'
_cell_length_a   6.48758422
_cell_length_b   6.48758477
_cell_length_c   7.52997576
_cell_angle_alpha   90.02942067
_cell_angle_beta   90.02942222
_cell_angle_gamma   110.14563447
_symmetry_Int_Tables_number   1
_chemical_formula_structural   LaTb4Nd(RuO7)2
_chemical_formula_sum   'La1 Tb4 Nd1 Ru2 O14'
_cell_volume   297.53763136
_cell_formula_units_Z   1
loop_
 _symmetry_equiv_pos_site_id
 _symmetry_equiv_pos_as_xyz
  1  'x, y, z'
loop_
 _atom_site_type_symbol
 _atom_site_label
 _atom_site_symmetry_multiplicity
 _atom_site_fract_x
 _atom_site_fract_y
 _atom_site_fract_z
 _atom_site_occupancy
  La  La0  1  0.000000  0.000000  0.500000  1
  Tb  Tb1  1  0.519653  0.072856  0.249135  1
  Tb  Tb2  1  0.927144  0.480347  0.750865  1
  Tb  Tb3  1  0.480347  0.927144  0.750865  1
  Tb  Tb4  1  0.072856  0.519653  0.249135  1
  Nd  Nd5  1  0.000000  0.000000  0.000000  1
  Ru  Ru6  1  0.500000  0.500000  0.500000  1
  Ru  Ru7  1  0.500000  0.500000  0.000000  1
  O  O8  1  0.443642  0.183583  0.537365  1
  O  O9  1  0.816417  0.556358  0.462635  1
  O  O10  1  0.440045  0.183056  0.963043  1
  O  O11  1  0.816944  0.559955  0.036957  1
  O  O12  1  0.556358  0.816417  0.462635  1
  O  O13  1  0.183583  0.443642  0.537365  1
  O  O14  1  0.559955  0.816944  0.036957  1
  O  O15  1  0.183056  0.440045  0.963043  1
  O  O16  1  0.162187  0.884456  0.247136  1
  O  O17  1  0.115544  0.837813  0.752864  1
  O  O18  1  0.837813  0.115544  0.752864  1
  O  O19  1  0.884456  0.162187  0.247136  1
  O  O20  1  0.412177  0.412177  0.250166  1
  O  O21  1  0.587823  0.587823  0.749834  1
