# generated using pymatgen
data_HfSc(Mn4Nb)2
_symmetry_space_group_name_H-M   'P 1'
_cell_length_a   4.85988900
_cell_length_b   4.85988810
_cell_length_c   8.04240200
_cell_angle_alpha   90.00000000
_cell_angle_beta   90.00000000
_cell_angle_gamma   120.00001297
_symmetry_Int_Tables_number   1
_chemical_formula_structural   HfSc(Mn4Nb)2
_chemical_formula_sum   'Hf1 Sc1 Mn8 Nb2'
_cell_volume   164.50116266
_cell_formula_units_Z   1
loop_
 _symmetry_equiv_pos_site_id
 _symmetry_equiv_pos_as_xyz
  1  'x, y, z'
loop_
 _atom_site_type_symbol
 _atom_site_label
 _atom_site_symmetry_multiplicity
 _atom_site_fract_x
 _atom_site_fract_y
 _atom_site_fract_z
 _atom_site_occupancy
  Hf  Hf0  1  0.333333  0.666667  0.437430  1
  Sc  Sc1  1  0.666667  0.333333  0.937942  1
  Mn  Mn2  1  0.170566  0.341131  0.749755  1
  Mn  Mn3  1  0.829218  0.170782  0.249802  1
  Mn  Mn4  1  0.341564  0.170782  0.249802  1
  Mn  Mn5  1  0.658869  0.829434  0.749755  1
  Mn  Mn6  1  0.000000  0.000000  0.998428  1
  Mn  Mn7  1  0.000000  0.000000  0.497627  1
  Mn  Mn8  1  0.829218  0.658436  0.249802  1
  Mn  Mn9  1  0.170566  0.829434  0.749755  1
  Nb  Nb10  1  0.666667  0.333333  0.567040  1
  Nb  Nb11  1  0.333333  0.666667  0.062857  1
