# generated using pymatgen
data_Ta6VFe6
_symmetry_space_group_name_H-M   'P 1'
_cell_length_a   4.90717765
_cell_length_b   4.90717708
_cell_length_c   9.37558983
_cell_angle_alpha   74.82907056
_cell_angle_beta   74.82907019
_cell_angle_gamma   60.00000108
_symmetry_Int_Tables_number   1
_chemical_formula_structural   Ta6VFe6
_chemical_formula_sum   'Ta6 V1 Fe6'
_cell_volume   186.37999774
_cell_formula_units_Z   1
loop_
 _symmetry_equiv_pos_site_id
 _symmetry_equiv_pos_as_xyz
  1  'x, y, z'
loop_
 _atom_site_type_symbol
 _atom_site_label
 _atom_site_symmetry_multiplicity
 _atom_site_fract_x
 _atom_site_fract_y
 _atom_site_fract_z
 _atom_site_occupancy
  Ta  Ta0  1  0.833125  0.833125  0.500627  1
  Ta  Ta1  1  0.166875  0.166875  0.499373  1
  Ta  Ta2  1  0.652858  0.652858  0.041425  1
  Ta  Ta3  1  0.347142  0.347142  0.958575  1
  Ta  Ta4  1  0.549311  0.549311  0.352068  1
  Ta  Ta5  1  0.450689  0.450689  0.647932  1
  V  V6  1  0.000000  0.000000  0.000000  1
  Fe  Fe7  1  0.906969  0.906969  0.773424  1
  Fe  Fe8  1  0.412637  0.906969  0.773424  1
  Fe  Fe9  1  0.906969  0.412637  0.773424  1
  Fe  Fe10  1  0.093031  0.093031  0.226576  1
  Fe  Fe11  1  0.587363  0.093031  0.226576  1
  Fe  Fe12  1  0.093031  0.587363  0.226576  1
