# generated using pymatgen
data_Tm4Co15Ni3(P6Ru)2
_symmetry_space_group_name_H-M   'P 1'
_cell_length_a   3.67628400
_cell_length_b   10.31464020
_cell_length_c   11.78950534
_cell_angle_alpha   89.94501545
_cell_angle_beta   90.00000000
_cell_angle_gamma   90.00000000
_symmetry_Int_Tables_number   1
_chemical_formula_structural   Tm4Co15Ni3(P6Ru)2
_chemical_formula_sum   'Tm4 Co15 Ni3 P12 Ru2'
_cell_volume   447.05249295
_cell_formula_units_Z   1
loop_
 _symmetry_equiv_pos_site_id
 _symmetry_equiv_pos_as_xyz
  1  'x, y, z'
loop_
 _atom_site_type_symbol
 _atom_site_label
 _atom_site_symmetry_multiplicity
 _atom_site_fract_x
 _atom_site_fract_y
 _atom_site_fract_z
 _atom_site_occupancy
  Tm  Tm0  1  0.250000  0.582084  0.701851  1
  Tm  Tm1  1  0.250000  0.918248  0.202005  1
  Tm  Tm2  1  0.750000  0.415223  0.294240  1
  Tm  Tm3  1  0.750000  0.085004  0.795171  1
  Co  Co4  1  0.250000  0.092708  0.985084  1
  Co  Co5  1  0.750000  0.590180  0.511554  1
  Co  Co6  1  0.750000  0.909017  0.012030  1
  Co  Co7  1  0.250000  0.220124  0.175945  1
  Co  Co8  1  0.250000  0.281160  0.677300  1
  Co  Co9  1  0.750000  0.778726  0.823144  1
  Co  Co10  1  0.750000  0.721698  0.323126  1
  Co  Co11  1  0.250000  0.886339  0.702550  1
  Co  Co12  1  0.250000  0.613726  0.202259  1
  Co  Co13  1  0.750000  0.117278  0.300834  1
  Co  Co14  1  0.750000  0.382487  0.801810  1
  Co  Co15  1  0.250000  0.464640  0.931456  1
  Co  Co16  1  0.250000  0.035420  0.431833  1
  Co  Co17  1  0.750000  0.533469  0.069642  1
  Co  Co18  1  0.750000  0.966583  0.569524  1
  Ni  Ni19  1  0.750000  0.283152  0.009250  1
  Ni  Ni20  1  0.750000  0.214849  0.511315  1
  Ni  Ni21  1  0.250000  0.406808  0.483873  1
  P  P22  1  0.250000  0.417574  0.112071  1
  P  P23  1  0.250000  0.083054  0.612732  1
  P  P24  1  0.750000  0.578846  0.886927  1
  P  P25  1  0.750000  0.921403  0.387090  1
  P  P26  1  0.250000  0.269251  0.868155  1
  P  P27  1  0.250000  0.228757  0.365136  1
  P  P28  1  0.750000  0.730203  0.133108  1
  P  P29  1  0.750000  0.770006  0.633235  1
  P  P30  1  0.250000  0.597269  0.389511  1
  P  P31  1  0.250000  0.905175  0.890156  1
  P  P32  1  0.750000  0.397393  0.611509  1
  P  P33  1  0.750000  0.101380  0.108541  1
  Ru  Ru34  1  0.250000  0.715396  0.993077  1
  Ru  Ru35  1  0.250000  0.785369  0.492950  1
