# generated using pymatgen
data_La(NdSn4)3
_symmetry_space_group_name_H-M   'P 1'
_cell_length_a   12.25871792
_cell_length_b   12.25871820
_cell_length_c   12.25871864
_cell_angle_alpha   31.39930230
_cell_angle_beta   31.39929842
_cell_angle_gamma   31.39930608
_symmetry_Int_Tables_number   1
_chemical_formula_structural   La(NdSn4)3
_chemical_formula_sum   'La1 Nd3 Sn12'
_cell_volume   443.87090895
_cell_formula_units_Z   1
loop_
 _symmetry_equiv_pos_site_id
 _symmetry_equiv_pos_as_xyz
  1  'x, y, z'
loop_
 _atom_site_type_symbol
 _atom_site_label
 _atom_site_symmetry_multiplicity
 _atom_site_fract_x
 _atom_site_fract_y
 _atom_site_fract_z
 _atom_site_occupancy
  La  La0  1  0.293130  0.293130  0.293130  1
  Nd  Nd1  1  0.878163  0.878163  0.878163  1
  Nd  Nd2  1  0.122304  0.122304  0.122304  1
  Nd  Nd3  1  0.705955  0.705955  0.705955  1
  Sn  Sn4  1  0.293623  0.791543  0.791543  1
  Sn  Sn5  1  0.791543  0.791543  0.293623  1
  Sn  Sn6  1  0.858166  0.384326  0.384326  1
  Sn  Sn7  1  0.384326  0.384326  0.858166  1
  Sn  Sn8  1  0.384326  0.858166  0.384326  1
  Sn  Sn9  1  0.617558  0.137059  0.617558  1
  Sn  Sn10  1  0.137059  0.617558  0.617558  1
  Sn  Sn11  1  0.617558  0.617558  0.137059  1
  Sn  Sn12  1  0.791543  0.293623  0.791543  1
  Sn  Sn13  1  0.208906  0.706934  0.208906  1
  Sn  Sn14  1  0.208906  0.208906  0.706934  1
  Sn  Sn15  1  0.706934  0.208906  0.208906  1
