# generated using pymatgen
data_Tm3Ga2Co2Ge
_symmetry_space_group_name_H-M   'P 1'
_cell_length_a   5.63000196
_cell_length_b   5.63000347
_cell_length_c   13.76274700
_cell_angle_alpha   90.00000000
_cell_angle_beta   90.00000000
_cell_angle_gamma   136.71097133
_symmetry_Int_Tables_number   1
_chemical_formula_structural   Tm3Ga2Co2Ge
_chemical_formula_sum   'Tm6 Ga4 Co4 Ge2'
_cell_volume   299.11842988
_cell_formula_units_Z   2
loop_
 _symmetry_equiv_pos_site_id
 _symmetry_equiv_pos_as_xyz
  1  'x, y, z'
loop_
 _atom_site_type_symbol
 _atom_site_label
 _atom_site_symmetry_multiplicity
 _atom_site_fract_x
 _atom_site_fract_y
 _atom_site_fract_z
 _atom_site_occupancy
  Tm  Tm0  1  0.915923  0.084077  0.390430  1
  Tm  Tm1  1  0.084077  0.915923  0.609570  1
  Tm  Tm2  1  0.915923  0.084077  0.109570  1
  Tm  Tm3  1  0.084077  0.915923  0.890430  1
  Tm  Tm4  1  0.641843  0.358157  0.250000  1
  Tm  Tm5  1  0.358157  0.641843  0.750000  1
  Ga  Ga6  1  0.622477  0.377523  0.460291  1
  Ga  Ga7  1  0.377523  0.622477  0.539709  1
  Ga  Ga8  1  0.622477  0.377523  0.039709  1
  Ga  Ga9  1  0.377523  0.622477  0.960291  1
  Co  Co10  1  0.787280  0.212720  0.908420  1
  Co  Co11  1  0.212720  0.787280  0.091580  1
  Co  Co12  1  0.787280  0.212720  0.591580  1
  Co  Co13  1  0.212720  0.787280  0.408420  1
  Ge  Ge14  1  0.338591  0.661409  0.250000  1
  Ge  Ge15  1  0.661409  0.338591  0.750000  1
