# generated using pymatgen
data_LiEuPt4
_symmetry_space_group_name_H-M   'P 1'
_cell_length_a   5.39872257
_cell_length_b   5.40011688
_cell_length_c   5.39908403
_cell_angle_alpha   60.00210663
_cell_angle_beta   59.98637733
_cell_angle_gamma   59.99214257
_symmetry_Int_Tables_number   1
_chemical_formula_structural   LiEuPt4
_chemical_formula_sum   'Li1 Eu1 Pt4'
_cell_volume   111.28474837
_cell_formula_units_Z   1
loop_
 _symmetry_equiv_pos_site_id
 _symmetry_equiv_pos_as_xyz
  1  'x, y, z'
loop_
 _atom_site_type_symbol
 _atom_site_label
 _atom_site_symmetry_multiplicity
 _atom_site_fract_x
 _atom_site_fract_y
 _atom_site_fract_z
 _atom_site_occupancy
  Li  Li0  1  0.250046  0.249943  0.250001  1
  Eu  Eu1  1  0.999924  0.000227  0.999940  1
  Pt  Pt2  1  0.624518  0.624441  0.126511  1
  Pt  Pt3  1  0.624498  0.126478  0.624496  1
  Pt  Pt4  1  0.126508  0.624426  0.624551  1
  Pt  Pt5  1  0.624505  0.624484  0.624502  1
