# generated using pymatgen
data_Hf6C4N
_symmetry_space_group_name_H-M   'P 1'
_cell_length_a   5.66194642
_cell_length_b   5.66194747
_cell_length_c   5.68022501
_cell_angle_alpha   99.55759479
_cell_angle_beta   99.55760306
_cell_angle_gamma   119.79226982
_symmetry_Int_Tables_number   1
_chemical_formula_structural   Hf6C4N
_chemical_formula_sum   'Hf6 C4 N1'
_cell_volume   149.11756361
_cell_formula_units_Z   1
loop_
 _symmetry_equiv_pos_site_id
 _symmetry_equiv_pos_as_xyz
  1  'x, y, z'
loop_
 _atom_site_type_symbol
 _atom_site_label
 _atom_site_symmetry_multiplicity
 _atom_site_fract_x
 _atom_site_fract_y
 _atom_site_fract_z
 _atom_site_occupancy
  Hf  Hf0  1  0.431945  0.083601  0.253088  1
  Hf  Hf1  1  0.083601  0.431945  0.253088  1
  Hf  Hf2  1  0.738338  0.738338  0.262742  1
  Hf  Hf3  1  0.261663  0.261663  0.737258  1
  Hf  Hf4  1  0.916399  0.568055  0.746910  1
  Hf  Hf5  1  0.568055  0.916399  0.746910  1
  C  C6  1  0.666639  0.333360  0.000000  1
  C  C7  1  0.333360  0.666639  0.000000  1
  C  C8  1  0.831695  0.168304  0.500000  1
  C  C9  1  0.168304  0.831695  0.500000  1
  N  N10  1  0.499999  0.499999  0.500000  1
