# generated using pymatgen
data_La2PtN2
_symmetry_space_group_name_H-M   'P 1'
_cell_length_a   3.75327949
_cell_length_b   3.75328773
_cell_length_c   6.92660157
_cell_angle_alpha   105.71978870
_cell_angle_beta   105.71974457
_cell_angle_gamma   90.00000003
_symmetry_Int_Tables_number   1
_chemical_formula_structural   La2PtN2
_chemical_formula_sum   'La2 Pt1 N2'
_cell_volume   90.12932755
_cell_formula_units_Z   1
loop_
 _symmetry_equiv_pos_site_id
 _symmetry_equiv_pos_as_xyz
  1  'x, y, z'
loop_
 _atom_site_type_symbol
 _atom_site_label
 _atom_site_symmetry_multiplicity
 _atom_site_fract_x
 _atom_site_fract_y
 _atom_site_fract_z
 _atom_site_occupancy
  La  La0  1  0.849981  0.849981  0.199963  1
  La  La1  1  0.150019  0.150019  0.800037  1
  Pt  Pt2  1  0.500000  0.500000  0.500000  1
  N  N3  1  0.335711  0.335711  0.171424  1
  N  N4  1  0.664289  0.664289  0.828576  1
