# generated using pymatgen
data_CaCu(Sb4Ru)3
_symmetry_space_group_name_H-M   'P 1'
_cell_length_a   8.14600754
_cell_length_b   8.14600767
_cell_length_c   8.14600758
_cell_angle_alpha   109.41796744
_cell_angle_beta   109.41796647
_cell_angle_gamma   109.41795954
_symmetry_Int_Tables_number   1
_chemical_formula_structural   CaCu(Sb4Ru)3
_chemical_formula_sum   'Ca1 Cu1 Sb12 Ru3'
_cell_volume   416.93266228
_cell_formula_units_Z   1
loop_
 _symmetry_equiv_pos_site_id
 _symmetry_equiv_pos_as_xyz
  1  'x, y, z'
loop_
 _atom_site_type_symbol
 _atom_site_label
 _atom_site_symmetry_multiplicity
 _atom_site_fract_x
 _atom_site_fract_y
 _atom_site_fract_z
 _atom_site_occupancy
  Ca  Ca0  1  0.000000  0.000000  0.000000  1
  Cu  Cu1  1  0.500000  0.500000  0.500000  1
  Sb  Sb2  1  0.152865  0.497349  0.338383  1
  Sb  Sb3  1  0.502651  0.661617  0.847135  1
  Sb  Sb4  1  0.338396  0.841415  0.180860  1
  Sb  Sb5  1  0.819140  0.661604  0.158585  1
  Sb  Sb6  1  0.661617  0.847135  0.502651  1
  Sb  Sb7  1  0.180860  0.338396  0.841415  1
  Sb  Sb8  1  0.661604  0.158585  0.819140  1
  Sb  Sb9  1  0.338383  0.152865  0.497349  1
  Sb  Sb10  1  0.497349  0.338383  0.152865  1
  Sb  Sb11  1  0.847135  0.502651  0.661617  1
  Sb  Sb12  1  0.841415  0.180860  0.338396  1
  Sb  Sb13  1  0.158585  0.819140  0.661604  1
  Ru  Ru14  1  0.500000  0.000000  0.000000  1
  Ru  Ru15  1  0.000000  0.500000  0.000000  1
  Ru  Ru16  1  0.000000  0.000000  0.500000  1
