# generated using pymatgen
data_Nb4Co4Si3As
_symmetry_space_group_name_H-M   'P 1'
_cell_length_a   3.69195000
_cell_length_b   6.28615736
_cell_length_c   7.12053633
_cell_angle_alpha   89.73926096
_cell_angle_beta   90.00000000
_cell_angle_gamma   90.00000000
_symmetry_Int_Tables_number   1
_chemical_formula_structural   Nb4Co4Si3As
_chemical_formula_sum   'Nb4 Co4 Si3 As1'
_cell_volume   165.25296828
_cell_formula_units_Z   1
loop_
 _symmetry_equiv_pos_site_id
 _symmetry_equiv_pos_as_xyz
  1  'x, y, z'
loop_
 _atom_site_type_symbol
 _atom_site_label
 _atom_site_symmetry_multiplicity
 _atom_site_fract_x
 _atom_site_fract_y
 _atom_site_fract_z
 _atom_site_occupancy
  Nb  Nb0  1  0.250000  0.022629  0.823497  1
  Nb  Nb1  1  0.250000  0.519881  0.681323  1
  Nb  Nb2  1  0.750000  0.981074  0.175127  1
  Nb  Nb3  1  0.750000  0.471447  0.319640  1
  Co  Co4  1  0.250000  0.147039  0.438720  1
  Co  Co5  1  0.250000  0.639099  0.057768  1
  Co  Co6  1  0.750000  0.860190  0.567544  1
  Co  Co7  1  0.750000  0.358737  0.937625  1
  Si  Si8  1  0.250000  0.275944  0.116559  1
  Si  Si9  1  0.750000  0.225369  0.620490  1
  Si  Si10  1  0.750000  0.725121  0.882090  1
  As  As11  1  0.250000  0.773470  0.379617  1
