# generated using pymatgen
data_TcBi2PtF14
_symmetry_space_group_name_H-M   'P 1'
_cell_length_a   5.68480240
_cell_length_b   9.18883427
_cell_length_c   12.24020429
_cell_angle_alpha   61.85214010
_cell_angle_beta   90.01327412
_cell_angle_gamma   90.12419040
_symmetry_Int_Tables_number   1
_chemical_formula_structural   TcBi2PtF14
_chemical_formula_sum   'Tc2 Bi4 Pt2 F28'
_cell_volume   563.76799339
_cell_formula_units_Z   2
loop_
 _symmetry_equiv_pos_site_id
 _symmetry_equiv_pos_as_xyz
  1  'x, y, z'
loop_
 _atom_site_type_symbol
 _atom_site_label
 _atom_site_symmetry_multiplicity
 _atom_site_fract_x
 _atom_site_fract_y
 _atom_site_fract_z
 _atom_site_occupancy
  Tc  Tc0  1  0.757641  0.727601  0.041662  1
  Tc  Tc1  1  0.242359  0.272399  0.958338  1
  Bi  Bi2  1  0.260238  0.813554  0.264306  1
  Bi  Bi3  1  0.739762  0.186446  0.735694  1
  Bi  Bi4  1  0.762146  0.183601  0.239570  1
  Bi  Bi5  1  0.237854  0.816399  0.760430  1
  Pt  Pt6  1  0.258702  0.272433  0.457568  1
  Pt  Pt7  1  0.741298  0.727567  0.542432  1
  F  F8  1  0.930276  0.705215  0.415833  1
  F  F9  1  0.069724  0.294785  0.584167  1
  F  F10  1  0.440790  0.291149  0.081710  1
  F  F11  1  0.559210  0.708851  0.918290  1
  F  F12  1  0.477965  0.730221  0.134726  1
  F  F13  1  0.522035  0.269779  0.865274  1
  F  F14  1  0.969348  0.273570  0.368130  1
  F  F15  1  0.030652  0.726430  0.631870  1
  F  F16  1  0.949763  0.745276  0.169280  1
  F  F17  1  0.050237  0.254724  0.830720  1
  F  F18  1  0.441746  0.258059  0.325577  1
  F  F19  1  0.558254  0.741941  0.674423  1
  F  F20  1  0.771617  0.487917  0.137890  1
  F  F21  1  0.228383  0.512083  0.862110  1
  F  F22  1  0.269499  0.514202  0.360551  1
  F  F23  1  0.730501  0.485798  0.639449  1
  F  F24  1  0.951515  0.278088  0.045230  1
  F  F25  1  0.048485  0.721912  0.954770  1
  F  F26  1  0.445225  0.719336  0.460218  1
  F  F27  1  0.554775  0.280664  0.539782  1
  F  F28  1  0.742591  0.972588  0.450157  1
  F  F29  1  0.257409  0.027412  0.549843  1
  F  F30  1  0.242111  0.028266  0.054285  1
  F  F31  1  0.757889  0.971734  0.945715  1
  F  F32  1  0.591506  0.969327  0.230868  1
  F  F33  1  0.408494  0.030673  0.769132  1
  F  F34  1  0.091606  0.029630  0.271362  1
  F  F35  1  0.908394  0.970370  0.728638  1
