# generated using pymatgen
data_Ta2OsF15
_symmetry_space_group_name_H-M   'P 1'
_cell_length_a   9.36095300
_cell_length_b   9.39583187
_cell_length_c   8.53698800
_cell_angle_alpha   90.00000000
_cell_angle_beta   90.00000000
_cell_angle_gamma   120.15316991
_symmetry_Int_Tables_number   1
_chemical_formula_structural   Ta2OsF15
_chemical_formula_sum   'Ta4 Os2 F30'
_cell_volume   649.25936825
_cell_formula_units_Z   2
loop_
 _symmetry_equiv_pos_site_id
 _symmetry_equiv_pos_as_xyz
  1  'x, y, z'
loop_
 _atom_site_type_symbol
 _atom_site_label
 _atom_site_symmetry_multiplicity
 _atom_site_fract_x
 _atom_site_fract_y
 _atom_site_fract_z
 _atom_site_occupancy
  Ta  Ta0  1  0.600212  0.691159  0.250000  1
  Ta  Ta1  1  0.397800  0.304933  0.750000  1
  Ta  Ta2  1  0.690979  0.091976  0.750000  1
  Ta  Ta3  1  0.091637  0.398574  0.250000  1
  Os  Os4  1  0.896122  0.588923  0.750000  1
  Os  Os5  1  0.306817  0.894852  0.250000  1
  F  F6  1  0.869404  0.331334  0.250000  1
  F  F7  1  0.121409  0.665139  0.750000  1
  F  F8  1  0.455553  0.119647  0.250000  1
  F  F9  1  0.669431  0.538873  0.250000  1
  F  F10  1  0.328420  0.457503  0.750000  1
  F  F11  1  0.536750  0.870342  0.750000  1
  F  F12  1  0.125517  0.431469  0.468076  1
  F  F13  1  0.887261  0.580327  0.971638  1
  F  F14  1  0.307601  0.886962  0.471541  1
  F  F15  1  0.567345  0.691163  0.468318  1
  F  F16  1  0.433803  0.309590  0.967926  1
  F  F17  1  0.693555  0.125495  0.968259  1
  F  F18  1  0.076558  0.194613  0.250000  1
  F  F19  1  0.881510  0.077618  0.750000  1
  F  F20  1  0.193882  0.114826  0.750000  1
  F  F21  1  0.804740  0.882194  0.250000  1
  F  F22  1  0.122057  0.919954  0.250000  1
  F  F23  1  0.920880  0.798122  0.750000  1
  F  F24  1  0.352276  0.509809  0.250000  1
  F  F25  1  0.848536  0.353586  0.750000  1
  F  F26  1  0.510365  0.158318  0.750000  1
  F  F27  1  0.495084  0.846866  0.250000  1
  F  F28  1  0.152286  0.646261  0.250000  1
  F  F29  1  0.647127  0.494571  0.750000  1
  F  F30  1  0.125517  0.431469  0.031924  1
  F  F31  1  0.693555  0.125495  0.531741  1
  F  F32  1  0.433803  0.309590  0.532074  1
  F  F33  1  0.567345  0.691163  0.031682  1
  F  F34  1  0.307601  0.886962  0.028459  1
  F  F35  1  0.887261  0.580327  0.528362  1
