# generated using pymatgen
data_Pa(CoSi)2
_symmetry_space_group_name_H-M   'P 1'
_cell_length_a   5.47549014
_cell_length_b   5.47548995
_cell_length_c   5.47549091
_cell_angle_alpha   137.49104135
_cell_angle_beta   137.48809442
_cell_angle_gamma   61.68565358
_symmetry_Int_Tables_number   1
_chemical_formula_structural   Pa(CoSi)2
_chemical_formula_sum   'Pa1 Co2 Si2'
_cell_volume   74.09332843
_cell_formula_units_Z   1
loop_
 _symmetry_equiv_pos_site_id
 _symmetry_equiv_pos_as_xyz
  1  'x, y, z'
loop_
 _atom_site_type_symbol
 _atom_site_label
 _atom_site_symmetry_multiplicity
 _atom_site_fract_x
 _atom_site_fract_y
 _atom_site_fract_z
 _atom_site_occupancy
  Pa  Pa0  1  0.000000  0.000000  0.000000  1
  Co  Co1  1  0.750048  0.250049  0.499999  1
  Co  Co2  1  0.249951  0.749951  0.500000  1
  Si  Si3  1  0.371322  0.371322  0.000000  1
  Si  Si4  1  0.628677  0.628677  0.000000  1
