# generated using pymatgen
data_ErTm7CdInNi2
_symmetry_space_group_name_H-M   'P 1'
_cell_length_a   9.44302427
_cell_length_b   9.44302140
_cell_length_c   9.44842022
_cell_angle_alpha   59.99861828
_cell_angle_beta   59.99893817
_cell_angle_gamma   60.14080186
_symmetry_Int_Tables_number   1
_chemical_formula_structural   ErTm7CdInNi2
_chemical_formula_sum   'Er2 Tm14 Cd2 In2 Ni4'
_cell_volume   596.37338190
_cell_formula_units_Z   2
loop_
 _symmetry_equiv_pos_site_id
 _symmetry_equiv_pos_as_xyz
  1  'x, y, z'
loop_
 _atom_site_type_symbol
 _atom_site_label
 _atom_site_symmetry_multiplicity
 _atom_site_fract_x
 _atom_site_fract_y
 _atom_site_fract_z
 _atom_site_occupancy
  Er  Er0  1  0.345547  0.345541  0.347403  1
  Er  Er1  1  0.348858  0.348883  0.953714  1
  Tm  Tm2  1  0.351958  0.951253  0.349801  1
  Tm  Tm3  1  0.951258  0.351948  0.349799  1
  Tm  Tm4  1  0.811221  0.189897  0.188241  1
  Tm  Tm5  1  0.189167  0.811901  0.811628  1
  Tm  Tm6  1  0.189910  0.811210  0.188241  1
  Tm  Tm7  1  0.811899  0.189161  0.811627  1
  Tm  Tm8  1  0.187538  0.187524  0.812938  1
  Tm  Tm9  1  0.810770  0.810761  0.190489  1
  Tm  Tm10  1  0.937346  0.565875  0.564270  1
  Tm  Tm11  1  0.562926  0.938522  0.935082  1
  Tm  Tm12  1  0.565886  0.937344  0.564266  1
  Tm  Tm13  1  0.938500  0.562927  0.935076  1
  Tm  Tm14  1  0.565091  0.565084  0.934624  1
  Tm  Tm15  1  0.938868  0.938848  0.560572  1
  Cd  Cd16  1  0.579942  0.253426  0.582245  1
  Cd  Cd17  1  0.253424  0.579938  0.582248  1
  In  In18  1  0.582188  0.582221  0.583607  1
  In  In19  1  0.581361  0.581356  0.252850  1
  Ni  Ni20  1  0.142249  0.142255  0.144632  1
  Ni  Ni21  1  0.139981  0.139973  0.573314  1
  Ni  Ni22  1  0.139637  0.574504  0.141675  1
  Ni  Ni23  1  0.574477  0.139653  0.141659  1
