# generated using pymatgen
data_SrCuIO6
_symmetry_space_group_name_H-M   'P 1'
_cell_length_a   5.18543800
_cell_length_b   5.18543883
_cell_length_c   5.42393400
_cell_angle_alpha   90.00000000
_cell_angle_beta   90.00000000
_cell_angle_gamma   119.99999468
_symmetry_Int_Tables_number   1
_chemical_formula_structural   SrCuIO6
_chemical_formula_sum   'Sr1 Cu1 I1 O6'
_cell_volume   126.30368249
_cell_formula_units_Z   1
loop_
 _symmetry_equiv_pos_site_id
 _symmetry_equiv_pos_as_xyz
  1  'x, y, z'
loop_
 _atom_site_type_symbol
 _atom_site_label
 _atom_site_symmetry_multiplicity
 _atom_site_fract_x
 _atom_site_fract_y
 _atom_site_fract_z
 _atom_site_occupancy
  Sr  Sr0  1  0.000000  0.000000  0.000000  1
  Cu  Cu1  1  0.333333  0.666667  0.500000  1
  I  I2  1  0.666667  0.333333  0.500000  1
  O  O3  1  0.383792  0.016221  0.700580  1
  O  O4  1  0.983779  0.367571  0.700580  1
  O  O5  1  0.632429  0.616208  0.700580  1
  O  O6  1  0.983779  0.616208  0.299420  1
  O  O7  1  0.632429  0.016221  0.299420  1
  O  O8  1  0.383792  0.367571  0.299420  1
