# generated using pymatgen
data_La13Pr(Pd2Ru)2
_symmetry_space_group_name_H-M   'P 1'
_cell_length_a   10.37626000
_cell_length_b   10.27696969
_cell_length_c   6.59353928
_cell_angle_alpha   90.18585410
_cell_angle_beta   90.00000000
_cell_angle_gamma   120.32010931
_symmetry_Int_Tables_number   1
_chemical_formula_structural   La13Pr(Pd2Ru)2
_chemical_formula_sum   'La13 Pr1 Pd4 Ru2'
_cell_volume   606.93495774
_cell_formula_units_Z   1
loop_
 _symmetry_equiv_pos_site_id
 _symmetry_equiv_pos_as_xyz
  1  'x, y, z'
loop_
 _atom_site_type_symbol
 _atom_site_label
 _atom_site_symmetry_multiplicity
 _atom_site_fract_x
 _atom_site_fract_y
 _atom_site_fract_z
 _atom_site_occupancy
  La  La0  1  0.664208  0.328416  0.970147  1
  La  La1  1  0.136063  0.888178  0.240337  1
  La  La2  1  0.752114  0.888178  0.240337  1
  La  La3  1  0.122616  0.245230  0.240739  1
  La  La4  1  0.872400  0.127146  0.754816  1
  La  La5  1  0.254746  0.127146  0.754816  1
  La  La6  1  0.873042  0.746085  0.741199  1
  La  La7  1  0.530290  0.451391  0.435301  1
  La  La8  1  0.921100  0.451391  0.435301  1
  La  La9  1  0.541697  0.083394  0.432718  1
  La  La10  1  0.461738  0.533779  0.946138  1
  La  La11  1  0.072041  0.533779  0.946138  1
  La  La12  1  0.464023  0.928046  0.940272  1
  Pr  Pr13  1  0.333591  0.667182  0.450483  1
  Pd  Pd14  1  0.814132  0.628264  0.191280  1
  Pd  Pd15  1  0.186672  0.809059  0.692590  1
  Pd  Pd16  1  0.622388  0.809059  0.692590  1
  Pd  Pd17  1  0.189235  0.378468  0.691496  1
  Ru  Ru18  1  0.814690  0.187905  0.194546  1
  Ru  Ru19  1  0.373214  0.187905  0.194546  1
