# generated using pymatgen
data_Tb4DyHoGa10
_symmetry_space_group_name_H-M   'P 1'
_cell_length_a   6.12008000
_cell_length_b   9.65058200
_cell_length_c   11.60942800
_cell_angle_alpha   90.00000000
_cell_angle_beta   90.00000000
_cell_angle_gamma   90.00000000
_symmetry_Int_Tables_number   1
_chemical_formula_structural   Tb4DyHoGa10
_chemical_formula_sum   'Tb8 Dy2 Ho2 Ga20'
_cell_volume   685.67991277
_cell_formula_units_Z   2
loop_
 _symmetry_equiv_pos_site_id
 _symmetry_equiv_pos_as_xyz
  1  'x, y, z'
loop_
 _atom_site_type_symbol
 _atom_site_label
 _atom_site_symmetry_multiplicity
 _atom_site_fract_x
 _atom_site_fract_y
 _atom_site_fract_z
 _atom_site_occupancy
  Tb  Tb0  1  0.890806  0.509451  0.351246  1
  Tb  Tb1  1  0.609194  0.990549  0.851246  1
  Tb  Tb2  1  0.109451  0.009793  0.648665  1
  Tb  Tb3  1  0.390549  0.490207  0.148665  1
  Tb  Tb4  1  0.109451  0.490207  0.648665  1
  Tb  Tb5  1  0.390549  0.009793  0.148665  1
  Tb  Tb6  1  0.890806  0.990549  0.351246  1
  Tb  Tb7  1  0.609194  0.509451  0.851246  1
  Dy  Dy8  1  0.848722  0.750000  0.075105  1
  Dy  Dy9  1  0.651278  0.750000  0.575105  1
  Ho  Ho10  1  0.151313  0.250000  0.924770  1
  Ho  Ho11  1  0.348687  0.250000  0.424770  1
  Ga  Ga12  1  0.875194  0.053930  0.090046  1
  Ga  Ga13  1  0.624806  0.446070  0.590046  1
  Ga  Ga14  1  0.124821  0.553408  0.909957  1
  Ga  Ga15  1  0.375179  0.946592  0.409957  1
  Ga  Ga16  1  0.124821  0.946592  0.909957  1
  Ga  Ga17  1  0.375179  0.553408  0.409957  1
  Ga  Ga18  1  0.875194  0.446070  0.090046  1
  Ga  Ga19  1  0.624806  0.053930  0.590046  1
  Ga  Ga20  1  0.173165  0.750000  0.252248  1
  Ga  Ga21  1  0.326835  0.750000  0.752248  1
  Ga  Ga22  1  0.827340  0.250000  0.747870  1
  Ga  Ga23  1  0.672660  0.250000  0.247870  1
  Ga  Ga24  1  0.371467  0.750000  0.004149  1
  Ga  Ga25  1  0.128533  0.750000  0.504149  1
  Ga  Ga26  1  0.627828  0.250000  0.995798  1
  Ga  Ga27  1  0.872172  0.250000  0.495798  1
  Ga  Ga28  1  0.600300  0.750000  0.299809  1
  Ga  Ga29  1  0.899700  0.750000  0.799809  1
  Ga  Ga30  1  0.399509  0.250000  0.700420  1
  Ga  Ga31  1  0.100491  0.250000  0.200420  1
