# generated using pymatgen
data_NaEr3P7Ir8
_symmetry_space_group_name_H-M   'P 1'
_cell_length_a   3.93462200
_cell_length_b   12.63213131
_cell_length_c   13.15621101
_cell_angle_alpha   80.40950562
_cell_angle_beta   90.00000000
_cell_angle_gamma   90.00000000
_symmetry_Int_Tables_number   1
_chemical_formula_structural   NaEr3P7Ir8
_chemical_formula_sum   'Na2 Er6 P14 Ir16'
_cell_volume   644.75961557
_cell_formula_units_Z   2
loop_
 _symmetry_equiv_pos_site_id
 _symmetry_equiv_pos_as_xyz
  1  'x, y, z'
loop_
 _atom_site_type_symbol
 _atom_site_label
 _atom_site_symmetry_multiplicity
 _atom_site_fract_x
 _atom_site_fract_y
 _atom_site_fract_z
 _atom_site_occupancy
  Na  Na0  1  0.750000  0.896891  0.202553  1
  Na  Na1  1  0.250000  0.285392  0.106450  1
  Er  Er2  1  0.750000  0.791767  0.561159  1
  Er  Er3  1  0.250000  0.213655  0.435449  1
  Er  Er4  1  0.750000  0.479496  0.708596  1
  Er  Er5  1  0.250000  0.522337  0.296144  1
  Er  Er6  1  0.750000  0.717310  0.899086  1
  Er  Er7  1  0.250000  0.102194  0.781319  1
  P  P8  1  0.250000  0.908206  0.410588  1
  P  P9  1  0.750000  0.472652  0.132718  1
  P  P10  1  0.250000  0.527063  0.873684  1
  P  P11  1  0.750000  0.092275  0.585502  1
  P  P12  1  0.250000  0.739032  0.075701  1
  P  P13  1  0.750000  0.255245  0.919747  1
  P  P14  1  0.750000  0.157251  0.278614  1
  P  P15  1  0.250000  0.840345  0.717452  1
  P  P16  1  0.250000  0.056037  0.096385  1
  P  P17  1  0.750000  0.944234  0.895837  1
  P  P18  1  0.250000  0.312590  0.692391  1
  P  P19  1  0.750000  0.692668  0.312573  1
  P  P20  1  0.250000  0.608140  0.568051  1
  P  P21  1  0.750000  0.391698  0.437849  1
  Ir  Ir22  1  0.250000  0.987806  0.574600  1
  Ir  Ir23  1  0.750000  0.016250  0.423330  1
  Ir  Ir24  1  0.250000  0.659525  0.731599  1
  Ir  Ir25  1  0.750000  0.339092  0.278838  1
  Ir  Ir26  1  0.250000  0.555189  0.048370  1
  Ir  Ir27  1  0.750000  0.450895  0.951346  1
  Ir  Ir28  1  0.250000  0.063153  0.269814  1
  Ir  Ir29  1  0.750000  0.936224  0.725441  1
  Ir  Ir30  1  0.250000  0.420260  0.527244  1
  Ir  Ir31  1  0.750000  0.577128  0.479056  1
  Ir  Ir32  1  0.250000  0.914473  0.991734  1
  Ir  Ir33  1  0.750000  0.079005  0.995224  1
  Ir  Ir34  1  0.250000  0.727538  0.401485  1
  Ir  Ir35  1  0.750000  0.267699  0.608580  1
  Ir  Ir36  1  0.250000  0.340265  0.860805  1
  Ir  Ir37  1  0.750000  0.659020  0.144686  1
