# generated using pymatgen
data_La16Cd3HgOs3Pt
_symmetry_space_group_name_H-M   'P 1'
_cell_length_a   10.08123070
_cell_length_b   10.16544756
_cell_length_c   10.16544661
_cell_angle_alpha   59.90091870
_cell_angle_beta   59.64677970
_cell_angle_gamma   59.64677669
_symmetry_Int_Tables_number   1
_chemical_formula_structural   La16Cd3HgOs3Pt
_chemical_formula_sum   'La16 Cd3 Hg1 Os3 Pt1'
_cell_volume   732.13194268
_cell_formula_units_Z   1
loop_
 _symmetry_equiv_pos_site_id
 _symmetry_equiv_pos_as_xyz
  1  'x, y, z'
loop_
 _atom_site_type_symbol
 _atom_site_label
 _atom_site_symmetry_multiplicity
 _atom_site_fract_x
 _atom_site_fract_y
 _atom_site_fract_z
 _atom_site_occupancy
  La  La0  1  0.592218  0.598766  0.598766  1
  La  La1  1  0.593390  0.599322  0.206750  1
  La  La2  1  0.593390  0.206750  0.599322  1
  La  La3  1  0.212980  0.595258  0.595258  1
  La  La4  1  0.065460  0.440965  0.440965  1
  La  La5  1  0.439099  0.060654  0.060654  1
  La  La6  1  0.439659  0.060354  0.439105  1
  La  La7  1  0.065174  0.441581  0.051697  1
  La  La8  1  0.439659  0.439105  0.060354  1
  La  La9  1  0.065174  0.051697  0.441581  1
  La  La10  1  0.190657  0.809142  0.809142  1
  La  La11  1  0.804361  0.191761  0.191761  1
  La  La12  1  0.804982  0.191228  0.813015  1
  La  La13  1  0.190801  0.808090  0.192597  1
  La  La14  1  0.804982  0.813015  0.191228  1
  La  La15  1  0.190801  0.192597  0.808090  1
  Cd  Cd16  1  0.829107  0.829500  0.511237  1
  Cd  Cd17  1  0.829107  0.511237  0.829500  1
  Cd  Cd18  1  0.511585  0.829080  0.829080  1
  Hg  Hg19  1  0.831376  0.831209  0.831209  1
  Os  Os20  1  0.392601  0.387655  0.387655  1
  Os  Os21  1  0.392350  0.387933  0.832403  1
  Os  Os22  1  0.392350  0.832403  0.387933  1
  Pt  Pt23  1  0.828732  0.390697  0.390697  1
