# generated using pymatgen
data_La8Nd8Cd4Ru3Pt
_symmetry_space_group_name_H-M   'P 1'
_cell_length_a   10.02317049
_cell_length_b   10.03596327
_cell_length_c   10.08511100
_cell_angle_alpha   59.83786726
_cell_angle_beta   59.79536137
_cell_angle_gamma   60.04212736
_symmetry_Int_Tables_number   1
_chemical_formula_structural   La8Nd8Cd4Ru3Pt
_chemical_formula_sum   'La8 Nd8 Cd4 Ru3 Pt1'
_cell_volume   715.57912805
_cell_formula_units_Z   1
loop_
 _symmetry_equiv_pos_site_id
 _symmetry_equiv_pos_as_xyz
  1  'x, y, z'
loop_
 _atom_site_type_symbol
 _atom_site_label
 _atom_site_symmetry_multiplicity
 _atom_site_fract_x
 _atom_site_fract_y
 _atom_site_fract_z
 _atom_site_occupancy
  La  La0  1  0.342703  0.348262  0.351812  1
  La  La1  1  0.342703  0.348262  0.957224  1
  La  La2  1  0.343412  0.954814  0.350887  1
  La  La3  1  0.961157  0.348381  0.345231  1
  La  La4  1  0.818775  0.190747  0.189647  1
  La  La5  1  0.189546  0.810202  0.812194  1
  La  La6  1  0.189546  0.810202  0.188058  1
  La  La7  1  0.818775  0.190747  0.800831  1
  Nd  Nd8  1  0.193884  0.193274  0.806421  1
  Nd  Nd9  1  0.808972  0.802104  0.194462  1
  Nd  Nd10  1  0.933965  0.565821  0.564320  1
  Nd  Nd11  1  0.562552  0.935860  0.935572  1
  Nd  Nd12  1  0.562552  0.935860  0.566016  1
  Nd  Nd13  1  0.933965  0.565821  0.935894  1
  Nd  Nd14  1  0.561057  0.564917  0.937013  1
  Nd  Nd15  1  0.938130  0.939789  0.561041  1
  Cd  Cd16  1  0.581220  0.581190  0.578634  1
  Cd  Cd17  1  0.581220  0.581190  0.258957  1
  Cd  Cd18  1  0.578512  0.258546  0.581471  1
  Cd  Cd19  1  0.257886  0.578618  0.581749  1
  Ru  Ru20  1  0.135512  0.133242  0.146152  1
  Ru  Ru21  1  0.135512  0.133242  0.585094  1
  Ru  Ru22  1  0.150680  0.583925  0.132697  1
  Pt  Pt23  1  0.577764  0.144986  0.138624  1
