# generated using pymatgen
data_Dy2LuHg5
_symmetry_space_group_name_H-M   'P 1'
_cell_length_a   6.36559838
_cell_length_b   6.36559820
_cell_length_c   10.10587700
_cell_angle_alpha   90.00000000
_cell_angle_beta   90.00000000
_cell_angle_gamma   105.00589234
_symmetry_Int_Tables_number   1
_chemical_formula_structural   Dy2LuHg5
_chemical_formula_sum   'Dy4 Lu2 Hg10'
_cell_volume   395.53441177
_cell_formula_units_Z   2
loop_
 _symmetry_equiv_pos_site_id
 _symmetry_equiv_pos_as_xyz
  1  'x, y, z'
loop_
 _atom_site_type_symbol
 _atom_site_label
 _atom_site_symmetry_multiplicity
 _atom_site_fract_x
 _atom_site_fract_y
 _atom_site_fract_z
 _atom_site_occupancy
  Dy  Dy0  1  0.784973  0.215027  0.000000  1
  Dy  Dy1  1  0.215027  0.784973  0.000000  1
  Dy  Dy2  1  0.215027  0.784973  0.500000  1
  Dy  Dy3  1  0.784973  0.215027  0.500000  1
  Lu  Lu4  1  0.568462  0.568462  0.250000  1
  Lu  Lu5  1  0.431538  0.431538  0.750000  1
  Hg  Hg6  1  0.037420  0.477770  0.250000  1
  Hg  Hg7  1  0.962580  0.522230  0.750000  1
  Hg  Hg8  1  0.477770  0.037420  0.250000  1
  Hg  Hg9  1  0.522230  0.962580  0.750000  1
  Hg  Hg10  1  0.966460  0.966460  0.250000  1
  Hg  Hg11  1  0.033540  0.033540  0.750000  1
  Hg  Hg12  1  0.295460  0.295460  0.029336  1
  Hg  Hg13  1  0.704540  0.704540  0.970664  1
  Hg  Hg14  1  0.704540  0.704540  0.529336  1
  Hg  Hg15  1  0.295460  0.295460  0.470664  1
