# generated using pymatgen
data_Sr4InSn3Pd4
_symmetry_space_group_name_H-M   'P 1'
_cell_length_a   4.65024300
_cell_length_b   7.68166217
_cell_length_c   8.50955810
_cell_angle_alpha   90.27088416
_cell_angle_beta   90.00000000
_cell_angle_gamma   90.00000000
_symmetry_Int_Tables_number   1
_chemical_formula_structural   Sr4InSn3Pd4
_chemical_formula_sum   'Sr4 In1 Sn3 Pd4'
_cell_volume   303.97159716
_cell_formula_units_Z   1
loop_
 _symmetry_equiv_pos_site_id
 _symmetry_equiv_pos_as_xyz
  1  'x, y, z'
loop_
 _atom_site_type_symbol
 _atom_site_label
 _atom_site_symmetry_multiplicity
 _atom_site_fract_x
 _atom_site_fract_y
 _atom_site_fract_z
 _atom_site_occupancy
  Sr  Sr0  1  0.250000  0.030248  0.320231  1
  Sr  Sr1  1  0.250000  0.529591  0.177783  1
  Sr  Sr2  1  0.750000  0.968392  0.679201  1
  Sr  Sr3  1  0.750000  0.471196  0.820749  1
  In  In4  1  0.750000  0.350724  0.433471  1
  Sn  Sn5  1  0.250000  0.149381  0.935891  1
  Sn  Sn6  1  0.250000  0.646697  0.563027  1
  Sn  Sn7  1  0.750000  0.849803  0.065232  1
  Pd  Pd8  1  0.250000  0.283785  0.627632  1
  Pd  Pd9  1  0.250000  0.784922  0.879368  1
  Pd  Pd10  1  0.750000  0.720875  0.378395  1
  Pd  Pd11  1  0.750000  0.214387  0.119020  1
