# generated using pymatgen
data_Ca2Cr3FeCo8P7
_symmetry_space_group_name_H-M   'P 1'
_cell_length_a   9.01949570
_cell_length_b   9.03801333
_cell_length_c   3.61465300
_cell_angle_alpha   90.00000000
_cell_angle_beta   90.00000000
_cell_angle_gamma   119.90258001
_symmetry_Int_Tables_number   1
_chemical_formula_structural   Ca2Cr3FeCo8P7
_chemical_formula_sum   'Ca2 Cr3 Fe1 Co8 P7'
_cell_volume   255.43357034
_cell_formula_units_Z   1
loop_
 _symmetry_equiv_pos_site_id
 _symmetry_equiv_pos_as_xyz
  1  'x, y, z'
loop_
 _atom_site_type_symbol
 _atom_site_label
 _atom_site_symmetry_multiplicity
 _atom_site_fract_x
 _atom_site_fract_y
 _atom_site_fract_z
 _atom_site_occupancy
  Ca  Ca0  1  0.000329  0.999886  0.000000  1
  Ca  Ca1  1  0.333321  0.667032  0.500000  1
  Cr  Cr2  1  0.881823  0.452165  0.500000  1
  Cr  Cr3  1  0.548206  0.430441  0.500000  1
  Cr  Cr4  1  0.569790  0.119019  0.500000  1
  Fe  Fe5  1  0.392082  0.177206  0.000000  1
  Co  Co6  1  0.095867  0.704642  0.000000  1
  Co  Co7  1  0.295302  0.391988  0.000000  1
  Co  Co8  1  0.609159  0.903697  0.000000  1
  Co  Co9  1  0.822314  0.214754  0.000000  1
  Co  Co10  1  0.785219  0.608256  0.000000  1
  Co  Co11  1  0.051828  0.284322  0.500000  1
  Co  Co12  1  0.715358  0.766658  0.500000  1
  Co  Co13  1  0.232232  0.947137  0.500000  1
  P  P14  1  0.076742  0.446293  0.000000  1
  P  P15  1  0.553502  0.630346  0.000000  1
  P  P16  1  0.368763  0.923960  0.000000  1
  P  P17  1  0.781952  0.042220  0.500000  1
  P  P18  1  0.957719  0.737982  0.500000  1
  P  P19  1  0.263336  0.218320  0.500000  1
  P  P20  1  0.665157  0.333674  0.000000  1
