# generated using pymatgen
data_TmHfV3Co9As7
_symmetry_space_group_name_H-M   'P 1'
_cell_length_a   3.73953500
_cell_length_b   9.32726387
_cell_length_c   9.32726500
_cell_angle_alpha   119.99999336
_cell_angle_beta   90.00000000
_cell_angle_gamma   90.00000000
_symmetry_Int_Tables_number   1
_chemical_formula_structural   TmHfV3Co9As7
_chemical_formula_sum   'Tm1 Hf1 V3 Co9 As7'
_cell_volume   281.74540519
_cell_formula_units_Z   1
loop_
 _symmetry_equiv_pos_site_id
 _symmetry_equiv_pos_as_xyz
  1  'x, y, z'
loop_
 _atom_site_type_symbol
 _atom_site_label
 _atom_site_symmetry_multiplicity
 _atom_site_fract_x
 _atom_site_fract_y
 _atom_site_fract_z
 _atom_site_occupancy
  Tm  Tm0  1  0.500000  0.333333  0.666667  1
  Hf  Hf1  1  0.000000  0.666667  0.333333  1
  V  V2  1  0.500000  0.781319  0.900839  1
  V  V3  1  0.500000  0.119521  0.218681  1
  V  V4  1  0.500000  0.099161  0.880479  1
  Co  Co5  1  0.000000  0.567378  0.941220  1
  Co  Co6  1  0.000000  0.373840  0.432622  1
  Co  Co7  1  0.000000  0.058780  0.626160  1
  Co  Co8  1  0.000000  0.876638  0.160585  1
  Co  Co9  1  0.000000  0.283947  0.123362  1
  Co  Co10  1  0.000000  0.839415  0.716053  1
  Co  Co11  1  0.500000  0.944378  0.381471  1
  Co  Co12  1  0.500000  0.437092  0.055622  1
  Co  Co13  1  0.500000  0.618529  0.562908  1
  As  As14  1  0.000000  0.000000  0.000000  1
  As  As15  1  0.500000  0.707285  0.120201  1
  As  As16  1  0.500000  0.412916  0.292715  1
  As  As17  1  0.500000  0.879799  0.587084  1
  As  As18  1  0.000000  0.586718  0.703563  1
  As  As19  1  0.000000  0.116846  0.413282  1
  As  As20  1  0.000000  0.296437  0.883154  1
