# generated using pymatgen
data_Ti2Be16Cu
_symmetry_space_group_name_H-M   'P 1'
_cell_length_a   5.58487974
_cell_length_b   5.58487993
_cell_length_c   5.58487951
_cell_angle_alpha   82.88050044
_cell_angle_beta   82.88049373
_cell_angle_gamma   82.88050881
_symmetry_Int_Tables_number   1
_chemical_formula_structural   Ti2Be16Cu
_chemical_formula_sum   'Ti2 Be16 Cu1'
_cell_volume   170.47545499
_cell_formula_units_Z   1
loop_
 _symmetry_equiv_pos_site_id
 _symmetry_equiv_pos_as_xyz
  1  'x, y, z'
loop_
 _atom_site_type_symbol
 _atom_site_label
 _atom_site_symmetry_multiplicity
 _atom_site_fract_x
 _atom_site_fract_y
 _atom_site_fract_z
 _atom_site_occupancy
  Ti  Ti0  1  0.159025  0.159025  0.159025  1
  Ti  Ti1  1  0.836914  0.836914  0.836914  1
  Be  Be2  1  0.605380  0.605380  0.605380  1
  Be  Be3  1  0.501892  0.501892  0.996553  1
  Be  Be4  1  0.501892  0.996553  0.501892  1
  Be  Be5  1  0.996553  0.501892  0.501892  1
  Be  Be6  1  0.499274  0.796306  0.202990  1
  Be  Be7  1  0.796306  0.202990  0.499274  1
  Be  Be8  1  0.202990  0.499274  0.796306  1
  Be  Be9  1  0.499274  0.202990  0.796306  1
  Be  Be10  1  0.202990  0.796306  0.499274  1
  Be  Be11  1  0.796306  0.499274  0.202990  1
  Be  Be12  1  0.662206  0.152469  0.152469  1
  Be  Be13  1  0.152469  0.152469  0.662206  1
  Be  Be14  1  0.152469  0.662206  0.152469  1
  Be  Be15  1  0.845570  0.340098  0.845570  1
  Be  Be16  1  0.340098  0.845570  0.845570  1
  Be  Be17  1  0.845570  0.845570  0.340098  1
  Cu  Cu18  1  0.402824  0.402824  0.402824  1
