# generated using pymatgen
data_La2Nd2HoSi4
_symmetry_space_group_name_H-M   'P 1'
_cell_length_a   7.86361700
_cell_length_b   7.86361700
_cell_length_c   15.20297700
_cell_angle_alpha   90.00000000
_cell_angle_beta   90.00000000
_cell_angle_gamma   90.00000000
_symmetry_Int_Tables_number   1
_chemical_formula_structural   La2Nd2HoSi4
_chemical_formula_sum   'La8 Nd8 Ho4 Si16'
_cell_volume   940.09846648
_cell_formula_units_Z   4
loop_
 _symmetry_equiv_pos_site_id
 _symmetry_equiv_pos_as_xyz
  1  'x, y, z'
loop_
 _atom_site_type_symbol
 _atom_site_label
 _atom_site_symmetry_multiplicity
 _atom_site_fract_x
 _atom_site_fract_y
 _atom_site_fract_z
 _atom_site_occupancy
  La  La0  1  0.986839  0.623528  0.052415  1
  La  La1  1  0.013161  0.376472  0.552415  1
  La  La2  1  0.623528  0.986839  0.947585  1
  La  La3  1  0.123528  0.513161  0.802415  1
  La  La4  1  0.876472  0.486839  0.302415  1
  La  La5  1  0.513161  0.123528  0.197585  1
  La  La6  1  0.486839  0.876472  0.697585  1
  La  La7  1  0.376472  0.013161  0.447585  1
  Nd  Nd8  1  0.372868  0.480411  0.372709  1
  Nd  Nd9  1  0.872868  0.019589  0.377291  1
  Nd  Nd10  1  0.980411  0.127132  0.122709  1
  Nd  Nd11  1  0.019589  0.872868  0.622709  1
  Nd  Nd12  1  0.627132  0.519589  0.872709  1
  Nd  Nd13  1  0.480411  0.372868  0.627291  1
  Nd  Nd14  1  0.519589  0.627132  0.127291  1
  Nd  Nd15  1  0.127132  0.980411  0.877291  1
  Ho  Ho16  1  0.690078  0.690078  0.500000  1
  Ho  Ho17  1  0.809922  0.190078  0.750000  1
  Ho  Ho18  1  0.190078  0.809922  0.250000  1
  Ho  Ho19  1  0.309922  0.309922  0.000000  1
  Si  Si20  1  0.078207  0.714322  0.437110  1
  Si  Si21  1  0.921793  0.285678  0.937110  1
  Si  Si22  1  0.714322  0.078207  0.562890  1
  Si  Si23  1  0.214323  0.421793  0.187110  1
  Si  Si24  1  0.785678  0.578207  0.687110  1
  Si  Si25  1  0.421793  0.214323  0.812890  1
  Si  Si26  1  0.578207  0.785678  0.312890  1
  Si  Si27  1  0.285678  0.921793  0.062890  1
  Si  Si28  1  0.829607  0.809283  0.795151  1
  Si  Si29  1  0.170393  0.190717  0.295151  1
  Si  Si30  1  0.809283  0.829607  0.204849  1
  Si  Si31  1  0.309283  0.670393  0.545151  1
  Si  Si32  1  0.690717  0.329607  0.045151  1
  Si  Si33  1  0.670393  0.309283  0.454849  1
  Si  Si34  1  0.329607  0.690717  0.954849  1
  Si  Si35  1  0.190717  0.170393  0.704849  1
