# generated using pymatgen
data_Pa(GaCu)6
_symmetry_space_group_name_H-M   'P 1'
_cell_length_a   5.15786627
_cell_length_b   6.66127469
_cell_length_c   6.66129037
_cell_angle_alpha   97.26407234
_cell_angle_beta   112.77760547
_cell_angle_gamma   67.22267993
_symmetry_Int_Tables_number   1
_chemical_formula_structural   Pa(GaCu)6
_chemical_formula_sum   'Pa1 Ga6 Cu6'
_cell_volume   194.48988519
_cell_formula_units_Z   1
loop_
 _symmetry_equiv_pos_site_id
 _symmetry_equiv_pos_as_xyz
  1  'x, y, z'
loop_
 _atom_site_type_symbol
 _atom_site_label
 _atom_site_symmetry_multiplicity
 _atom_site_fract_x
 _atom_site_fract_y
 _atom_site_fract_z
 _atom_site_occupancy
  Pa  Pa0  1  0.000000  0.000000  0.000000  1
  Ga  Ga1  1  0.651952  0.348048  0.651952  1
  Ga  Ga2  1  0.348048  0.651952  0.348048  1
  Ga  Ga3  1  0.000010  0.347146  0.347146  1
  Ga  Ga4  1  0.999990  0.652854  0.652854  1
  Ga  Ga5  1  0.499987  0.805970  0.805970  1
  Ga  Ga6  1  0.500013  0.194030  0.194030  1
  Cu  Cu7  1  0.500000  0.000000  0.500000  1
  Cu  Cu8  1  0.000000  0.000000  0.500000  1
  Cu  Cu9  1  0.500000  0.500000  0.000000  1
  Cu  Cu10  1  0.000000  0.500000  0.000000  1
  Cu  Cu11  1  0.734113  0.765887  0.234113  1
  Cu  Cu12  1  0.265887  0.234113  0.765887  1
