# generated using pymatgen
data_MgSc6Si6Tc5
_symmetry_space_group_name_H-M   'P 1'
_cell_length_a   7.76828073
_cell_length_b   7.76795374
_cell_length_c   7.76795400
_cell_angle_alpha   126.73336919
_cell_angle_beta   128.14310877
_cell_angle_gamma   77.54124915
_symmetry_Int_Tables_number   1
_chemical_formula_structural   MgSc6Si6Tc5
_chemical_formula_sum   'Mg1 Sc6 Si6 Tc5'
_cell_volume   286.53615989
_cell_formula_units_Z   1
loop_
 _symmetry_equiv_pos_site_id
 _symmetry_equiv_pos_as_xyz
  1  'x, y, z'
loop_
 _atom_site_type_symbol
 _atom_site_label
 _atom_site_symmetry_multiplicity
 _atom_site_fract_x
 _atom_site_fract_y
 _atom_site_fract_z
 _atom_site_occupancy
  Mg  Mg0  1  0.500000  0.262675  0.762675  1
  Sc  Sc1  1  0.447190  0.398954  0.447358  1
  Sc  Sc2  1  0.552810  0.000169  0.951764  1
  Sc  Sc3  1  0.048263  0.000209  0.447574  1
  Sc  Sc4  1  0.951737  0.399310  0.951947  1
  Sc  Sc5  1  0.244595  0.609844  0.854643  1
  Sc  Sc6  1  0.755405  0.610050  0.365250  1
  Si  Si7  1  0.168078  0.670935  0.503314  1
  Si  Si8  1  0.831922  0.335236  0.502858  1
  Si  Si9  1  0.670922  0.682225  0.010873  1
  Si  Si10  1  0.329078  0.339951  0.011304  1
  Si  Si11  1  0.236895  0.995215  0.232270  1
  Si  Si12  1  0.763105  0.995375  0.758320  1
  Tc  Tc13  1  0.374099  0.752025  0.378087  1
  Tc  Tc14  1  0.625901  0.003988  0.377925  1
  Tc  Tc15  1  0.868300  0.738934  0.870478  1
  Tc  Tc16  1  0.131700  0.002179  0.870635  1
  Tc  Tc17  1  0.000000  0.262724  0.262724  1
