# generated using pymatgen
data_La17Tm3Sn15Sb
_symmetry_space_group_name_H-M   'P 1'
_cell_length_a   8.43943666
_cell_length_b   8.52055488
_cell_length_c   16.30035332
_cell_angle_alpha   89.92243023
_cell_angle_beta   90.23631822
_cell_angle_gamma   90.25864615
_symmetry_Int_Tables_number   1
_chemical_formula_structural   La17Tm3Sn15Sb
_chemical_formula_sum   'La17 Tm3 Sn15 Sb1'
_cell_volume   1172.11398583
_cell_formula_units_Z   1
loop_
 _symmetry_equiv_pos_site_id
 _symmetry_equiv_pos_as_xyz
  1  'x, y, z'
loop_
 _atom_site_type_symbol
 _atom_site_label
 _atom_site_symmetry_multiplicity
 _atom_site_fract_x
 _atom_site_fract_y
 _atom_site_fract_z
 _atom_site_occupancy
  La  La0  1  0.970328  0.820254  0.897431  1
  La  La1  1  0.466961  0.681594  0.601626  1
  La  La2  1  0.528970  0.320510  0.099570  1
  La  La3  1  0.033031  0.178144  0.399158  1
  La  La4  1  0.968364  0.821708  0.602963  1
  La  La5  1  0.470051  0.681622  0.898969  1
  La  La6  1  0.528390  0.318824  0.399405  1
  La  La7  1  0.029132  0.181751  0.098960  1
  La  La8  1  0.880902  0.657674  0.384911  1
  La  La9  1  0.377741  0.841594  0.116535  1
  La  La10  1  0.621097  0.158498  0.619545  1
  La  La11  1  0.122173  0.342767  0.881797  1
  La  La12  1  0.121572  0.341327  0.616891  1
  La  La13  1  0.622452  0.158216  0.879984  1
  La  La14  1  0.379199  0.840771  0.383616  1
  La  La15  1  0.879301  0.657176  0.116451  1
  La  La16  1  0.710446  0.997579  0.248867  1
  Tm  Tm17  1  0.285610  0.002831  0.750587  1
  Tm  Tm18  1  0.785435  0.497702  0.753090  1
  Tm  Tm19  1  0.212566  0.505730  0.249211  1
  Sn  Sn20  1  0.281087  0.030755  0.951748  1
  Sn  Sn21  1  0.720850  0.968875  0.457055  1
  Sn  Sn22  1  0.220194  0.527905  0.048442  1
  Sn  Sn23  1  0.222018  0.526411  0.451064  1
  Sn  Sn24  1  0.719205  0.966620  0.042838  1
  Sn  Sn25  1  0.281364  0.028350  0.548679  1
  Sn  Sn26  1  0.780718  0.471005  0.950965  1
  Sn  Sn27  1  0.165855  0.646183  0.749570  1
  Sn  Sn28  1  0.666056  0.852018  0.749516  1
  Sn  Sn29  1  0.327005  0.147505  0.249820  1
  Sn  Sn30  1  0.837299  0.361851  0.250343  1
  Sn  Sn31  1  0.926400  0.120975  0.749196  1
  Sn  Sn32  1  0.423977  0.380736  0.749090  1
  Sn  Sn33  1  0.574566  0.612567  0.250686  1
  Sn  Sn34  1  0.081750  0.878049  0.250038  1
  Sb  Sb35  1  0.777932  0.473923  0.551384  1
