# generated using pymatgen
data_Dy12Th4Mg3Ru4Pb
_symmetry_space_group_name_H-M   'P 1'
_cell_length_a   9.78270214
_cell_length_b   9.77809479
_cell_length_c   9.78269941
_cell_angle_alpha   59.78773034
_cell_angle_beta   59.81122992
_cell_angle_gamma   59.78772242
_symmetry_Int_Tables_number   1
_chemical_formula_structural   Dy12Th4Mg3Ru4Pb
_chemical_formula_sum   'Dy12 Th4 Mg3 Ru4 Pb1'
_cell_volume   658.62233233
_cell_formula_units_Z   1
loop_
 _symmetry_equiv_pos_site_id
 _symmetry_equiv_pos_as_xyz
  1  'x, y, z'
loop_
 _atom_site_type_symbol
 _atom_site_label
 _atom_site_symmetry_multiplicity
 _atom_site_fract_x
 _atom_site_fract_y
 _atom_site_fract_z
 _atom_site_occupancy
  Dy  Dy0  1  0.813251  0.186354  0.186337  1
  Dy  Dy1  1  0.186371  0.811970  0.812185  1
  Dy  Dy2  1  0.186330  0.813213  0.186329  1
  Dy  Dy3  1  0.812048  0.186420  0.812049  1
  Dy  Dy4  1  0.186338  0.186354  0.813250  1
  Dy  Dy5  1  0.812185  0.811971  0.186370  1
  Dy  Dy6  1  0.938894  0.563059  0.563017  1
  Dy  Dy7  1  0.564639  0.935828  0.935854  1
  Dy  Dy8  1  0.563055  0.938782  0.563055  1
  Dy  Dy9  1  0.935870  0.564533  0.935870  1
  Dy  Dy10  1  0.563016  0.563059  0.938894  1
  Dy  Dy11  1  0.935855  0.935829  0.564638  1
  Th  Th12  1  0.347100  0.347300  0.347099  1
  Th  Th13  1  0.346195  0.346356  0.961671  1
  Th  Th14  1  0.346238  0.961538  0.346238  1
  Th  Th15  1  0.961670  0.346357  0.346195  1
  Mg  Mg16  1  0.579417  0.579472  0.259656  1
  Mg  Mg17  1  0.579457  0.259651  0.579456  1
  Mg  Mg18  1  0.259657  0.579471  0.579416  1
  Ru  Ru19  1  0.143744  0.143740  0.143746  1
  Ru  Ru20  1  0.143522  0.143518  0.568607  1
  Ru  Ru21  1  0.143466  0.568674  0.143466  1
  Ru  Ru22  1  0.568606  0.143516  0.143523  1
  Pb  Pb23  1  0.583077  0.583033  0.583077  1
