# generated using pymatgen
data_Hf8Ti12Si15P
_symmetry_space_group_name_H-M   'P 1'
_cell_length_a   6.63135384
_cell_length_b   6.77053452
_cell_length_c   12.93826800
_cell_angle_alpha   90.00129477
_cell_angle_beta   90.07604183
_cell_angle_gamma   89.96159540
_symmetry_Int_Tables_number   1
_chemical_formula_structural   Hf8Ti12Si15P
_chemical_formula_sum   'Hf8 Ti12 Si15 P1'
_cell_volume   580.89925754
_cell_formula_units_Z   1
loop_
 _symmetry_equiv_pos_site_id
 _symmetry_equiv_pos_as_xyz
  1  'x, y, z'
loop_
 _atom_site_type_symbol
 _atom_site_label
 _atom_site_symmetry_multiplicity
 _atom_site_fract_x
 _atom_site_fract_y
 _atom_site_fract_z
 _atom_site_occupancy
  Hf  Hf0  1  0.493349  0.674822  0.595290  1
  Hf  Hf1  1  0.996932  0.825741  0.904555  1
  Hf  Hf2  1  0.503039  0.325643  0.095745  1
  Hf  Hf3  1  0.005532  0.177603  0.405174  1
  Hf  Hf4  1  0.503171  0.325894  0.404269  1
  Hf  Hf5  1  0.003207  0.174089  0.095735  1
  Hf  Hf6  1  0.496573  0.673834  0.904353  1
  Hf  Hf7  1  0.997028  0.822671  0.594219  1
  Ti  Ti8  1  0.658029  0.172785  0.625380  1
  Ti  Ti9  1  0.159053  0.325795  0.874273  1
  Ti  Ti10  1  0.340418  0.825421  0.125766  1
  Ti  Ti11  1  0.845871  0.671898  0.375940  1
  Ti  Ti12  1  0.338162  0.822340  0.376169  1
  Ti  Ti13  1  0.841406  0.674494  0.125972  1
  Ti  Ti14  1  0.659024  0.174480  0.874043  1
  Ti  Ti15  1  0.159285  0.331258  0.622665  1
  Ti  Ti16  1  0.831891  0.496668  0.749060  1
  Ti  Ti17  1  0.331621  0.003784  0.749769  1
  Ti  Ti18  1  0.168758  0.503929  0.251978  1
  Ti  Ti19  1  0.668561  0.996447  0.250189  1
  Si  Si20  1  0.672348  0.962226  0.460462  1
  Si  Si21  1  0.171681  0.537305  0.038627  1
  Si  Si22  1  0.328588  0.037168  0.961448  1
  Si  Si23  1  0.819903  0.461848  0.539454  1
  Si  Si24  1  0.327770  0.037959  0.538795  1
  Si  Si25  1  0.828215  0.462744  0.961410  1
  Si  Si26  1  0.671193  0.962844  0.038658  1
  Si  Si27  1  0.456170  0.381693  0.749651  1
  Si  Si28  1  0.958014  0.118778  0.749005  1
  Si  Si29  1  0.544198  0.618978  0.250379  1
  Si  Si30  1  0.042397  0.882876  0.250402  1
  Si  Si31  1  0.700018  0.865396  0.749993  1
  Si  Si32  1  0.198841  0.634803  0.750441  1
  Si  Si33  1  0.301007  0.133676  0.250102  1
  Si  Si34  1  0.800739  0.364971  0.249696  1
  P  P35  1  0.178006  0.537132  0.460933  1
