# generated using pymatgen
data_Ca3Dy3(Si3Pt2)4
_symmetry_space_group_name_H-M   'P 1'
_cell_length_a   4.24465800
_cell_length_b   8.55698370
_cell_length_c   12.92227900
_cell_angle_alpha   80.23719283
_cell_angle_beta   90.00000000
_cell_angle_gamma   90.00000000
_symmetry_Int_Tables_number   1
_chemical_formula_structural   Ca3Dy3(Si3Pt2)4
_chemical_formula_sum   'Ca3 Dy3 Si12 Pt8'
_cell_volume   462.55902866
_cell_formula_units_Z   1
loop_
 _symmetry_equiv_pos_site_id
 _symmetry_equiv_pos_as_xyz
  1  'x, y, z'
loop_
 _atom_site_type_symbol
 _atom_site_label
 _atom_site_symmetry_multiplicity
 _atom_site_fract_x
 _atom_site_fract_y
 _atom_site_fract_z
 _atom_site_occupancy
  Ca  Ca0  1  0.750000  0.415631  0.810466  1
  Ca  Ca1  1  0.750000  0.928859  0.811787  1
  Ca  Ca2  1  0.250000  0.070389  0.189483  1
  Dy  Dy3  1  0.250000  0.766069  0.437046  1
  Dy  Dy4  1  0.250000  0.586690  0.188915  1
  Dy  Dy5  1  0.750000  0.234393  0.562227  1
  Si  Si6  1  0.750000  0.586791  0.567530  1
  Si  Si7  1  0.750000  0.131016  0.006667  1
  Si  Si8  1  0.750000  0.870667  0.572082  1
  Si  Si9  1  0.250000  0.697786  0.711292  1
  Si  Si10  1  0.750000  0.302601  0.289072  1
  Si  Si11  1  0.750000  0.805292  0.276317  1
  Si  Si12  1  0.250000  0.870735  0.993311  1
  Si  Si13  1  0.250000  0.192080  0.722601  1
  Si  Si14  1  0.250000  0.377548  0.004422  1
  Si  Si15  1  0.250000  0.125595  0.429363  1
  Si  Si16  1  0.750000  0.622458  0.997205  1
  Si  Si17  1  0.250000  0.411894  0.429568  1
  Pt  Pt18  1  0.750000  0.354675  0.102692  1
  Pt  Pt19  1  0.250000  0.971195  0.620172  1
  Pt  Pt20  1  0.750000  0.851668  0.088084  1
  Pt  Pt21  1  0.750000  0.028879  0.378665  1
  Pt  Pt22  1  0.250000  0.646895  0.899978  1
  Pt  Pt23  1  0.250000  0.149965  0.911995  1
  Pt  Pt24  1  0.750000  0.532328  0.376632  1
  Pt  Pt25  1  0.250000  0.467898  0.622427  1
