# generated using pymatgen
data_Rb3Sc(AsSe2)6
_symmetry_space_group_name_H-M   'P 1'
_cell_length_a   9.90368200
_cell_length_b   9.90368356
_cell_length_c   8.39128600
_cell_angle_alpha   90.00000000
_cell_angle_beta   90.00000000
_cell_angle_gamma   120.00000059
_symmetry_Int_Tables_number   1
_chemical_formula_structural   Rb3Sc(AsSe2)6
_chemical_formula_sum   'Rb3 Sc1 As6 Se12'
_cell_volume   712.77522326
_cell_formula_units_Z   1
loop_
 _symmetry_equiv_pos_site_id
 _symmetry_equiv_pos_as_xyz
  1  'x, y, z'
loop_
 _atom_site_type_symbol
 _atom_site_label
 _atom_site_symmetry_multiplicity
 _atom_site_fract_x
 _atom_site_fract_y
 _atom_site_fract_z
 _atom_site_occupancy
  Rb  Rb0  1  0.000000  0.000000  0.000000  1
  Rb  Rb1  1  0.333333  0.666667  0.854079  1
  Rb  Rb2  1  0.666667  0.333333  0.145921  1
  Sc  Sc3  1  0.000000  0.000000  0.500000  1
  As  As4  1  0.281572  0.833310  0.390478  1
  As  As5  1  0.166690  0.448262  0.390478  1
  As  As6  1  0.551738  0.718428  0.390478  1
  As  As7  1  0.718428  0.166690  0.609522  1
  As  As8  1  0.833310  0.551738  0.609522  1
  As  As9  1  0.448262  0.281572  0.609522  1
  Se  Se10  1  0.247117  0.045682  0.309999  1
  Se  Se11  1  0.954318  0.201436  0.309999  1
  Se  Se12  1  0.798564  0.752883  0.309999  1
  Se  Se13  1  0.752883  0.954318  0.690001  1
  Se  Se14  1  0.045682  0.798564  0.690001  1
  Se  Se15  1  0.201436  0.247117  0.690001  1
  Se  Se16  1  0.521625  0.910573  0.229888  1
  Se  Se17  1  0.089427  0.611051  0.229888  1
  Se  Se18  1  0.388949  0.478375  0.229888  1
  Se  Se19  1  0.478375  0.089427  0.770112  1
  Se  Se20  1  0.910573  0.388949  0.770112  1
  Se  Se21  1  0.611051  0.521625  0.770112  1
