# generated using pymatgen
data_NdSmCu(SeO3)4
_symmetry_space_group_name_H-M   'P 1'
_cell_length_a   7.06859500
_cell_length_b   8.28939805
_cell_length_c   10.83485323
_cell_angle_alpha   109.98741469
_cell_angle_beta   89.99998131
_cell_angle_gamma   90.00001730
_symmetry_Int_Tables_number   1
_chemical_formula_structural   NdSmCu(SeO3)4
_chemical_formula_sum   'Nd2 Sm2 Cu2 Se8 O24'
_cell_volume   596.62253345
_cell_formula_units_Z   2
loop_
 _symmetry_equiv_pos_site_id
 _symmetry_equiv_pos_as_xyz
  1  'x, y, z'
loop_
 _atom_site_type_symbol
 _atom_site_label
 _atom_site_symmetry_multiplicity
 _atom_site_fract_x
 _atom_site_fract_y
 _atom_site_fract_z
 _atom_site_occupancy
  Nd  Nd0  1  0.336783  0.238541  0.584023  1
  Nd  Nd1  1  0.836783  0.261459  0.415977  1
  Sm  Sm2  1  0.662655  0.759844  0.414836  1
  Sm  Sm3  1  0.162655  0.740156  0.585164  1
  Cu  Cu4  1  0.498195  0.499750  0.000308  1
  Cu  Cu5  1  0.998196  0.000249  0.999692  1
  Se  Se6  1  0.176987  0.864237  0.317345  1
  Se  Se7  1  0.676987  0.635763  0.682655  1
  Se  Se8  1  0.327059  0.123874  0.866408  1
  Se  Se9  1  0.827060  0.376126  0.133591  1
  Se  Se10  1  0.671870  0.874661  0.134109  1
  Se  Se11  1  0.171870  0.625339  0.865891  1
  Se  Se12  1  0.322770  0.366854  0.315764  1
  Se  Se13  1  0.822770  0.133146  0.684236  1
  O  O14  1  0.656021  0.087123  0.556270  1
  O  O15  1  0.156021  0.412877  0.443730  1
  O  O16  1  0.346234  0.907747  0.443474  1
  O  O17  1  0.846234  0.592253  0.556526  1
  O  O18  1  0.888377  0.925893  0.656608  1
  O  O19  1  0.388377  0.574107  0.343392  1
  O  O20  1  0.115661  0.073126  0.345772  1
  O  O21  1  0.615662  0.426874  0.654228  1
  O  O22  1  0.492354  0.278928  0.390164  1
  O  O23  1  0.992354  0.221072  0.609836  1
  O  O24  1  0.221300  0.533891  0.700841  1
  O  O25  1  0.721300  0.966109  0.299159  1
  O  O26  1  0.778693  0.470922  0.298476  1
  O  O27  1  0.278693  0.029078  0.701524  1
  O  O28  1  0.118188  0.824399  0.849867  1
  O  O29  1  0.618188  0.675601  0.150133  1
  O  O30  1  0.880728  0.177427  0.150699  1
  O  O31  1  0.380728  0.322573  0.849301  1
  O  O32  1  0.108017  0.176412  0.941937  1
  O  O33  1  0.608017  0.323588  0.058063  1
  O  O34  1  0.890768  0.823792  0.058214  1
  O  O35  1  0.390767  0.676208  0.941786  1
  O  O36  1  0.507336  0.720047  0.605442  1
  O  O37  1  0.007336  0.779953  0.394558  1
