# generated using pymatgen
data_Tb2SbRh5
_symmetry_space_group_name_H-M   'P 1'
_cell_length_a   4.29136000
_cell_length_b   5.77001000
_cell_length_c   11.33946700
_cell_angle_alpha   90.00000000
_cell_angle_beta   90.00000000
_cell_angle_gamma   90.00000000
_symmetry_Int_Tables_number   1
_chemical_formula_structural   Tb2SbRh5
_chemical_formula_sum   'Tb4 Sb2 Rh10'
_cell_volume   280.77869817
_cell_formula_units_Z   2
loop_
 _symmetry_equiv_pos_site_id
 _symmetry_equiv_pos_as_xyz
  1  'x, y, z'
loop_
 _atom_site_type_symbol
 _atom_site_label
 _atom_site_symmetry_multiplicity
 _atom_site_fract_x
 _atom_site_fract_y
 _atom_site_fract_z
 _atom_site_occupancy
  Tb  Tb0  1  0.500000  0.176448  0.641799  1
  Tb  Tb1  1  0.500000  0.823552  0.358201  1
  Tb  Tb2  1  0.500000  0.676448  0.858201  1
  Tb  Tb3  1  0.500000  0.323552  0.141799  1
  Sb  Sb4  1  0.000000  0.500000  0.500000  1
  Sb  Sb5  1  0.000000  0.000000  0.000000  1
  Rh  Rh6  1  0.500000  0.189492  0.890838  1
  Rh  Rh7  1  0.500000  0.810508  0.109162  1
  Rh  Rh8  1  0.500000  0.689492  0.609162  1
  Rh  Rh9  1  0.500000  0.310508  0.390838  1
  Rh  Rh10  1  0.000000  0.433308  0.745892  1
  Rh  Rh11  1  0.000000  0.566692  0.254108  1
  Rh  Rh12  1  0.000000  0.000000  0.500000  1
  Rh  Rh13  1  0.000000  0.500000  0.000000  1
  Rh  Rh14  1  0.000000  0.066692  0.245892  1
  Rh  Rh15  1  0.000000  0.933308  0.754108  1
