# generated using pymatgen
data_Tb4MnAl18Pt5
_symmetry_space_group_name_H-M   'P 1'
_cell_length_a   7.59508550
_cell_length_b   7.59508441
_cell_length_c   9.47283508
_cell_angle_alpha   89.97164862
_cell_angle_beta   89.97164507
_cell_angle_gamma   119.60471126
_symmetry_Int_Tables_number   1
_chemical_formula_structural   Tb4MnAl18Pt5
_chemical_formula_sum   'Tb4 Mn1 Al18 Pt5'
_cell_volume   475.10740949
_cell_formula_units_Z   1
loop_
 _symmetry_equiv_pos_site_id
 _symmetry_equiv_pos_as_xyz
  1  'x, y, z'
loop_
 _atom_site_type_symbol
 _atom_site_label
 _atom_site_symmetry_multiplicity
 _atom_site_fract_x
 _atom_site_fract_y
 _atom_site_fract_z
 _atom_site_occupancy
  Tb  Tb0  1  0.994756  0.669843  0.248617  1
  Tb  Tb1  1  0.005244  0.330157  0.751383  1
  Tb  Tb2  1  0.669843  0.994756  0.248617  1
  Tb  Tb3  1  0.330157  0.005244  0.751383  1
  Mn  Mn4  1  0.000000  0.000000  0.000000  1
  Al  Al5  1  0.123930  0.123930  0.241218  1
  Al  Al6  1  0.876070  0.876070  0.758782  1
  Al  Al7  1  0.998954  0.323483  0.071404  1
  Al  Al8  1  0.001046  0.676517  0.928596  1
  Al  Al9  1  0.998266  0.664836  0.578064  1
  Al  Al10  1  0.335164  0.001734  0.421936  1
  Al  Al11  1  0.001734  0.335164  0.421936  1
  Al  Al12  1  0.664836  0.998266  0.578064  1
  Al  Al13  1  0.676517  0.001046  0.928596  1
  Al  Al14  1  0.323483  0.998954  0.071404  1
  Al  Al15  1  0.333816  0.333816  0.557506  1
  Al  Al16  1  0.666184  0.666184  0.442494  1
  Al  Al17  1  0.677501  0.677501  0.050961  1
  Al  Al18  1  0.322499  0.322499  0.949039  1
  Al  Al19  1  0.340130  0.545200  0.248443  1
  Al  Al20  1  0.659870  0.454800  0.751557  1
  Al  Al21  1  0.545200  0.340130  0.248443  1
  Al  Al22  1  0.454800  0.659870  0.751557  1
  Pt  Pt23  1  0.672002  0.327998  0.000000  1
  Pt  Pt24  1  0.327998  0.672002  0.000000  1
  Pt  Pt25  1  0.327818  0.672182  0.500000  1
  Pt  Pt26  1  0.672182  0.327818  0.500000  1
  Pt  Pt27  1  0.000000  0.000000  0.500000  1
