# generated using pymatgen
data_DyInGa2NiAg
_symmetry_space_group_name_H-M   'P 1'
_cell_length_a   4.08844677
_cell_length_b   6.68949700
_cell_length_c   8.38707738
_cell_angle_alpha   90.00000000
_cell_angle_beta   104.10708820
_cell_angle_gamma   90.00000000
_symmetry_Int_Tables_number   1
_chemical_formula_structural   DyInGa2NiAg
_chemical_formula_sum   'Dy2 In2 Ga4 Ni2 Ag2'
_cell_volume   222.46586894
_cell_formula_units_Z   2
loop_
 _symmetry_equiv_pos_site_id
 _symmetry_equiv_pos_as_xyz
  1  'x, y, z'
loop_
 _atom_site_type_symbol
 _atom_site_label
 _atom_site_symmetry_multiplicity
 _atom_site_fract_x
 _atom_site_fract_y
 _atom_site_fract_z
 _atom_site_occupancy
  Dy  Dy0  1  0.368789  0.750000  0.737578  1
  Dy  Dy1  1  0.631211  0.250000  0.262422  1
  In  In2  1  0.568949  0.750000  0.137899  1
  In  In3  1  0.431051  0.250000  0.862101  1
  Ga  Ga4  1  0.187549  0.549887  0.375098  1
  Ga  Ga5  1  0.812451  0.450113  0.624902  1
  Ga  Ga6  1  0.187549  0.950113  0.375098  1
  Ga  Ga7  1  0.812451  0.049887  0.624902  1
  Ni  Ni8  1  0.727657  0.750000  0.455315  1
  Ni  Ni9  1  0.272343  0.250000  0.544685  1
  Ag  Ag10  1  0.000000  0.500000  0.000000  1
  Ag  Ag11  1  0.000000  0.000000  0.000000  1
