# generated using pymatgen
data_Hf10Be2(SnSb)3
_symmetry_space_group_name_H-M   'P 1'
_cell_length_a   8.53450000
_cell_length_b   8.53449967
_cell_length_c   5.74192900
_cell_angle_alpha   90.00000000
_cell_angle_beta   90.00000000
_cell_angle_gamma   119.99999354
_symmetry_Int_Tables_number   1
_chemical_formula_structural   Hf10Be2(SnSb)3
_chemical_formula_sum   'Hf10 Be2 Sn3 Sb3'
_cell_volume   362.19681456
_cell_formula_units_Z   1
loop_
 _symmetry_equiv_pos_site_id
 _symmetry_equiv_pos_as_xyz
  1  'x, y, z'
loop_
 _atom_site_type_symbol
 _atom_site_label
 _atom_site_symmetry_multiplicity
 _atom_site_fract_x
 _atom_site_fract_y
 _atom_site_fract_z
 _atom_site_occupancy
  Hf  Hf0  1  0.666667  0.333333  0.998679  1
  Hf  Hf1  1  0.333333  0.666667  0.998679  1
  Hf  Hf2  1  0.333333  0.666667  0.501321  1
  Hf  Hf3  1  0.666667  0.333333  0.501321  1
  Hf  Hf4  1  0.744474  0.744474  0.750000  1
  Hf  Hf5  1  0.255526  0.000000  0.750000  1
  Hf  Hf6  1  0.000000  0.255526  0.750000  1
  Hf  Hf7  1  0.249277  0.249277  0.250000  1
  Hf  Hf8  1  0.750723  0.000000  0.250000  1
  Hf  Hf9  1  0.000000  0.750723  0.250000  1
  Be  Be10  1  0.000000  0.000000  0.511342  1
  Be  Be11  1  0.000000  0.000000  0.988658  1
  Sn  Sn12  1  0.388708  0.388708  0.750000  1
  Sn  Sn13  1  0.611292  0.000000  0.750000  1
  Sn  Sn14  1  0.000000  0.611292  0.750000  1
  Sb  Sb15  1  0.607177  0.607177  0.250000  1
  Sb  Sb16  1  0.392823  0.000000  0.250000  1
  Sb  Sb17  1  0.000000  0.392823  0.250000  1
