# generated using pymatgen
data_LiHo5(P2Ru3)6
_symmetry_space_group_name_H-M   'P 1'
_cell_length_a   12.60187958
_cell_length_b   12.41238052
_cell_length_c   3.96773900
_cell_angle_alpha   90.00000000
_cell_angle_beta   90.00000000
_cell_angle_gamma   119.50379859
_symmetry_Int_Tables_number   1
_chemical_formula_structural   LiHo5(P2Ru3)6
_chemical_formula_sum   'Li1 Ho5 P12 Ru18'
_cell_volume   540.14951051
_cell_formula_units_Z   1
loop_
 _symmetry_equiv_pos_site_id
 _symmetry_equiv_pos_as_xyz
  1  'x, y, z'
loop_
 _atom_site_type_symbol
 _atom_site_label
 _atom_site_symmetry_multiplicity
 _atom_site_fract_x
 _atom_site_fract_y
 _atom_site_fract_z
 _atom_site_occupancy
  Li  Li0  1  0.000000  0.561697  0.000000  1
  Ho  Ho1  1  0.000000  0.181545  0.500000  1
  Ho  Ho2  1  0.816957  0.816965  0.500000  1
  Ho  Ho3  1  0.183043  0.000007  0.500000  1
  Ho  Ho4  1  0.660267  0.329362  0.000000  1
  Ho  Ho5  1  0.339733  0.669096  0.000000  1
  P  P6  1  0.000000  0.809519  0.000000  1
  P  P7  1  0.182511  0.183309  0.000000  1
  P  P8  1  0.817489  0.000797  0.000000  1
  P  P9  1  0.692021  0.173219  0.500000  1
  P  P10  1  0.820421  0.519014  0.500000  1
  P  P11  1  0.474666  0.306987  0.500000  1
  P  P12  1  0.179579  0.698593  0.500000  1
  P  P13  1  0.525334  0.832321  0.500000  1
  P  P14  1  0.307979  0.481198  0.500000  1
  P  P15  1  0.000000  0.367072  0.000000  1
  P  P16  1  0.626651  0.625468  0.000000  1
  P  P17  1  0.373349  0.998816  0.000000  1
  Ru  Ru18  1  0.444619  0.444548  0.000000  1
  Ru  Ru19  1  0.555381  0.999929  0.000000  1
  Ru  Ru20  1  0.000000  0.713579  0.500000  1
  Ru  Ru21  1  0.281035  0.283209  0.500000  1
  Ru  Ru22  1  0.718965  0.002174  0.500000  1
  Ru  Ru23  1  0.806013  0.186091  0.000000  1
  Ru  Ru24  1  0.813508  0.619320  0.000000  1
  Ru  Ru25  1  0.373116  0.188819  0.000000  1
  Ru  Ru26  1  0.186492  0.805813  0.000000  1
  Ru  Ru27  1  0.626884  0.815703  0.000000  1
  Ru  Ru28  1  0.193987  0.380078  0.000000  1
  Ru  Ru29  1  0.876444  0.366985  0.500000  1
  Ru  Ru30  1  0.631530  0.509214  0.500000  1
  Ru  Ru31  1  0.492634  0.128403  0.500000  1
  Ru  Ru32  1  0.368470  0.877684  0.500000  1
  Ru  Ru33  1  0.507366  0.635769  0.500000  1
  Ru  Ru34  1  0.123556  0.490541  0.500000  1
  Ru  Ru35  1  0.000000  0.997156  0.000000  1
