# generated using pymatgen
data_YbTm4(In2Pt)2
_symmetry_space_group_name_H-M   'P 1'
_cell_length_a   3.56950200
_cell_length_b   8.15145800
_cell_length_c   18.24936100
_cell_angle_alpha   90.00000000
_cell_angle_beta   90.00000000
_cell_angle_gamma   90.00000000
_symmetry_Int_Tables_number   1
_chemical_formula_structural   YbTm4(In2Pt)2
_chemical_formula_sum   'Yb2 Tm8 In8 Pt4'
_cell_volume   530.99519006
_cell_formula_units_Z   2
loop_
 _symmetry_equiv_pos_site_id
 _symmetry_equiv_pos_as_xyz
  1  'x, y, z'
loop_
 _atom_site_type_symbol
 _atom_site_label
 _atom_site_symmetry_multiplicity
 _atom_site_fract_x
 _atom_site_fract_y
 _atom_site_fract_z
 _atom_site_occupancy
  Yb  Yb0  1  0.000000  0.000000  0.000000  1
  Yb  Yb1  1  0.000000  0.500000  0.500000  1
  Tm  Tm2  1  0.000000  0.118808  0.413701  1
  Tm  Tm3  1  0.000000  0.881192  0.586299  1
  Tm  Tm4  1  0.000000  0.381192  0.913701  1
  Tm  Tm5  1  0.000000  0.618808  0.086299  1
  Tm  Tm6  1  0.000000  0.243539  0.220788  1
  Tm  Tm7  1  0.000000  0.756461  0.779212  1
  Tm  Tm8  1  0.000000  0.256461  0.720788  1
  Tm  Tm9  1  0.000000  0.743539  0.279212  1
  In  In10  1  0.500000  0.425189  0.351083  1
  In  In11  1  0.500000  0.574811  0.648917  1
  In  In12  1  0.500000  0.074811  0.851083  1
  In  In13  1  0.500000  0.925189  0.148917  1
  In  In14  1  0.500000  0.293464  0.066782  1
  In  In15  1  0.500000  0.706536  0.933218  1
  In  In16  1  0.500000  0.206536  0.566782  1
  In  In17  1  0.500000  0.793464  0.433218  1
  Pt  Pt18  1  0.500000  0.023690  0.303047  1
  Pt  Pt19  1  0.500000  0.976310  0.696953  1
  Pt  Pt20  1  0.500000  0.476310  0.803047  1
  Pt  Pt21  1  0.500000  0.523690  0.196953  1
