# generated using pymatgen
data_Ca3TbEr2(Si3Ru)8
_symmetry_space_group_name_H-M   'P 1'
_cell_length_a   10.15810626
_cell_length_b   10.15810618
_cell_length_c   8.15084057
_cell_angle_alpha   90.04209994
_cell_angle_beta   89.95789810
_cell_angle_gamma   132.66499597
_symmetry_Int_Tables_number   1
_chemical_formula_structural   Ca3TbEr2(Si3Ru)8
_chemical_formula_sum   'Ca3 Tb1 Er2 Si24 Ru8'
_cell_volume   618.45672510
_cell_formula_units_Z   1
loop_
 _symmetry_equiv_pos_site_id
 _symmetry_equiv_pos_as_xyz
  1  'x, y, z'
loop_
 _atom_site_type_symbol
 _atom_site_label
 _atom_site_symmetry_multiplicity
 _atom_site_fract_x
 _atom_site_fract_y
 _atom_site_fract_z
 _atom_site_occupancy
  Ca  Ca0  1  0.001641  0.501641  0.750000  1
  Ca  Ca1  1  0.500928  0.000928  0.750000  1
  Ca  Ca2  1  0.998714  0.498714  0.250000  1
  Tb  Tb3  1  0.499181  0.999181  0.250000  1
  Er  Er4  1  0.500093  0.500172  0.500393  1
  Er  Er5  1  0.000172  0.000093  0.999607  1
  Si  Si6  1  0.389132  0.155812  0.006114  1
  Si  Si7  1  0.655812  0.889132  0.493886  1
  Si  Si8  1  0.110784  0.344174  0.504209  1
  Si  Si9  1  0.844174  0.610784  0.995791  1
  Si  Si10  1  0.610535  0.843924  0.995144  1
  Si  Si11  1  0.343924  0.110535  0.504856  1
  Si  Si12  1  0.889284  0.655476  0.495656  1
  Si  Si13  1  0.155476  0.389284  0.004344  1
  Si  Si14  1  0.610046  0.377149  0.227502  1
  Si  Si15  1  0.877149  0.110046  0.272498  1
  Si  Si16  1  0.888932  0.122454  0.727838  1
  Si  Si17  1  0.622454  0.388932  0.772162  1
  Si  Si18  1  0.388777  0.622366  0.771850  1
  Si  Si19  1  0.122366  0.888777  0.728150  1
  Si  Si20  1  0.707217  0.294739  0.998710  1
  Si  Si21  1  0.794739  0.207217  0.501290  1
  Si  Si22  1  0.292797  0.705602  0.999259  1
  Si  Si23  1  0.205602  0.792797  0.500741  1
  Si  Si24  1  0.168051  0.166030  0.333009  1
  Si  Si25  1  0.666030  0.668051  0.166991  1
  Si  Si26  1  0.332649  0.334836  0.833008  1
  Si  Si27  1  0.834836  0.832649  0.666992  1
  Si  Si28  1  0.377815  0.610985  0.227477  1
  Si  Si29  1  0.110985  0.877815  0.272523  1
  Ru  Ru30  1  0.627277  0.626913  0.873534  1
  Ru  Ru31  1  0.126913  0.127277  0.626466  1
  Ru  Ru32  1  0.873271  0.873490  0.373656  1
  Ru  Ru33  1  0.373490  0.373271  0.126344  1
  Ru  Ru34  1  0.332950  0.668933  0.498508  1
  Ru  Ru35  1  0.168933  0.832950  0.001492  1
  Ru  Ru36  1  0.666713  0.330156  0.498460  1
  Ru  Ru37  1  0.830156  0.166713  0.001540  1
