# generated using pymatgen
data_Ca2Pr18AlSi11O52
_symmetry_space_group_name_H-M   'P 1'
_cell_length_a   7.13675613
_cell_length_b   9.70168522
_cell_length_c   16.86751463
_cell_angle_alpha   90.02879347
_cell_angle_beta   89.98957888
_cell_angle_gamma   89.98525966
_symmetry_Int_Tables_number   1
_chemical_formula_structural   Ca2Pr18AlSi11O52
_chemical_formula_sum   'Ca2 Pr18 Al1 Si11 O52'
_cell_volume   1167.88224349
_cell_formula_units_Z   1
loop_
 _symmetry_equiv_pos_site_id
 _symmetry_equiv_pos_as_xyz
  1  'x, y, z'
loop_
 _atom_site_type_symbol
 _atom_site_label
 _atom_site_symmetry_multiplicity
 _atom_site_fract_x
 _atom_site_fract_y
 _atom_site_fract_z
 _atom_site_occupancy
  Ca  Ca0  1  0.994119  0.499999  0.833684  1
  Ca  Ca1  1  0.494377  0.499039  0.165669  1
  Pr  Pr2  1  0.750629  0.760669  0.994653  1
  Pr  Pr3  1  0.751483  0.616500  0.620142  1
  Pr  Pr4  1  0.496041  0.499020  0.833925  1
  Pr  Pr5  1  0.248166  0.376500  0.618941  1
  Pr  Pr6  1  0.748329  0.263663  0.496475  1
  Pr  Pr7  1  0.750423  0.127091  0.884246  1
  Pr  Pr8  1  0.747037  0.112475  0.120378  1
  Pr  Pr9  1  0.502204  0.997571  0.663839  1
  Pr  Pr10  1  0.997823  0.995974  0.663427  1
  Pr  Pr11  1  0.502998  0.998114  0.331823  1
  Pr  Pr12  1  0.997644  0.996263  0.331795  1
  Pr  Pr13  1  0.246794  0.887788  0.879119  1
  Pr  Pr14  1  0.249759  0.872324  0.114362  1
  Pr  Pr15  1  0.248218  0.736265  0.506172  1
  Pr  Pr16  1  0.748205  0.627455  0.381780  1
  Pr  Pr17  1  0.995826  0.499784  0.165853  1
  Pr  Pr18  1  0.251460  0.389716  0.378369  1
  Pr  Pr19  1  0.250544  0.239525  0.004259  1
  Al  Al20  1  0.748526  0.887804  0.513718  1
  Si  Si21  1  0.248689  0.668718  0.704208  1
  Si  Si22  1  0.249976  0.613118  0.985429  1
  Si  Si23  1  0.750828  0.286870  0.686937  1
  Si  Si24  1  0.247715  0.216489  0.814612  1
  Si  Si25  1  0.249649  0.171529  0.199148  1
  Si  Si26  1  0.249095  0.114756  0.483649  1
  Si  Si27  1  0.749441  0.828718  0.802338  1
  Si  Si28  1  0.746980  0.782593  0.182994  1
  Si  Si29  1  0.250906  0.711984  0.312878  1
  Si  Si30  1  0.749888  0.386530  0.014683  1
  Si  Si31  1  0.748563  0.331075  0.297997  1
  O  O32  1  0.437082  0.695067  0.951533  1
  O  O33  1  0.072863  0.713860  0.961030  1
  O  O34  1  0.750224  0.674844  0.841590  1
  O  O35  1  0.239159  0.668600  0.801494  1
  O  O36  1  0.437755  0.578469  0.680721  1
  O  O37  1  0.071403  0.581922  0.667001  1
  O  O38  1  0.240460  0.466865  0.936461  1
  O  O39  1  0.751180  0.419916  0.746293  1
  O  O40  1  0.754775  0.405145  0.918385  1
  O  O41  1  0.236601  0.363628  0.767108  1
  O  O42  1  0.933299  0.286804  0.626741  1
  O  O43  1  0.565046  0.287052  0.628259  1
  O  O44  1  0.437698  0.226985  0.870841  1
  O  O45  1  0.072417  0.202290  0.877732  1
  O  O46  1  0.434578  0.200224  0.452387  1
  O  O47  1  0.065496  0.203397  0.453042  1
  O  O48  1  0.753666  0.175940  0.336707  1
  O  O49  1  0.248739  0.175074  0.296854  1
  O  O50  1  0.752064  0.138742  0.735490  1
  O  O51  1  0.249467  0.096514  0.580306  1
  O  O52  1  0.433488  0.079382  0.172314  1
  O  O53  1  0.066138  0.079602  0.170608  1
  O  O54  1  0.252158  0.082241  0.755574  1
  O  O55  1  0.748110  0.045468  0.565799  1
  O  O56  1  0.762517  0.999743  0.999817  1
  O  O57  1  0.262826  0.000943  0.000091  1
  O  O58  1  0.248528  0.965783  0.436712  1
  O  O59  1  0.752019  0.922186  0.237928  1
  O  O60  1  0.933027  0.920080  0.829698  1
  O  O61  1  0.566031  0.920038  0.831265  1
  O  O62  1  0.749154  0.895865  0.410036  1
  O  O63  1  0.252371  0.857629  0.262179  1
  O  O64  1  0.748761  0.826788  0.704895  1
  O  O65  1  0.252889  0.824851  0.667682  1
  O  O66  1  0.945962  0.801049  0.553435  1
  O  O67  1  0.553578  0.796730  0.552850  1
  O  O68  1  0.937551  0.770938  0.127460  1
  O  O69  1  0.570276  0.794062  0.120664  1
  O  O70  1  0.431799  0.715871  0.373380  1
  O  O71  1  0.066081  0.716292  0.371632  1
  O  O72  1  0.736903  0.638112  0.233132  1
  O  O73  1  0.254118  0.593399  0.081847  1
  O  O74  1  0.251260  0.576096  0.255616  1
  O  O75  1  0.741108  0.532762  0.063674  1
  O  O76  1  0.755795  0.503172  0.499476  1
  O  O77  1  0.254932  0.497791  0.500444  1
  O  O78  1  0.937474  0.421541  0.321283  1
  O  O79  1  0.570430  0.417561  0.334764  1
  O  O80  1  0.739595  0.330126  0.200594  1
  O  O81  1  0.250202  0.324730  0.158925  1
  O  O82  1  0.936966  0.304648  0.049046  1
  O  O83  1  0.571653  0.287252  0.039704  1
