# generated using pymatgen
data_Tb2(NdRh)3
_symmetry_space_group_name_H-M   'P 1'
_cell_length_a   11.16022100
_cell_length_b   11.16022100
_cell_length_c   6.51351900
_cell_angle_alpha   90.00000000
_cell_angle_beta   90.00000000
_cell_angle_gamma   90.00000000
_symmetry_Int_Tables_number   1
_chemical_formula_structural   Tb2(NdRh)3
_chemical_formula_sum   'Tb8 Nd12 Rh12'
_cell_volume   811.26226165
_cell_formula_units_Z   4
loop_
 _symmetry_equiv_pos_site_id
 _symmetry_equiv_pos_as_xyz
  1  'x, y, z'
loop_
 _atom_site_type_symbol
 _atom_site_label
 _atom_site_symmetry_multiplicity
 _atom_site_fract_x
 _atom_site_fract_y
 _atom_site_fract_z
 _atom_site_occupancy
  Tb  Tb0  1  0.086793  0.292804  0.114495  1
  Tb  Tb1  1  0.792804  0.413207  0.114495  1
  Tb  Tb2  1  0.207196  0.586793  0.114495  1
  Tb  Tb3  1  0.913207  0.707196  0.114495  1
  Tb  Tb4  1  0.000000  0.000000  0.003259  1
  Tb  Tb5  1  0.500000  0.500000  0.003259  1
  Tb  Tb6  1  0.500000  0.500000  0.501659  1
  Tb  Tb7  1  0.000000  0.000000  0.501659  1
  Nd  Nd8  1  0.408914  0.788236  0.380699  1
  Nd  Nd9  1  0.591086  0.211764  0.380699  1
  Nd  Nd10  1  0.288236  0.091086  0.380699  1
  Nd  Nd11  1  0.711764  0.908914  0.380699  1
  Nd  Nd12  1  0.409777  0.210761  0.883012  1
  Nd  Nd13  1  0.710761  0.090223  0.883012  1
  Nd  Nd14  1  0.289239  0.909777  0.883012  1
  Nd  Nd15  1  0.590223  0.789239  0.883012  1
  Nd  Nd16  1  0.088176  0.710324  0.616638  1
  Nd  Nd17  1  0.911824  0.289676  0.616638  1
  Nd  Nd18  1  0.210324  0.411824  0.616638  1
  Nd  Nd19  1  0.789676  0.588176  0.616638  1
  Rh  Rh20  1  0.147685  0.845850  0.247362  1
  Rh  Rh21  1  0.345850  0.352315  0.247362  1
  Rh  Rh22  1  0.654150  0.647685  0.247362  1
  Rh  Rh23  1  0.852315  0.154150  0.247362  1
  Rh  Rh24  1  0.348641  0.648786  0.755139  1
  Rh  Rh25  1  0.148786  0.151359  0.755139  1
  Rh  Rh26  1  0.851214  0.848641  0.755139  1
  Rh  Rh27  1  0.651359  0.351214  0.755139  1
  Rh  Rh28  1  0.000000  0.500000  0.367504  1
  Rh  Rh29  1  0.500000  0.000000  0.124998  1
  Rh  Rh30  1  0.500000  0.000000  0.624902  1
  Rh  Rh31  1  0.000000  0.500000  0.883382  1
