# generated using pymatgen
data_Ca2Ga9IrRu4
_symmetry_space_group_name_H-M   'P 1'
_cell_length_a   8.04977465
_cell_length_b   8.04977364
_cell_length_c   8.04977489
_cell_angle_alpha   134.63943571
_cell_angle_beta   134.63942640
_cell_angle_gamma   66.09096002
_symmetry_Int_Tables_number   1
_chemical_formula_structural   Ca2Ga9IrRu4
_chemical_formula_sum   'Ca2 Ga9 Ir1 Ru4'
_cell_volume   260.03198095
_cell_formula_units_Z   1
loop_
 _symmetry_equiv_pos_site_id
 _symmetry_equiv_pos_as_xyz
  1  'x, y, z'
loop_
 _atom_site_type_symbol
 _atom_site_label
 _atom_site_symmetry_multiplicity
 _atom_site_fract_x
 _atom_site_fract_y
 _atom_site_fract_z
 _atom_site_occupancy
  Ca  Ca0  1  0.000000  0.500000  0.500000  1
  Ca  Ca1  1  0.500000  0.000000  0.500000  1
  Ga  Ga2  1  0.437357  0.859093  0.000000  1
  Ga  Ga3  1  0.140907  0.140907  0.578264  1
  Ga  Ga4  1  0.859093  0.437357  0.000000  1
  Ga  Ga5  1  0.859093  0.859093  0.421736  1
  Ga  Ga6  1  0.562643  0.140907  0.000000  1
  Ga  Ga7  1  0.140907  0.562643  0.000000  1
  Ga  Ga8  1  0.562643  0.562643  0.421736  1
  Ga  Ga9  1  0.000000  0.000000  0.000000  1
  Ga  Ga10  1  0.437357  0.437357  0.578264  1
  Ir  Ir11  1  0.500000  0.500000  0.000000  1
  Ru  Ru12  1  0.180898  0.180898  0.000000  1
  Ru  Ru13  1  0.819102  0.819102  0.000000  1
  Ru  Ru14  1  0.250000  0.750000  0.500000  1
  Ru  Ru15  1  0.750000  0.250000  0.500000  1
