# generated using pymatgen
data_Ce2CoSi7Ru11
_symmetry_space_group_name_H-M   'P 1'
_cell_length_a   9.59658910
_cell_length_b   9.61113786
_cell_length_c   3.93364400
_cell_angle_alpha   90.00000000
_cell_angle_beta   90.00000000
_cell_angle_gamma   120.17786778
_symmetry_Int_Tables_number   1
_chemical_formula_structural   Ce2CoSi7Ru11
_chemical_formula_sum   'Ce2 Co1 Si7 Ru11'
_cell_volume   313.64343836
_cell_formula_units_Z   1
loop_
 _symmetry_equiv_pos_site_id
 _symmetry_equiv_pos_as_xyz
  1  'x, y, z'
loop_
 _atom_site_type_symbol
 _atom_site_label
 _atom_site_symmetry_multiplicity
 _atom_site_fract_x
 _atom_site_fract_y
 _atom_site_fract_z
 _atom_site_occupancy
  Ce  Ce0  1  0.332347  0.665153  0.000000  1
  Ce  Ce1  1  0.997702  0.996953  0.500000  1
  Co  Co2  1  0.538886  0.484273  0.000000  1
  Si  Si3  1  0.965638  0.225857  0.000000  1
  Si  Si4  1  0.263599  0.038247  0.000000  1
  Si  Si5  1  0.766868  0.728025  0.000000  1
  Si  Si6  1  0.058195  0.624766  0.500000  1
  Si  Si7  1  0.565823  0.939074  0.500000  1
  Si  Si8  1  0.381744  0.436284  0.500000  1
  Si  Si9  1  0.662448  0.341255  0.000000  1
  Ru  Ru10  1  0.731167  0.963203  0.000000  1
  Ru  Ru11  1  0.239860  0.272775  0.000000  1
  Ru  Ru12  1  0.033233  0.765850  0.000000  1
  Ru  Ru13  1  0.939887  0.457637  0.000000  1
  Ru  Ru14  1  0.520159  0.061992  0.000000  1
  Ru  Ru15  1  0.107591  0.390182  0.500000  1
  Ru  Ru16  1  0.285073  0.896956  0.500000  1
  Ru  Ru17  1  0.607975  0.710280  0.500000  1
  Ru  Ru18  1  0.768543  0.222898  0.500000  1
  Ru  Ru19  1  0.462385  0.237318  0.500000  1
  Ru  Ru20  1  0.770877  0.541025  0.500000  1
