# generated using pymatgen
data_Er2V3Ni9P7
_symmetry_space_group_name_H-M   'P 1'
_cell_length_a   9.08479700
_cell_length_b   9.08479776
_cell_length_c   3.66439900
_cell_angle_alpha   90.00000000
_cell_angle_beta   90.00000000
_cell_angle_gamma   120.00000816
_symmetry_Int_Tables_number   1
_chemical_formula_structural   Er2V3Ni9P7
_chemical_formula_sum   'Er2 V3 Ni9 P7'
_cell_volume   261.91709370
_cell_formula_units_Z   1
loop_
 _symmetry_equiv_pos_site_id
 _symmetry_equiv_pos_as_xyz
  1  'x, y, z'
loop_
 _atom_site_type_symbol
 _atom_site_label
 _atom_site_symmetry_multiplicity
 _atom_site_fract_x
 _atom_site_fract_y
 _atom_site_fract_z
 _atom_site_occupancy
  Er  Er0  1  0.666667  0.333333  0.000000  1
  Er  Er1  1  0.333333  0.666667  0.500000  1
  V  V2  1  0.218225  0.100834  0.000000  1
  V  V3  1  0.899166  0.117392  0.000000  1
  V  V4  1  0.882608  0.781775  0.000000  1
  Ni  Ni5  1  0.431985  0.061708  0.500000  1
  Ni  Ni6  1  0.938292  0.370278  0.500000  1
  Ni  Ni7  1  0.629722  0.568015  0.500000  1
  Ni  Ni8  1  0.155829  0.280280  0.500000  1
  Ni  Ni9  1  0.719720  0.875548  0.500000  1
  Ni  Ni10  1  0.124452  0.844171  0.500000  1
  Ni  Ni11  1  0.385105  0.437940  0.000000  1
  Ni  Ni12  1  0.562060  0.947165  0.000000  1
  Ni  Ni13  1  0.052835  0.614895  0.000000  1
  P  P14  1  0.114641  0.404461  0.000000  1
  P  P15  1  0.595539  0.710179  0.000000  1
  P  P16  1  0.289821  0.885359  0.000000  1
  P  P17  1  0.000000  0.000000  0.500000  1
  P  P18  1  0.410004  0.295890  0.500000  1
  P  P19  1  0.704110  0.114112  0.500000  1
  P  P20  1  0.885888  0.589996  0.500000  1
