# generated using pymatgen
data_ZnNiAg8(TeO6)2
_symmetry_space_group_name_H-M   'P 1'
_cell_length_a   9.23741548
_cell_length_b   9.23741549
_cell_length_c   5.49181341
_cell_angle_alpha   61.72790538
_cell_angle_beta   61.72791407
_cell_angle_gamma   67.42167466
_symmetry_Int_Tables_number   1
_chemical_formula_structural   ZnNiAg8(TeO6)2
_chemical_formula_sum   'Zn1 Ni1 Ag8 Te2 O12'
_cell_volume   355.70306557
_cell_formula_units_Z   1
loop_
 _symmetry_equiv_pos_site_id
 _symmetry_equiv_pos_as_xyz
  1  'x, y, z'
loop_
 _atom_site_type_symbol
 _atom_site_label
 _atom_site_symmetry_multiplicity
 _atom_site_fract_x
 _atom_site_fract_y
 _atom_site_fract_z
 _atom_site_occupancy
  Zn  Zn0  1  0.080737  0.919263  0.750000  1
  Ni  Ni1  1  0.920688  0.079312  0.250000  1
  Ag  Ag2  1  0.430210  0.569790  0.750000  1
  Ag  Ag3  1  0.351479  0.143534  0.017336  1
  Ag  Ag4  1  0.570922  0.429078  0.250000  1
  Ag  Ag5  1  0.142091  0.352658  0.520059  1
  Ag  Ag6  1  0.856466  0.648521  0.482664  1
  Ag  Ag7  1  0.647342  0.857909  0.979941  1
  Ag  Ag8  1  0.501491  0.000008  0.498813  1
  Ag  Ag9  1  0.999992  0.498509  0.001187  1
  Te  Te10  1  0.770633  0.229367  0.750000  1
  Te  Te11  1  0.229569  0.770431  0.250000  1
  O  O12  1  0.453197  0.723314  0.251440  1
  O  O13  1  0.722891  0.453966  0.748205  1
  O  O14  1  0.001487  0.837121  0.223003  1
  O  O15  1  0.546034  0.277109  0.751795  1
  O  O16  1  0.276686  0.546803  0.248560  1
  O  O17  1  0.867772  0.300744  0.314277  1
  O  O18  1  0.303607  0.867449  0.814529  1
  O  O19  1  0.699256  0.132228  0.185723  1
  O  O20  1  0.162879  0.998513  0.276997  1
  O  O21  1  0.835375  0.003355  0.716190  1
  O  O22  1  0.132551  0.696393  0.685471  1
  O  O23  1  0.996645  0.164625  0.783810  1
