# generated using pymatgen
data_ErTm3(TcB4)4
_symmetry_space_group_name_H-M   'P 1'
_cell_length_a   3.57538000
_cell_length_b   5.93691713
_cell_length_c   11.48353600
_cell_angle_alpha   89.98825416
_cell_angle_beta   90.00000000
_cell_angle_gamma   90.00000000
_symmetry_Int_Tables_number   1
_chemical_formula_structural   ErTm3(TcB4)4
_chemical_formula_sum   'Er1 Tm3 Tc4 B16'
_cell_volume   243.75796791
_cell_formula_units_Z   1
loop_
 _symmetry_equiv_pos_site_id
 _symmetry_equiv_pos_as_xyz
  1  'x, y, z'
loop_
 _atom_site_type_symbol
 _atom_site_label
 _atom_site_symmetry_multiplicity
 _atom_site_fract_x
 _atom_site_fract_y
 _atom_site_fract_z
 _atom_site_occupancy
  Er  Er0  1  0.500000  0.372785  0.150040  1
  Tm  Tm1  1  0.500000  0.627091  0.849943  1
  Tm  Tm2  1  0.500000  0.127283  0.649746  1
  Tm  Tm3  1  0.500000  0.872687  0.350350  1
  Tc  Tc4  1  0.500000  0.366058  0.412210  1
  Tc  Tc5  1  0.500000  0.634006  0.588172  1
  Tc  Tc6  1  0.500000  0.133576  0.911836  1
  Tc  Tc7  1  0.500000  0.866371  0.087793  1
  B  B8  1  0.000000  0.113682  0.047496  1
  B  B9  1  0.000000  0.885787  0.952022  1
  B  B10  1  0.000000  0.386028  0.547829  1
  B  B11  1  0.000000  0.614117  0.452441  1
  B  B12  1  0.000000  0.134975  0.468965  1
  B  B13  1  0.000000  0.865052  0.531266  1
  B  B14  1  0.000000  0.364917  0.968492  1
  B  B15  1  0.000000  0.635049  0.031048  1
  B  B16  1  0.000000  0.022538  0.193100  1
  B  B17  1  0.000000  0.977288  0.806740  1
  B  B18  1  0.000000  0.477149  0.693100  1
  B  B19  1  0.000000  0.523174  0.307236  1
  B  B20  1  0.000000  0.211510  0.314925  1
  B  B21  1  0.000000  0.788486  0.685312  1
  B  B22  1  0.000000  0.288394  0.814560  1
  B  B23  1  0.000000  0.711997  0.185374  1
