# generated using pymatgen
data_Zr10In5BiSe
_symmetry_space_group_name_H-M   'P 1'
_cell_length_a   5.91154711
_cell_length_b   8.65650138
_cell_length_c   8.66905600
_cell_angle_alpha   120.04685585
_cell_angle_beta   90.13783263
_cell_angle_gamma   89.93056916
_symmetry_Int_Tables_number   1
_chemical_formula_structural   Zr10In5BiSe
_chemical_formula_sum   'Zr10 In5 Bi1 Se1'
_cell_volume   384.00731238
_cell_formula_units_Z   1
loop_
 _symmetry_equiv_pos_site_id
 _symmetry_equiv_pos_as_xyz
  1  'x, y, z'
loop_
 _atom_site_type_symbol
 _atom_site_label
 _atom_site_symmetry_multiplicity
 _atom_site_fract_x
 _atom_site_fract_y
 _atom_site_fract_z
 _atom_site_occupancy
  Zr  Zr0  1  0.501997  0.336555  0.668229  1
  Zr  Zr1  1  0.502002  0.663448  0.331674  1
  Zr  Zr2  1  0.997375  0.662074  0.332179  1
  Zr  Zr3  1  0.997386  0.337930  0.670097  1
  Zr  Zr4  1  0.771054  0.251628  0.000868  1
  Zr  Zr5  1  0.771052  0.748356  0.749280  1
  Zr  Zr6  1  0.761612  0.000036  0.252544  1
  Zr  Zr7  1  0.231479  0.746697  0.994962  1
  Zr  Zr8  1  0.231479  0.253262  0.248270  1
  Zr  Zr9  1  0.231067  0.000024  0.750974  1
  In  In10  1  0.746449  0.607708  0.001255  1
  In  In11  1  0.746403  0.392292  0.393563  1
  In  In12  1  0.746742  0.999982  0.610033  1
  In  In13  1  0.255168  0.393509  0.998694  1
  In  In14  1  0.255175  0.606496  0.605176  1
  Bi  Bi15  1  0.252004  0.000009  0.392900  1
  Se  Se16  1  0.501554  0.999994  0.999305  1
