# generated using pymatgen
data_Tb3ZrAl18Ir5Pd
_symmetry_space_group_name_H-M   'P 1'
_cell_length_a   7.55228032
_cell_length_b   7.53931091
_cell_length_c   9.44488242
_cell_angle_alpha   89.95336021
_cell_angle_beta   90.00508986
_cell_angle_gamma   119.60108143
_symmetry_Int_Tables_number   1
_chemical_formula_structural   Tb3ZrAl18Ir5Pd
_chemical_formula_sum   'Tb3 Zr1 Al18 Ir5 Pd1'
_cell_volume   467.59357574
_cell_formula_units_Z   1
loop_
 _symmetry_equiv_pos_site_id
 _symmetry_equiv_pos_as_xyz
  1  'x, y, z'
loop_
 _atom_site_type_symbol
 _atom_site_label
 _atom_site_symmetry_multiplicity
 _atom_site_fract_x
 _atom_site_fract_y
 _atom_site_fract_z
 _atom_site_occupancy
  Tb  Tb0  1  0.005203  0.328372  0.749067  1
  Tb  Tb1  1  0.671030  0.995061  0.250675  1
  Tb  Tb2  1  0.329588  0.006155  0.749462  1
  Zr  Zr3  1  0.993618  0.670220  0.249853  1
  Al  Al4  1  0.126904  0.123550  0.250376  1
  Al  Al5  1  0.871114  0.868934  0.749872  1
  Al  Al6  1  0.004126  0.338538  0.079246  1
  Al  Al7  1  0.002776  0.668986  0.929168  1
  Al  Al8  1  0.000074  0.664600  0.568648  1
  Al  Al9  1  0.332403  0.997544  0.422562  1
  Al  Al10  1  0.000221  0.337738  0.422115  1
  Al  Al11  1  0.664980  0.998879  0.574283  1
  Al  Al12  1  0.664854  0.994842  0.924407  1
  Al  Al13  1  0.327870  0.994331  0.079867  1
  Al  Al14  1  0.333512  0.333301  0.549527  1
  Al  Al15  1  0.669372  0.667166  0.445805  1
  Al  Al16  1  0.668759  0.669453  0.058856  1
  Al  Al17  1  0.330885  0.334505  0.946187  1
  Al  Al18  1  0.336427  0.549318  0.250576  1
  Al  Al19  1  0.661282  0.454459  0.747285  1
  Al  Al20  1  0.553124  0.344729  0.252294  1
  Al  Al21  1  0.450837  0.659183  0.749603  1
  Ir  Ir22  1  0.328831  0.672448  0.001414  1
  Ir  Ir23  1  0.328763  0.672211  0.498707  1
  Ir  Ir24  1  0.672092  0.327946  0.499326  1
  Ir  Ir25  1  0.999301  0.000449  0.000732  1
  Ir  Ir26  1  0.999737  0.999456  0.499594  1
  Pd  Pd27  1  0.672317  0.327628  0.000493  1
