# generated using pymatgen
data_Sc4Al18ZnIr5
_symmetry_space_group_name_H-M   'P 1'
_cell_length_a   7.50686842
_cell_length_b   7.50686863
_cell_length_c   9.30370080
_cell_angle_alpha   90.11181510
_cell_angle_beta   90.11181341
_cell_angle_gamma   119.92112653
_symmetry_Int_Tables_number   1
_chemical_formula_structural   Sc4Al18ZnIr5
_chemical_formula_sum   'Sc4 Al18 Zn1 Ir5'
_cell_volume   454.40730780
_cell_formula_units_Z   1
loop_
 _symmetry_equiv_pos_site_id
 _symmetry_equiv_pos_as_xyz
  1  'x, y, z'
loop_
 _atom_site_type_symbol
 _atom_site_label
 _atom_site_symmetry_multiplicity
 _atom_site_fract_x
 _atom_site_fract_y
 _atom_site_fract_z
 _atom_site_occupancy
  Sc  Sc0  1  0.995732  0.671504  0.250692  1
  Sc  Sc1  1  0.004268  0.328496  0.749308  1
  Sc  Sc2  1  0.671504  0.995732  0.250692  1
  Sc  Sc3  1  0.328496  0.004268  0.749308  1
  Al  Al4  1  0.127910  0.127910  0.254045  1
  Al  Al5  1  0.872090  0.872090  0.745955  1
  Al  Al6  1  0.997928  0.342627  0.081737  1
  Al  Al7  1  0.002072  0.657373  0.918263  1
  Al  Al8  1  0.003406  0.666060  0.574202  1
  Al  Al9  1  0.333940  0.996594  0.425798  1
  Al  Al10  1  0.996594  0.333940  0.425798  1
  Al  Al11  1  0.666060  0.003406  0.574202  1
  Al  Al12  1  0.657373  0.002072  0.918263  1
  Al  Al13  1  0.342627  0.997928  0.081737  1
  Al  Al14  1  0.330925  0.330925  0.558861  1
  Al  Al15  1  0.669075  0.669075  0.441139  1
  Al  Al16  1  0.661975  0.661975  0.063491  1
  Al  Al17  1  0.338025  0.338025  0.936509  1
  Al  Al18  1  0.338288  0.552219  0.251078  1
  Al  Al19  1  0.661712  0.447781  0.748922  1
  Al  Al20  1  0.552219  0.338288  0.251078  1
  Al  Al21  1  0.447781  0.661712  0.748922  1
  Zn  Zn22  1  0.000000  0.000000  0.000000  1
  Ir  Ir23  1  0.671744  0.328256  0.000000  1
  Ir  Ir24  1  0.328256  0.671744  0.000000  1
  Ir  Ir25  1  0.328393  0.671607  0.500000  1
  Ir  Ir26  1  0.671607  0.328393  0.500000  1
  Ir  Ir27  1  0.000000  0.000000  0.500000  1
