# generated using pymatgen
data_BaLi2TiO4
_symmetry_space_group_name_H-M   'P 1'
_cell_length_a   5.36754400
_cell_length_b   5.36754310
_cell_length_c   13.33652900
_cell_angle_alpha   90.00000000
_cell_angle_beta   90.00000000
_cell_angle_gamma   119.99999321
_symmetry_Int_Tables_number   1
_chemical_formula_structural   BaLi2TiO4
_chemical_formula_sum   'Ba3 Li6 Ti3 O12'
_cell_volume   332.75502980
_cell_formula_units_Z   3
loop_
 _symmetry_equiv_pos_site_id
 _symmetry_equiv_pos_as_xyz
  1  'x, y, z'
loop_
 _atom_site_type_symbol
 _atom_site_label
 _atom_site_symmetry_multiplicity
 _atom_site_fract_x
 _atom_site_fract_y
 _atom_site_fract_z
 _atom_site_occupancy
  Ba  Ba0  1  0.408974  0.000000  0.833333  1
  Ba  Ba1  1  0.591026  0.591026  0.500000  1
  Ba  Ba2  1  0.000000  0.408974  0.166667  1
  Li  Li3  1  0.651026  0.584623  0.746431  1
  Li  Li4  1  0.933597  0.348974  0.413097  1
  Li  Li5  1  0.415377  0.066403  0.079764  1
  Li  Li6  1  0.348974  0.933597  0.586903  1
  Li  Li7  1  0.584623  0.651026  0.253569  1
  Li  Li8  1  0.066403  0.415377  0.920236  1
  Ti  Ti9  1  0.279789  0.000000  0.333333  1
  Ti  Ti10  1  0.720211  0.720211  0.000000  1
  Ti  Ti11  1  0.000000  0.279789  0.666667  1
  O  O12  1  0.545550  0.499575  0.111496  1
  O  O13  1  0.954026  0.454450  0.778163  1
  O  O14  1  0.500425  0.045974  0.444829  1
  O  O15  1  0.454450  0.954026  0.221837  1
  O  O16  1  0.499575  0.545550  0.888504  1
  O  O17  1  0.045974  0.500425  0.555171  1
  O  O18  1  0.083248  0.761059  0.000588  1
  O  O19  1  0.677811  0.916752  0.667254  1
  O  O20  1  0.238941  0.322189  0.333921  1
  O  O21  1  0.916752  0.677811  0.332746  1
  O  O22  1  0.761059  0.083248  0.999412  1
  O  O23  1  0.322189  0.238941  0.666079  1
