# generated using pymatgen
data_Ac2Ga10Ni
_symmetry_space_group_name_H-M   'P 1'
_cell_length_a   4.45634533
_cell_length_b   4.45634643
_cell_length_c   13.67807534
_cell_angle_alpha   99.37532967
_cell_angle_beta   99.37533191
_cell_angle_gamma   90.00000187
_symmetry_Int_Tables_number   1
_chemical_formula_structural   Ac2Ga10Ni
_chemical_formula_sum   'Ac2 Ga10 Ni1'
_cell_volume   264.32661233
_cell_formula_units_Z   1
loop_
 _symmetry_equiv_pos_site_id
 _symmetry_equiv_pos_as_xyz
  1  'x, y, z'
loop_
 _atom_site_type_symbol
 _atom_site_label
 _atom_site_symmetry_multiplicity
 _atom_site_fract_x
 _atom_site_fract_y
 _atom_site_fract_z
 _atom_site_occupancy
  Ac  Ac0  1  0.644344  0.644344  0.288688  1
  Ac  Ac1  1  0.355656  0.355656  0.711312  1
  Ga  Ga2  1  0.547906  0.047906  0.095812  1
  Ga  Ga3  1  0.047906  0.547906  0.095812  1
  Ga  Ga4  1  0.102540  0.102540  0.205081  1
  Ga  Ga5  1  0.197244  0.197244  0.394489  1
  Ga  Ga6  1  0.750000  0.250000  0.500000  1
  Ga  Ga7  1  0.250000  0.750000  0.500000  1
  Ga  Ga8  1  0.802756  0.802756  0.605511  1
  Ga  Ga9  1  0.897460  0.897460  0.794918  1
  Ga  Ga10  1  0.952094  0.452094  0.904187  1
  Ga  Ga11  1  0.452094  0.952094  0.904187  1
  Ni  Ni12  1  0.500000  0.500000  0.000000  1
