# generated using pymatgen
data_Hf8Ta12Si15Ge
_symmetry_space_group_name_H-M   'P 1'
_cell_length_a   6.66070703
_cell_length_b   6.84468401
_cell_length_c   13.06204900
_cell_angle_alpha   90.00000000
_cell_angle_beta   90.00000000
_cell_angle_gamma   90.00303564
_symmetry_Int_Tables_number   1
_chemical_formula_structural   Hf8Ta12Si15Ge
_chemical_formula_sum   'Hf8 Ta12 Si15 Ge1'
_cell_volume   595.50449401
_cell_formula_units_Z   1
loop_
 _symmetry_equiv_pos_site_id
 _symmetry_equiv_pos_as_xyz
  1  'x, y, z'
loop_
 _atom_site_type_symbol
 _atom_site_label
 _atom_site_symmetry_multiplicity
 _atom_site_fract_x
 _atom_site_fract_y
 _atom_site_fract_z
 _atom_site_occupancy
  Hf  Hf0  1  0.495734  0.673373  0.593849  1
  Hf  Hf1  1  0.995795  0.826469  0.906669  1
  Hf  Hf2  1  0.502220  0.326978  0.092399  1
  Hf  Hf3  1  0.006996  0.170257  0.409043  1
  Hf  Hf4  1  0.502220  0.326978  0.407601  1
  Hf  Hf5  1  0.006996  0.170257  0.090957  1
  Hf  Hf6  1  0.495734  0.673373  0.906151  1
  Hf  Hf7  1  0.995795  0.826469  0.593331  1
  Ta  Ta8  1  0.662192  0.170916  0.623636  1
  Ta  Ta9  1  0.162126  0.329556  0.876364  1
  Ta  Ta10  1  0.336848  0.830128  0.123249  1
  Ta  Ta11  1  0.838249  0.673026  0.377180  1
  Ta  Ta12  1  0.336848  0.830128  0.376751  1
  Ta  Ta13  1  0.838249  0.673026  0.122820  1
  Ta  Ta14  1  0.662192  0.170916  0.876364  1
  Ta  Ta15  1  0.162126  0.329556  0.623636  1
  Ta  Ta16  1  0.837110  0.497908  0.750000  1
  Ta  Ta17  1  0.337145  0.002777  0.750000  1
  Ta  Ta18  1  0.165602  0.503891  0.250000  1
  Ta  Ta19  1  0.660948  0.993714  0.250000  1
  Si  Si20  1  0.672131  0.963660  0.461674  1
  Si  Si21  1  0.172321  0.537019  0.038608  1
  Si  Si22  1  0.327327  0.036647  0.960708  1
  Si  Si23  1  0.826841  0.463282  0.538658  1
  Si  Si24  1  0.327327  0.036647  0.539292  1
  Si  Si25  1  0.826841  0.463282  0.961342  1
  Si  Si26  1  0.672131  0.963660  0.038326  1
  Si  Si27  1  0.172321  0.537019  0.461392  1
  Si  Si28  1  0.461373  0.387991  0.750000  1
  Si  Si29  1  0.961237  0.112750  0.750000  1
  Si  Si30  1  0.537885  0.614502  0.250000  1
  Si  Si31  1  0.038438  0.887965  0.250000  1
  Si  Si32  1  0.703250  0.860893  0.750000  1
  Si  Si33  1  0.202684  0.639501  0.750000  1
  Si  Si34  1  0.296906  0.140117  0.250000  1
  Ge  Ge35  1  0.799859  0.355364  0.250000  1
