# generated using pymatgen
data_Ca5Sc(Si3Ru)8
_symmetry_space_group_name_H-M   'P 1'
_cell_length_a   10.15232468
_cell_length_b   10.15232382
_cell_length_c   8.15864961
_cell_angle_alpha   90.01691236
_cell_angle_beta   90.01692145
_cell_angle_gamma   132.58915837
_symmetry_Int_Tables_number   1
_chemical_formula_structural   Ca5Sc(Si3Ru)8
_chemical_formula_sum   'Ca5 Sc1 Si24 Ru8'
_cell_volume   619.09853514
_cell_formula_units_Z   1
loop_
 _symmetry_equiv_pos_site_id
 _symmetry_equiv_pos_as_xyz
  1  'x, y, z'
loop_
 _atom_site_type_symbol
 _atom_site_label
 _atom_site_symmetry_multiplicity
 _atom_site_fract_x
 _atom_site_fract_y
 _atom_site_fract_z
 _atom_site_occupancy
  Ca  Ca0  1  0.498336  0.998267  0.250075  1
  Ca  Ca1  1  0.001733  0.501664  0.749925  1
  Ca  Ca2  1  0.501664  0.001733  0.749925  1
  Ca  Ca3  1  0.998267  0.498336  0.250075  1
  Ca  Ca4  1  0.000000  0.000000  0.000000  1
  Sc  Sc5  1  0.500000  0.500000  0.500000  1
  Si  Si6  1  0.386531  0.153937  0.006644  1
  Si  Si7  1  0.654654  0.886744  0.493783  1
  Si  Si8  1  0.113256  0.345346  0.506217  1
  Si  Si9  1  0.846063  0.613469  0.993356  1
  Si  Si10  1  0.613469  0.846063  0.993356  1
  Si  Si11  1  0.345346  0.113256  0.506217  1
  Si  Si12  1  0.886744  0.654654  0.493783  1
  Si  Si13  1  0.153937  0.386531  0.006644  1
  Si  Si14  1  0.608625  0.377283  0.230073  1
  Si  Si15  1  0.876964  0.109665  0.270709  1
  Si  Si16  1  0.890335  0.123036  0.729291  1
  Si  Si17  1  0.622717  0.391375  0.769927  1
  Si  Si18  1  0.391375  0.622717  0.769927  1
  Si  Si19  1  0.123036  0.890335  0.729291  1
  Si  Si20  1  0.705720  0.294280  0.000000  1
  Si  Si21  1  0.793967  0.206033  0.500000  1
  Si  Si22  1  0.294280  0.705720  0.000000  1
  Si  Si23  1  0.206033  0.793967  0.500000  1
  Si  Si24  1  0.167091  0.167091  0.332595  1
  Si  Si25  1  0.666813  0.666813  0.167452  1
  Si  Si26  1  0.333187  0.333187  0.832548  1
  Si  Si27  1  0.832909  0.832909  0.667405  1
  Si  Si28  1  0.377283  0.608625  0.230073  1
  Si  Si29  1  0.109665  0.876964  0.270709  1
  Ru  Ru30  1  0.624240  0.624240  0.871577  1
  Ru  Ru31  1  0.129331  0.129331  0.623295  1
  Ru  Ru32  1  0.870669  0.870669  0.376705  1
  Ru  Ru33  1  0.375760  0.375760  0.128423  1
  Ru  Ru34  1  0.333185  0.666815  0.500000  1
  Ru  Ru35  1  0.168872  0.831128  0.000000  1
  Ru  Ru36  1  0.666815  0.333185  0.500000  1
  Ru  Ru37  1  0.831128  0.168872  0.000000  1
