# generated using pymatgen
data_CeNdInRh2
_symmetry_space_group_name_H-M   'P 1'
_cell_length_a   7.71794151
_cell_length_b   7.71794151
_cell_length_c   3.77650300
_cell_angle_alpha   90.00000000
_cell_angle_beta   90.00000000
_cell_angle_gamma   92.99248232
_symmetry_Int_Tables_number   1
_chemical_formula_structural   CeNdInRh2
_chemical_formula_sum   'Ce2 Nd2 In2 Rh4'
_cell_volume   224.64677519
_cell_formula_units_Z   2
loop_
 _symmetry_equiv_pos_site_id
 _symmetry_equiv_pos_as_xyz
  1  'x, y, z'
loop_
 _atom_site_type_symbol
 _atom_site_label
 _atom_site_symmetry_multiplicity
 _atom_site_fract_x
 _atom_site_fract_y
 _atom_site_fract_z
 _atom_site_occupancy
  Ce  Ce0  1  0.669617  0.169617  0.500000  1
  Ce  Ce1  1  0.330383  0.830383  0.500000  1
  Nd  Nd2  1  0.830016  0.669984  0.500000  1
  Nd  Nd3  1  0.169984  0.330016  0.500000  1
  In  In4  1  0.500000  0.500000  0.000000  1
  In  In5  1  0.000000  0.000000  0.000000  1
  Rh  Rh6  1  0.373277  0.126723  0.000000  1
  Rh  Rh7  1  0.146983  0.646983  0.000000  1
  Rh  Rh8  1  0.853017  0.353017  0.000000  1
  Rh  Rh9  1  0.626723  0.873277  0.000000  1
