# generated using pymatgen
data_Ti14V5Si16Mo
_symmetry_space_group_name_H-M   'P 1'
_cell_length_a   6.59492527
_cell_length_b   6.59604332
_cell_length_c   12.10741054
_cell_angle_alpha   90.16473312
_cell_angle_beta   90.11906650
_cell_angle_gamma   89.99723836
_symmetry_Int_Tables_number   1
_chemical_formula_structural   Ti14V5Si16Mo
_chemical_formula_sum   'Ti14 V5 Si16 Mo1'
_cell_volume   526.67404098
_cell_formula_units_Z   1
loop_
 _symmetry_equiv_pos_site_id
 _symmetry_equiv_pos_as_xyz
  1  'x, y, z'
loop_
 _atom_site_type_symbol
 _atom_site_label
 _atom_site_symmetry_multiplicity
 _atom_site_fract_x
 _atom_site_fract_y
 _atom_site_fract_z
 _atom_site_occupancy
  Ti  Ti0  1  0.004677  0.846334  0.120630  1
  Ti  Ti1  1  0.153878  0.997317  0.378105  1
  Ti  Ti2  1  0.846779  0.003552  0.879585  1
  Ti  Ti3  1  0.005679  0.342199  0.221110  1
  Ti  Ti4  1  0.158058  0.501963  0.471048  1
  Ti  Ti5  1  0.841271  0.497600  0.969899  1
  Ti  Ti6  1  0.501124  0.158869  0.529856  1
  Ti  Ti7  1  0.499289  0.841121  0.029064  1
  Ti  Ti8  1  0.997661  0.658894  0.720435  1
  Ti  Ti9  1  0.342615  0.005177  0.778256  1
  Ti  Ti10  1  0.658965  0.997196  0.280458  1
  Ti  Ti11  1  0.332709  0.666763  0.249501  1
  Ti  Ti12  1  0.665835  0.331093  0.749635  1
  Ti  Ti13  1  0.830260  0.830033  0.500866  1
  V  V14  1  0.992754  0.153806  0.622444  1
  V  V15  1  0.348286  0.493381  0.869985  1
  V  V16  1  0.653528  0.504954  0.373105  1
  V  V17  1  0.495118  0.349466  0.128597  1
  V  V18  1  0.504689  0.651519  0.627914  1
  Si  Si19  1  0.045197  0.300683  0.811747  1
  Si  Si20  1  0.204747  0.540036  0.061798  1
  Si  Si21  1  0.797064  0.456379  0.563592  1
  Si  Si22  1  0.540509  0.204537  0.937663  1
  Si  Si23  1  0.457382  0.795351  0.438129  1
  Si  Si24  1  0.954304  0.697849  0.314339  1
  Si  Si25  1  0.303337  0.046655  0.186255  1
  Si  Si26  1  0.700330  0.954908  0.685724  1
  Si  Si27  1  0.291229  0.364611  0.671434  1
  Si  Si28  1  0.142150  0.788591  0.920029  1
  Si  Si29  1  0.859824  0.209295  0.424111  1
  Si  Si30  1  0.788851  0.141276  0.079884  1
  Si  Si31  1  0.207857  0.864614  0.578714  1
  Si  Si32  1  0.704789  0.634112  0.174440  1
  Si  Si33  1  0.366964  0.296402  0.327031  1
  Si  Si34  1  0.633409  0.704759  0.825264  1
  Mo  Mo35  1  0.168882  0.168703  0.999355  1
