# generated using pymatgen
data_Nd3Sm5(BeSi3)4
_symmetry_space_group_name_H-M   'P 1'
_cell_length_a   7.91808600
_cell_length_b   7.91685797
_cell_length_c   8.47403700
_cell_angle_alpha   90.00000000
_cell_angle_beta   90.00000000
_cell_angle_gamma   120.00513970
_symmetry_Int_Tables_number   1
_chemical_formula_structural   Nd3Sm5(BeSi3)4
_chemical_formula_sum   'Nd3 Sm5 Be4 Si12'
_cell_volume   460.01454178
_cell_formula_units_Z   1
loop_
 _symmetry_equiv_pos_site_id
 _symmetry_equiv_pos_as_xyz
  1  'x, y, z'
loop_
 _atom_site_type_symbol
 _atom_site_label
 _atom_site_symmetry_multiplicity
 _atom_site_fract_x
 _atom_site_fract_y
 _atom_site_fract_z
 _atom_site_occupancy
  Nd  Nd0  1  0.500422  0.000845  0.250000  1
  Nd  Nd1  1  0.999998  0.999994  0.750000  1
  Nd  Nd2  1  0.000007  0.000015  0.250000  1
  Sm  Sm3  1  0.499587  0.500459  0.750000  1
  Sm  Sm4  1  0.500409  0.499620  0.250000  1
  Sm  Sm5  1  0.000872  0.500459  0.750000  1
  Sm  Sm6  1  0.999213  0.499621  0.250000  1
  Sm  Sm7  1  0.499559  0.999117  0.750000  1
  Be  Be8  1  0.666806  0.333612  0.996758  1
  Be  Be9  1  0.333171  0.666343  0.000142  1
  Be  Be10  1  0.333171  0.666343  0.499858  1
  Be  Be11  1  0.666806  0.333612  0.503242  1
  Si  Si12  1  0.827714  0.173120  0.998415  1
  Si  Si13  1  0.172303  0.826883  0.999596  1
  Si  Si14  1  0.345405  0.173120  0.998415  1
  Si  Si15  1  0.172303  0.826883  0.500404  1
  Si  Si16  1  0.654580  0.826883  0.999596  1
  Si  Si17  1  0.827714  0.173120  0.501585  1
  Si  Si18  1  0.827183  0.654366  0.999230  1
  Si  Si19  1  0.654580  0.826883  0.500404  1
  Si  Si20  1  0.172804  0.345607  0.000391  1
  Si  Si21  1  0.345405  0.173120  0.501585  1
  Si  Si22  1  0.172804  0.345607  0.499609  1
  Si  Si23  1  0.827183  0.654366  0.500770  1
