# generated using pymatgen
data_Tc(B2Os)3
_symmetry_space_group_name_H-M   'P 1'
_cell_length_a   2.92262100
_cell_length_b   2.92262122
_cell_length_c   13.07187000
_cell_angle_alpha   90.00000000
_cell_angle_beta   90.00000000
_cell_angle_gamma   120.00000880
_symmetry_Int_Tables_number   1
_chemical_formula_structural   Tc(B2Os)3
_chemical_formula_sum   'Tc1 B6 Os3'
_cell_volume   96.69707727
_cell_formula_units_Z   1
loop_
 _symmetry_equiv_pos_site_id
 _symmetry_equiv_pos_as_xyz
  1  'x, y, z'
loop_
 _atom_site_type_symbol
 _atom_site_label
 _atom_site_symmetry_multiplicity
 _atom_site_fract_x
 _atom_site_fract_y
 _atom_site_fract_z
 _atom_site_occupancy
  Tc  Tc0  1  0.333333  0.666667  0.360719  1
  B  B1  1  0.333333  0.666667  0.528388  1
  B  B2  1  0.666667  0.333333  0.471140  1
  B  B3  1  0.666667  0.333333  0.029683  1
  B  B4  1  0.333333  0.666667  0.970102  1
  B  B5  1  0.333333  0.666667  0.750297  1
  B  B6  1  0.666667  0.333333  0.249036  1
  Os  Os7  1  0.666667  0.333333  0.641199  1
  Os  Os8  1  0.666667  0.333333  0.860281  1
  Os  Os9  1  0.333333  0.666667  0.139154  1
