# generated using pymatgen
data_Th4Tc5Os3
_symmetry_space_group_name_H-M   'P 1'
_cell_length_a   5.49335868
_cell_length_b   5.49335854
_cell_length_c   9.44849800
_cell_angle_alpha   90.00000000
_cell_angle_beta   90.00000000
_cell_angle_gamma   124.86731609
_symmetry_Int_Tables_number   1
_chemical_formula_structural   Th4Tc5Os3
_chemical_formula_sum   'Th4 Tc5 Os3'
_cell_volume   233.94064373
_cell_formula_units_Z   1
loop_
 _symmetry_equiv_pos_site_id
 _symmetry_equiv_pos_as_xyz
  1  'x, y, z'
loop_
 _atom_site_type_symbol
 _atom_site_label
 _atom_site_symmetry_multiplicity
 _atom_site_fract_x
 _atom_site_fract_y
 _atom_site_fract_z
 _atom_site_occupancy
  Th  Th0  1  0.334975  0.665025  0.433217  1
  Th  Th1  1  0.664095  0.335905  0.565226  1
  Th  Th2  1  0.664095  0.335905  0.934774  1
  Th  Th3  1  0.334975  0.665025  0.066783  1
  Tc  Tc4  1  0.829828  0.661731  0.250000  1
  Tc  Tc5  1  0.338269  0.170172  0.250000  1
  Tc  Tc6  1  0.173646  0.826354  0.750000  1
  Tc  Tc7  1  0.170066  0.336159  0.750000  1
  Tc  Tc8  1  0.663841  0.829934  0.750000  1
  Os  Os9  1  0.998603  0.001397  0.498687  1
  Os  Os10  1  0.998603  0.001397  0.001313  1
  Os  Os11  1  0.829004  0.170996  0.250000  1
