# generated using pymatgen
data_YCu3PdPt
_symmetry_space_group_name_H-M   'P 1'
_cell_length_a   5.03896610
_cell_length_b   5.03896504
_cell_length_c   5.19230028
_cell_angle_alpha   60.97217230
_cell_angle_beta   60.97218271
_cell_angle_gamma   59.99999899
_symmetry_Int_Tables_number   1
_chemical_formula_structural   YCu3PdPt
_chemical_formula_sum   'Y1 Cu3 Pd1 Pt1'
_cell_volume   94.57043797
_cell_formula_units_Z   1
loop_
 _symmetry_equiv_pos_site_id
 _symmetry_equiv_pos_as_xyz
  1  'x, y, z'
loop_
 _atom_site_type_symbol
 _atom_site_label
 _atom_site_symmetry_multiplicity
 _atom_site_fract_x
 _atom_site_fract_y
 _atom_site_fract_z
 _atom_site_occupancy
  Y  Y0  1  0.999154  0.999154  0.002540  1
  Cu  Cu1  1  0.627610  0.130771  0.614011  1
  Cu  Cu2  1  0.130771  0.627610  0.614011  1
  Cu  Cu3  1  0.627610  0.627610  0.614011  1
  Pd  Pd4  1  0.236535  0.236535  0.290394  1
  Pt  Pt5  1  0.628323  0.628323  0.115034  1
