# generated using pymatgen
data_YbDy5In3
_symmetry_space_group_name_H-M   'P 1'
_cell_length_a   9.33702100
_cell_length_b   9.33702142
_cell_length_c   6.76136900
_cell_angle_alpha   90.00000000
_cell_angle_beta   90.00000000
_cell_angle_gamma   120.00000914
_symmetry_Int_Tables_number   1
_chemical_formula_structural   YbDy5In3
_chemical_formula_sum   'Yb2 Dy10 In6'
_cell_volume   510.48374826
_cell_formula_units_Z   2
loop_
 _symmetry_equiv_pos_site_id
 _symmetry_equiv_pos_as_xyz
  1  'x, y, z'
loop_
 _atom_site_type_symbol
 _atom_site_label
 _atom_site_symmetry_multiplicity
 _atom_site_fract_x
 _atom_site_fract_y
 _atom_site_fract_z
 _atom_site_occupancy
  Yb  Yb0  1  0.000000  0.000000  0.500000  1
  Yb  Yb1  1  0.000000  0.000000  0.000000  1
  Dy  Dy2  1  0.666774  0.666774  0.250000  1
  Dy  Dy3  1  0.000000  0.666774  0.750000  1
  Dy  Dy4  1  0.666774  0.000000  0.750000  1
  Dy  Dy5  1  0.333333  0.666667  0.500000  1
  Dy  Dy6  1  0.333226  0.333226  0.750000  1
  Dy  Dy7  1  0.000000  0.333226  0.250000  1
  Dy  Dy8  1  0.666667  0.333333  0.500000  1
  Dy  Dy9  1  0.333226  0.000000  0.250000  1
  Dy  Dy10  1  0.333333  0.666667  0.000000  1
  Dy  Dy11  1  0.666667  0.333333  0.000000  1
  In  In12  1  0.334415  0.000000  0.750000  1
  In  In13  1  0.000000  0.665585  0.250000  1
  In  In14  1  0.665585  0.000000  0.250000  1
  In  In15  1  0.000000  0.334415  0.750000  1
  In  In16  1  0.334415  0.334415  0.250000  1
  In  In17  1  0.665585  0.665585  0.750000  1
