# generated using pymatgen
data_Sm3Ho(Lu4Bi3)4
_symmetry_space_group_name_H-M   'P 1'
_cell_length_a   8.22539373
_cell_length_b   9.39906400
_cell_length_c   11.94037100
_cell_angle_alpha   90.00000000
_cell_angle_beta   89.95330182
_cell_angle_gamma   90.00000000
_symmetry_Int_Tables_number   1
_chemical_formula_structural   Sm3Ho(Lu4Bi3)4
_chemical_formula_sum   'Sm3 Ho1 Lu16 Bi12'
_cell_volume   923.12174099
_cell_formula_units_Z   1
loop_
 _symmetry_equiv_pos_site_id
 _symmetry_equiv_pos_as_xyz
  1  'x, y, z'
loop_
 _atom_site_type_symbol
 _atom_site_label
 _atom_site_symmetry_multiplicity
 _atom_site_fract_x
 _atom_site_fract_y
 _atom_site_fract_z
 _atom_site_occupancy
  Sm  Sm0  1  0.315526  0.250000  0.218075  1
  Sm  Sm1  1  0.815383  0.250000  0.281751  1
  Sm  Sm2  1  0.685075  0.750000  0.782155  1
  Ho  Ho3  1  0.185571  0.750000  0.717192  1
  Lu  Lu4  1  0.352368  0.750000  0.219010  1
  Lu  Lu5  1  0.853248  0.750000  0.281493  1
  Lu  Lu6  1  0.646756  0.250000  0.780455  1
  Lu  Lu7  1  0.146986  0.250000  0.719184  1
  Lu  Lu8  1  0.690973  0.567780  0.060993  1
  Lu  Lu9  1  0.192086  0.932247  0.439204  1
  Lu  Lu10  1  0.308649  0.067647  0.938591  1
  Lu  Lu11  1  0.807896  0.432307  0.561202  1
  Lu  Lu12  1  0.308649  0.432353  0.938591  1
  Lu  Lu13  1  0.807896  0.067693  0.561202  1
  Lu  Lu14  1  0.690973  0.932220  0.060993  1
  Lu  Lu15  1  0.192086  0.567753  0.439204  1
  Lu  Lu16  1  0.477676  0.250000  0.490104  1
  Lu  Lu17  1  0.978394  0.250000  0.010138  1
  Lu  Lu18  1  0.522217  0.750000  0.511361  1
  Lu  Lu19  1  0.021742  0.750000  0.989032  1
  Bi  Bi20  1  0.399657  0.750000  0.961388  1
  Bi  Bi21  1  0.904153  0.750000  0.539672  1
  Bi  Bi22  1  0.598986  0.250000  0.037188  1
  Bi  Bi23  1  0.098205  0.250000  0.462490  1
  Bi  Bi24  1  0.565753  0.991509  0.327810  1
  Bi  Bi25  1  0.065361  0.508037  0.172703  1
  Bi  Bi26  1  0.431299  0.493493  0.672981  1
  Bi  Bi27  1  0.937011  0.006447  0.826170  1
  Bi  Bi28  1  0.431299  0.006507  0.672981  1
  Bi  Bi29  1  0.937011  0.493553  0.826170  1
  Bi  Bi30  1  0.565753  0.508491  0.327810  1
  Bi  Bi31  1  0.065361  0.991963  0.172703  1
