# generated using pymatgen
data_Hf9Nb(Sn3P)2
_symmetry_space_group_name_H-M   'P 1'
_cell_length_a   8.52008900
_cell_length_b   8.52008917
_cell_length_c   5.85173600
_cell_angle_alpha   90.00000000
_cell_angle_beta   90.00000000
_cell_angle_gamma   119.99999546
_symmetry_Int_Tables_number   1
_chemical_formula_structural   Hf9Nb(Sn3P)2
_chemical_formula_sum   'Hf9 Nb1 Sn6 P2'
_cell_volume   367.87785682
_cell_formula_units_Z   1
loop_
 _symmetry_equiv_pos_site_id
 _symmetry_equiv_pos_as_xyz
  1  'x, y, z'
loop_
 _atom_site_type_symbol
 _atom_site_label
 _atom_site_symmetry_multiplicity
 _atom_site_fract_x
 _atom_site_fract_y
 _atom_site_fract_z
 _atom_site_occupancy
  Hf  Hf0  1  0.666667  0.333333  0.500000  1
  Hf  Hf1  1  0.666667  0.333333  0.000000  1
  Hf  Hf2  1  0.333333  0.666667  0.500000  1
  Hf  Hf3  1  0.252230  0.999617  0.249786  1
  Hf  Hf4  1  0.252230  0.252613  0.750214  1
  Hf  Hf5  1  0.000383  0.747770  0.750214  1
  Hf  Hf6  1  0.000383  0.252613  0.249786  1
  Hf  Hf7  1  0.747387  0.747770  0.249786  1
  Hf  Hf8  1  0.747387  0.999617  0.750214  1
  Nb  Nb9  1  0.333333  0.666667  0.000000  1
  Sn  Sn10  1  0.599898  0.998208  0.248267  1
  Sn  Sn11  1  0.599898  0.601690  0.751733  1
  Sn  Sn12  1  0.001792  0.400102  0.751733  1
  Sn  Sn13  1  0.001792  0.601690  0.248267  1
  Sn  Sn14  1  0.398310  0.400102  0.248267  1
  Sn  Sn15  1  0.398310  0.998208  0.751733  1
  P  P16  1  0.000000  0.000000  0.000000  1
  P  P17  1  0.000000  0.000000  0.500000  1
