# generated using pymatgen
data_Tb3YbPdPt3O14
_symmetry_space_group_name_H-M   'P 1'
_cell_length_a   7.27151053
_cell_length_b   7.27005091
_cell_length_c   7.27151000
_cell_angle_alpha   59.99336073
_cell_angle_beta   60.00000243
_cell_angle_gamma   59.99336255
_symmetry_Int_Tables_number   1
_chemical_formula_structural   Tb3YbPdPt3O14
_chemical_formula_sum   'Tb3 Yb1 Pd1 Pt3 O14'
_cell_volume   271.78665078
_cell_formula_units_Z   1
loop_
 _symmetry_equiv_pos_site_id
 _symmetry_equiv_pos_as_xyz
  1  'x, y, z'
loop_
 _atom_site_type_symbol
 _atom_site_label
 _atom_site_symmetry_multiplicity
 _atom_site_fract_x
 _atom_site_fract_y
 _atom_site_fract_z
 _atom_site_occupancy
  Tb  Tb0  1  0.625000  0.625000  0.125000  1
  Tb  Tb1  1  0.625000  0.625000  0.625000  1
  Tb  Tb2  1  0.125000  0.625000  0.625000  1
  Yb  Yb3  1  0.625000  0.125000  0.625000  1
  Pd  Pd4  1  0.125000  0.625000  0.125000  1
  Pt  Pt5  1  0.125000  0.125000  0.125000  1
  Pt  Pt6  1  0.625000  0.125000  0.125000  1
  Pt  Pt7  1  0.125000  0.125000  0.625000  1
  O  O8  1  0.036163  0.463493  0.464179  1
  O  O9  1  0.785821  0.786507  0.213837  1
  O  O10  1  0.789046  0.215044  0.206865  1
  O  O11  1  0.460954  0.034956  0.460954  1
  O  O12  1  0.036163  0.463493  0.036163  1
  O  O13  1  0.751322  0.746036  0.751322  1
  O  O14  1  0.043135  0.034956  0.460954  1
  O  O15  1  0.213837  0.786507  0.213837  1
  O  O16  1  0.206865  0.215044  0.789046  1
  O  O17  1  0.498678  0.503964  0.498678  1
  O  O18  1  0.789046  0.215044  0.789046  1
  O  O19  1  0.460954  0.034956  0.043135  1
  O  O20  1  0.464179  0.463493  0.036163  1
  O  O21  1  0.213837  0.786507  0.785821  1
