# generated using pymatgen
data_BaTh(AgPb)2
_symmetry_space_group_name_H-M   'P 1'
_cell_length_a   5.01565800
_cell_length_b   5.01565779
_cell_length_c   8.47531600
_cell_angle_alpha   90.00000000
_cell_angle_beta   90.00000000
_cell_angle_gamma   120.00000140
_symmetry_Int_Tables_number   1
_chemical_formula_structural   BaTh(AgPb)2
_chemical_formula_sum   'Ba1 Th1 Ag2 Pb2'
_cell_volume   184.64703514
_cell_formula_units_Z   1
loop_
 _symmetry_equiv_pos_site_id
 _symmetry_equiv_pos_as_xyz
  1  'x, y, z'
loop_
 _atom_site_type_symbol
 _atom_site_label
 _atom_site_symmetry_multiplicity
 _atom_site_fract_x
 _atom_site_fract_y
 _atom_site_fract_z
 _atom_site_occupancy
  Ba  Ba0  1  0.000000  0.000000  0.015150  1
  Th  Th1  1  0.000000  0.000000  0.515154  1
  Ag  Ag2  1  0.666667  0.333333  0.338595  1
  Ag  Ag3  1  0.333333  0.666667  0.691971  1
  Pb  Pb4  1  0.333333  0.666667  0.297278  1
  Pb  Pb5  1  0.666667  0.333333  0.732251  1
