# generated using pymatgen
data_NdSm2Er17Bi12
_symmetry_space_group_name_H-M   'P 1'
_cell_length_a   8.24511813
_cell_length_b   9.48799700
_cell_length_c   12.01339700
_cell_angle_alpha   90.00000000
_cell_angle_beta   90.01036104
_cell_angle_gamma   90.00000000
_symmetry_Int_Tables_number   1
_chemical_formula_structural   NdSm2Er17Bi12
_chemical_formula_sum   'Nd1 Sm2 Er17 Bi12'
_cell_volume   939.80390087
_cell_formula_units_Z   1
loop_
 _symmetry_equiv_pos_site_id
 _symmetry_equiv_pos_as_xyz
  1  'x, y, z'
loop_
 _atom_site_type_symbol
 _atom_site_label
 _atom_site_symmetry_multiplicity
 _atom_site_fract_x
 _atom_site_fract_y
 _atom_site_fract_z
 _atom_site_occupancy
  Nd  Nd0  1  0.816195  0.250000  0.280602  1
  Sm  Sm1  1  0.684364  0.750000  0.780885  1
  Sm  Sm2  1  0.183858  0.750000  0.719006  1
  Er  Er3  1  0.352716  0.750000  0.217598  1
  Er  Er4  1  0.853471  0.750000  0.281601  1
  Er  Er5  1  0.646746  0.250000  0.782685  1
  Er  Er6  1  0.147477  0.250000  0.717931  1
  Er  Er7  1  0.692458  0.564668  0.060201  1
  Er  Er8  1  0.190771  0.934946  0.439402  1
  Er  Er9  1  0.307991  0.064601  0.939867  1
  Er  Er10  1  0.809288  0.434719  0.560411  1
  Er  Er11  1  0.307991  0.435399  0.939867  1
  Er  Er12  1  0.809288  0.065281  0.560411  1
  Er  Er13  1  0.692458  0.935332  0.060201  1
  Er  Er14  1  0.190771  0.565054  0.439402  1
  Er  Er15  1  0.477433  0.250000  0.488145  1
  Er  Er16  1  0.977034  0.250000  0.012769  1
  Er  Er17  1  0.522139  0.750000  0.511413  1
  Er  Er18  1  0.023724  0.750000  0.988654  1
  Er  Er19  1  0.314125  0.250000  0.217530  1
  Bi  Bi20  1  0.404912  0.750000  0.961331  1
  Bi  Bi21  1  0.903357  0.750000  0.538550  1
  Bi  Bi22  1  0.592302  0.250000  0.040236  1
  Bi  Bi23  1  0.098973  0.250000  0.461068  1
  Bi  Bi24  1  0.562802  0.993433  0.326699  1
  Bi  Bi25  1  0.070161  0.506444  0.172700  1
  Bi  Bi26  1  0.433805  0.492809  0.672599  1
  Bi  Bi27  1  0.933310  0.007487  0.828114  1
  Bi  Bi28  1  0.433805  0.007191  0.672599  1
  Bi  Bi29  1  0.933310  0.492513  0.828114  1
  Bi  Bi30  1  0.562802  0.506567  0.326699  1
  Bi  Bi31  1  0.070161  0.993556  0.172700  1
