# generated using pymatgen
data_NaFe3NiSb12
_symmetry_space_group_name_H-M   'P 1'
_cell_length_a   7.96021395
_cell_length_b   7.97694942
_cell_length_c   7.96021420
_cell_angle_alpha   109.51380886
_cell_angle_beta   109.42858957
_cell_angle_gamma   109.51381071
_symmetry_Int_Tables_number   1
_chemical_formula_structural   NaFe3NiSb12
_chemical_formula_sum   'Na1 Fe3 Ni1 Sb12'
_cell_volume   388.89821454
_cell_formula_units_Z   1
loop_
 _symmetry_equiv_pos_site_id
 _symmetry_equiv_pos_as_xyz
  1  'x, y, z'
loop_
 _atom_site_type_symbol
 _atom_site_label
 _atom_site_symmetry_multiplicity
 _atom_site_fract_x
 _atom_site_fract_y
 _atom_site_fract_z
 _atom_site_occupancy
  Na  Na0  1  0.000000  0.000000  0.000000  1
  Fe  Fe1  1  0.000000  0.000000  0.500000  1
  Fe  Fe2  1  0.500000  0.500000  0.500000  1
  Fe  Fe3  1  0.500000  0.000000  0.000000  1
  Ni  Ni4  1  0.000000  0.500000  0.000000  1
  Sb  Sb5  1  0.665647  0.828576  0.161280  1
  Sb  Sb6  1  0.837674  0.334202  0.177977  1
  Sb  Sb7  1  0.504367  0.837071  0.665647  1
  Sb  Sb8  1  0.838720  0.667296  0.504367  1
  Sb  Sb9  1  0.495633  0.162929  0.334353  1
  Sb  Sb10  1  0.162326  0.665798  0.822023  1
  Sb  Sb11  1  0.822023  0.156225  0.659697  1
  Sb  Sb12  1  0.177977  0.843775  0.340303  1
  Sb  Sb13  1  0.161280  0.332704  0.495633  1
  Sb  Sb14  1  0.659697  0.503472  0.837674  1
  Sb  Sb15  1  0.340303  0.496528  0.162326  1
  Sb  Sb16  1  0.334353  0.171424  0.838720  1
