# generated using pymatgen
data_Zr8Ta12Si15Rh
_symmetry_space_group_name_H-M   'P 1'
_cell_length_a   6.92043421
_cell_length_b   6.89433679
_cell_length_c   12.72916425
_cell_angle_alpha   89.88626019
_cell_angle_beta   89.79727665
_cell_angle_gamma   89.96055728
_symmetry_Int_Tables_number   1
_chemical_formula_structural   Zr8Ta12Si15Rh
_chemical_formula_sum   'Zr8 Ta12 Si15 Rh1'
_cell_volume   607.32625274
_cell_formula_units_Z   1
loop_
 _symmetry_equiv_pos_site_id
 _symmetry_equiv_pos_as_xyz
  1  'x, y, z'
loop_
 _atom_site_type_symbol
 _atom_site_label
 _atom_site_symmetry_multiplicity
 _atom_site_fract_x
 _atom_site_fract_y
 _atom_site_fract_z
 _atom_site_occupancy
  Zr  Zr0  1  0.999858  0.661296  0.029915  1
  Zr  Zr1  1  0.995139  0.331836  0.530753  1
  Zr  Zr2  1  0.660575  0.000915  0.970171  1
  Zr  Zr3  1  0.159487  0.498721  0.782550  1
  Zr  Zr4  1  0.837136  0.497216  0.278294  1
  Zr  Zr5  1  0.499624  0.158479  0.217560  1
  Zr  Zr6  1  0.499047  0.840878  0.719300  1
  Zr  Zr7  1  0.347164  0.004326  0.469277  1
  Ta  Ta8  1  0.351470  0.502954  0.374065  1
  Ta  Ta9  1  0.841961  0.998837  0.371314  1
  Ta  Ta10  1  0.004117  0.154065  0.126438  1
  Ta  Ta11  1  0.995204  0.848172  0.629149  1
  Ta  Ta12  1  0.652520  0.495036  0.876302  1
  Ta  Ta13  1  0.503467  0.349186  0.624603  1
  Ta  Ta14  1  0.494881  0.652770  0.123323  1
  Ta  Ta15  1  0.152725  0.004301  0.874152  1
  Ta  Ta16  1  0.667905  0.670969  0.500866  1
  Ta  Ta17  1  0.830372  0.169829  0.750107  1
  Ta  Ta18  1  0.170798  0.832022  0.249733  1
  Ta  Ta19  1  0.329427  0.330037  0.999824  1
  Si  Si20  1  0.954939  0.298216  0.936427  1
  Si  Si21  1  0.703507  0.043495  0.563245  1
  Si  Si22  1  0.200107  0.456268  0.186893  1
  Si  Si23  1  0.799685  0.544233  0.685302  1
  Si  Si24  1  0.456629  0.201214  0.813505  1
  Si  Si25  1  0.543439  0.798136  0.313694  1
  Si  Si26  1  0.299093  0.956295  0.063950  1
  Si  Si27  1  0.864172  0.792275  0.823416  1
  Si  Si28  1  0.135695  0.206433  0.324110  1
  Si  Si29  1  0.792621  0.863960  0.177120  1
  Si  Si30  1  0.292801  0.637231  0.570803  1
  Si  Si31  1  0.708175  0.365767  0.072582  1
  Si  Si32  1  0.635580  0.293770  0.428018  1
  Si  Si33  1  0.365318  0.708247  0.926907  1
  Si  Si34  1  0.209267  0.134515  0.676919  1
  Rh  Rh35  1  0.046096  0.698102  0.439413  1
