# generated using pymatgen
data_Sm9Y(SiHg)4
_symmetry_space_group_name_H-M   'P 1'
_cell_length_a   8.97420015
_cell_length_b   8.97420126
_cell_length_c   7.71104977
_cell_angle_alpha   89.93994701
_cell_angle_beta   89.93994865
_cell_angle_gamma   129.30981912
_symmetry_Int_Tables_number   1
_chemical_formula_structural   Sm9Y(SiHg)4
_chemical_formula_sum   'Sm9 Y1 Si4 Hg4'
_cell_volume   480.50081023
_cell_formula_units_Z   1
loop_
 _symmetry_equiv_pos_site_id
 _symmetry_equiv_pos_as_xyz
  1  'x, y, z'
loop_
 _atom_site_type_symbol
 _atom_site_label
 _atom_site_symmetry_multiplicity
 _atom_site_fract_x
 _atom_site_fract_y
 _atom_site_fract_z
 _atom_site_occupancy
  Sm  Sm0  1  0.056912  0.311857  0.323100  1
  Sm  Sm1  1  0.943088  0.688143  0.676900  1
  Sm  Sm2  1  0.443515  0.188422  0.822706  1
  Sm  Sm3  1  0.811578  0.556485  0.177294  1
  Sm  Sm4  1  0.556485  0.811578  0.177294  1
  Sm  Sm5  1  0.188422  0.443515  0.822706  1
  Sm  Sm6  1  0.688143  0.943088  0.676900  1
  Sm  Sm7  1  0.311857  0.056912  0.323100  1
  Sm  Sm8  1  0.000000  0.000000  0.000000  1
  Y  Y9  1  0.500000  0.500000  0.500000  1
  Si  Si10  1  0.385660  0.385660  0.119854  1
  Si  Si11  1  0.614340  0.614340  0.880146  1
  Si  Si12  1  0.117268  0.117268  0.617088  1
  Si  Si13  1  0.882732  0.882732  0.382912  1
  Hg  Hg14  1  0.781627  0.218373  0.000000  1
  Hg  Hg15  1  0.218373  0.781627  0.000000  1
  Hg  Hg16  1  0.717747  0.282253  0.500000  1
  Hg  Hg17  1  0.282253  0.717747  0.500000  1
