# generated using pymatgen
data_TbGaAgPt3
_symmetry_space_group_name_H-M   'P 1'
_cell_length_a   5.18971210
_cell_length_b   5.18971359
_cell_length_c   5.18971324
_cell_angle_alpha   64.15349861
_cell_angle_beta   64.15347888
_cell_angle_gamma   64.15349376
_symmetry_Int_Tables_number   1
_chemical_formula_structural   TbGaAgPt3
_chemical_formula_sum   'Tb1 Ga1 Ag1 Pt3'
_cell_volume   107.86551062
_cell_formula_units_Z   1
loop_
 _symmetry_equiv_pos_site_id
 _symmetry_equiv_pos_as_xyz
  1  'x, y, z'
loop_
 _atom_site_type_symbol
 _atom_site_label
 _atom_site_symmetry_multiplicity
 _atom_site_fract_x
 _atom_site_fract_y
 _atom_site_fract_z
 _atom_site_occupancy
  Tb  Tb0  1  0.004086  0.004086  0.004086  1
  Ga  Ga1  1  0.622980  0.622980  0.622980  1
  Ag  Ag2  1  0.251743  0.251743  0.251743  1
  Pt  Pt3  1  0.622671  0.622671  0.125849  1
  Pt  Pt4  1  0.622671  0.125849  0.622671  1
  Pt  Pt5  1  0.125849  0.622671  0.622671  1
