# generated using pymatgen
data_Dy3Lu5Pt4
_symmetry_space_group_name_H-M   'P 1'
_cell_length_a   4.73567200
_cell_length_b   7.07878492
_cell_length_c   8.61121192
_cell_angle_alpha   90.12155946
_cell_angle_beta   90.00000000
_cell_angle_gamma   90.00000000
_symmetry_Int_Tables_number   1
_chemical_formula_structural   Dy3Lu5Pt4
_chemical_formula_sum   'Dy3 Lu5 Pt4'
_cell_volume   288.67131582
_cell_formula_units_Z   1
loop_
 _symmetry_equiv_pos_site_id
 _symmetry_equiv_pos_as_xyz
  1  'x, y, z'
loop_
 _atom_site_type_symbol
 _atom_site_label
 _atom_site_symmetry_multiplicity
 _atom_site_fract_x
 _atom_site_fract_y
 _atom_site_fract_z
 _atom_site_occupancy
  Dy  Dy0  1  0.250000  0.512735  0.171716  1
  Dy  Dy1  1  0.750000  0.987579  0.669922  1
  Dy  Dy2  1  0.750000  0.487925  0.829070  1
  Lu  Lu3  1  0.250000  0.142936  0.923641  1
  Lu  Lu4  1  0.250000  0.643233  0.576570  1
  Lu  Lu5  1  0.750000  0.858336  0.079583  1
  Lu  Lu6  1  0.750000  0.354881  0.421984  1
  Lu  Lu7  1  0.250000  0.012107  0.331647  1
  Pt  Pt8  1  0.250000  0.244610  0.591627  1
  Pt  Pt9  1  0.250000  0.745360  0.905533  1
  Pt  Pt10  1  0.750000  0.756238  0.404191  1
  Pt  Pt11  1  0.750000  0.254059  0.094517  1
