# generated using pymatgen
data_Ac4Al14CuNi
_symmetry_space_group_name_H-M   'P 1'
_cell_length_a   6.31515197
_cell_length_b   6.31489021
_cell_length_c   11.68006800
_cell_angle_alpha   74.31623159
_cell_angle_beta   74.31557114
_cell_angle_gamma   90.00000751
_symmetry_Int_Tables_number   1
_chemical_formula_structural   Ac4Al14CuNi
_chemical_formula_sum   'Ac4 Al14 Cu1 Ni1'
_cell_volume   430.41082849
_cell_formula_units_Z   1
loop_
 _symmetry_equiv_pos_site_id
 _symmetry_equiv_pos_as_xyz
  1  'x, y, z'
loop_
 _atom_site_type_symbol
 _atom_site_label
 _atom_site_symmetry_multiplicity
 _atom_site_fract_x
 _atom_site_fract_y
 _atom_site_fract_z
 _atom_site_occupancy
  Ac  Ac0  1  0.998310  0.998310  0.003382  1
  Ac  Ac1  1  0.502296  0.502296  0.995408  1
  Ac  Ac2  1  0.751144  0.251144  0.497714  1
  Ac  Ac3  1  0.245793  0.745793  0.508417  1
  Al  Al4  1  0.197047  0.197047  0.605907  1
  Al  Al5  1  0.812663  0.812663  0.374675  1
  Al  Al6  1  0.603183  0.129567  0.251976  1
  Al  Al7  1  0.144840  0.618455  0.251976  1
  Al  Al8  1  0.603183  0.618455  0.251976  1
  Al  Al9  1  0.144840  0.129567  0.251976  1
  Al  Al10  1  0.857748  0.348379  0.756010  1
  Al  Al11  1  0.386242  0.895609  0.756010  1
  Al  Al12  1  0.857748  0.895609  0.756010  1
  Al  Al13  1  0.386242  0.348379  0.756010  1
  Al  Al14  1  0.690465  0.690465  0.619069  1
  Al  Al15  1  0.063877  0.563877  0.872244  1
  Al  Al16  1  0.452330  0.952330  0.095341  1
  Al  Al17  1  0.941070  0.441070  0.117859  1
  Cu  Cu18  1  0.311873  0.311873  0.376255  1
  Ni  Ni19  1  0.563942  0.063942  0.872118  1
