# generated using pymatgen
data_Pr2Fe3P7IrRu8
_symmetry_space_group_name_H-M   'P 1'
_cell_length_a   9.39061805
_cell_length_b   9.36779220
_cell_length_c   3.88669800
_cell_angle_alpha   90.00000000
_cell_angle_beta   90.00000000
_cell_angle_gamma   120.17291853
_symmetry_Int_Tables_number   1
_chemical_formula_structural   Pr2Fe3P7IrRu8
_chemical_formula_sum   'Pr2 Fe3 P7 Ir1 Ru8'
_cell_volume   295.58574154
_cell_formula_units_Z   1
loop_
 _symmetry_equiv_pos_site_id
 _symmetry_equiv_pos_as_xyz
  1  'x, y, z'
loop_
 _atom_site_type_symbol
 _atom_site_label
 _atom_site_symmetry_multiplicity
 _atom_site_fract_x
 _atom_site_fract_y
 _atom_site_fract_z
 _atom_site_occupancy
  Pr  Pr0  1  0.333477  0.666929  0.000000  1
  Pr  Pr1  1  0.667533  0.333531  0.500000  1
  Fe  Fe2  1  0.155096  0.890812  0.000000  1
  Fe  Fe3  1  0.110220  0.266173  0.000000  1
  Fe  Fe4  1  0.733502  0.843613  0.000000  1
  P  P5  1  0.409576  0.101095  0.000000  1
  P  P6  1  0.895805  0.304454  0.000000  1
  P  P7  1  0.699148  0.593804  0.000000  1
  P  P8  1  0.111226  0.718699  0.500000  1
  P  P9  1  0.277034  0.393849  0.500000  1
  P  P10  1  0.606709  0.888094  0.500000  1
  P  P11  1  0.999121  0.999602  0.000000  1
  Ir  Ir12  1  0.421181  0.359213  0.000000  1
  Ru  Ru13  1  0.640023  0.058809  0.000000  1
  Ru  Ru14  1  0.941019  0.580784  0.000000  1
  Ru  Ru15  1  0.383723  0.948796  0.500000  1
  Ru  Ru16  1  0.050176  0.435509  0.500000  1
  Ru  Ru17  1  0.563219  0.613805  0.500000  1
  Ru  Ru18  1  0.206028  0.118495  0.500000  1
  Ru  Ru19  1  0.884046  0.087491  0.500000  1
  Ru  Ru20  1  0.912139  0.796444  0.500000  1
