# generated using pymatgen
data_Nb6Fe15Si7Ir
_symmetry_space_group_name_H-M   'P 1'
_cell_length_a   8.00040999
_cell_length_b   7.96728152
_cell_length_c   7.96728100
_cell_angle_alpha   59.99999802
_cell_angle_beta   60.13688184
_cell_angle_gamma   60.13688488
_symmetry_Int_Tables_number   1
_chemical_formula_structural   Nb6Fe15Si7Ir
_chemical_formula_sum   'Nb6 Fe15 Si7 Ir1'
_cell_volume   359.84294861
_cell_formula_units_Z   1
loop_
 _symmetry_equiv_pos_site_id
 _symmetry_equiv_pos_as_xyz
  1  'x, y, z'
loop_
 _atom_site_type_symbol
 _atom_site_label
 _atom_site_symmetry_multiplicity
 _atom_site_fract_x
 _atom_site_fract_y
 _atom_site_fract_z
 _atom_site_occupancy
  Nb  Nb0  1  0.798011  0.199150  0.803689  1
  Nb  Nb1  1  0.798011  0.803689  0.199150  1
  Nb  Nb2  1  0.204094  0.797153  0.201599  1
  Nb  Nb3  1  0.204094  0.201599  0.797153  1
  Nb  Nb4  1  0.204094  0.797153  0.797153  1
  Nb  Nb5  1  0.798011  0.199150  0.199150  1
  Fe  Fe6  1  0.614228  0.622053  0.141666  1
  Fe  Fe7  1  0.382734  0.379187  0.858892  1
  Fe  Fe8  1  0.825800  0.519726  0.827237  1
  Fe  Fe9  1  0.825800  0.827237  0.827237  1
  Fe  Fe10  1  0.825800  0.827237  0.519726  1
  Fe  Fe11  1  0.382734  0.379187  0.379187  1
  Fe  Fe12  1  0.138750  0.620417  0.620417  1
  Fe  Fe13  1  0.614228  0.622053  0.622053  1
  Fe  Fe14  1  0.176495  0.170786  0.170786  1
  Fe  Fe15  1  0.176495  0.481932  0.170786  1
  Fe  Fe16  1  0.521446  0.826185  0.826185  1
  Fe  Fe17  1  0.614228  0.141666  0.622053  1
  Fe  Fe18  1  0.176495  0.170786  0.481932  1
  Fe  Fe19  1  0.382734  0.858892  0.379187  1
  Fe  Fe20  1  0.479062  0.173646  0.173646  1
  Si  Si21  1  0.500985  0.999814  0.999814  1
  Si  Si22  1  0.006063  0.500811  0.992315  1
  Si  Si23  1  0.500985  0.499387  0.999814  1
  Si  Si24  1  0.484902  0.505033  0.505033  1
  Si  Si25  1  0.006063  0.500811  0.500811  1
  Si  Si26  1  0.006063  0.992315  0.500811  1
  Si  Si27  1  0.500985  0.999814  0.499387  1
  Ir  Ir28  1  0.850609  0.383130  0.383130  1
