# generated using pymatgen
data_La2YbPr5(CdPt)2
_symmetry_space_group_name_H-M   'P 1'
_cell_length_a   10.09764654
_cell_length_b   10.08127546
_cell_length_c   10.08127531
_cell_angle_alpha   60.10746547
_cell_angle_beta   59.94625952
_cell_angle_gamma   59.94626500
_symmetry_Int_Tables_number   1
_chemical_formula_structural   La2YbPr5(CdPt)2
_chemical_formula_sum   'La4 Yb2 Pr10 Cd4 Pt4'
_cell_volume   725.66102211
_cell_formula_units_Z   2
loop_
 _symmetry_equiv_pos_site_id
 _symmetry_equiv_pos_as_xyz
  1  'x, y, z'
loop_
 _atom_site_type_symbol
 _atom_site_label
 _atom_site_symmetry_multiplicity
 _atom_site_fract_x
 _atom_site_fract_y
 _atom_site_fract_z
 _atom_site_occupancy
  La  La0  1  0.353144  0.348873  0.348873  1
  La  La1  1  0.348873  0.353144  0.949109  1
  La  La2  1  0.348873  0.949109  0.353144  1
  La  La3  1  0.949109  0.348873  0.348873  1
  Yb  Yb4  1  0.809565  0.190435  0.190435  1
  Yb  Yb5  1  0.190435  0.809565  0.809565  1
  Pr  Pr6  1  0.189645  0.810355  0.189645  1
  Pr  Pr7  1  0.810355  0.189645  0.810355  1
  Pr  Pr8  1  0.189645  0.189645  0.810355  1
  Pr  Pr9  1  0.810355  0.810355  0.189645  1
  Pr  Pr10  1  0.934161  0.565839  0.565839  1
  Pr  Pr11  1  0.565839  0.934161  0.934161  1
  Pr  Pr12  1  0.563930  0.936070  0.563930  1
  Pr  Pr13  1  0.936070  0.563930  0.936070  1
  Pr  Pr14  1  0.563930  0.563930  0.936070  1
  Pr  Pr15  1  0.936070  0.936070  0.563930  1
  Cd  Cd16  1  0.580951  0.580529  0.580529  1
  Cd  Cd17  1  0.580529  0.580951  0.257991  1
  Cd  Cd18  1  0.580529  0.257991  0.580951  1
  Cd  Cd19  1  0.257991  0.580529  0.580529  1
  Pt  Pt20  1  0.142271  0.143340  0.143340  1
  Pt  Pt21  1  0.143340  0.142271  0.571049  1
  Pt  Pt22  1  0.143340  0.571049  0.142271  1
  Pt  Pt23  1  0.571049  0.143340  0.143340  1
