# generated using pymatgen
data_Ti4Nb4Co7Si14Rh
_symmetry_space_group_name_H-M   'P 1'
_cell_length_a   9.23878427
_cell_length_b   9.24098741
_cell_length_c   9.22819846
_cell_angle_alpha   94.23614084
_cell_angle_beta   94.23390077
_cell_angle_gamma   148.48681062
_symmetry_Int_Tables_number   1
_chemical_formula_structural   Ti4Nb4Co7Si14Rh
_chemical_formula_sum   'Ti4 Nb4 Co7 Si14 Rh1'
_cell_volume   396.29101935
_cell_formula_units_Z   1
loop_
 _symmetry_equiv_pos_site_id
 _symmetry_equiv_pos_as_xyz
  1  'x, y, z'
loop_
 _atom_site_type_symbol
 _atom_site_label
 _atom_site_symmetry_multiplicity
 _atom_site_fract_x
 _atom_site_fract_y
 _atom_site_fract_z
 _atom_site_occupancy
  Ti  Ti0  1  0.501877  0.691911  0.193138  1
  Ti  Ti1  1  0.498019  0.308112  0.808444  1
  Ti  Ti2  1  0.310403  0.500314  0.808409  1
  Ti  Ti3  1  0.691221  0.501224  0.193138  1
  Nb  Nb4  1  0.133477  0.133530  0.267047  1
  Nb  Nb5  1  0.866779  0.866737  0.733518  1
  Nb  Nb6  1  0.867198  0.132172  0.001450  1
  Nb  Nb7  1  0.134237  0.869258  0.001391  1
  Co  Co8  1  0.103293  0.603283  0.206467  1
  Co  Co9  1  0.101620  0.898895  0.500492  1
  Co  Co10  1  0.398870  0.601611  0.500484  1
  Co  Co11  1  0.598192  0.399178  0.497133  1
  Co  Co12  1  0.898932  0.097940  0.497119  1
  Co  Co13  1  0.899264  0.399247  0.798561  1
  Co  Co14  1  0.599249  0.099255  0.198584  1
  Si  Si15  1  0.293511  0.293539  0.586897  1
  Si  Si16  1  0.706081  0.706185  0.412451  1
  Si  Si17  1  0.720733  0.311676  0.004942  1
  Si  Si18  1  0.284291  0.693263  0.005001  1
  Si  Si19  1  0.998876  0.295375  0.296493  1
  Si  Si20  1  0.985782  0.694687  0.702531  1
  Si  Si21  1  0.716703  0.007774  0.702488  1
  Si  Si22  1  0.297650  0.001131  0.296494  1
  Si  Si23  1  0.503421  0.908283  0.405625  1
  Si  Si24  1  0.513562  0.110428  0.588707  1
  Si  Si25  1  0.075215  0.478276  0.588697  1
  Si  Si26  1  0.902205  0.497270  0.405615  1
  Si  Si27  1  0.748541  0.748574  0.000564  1
  Si  Si28  1  0.251953  0.252025  0.000548  1
  Rh  Rh29  1  0.398847  0.898846  0.797575  1
