# generated using pymatgen
data_YCu2Ni3
_symmetry_space_group_name_H-M   'P 1'
_cell_length_a   4.93654402
_cell_length_b   4.93654427
_cell_length_c   3.98378900
_cell_angle_alpha   90.00000000
_cell_angle_beta   90.00000000
_cell_angle_gamma   120.00946463
_symmetry_Int_Tables_number   1
_chemical_formula_structural   YCu2Ni3
_chemical_formula_sum   'Y1 Cu2 Ni3'
_cell_volume   84.06816779
_cell_formula_units_Z   1
loop_
 _symmetry_equiv_pos_site_id
 _symmetry_equiv_pos_as_xyz
  1  'x, y, z'
loop_
 _atom_site_type_symbol
 _atom_site_label
 _atom_site_symmetry_multiplicity
 _atom_site_fract_x
 _atom_site_fract_y
 _atom_site_fract_z
 _atom_site_occupancy
  Y  Y0  1  0.998903  0.001097  0.000000  1
  Cu  Cu1  1  0.670552  0.329448  0.000000  1
  Cu  Cu2  1  0.500049  0.499951  0.500000  1
  Ni  Ni3  1  0.326339  0.673661  0.000000  1
  Ni  Ni4  1  0.500914  0.996757  0.500000  1
  Ni  Ni5  1  0.003243  0.499086  0.500000  1
