# generated using pymatgen
data_Y8HoEr3In20
_symmetry_space_group_name_H-M   'P 1'
_cell_length_a   6.52662428
_cell_length_b   10.42816300
_cell_length_c   12.28214100
_cell_angle_alpha   90.00000000
_cell_angle_beta   90.01807306
_cell_angle_gamma   90.00000000
_symmetry_Int_Tables_number   1
_chemical_formula_structural   Y8HoEr3In20
_chemical_formula_sum   'Y8 Ho1 Er3 In20'
_cell_volume   835.93109565
_cell_formula_units_Z   1
loop_
 _symmetry_equiv_pos_site_id
 _symmetry_equiv_pos_as_xyz
  1  'x, y, z'
loop_
 _atom_site_type_symbol
 _atom_site_label
 _atom_site_symmetry_multiplicity
 _atom_site_fract_x
 _atom_site_fract_y
 _atom_site_fract_z
 _atom_site_occupancy
  Y  Y0  1  0.890080  0.492325  0.142011  1
  Y  Y1  1  0.609723  0.007338  0.642236  1
  Y  Y2  1  0.110072  0.992031  0.858237  1
  Y  Y3  1  0.389827  0.507280  0.358046  1
  Y  Y4  1  0.110072  0.507969  0.858237  1
  Y  Y5  1  0.389827  0.992720  0.358046  1
  Y  Y6  1  0.890080  0.007675  0.142011  1
  Y  Y7  1  0.609723  0.492662  0.642236  1
  Ho  Ho8  1  0.850765  0.250000  0.443855  1
  Er  Er9  1  0.350371  0.750000  0.055355  1
  Er  Er10  1  0.149507  0.750000  0.555655  1
  Er  Er11  1  0.649675  0.250000  0.944669  1
  In  In12  1  0.614333  0.750000  0.505074  1
  In  In13  1  0.885312  0.750000  0.005364  1
  In  In14  1  0.384677  0.250000  0.495299  1
  In  In15  1  0.114880  0.250000  0.994249  1
  In  In16  1  0.651309  0.750000  0.244337  1
  In  In17  1  0.848656  0.750000  0.744652  1
  In  In18  1  0.348649  0.250000  0.755794  1
  In  In19  1  0.152524  0.250000  0.254877  1
  In  In20  1  0.124346  0.750000  0.282894  1
  In  In21  1  0.376309  0.750000  0.783089  1
  In  In22  1  0.876012  0.250000  0.717328  1
  In  In23  1  0.623925  0.250000  0.216080  1
  In  In24  1  0.874919  0.544157  0.401181  1
  In  In25  1  0.625125  0.956301  0.901275  1
  In  In26  1  0.124729  0.043635  0.599127  1
  In  In27  1  0.374901  0.456442  0.098601  1
  In  In28  1  0.124729  0.456365  0.599127  1
  In  In29  1  0.374901  0.043558  0.098601  1
  In  In30  1  0.874919  0.955843  0.401181  1
  In  In31  1  0.625125  0.543699  0.901275  1
