# generated using pymatgen
data_Sm5YCd23P
_symmetry_space_group_name_H-M   'P 1'
_cell_length_a   10.00321280
_cell_length_b   10.00321193
_cell_length_c   9.98827200
_cell_angle_alpha   60.04938612
_cell_angle_beta   60.04938899
_cell_angle_gamma   59.90122303
_symmetry_Int_Tables_number   1
_chemical_formula_structural   Sm5YCd23P
_chemical_formula_sum   'Sm5 Y1 Cd23 P1'
_cell_volume   706.72816549
_cell_formula_units_Z   1
loop_
 _symmetry_equiv_pos_site_id
 _symmetry_equiv_pos_as_xyz
  1  'x, y, z'
loop_
 _atom_site_type_symbol
 _atom_site_label
 _atom_site_symmetry_multiplicity
 _atom_site_fract_x
 _atom_site_fract_y
 _atom_site_fract_z
 _atom_site_occupancy
  Sm  Sm0  1  0.199910  0.799735  0.200265  1
  Sm  Sm1  1  0.799735  0.199910  0.200265  1
  Sm  Sm2  1  0.198954  0.198954  0.801046  1
  Sm  Sm3  1  0.799735  0.199910  0.800090  1
  Sm  Sm4  1  0.199910  0.799735  0.800090  1
  Y  Y5  1  0.802566  0.802566  0.197434  1
  Cd  Cd6  1  0.834972  0.834972  0.494285  1
  Cd  Cd7  1  0.834444  0.495759  0.834898  1
  Cd  Cd8  1  0.495759  0.834444  0.834898  1
  Cd  Cd9  1  0.834972  0.834972  0.835770  1
  Cd  Cd10  1  0.165102  0.165102  0.504241  1
  Cd  Cd11  1  0.164230  0.505715  0.165028  1
  Cd  Cd12  1  0.505715  0.164230  0.165028  1
  Cd  Cd13  1  0.165102  0.165102  0.165556  1
  Cd  Cd14  1  0.621953  0.621953  0.136111  1
  Cd  Cd15  1  0.621482  0.135225  0.621647  1
  Cd  Cd16  1  0.135225  0.621482  0.621647  1
  Cd  Cd17  1  0.621953  0.621953  0.619984  1
  Cd  Cd18  1  0.378353  0.378353  0.864775  1
  Cd  Cd19  1  0.380016  0.863889  0.378047  1
  Cd  Cd20  1  0.863889  0.380016  0.378047  1
  Cd  Cd21  1  0.378353  0.378353  0.378518  1
  Cd  Cd22  1  0.999564  0.999564  0.500436  1
  Cd  Cd23  1  0.500150  0.999762  0.499850  1
  Cd  Cd24  1  0.999762  0.500150  0.499850  1
  Cd  Cd25  1  0.499564  0.499564  0.000436  1
  Cd  Cd26  1  0.999762  0.500150  0.000238  1
  Cd  Cd27  1  0.500150  0.999762  0.000238  1
  Cd  Cd28  1  0.499703  0.499703  0.500297  1
  P  P29  1  0.999014  0.999014  0.000986  1
