# generated using pymatgen
data_Lu5BiPdRh
_symmetry_space_group_name_H-M   'P 1'
_cell_length_a   8.73182242
_cell_length_b   8.73182195
_cell_length_c   8.64813984
_cell_angle_alpha   127.71866681
_cell_angle_beta   127.71866769
_cell_angle_gamma   77.76960405
_symmetry_Int_Tables_number   1
_chemical_formula_structural   Lu5BiPdRh
_chemical_formula_sum   'Lu10 Bi2 Pd2 Rh2'
_cell_volume   398.43867335
_cell_formula_units_Z   2
loop_
 _symmetry_equiv_pos_site_id
 _symmetry_equiv_pos_as_xyz
  1  'x, y, z'
loop_
 _atom_site_type_symbol
 _atom_site_label
 _atom_site_symmetry_multiplicity
 _atom_site_fract_x
 _atom_site_fract_y
 _atom_site_fract_z
 _atom_site_occupancy
  Lu  Lu0  1  0.000000  0.000000  0.000000  1
  Lu  Lu1  1  0.500000  0.500000  0.000000  1
  Lu  Lu2  1  0.797205  0.297205  0.820175  1
  Lu  Lu3  1  0.202795  0.702795  0.179825  1
  Lu  Lu4  1  0.477031  0.977031  0.179825  1
  Lu  Lu5  1  0.283686  0.484523  0.500000  1
  Lu  Lu6  1  0.015477  0.216314  0.500000  1
  Lu  Lu7  1  0.522969  0.022969  0.820175  1
  Lu  Lu8  1  0.716314  0.515477  0.500000  1
  Lu  Lu9  1  0.984523  0.783686  0.500000  1
  Bi  Bi10  1  0.250000  0.250000  0.000000  1
  Bi  Bi11  1  0.750000  0.750000  0.000000  1
  Pd  Pd12  1  0.634597  0.865403  0.500000  1
  Pd  Pd13  1  0.365403  0.134597  0.500000  1
  Rh  Rh14  1  0.142769  0.642769  0.785537  1
  Rh  Rh15  1  0.857231  0.357231  0.214463  1
