# generated using pymatgen
data_Ac3LaSn4
_symmetry_space_group_name_H-M   'P 1'
_cell_length_a   4.57237700
_cell_length_b   6.64215521
_cell_length_c   9.16924341
_cell_angle_alpha   90.36356371
_cell_angle_beta   90.00000000
_cell_angle_gamma   90.00000000
_symmetry_Int_Tables_number   1
_chemical_formula_structural   Ac3LaSn4
_chemical_formula_sum   'Ac3 La1 Sn4'
_cell_volume   278.46832966
_cell_formula_units_Z   1
loop_
 _symmetry_equiv_pos_site_id
 _symmetry_equiv_pos_as_xyz
  1  'x, y, z'
loop_
 _atom_site_type_symbol
 _atom_site_label
 _atom_site_symmetry_multiplicity
 _atom_site_fract_x
 _atom_site_fract_y
 _atom_site_fract_z
 _atom_site_occupancy
  Ac  Ac0  1  0.250000  0.620860  0.181755  1
  Ac  Ac1  1  0.750000  0.377086  0.817566  1
  Ac  Ac2  1  0.750000  0.120494  0.319490  1
  La  La3  1  0.250000  0.880729  0.682757  1
  Sn  Sn4  1  0.250000  0.137967  0.036663  1
  Sn  Sn5  1  0.750000  0.855156  0.953511  1
  Sn  Sn6  1  0.750000  0.650707  0.466481  1
  Sn  Sn7  1  0.250000  0.357001  0.541776  1
