# generated using pymatgen
data_Y3AgIr2(RhO7)2
_symmetry_space_group_name_H-M   'P 1'
_cell_length_a   7.31717403
_cell_length_b   7.31717519
_cell_length_c   7.14365939
_cell_angle_alpha   59.44107263
_cell_angle_beta   59.44106801
_cell_angle_gamma   60.08586382
_symmetry_Int_Tables_number   1
_chemical_formula_structural   Y3AgIr2(RhO7)2
_chemical_formula_sum   'Y3 Ag1 Ir2 Rh2 O14'
_cell_volume   268.31662310
_cell_formula_units_Z   1
loop_
 _symmetry_equiv_pos_site_id
 _symmetry_equiv_pos_as_xyz
  1  'x, y, z'
loop_
 _atom_site_type_symbol
 _atom_site_label
 _atom_site_symmetry_multiplicity
 _atom_site_fract_x
 _atom_site_fract_y
 _atom_site_fract_z
 _atom_site_occupancy
  Y  Y0  1  0.625000  0.125000  0.125000  1
  Y  Y1  1  0.125000  0.625000  0.125000  1
  Y  Y2  1  0.125000  0.125000  0.125000  1
  Ag  Ag3  1  0.125000  0.125000  0.625000  1
  Ir  Ir4  1  0.125000  0.625000  0.625000  1
  Ir  Ir5  1  0.625000  0.125000  0.625000  1
  Rh  Rh6  1  0.625000  0.625000  0.125000  1
  Rh  Rh7  1  0.625000  0.625000  0.625000  1
  O  O8  1  0.716663  0.716663  0.280898  1
  O  O9  1  0.300760  0.300760  0.707244  1
  O  O10  1  0.696851  0.295293  0.704929  1
  O  O11  1  0.288824  0.716065  0.287178  1
  O  O12  1  0.295293  0.696851  0.704929  1
  O  O13  1  0.716065  0.288824  0.287178  1
  O  O14  1  0.533337  0.533337  0.969102  1
  O  O15  1  0.949240  0.949240  0.542756  1
  O  O16  1  0.553149  0.954707  0.545071  1
  O  O17  1  0.961176  0.533935  0.962822  1
  O  O18  1  0.954707  0.553149  0.545071  1
  O  O19  1  0.533935  0.961176  0.962822  1
  O  O20  1  0.248776  0.248776  0.253396  1
  O  O21  1  0.001224  0.001224  0.996604  1
