# generated using pymatgen
data_La2Sm4BiSbO14
_symmetry_space_group_name_H-M   'P 1'
_cell_length_a   6.69330564
_cell_length_b   6.69330676
_cell_length_c   7.83983573
_cell_angle_alpha   89.53006313
_cell_angle_beta   90.46993984
_cell_angle_gamma   109.00425264
_symmetry_Int_Tables_number   1
_chemical_formula_structural   La2Sm4BiSbO14
_chemical_formula_sum   'La2 Sm4 Bi1 Sb1 O14'
_cell_volume   332.06666004
_cell_formula_units_Z   1
loop_
 _symmetry_equiv_pos_site_id
 _symmetry_equiv_pos_as_xyz
  1  'x, y, z'
loop_
 _atom_site_type_symbol
 _atom_site_label
 _atom_site_symmetry_multiplicity
 _atom_site_fract_x
 _atom_site_fract_y
 _atom_site_fract_z
 _atom_site_occupancy
  La  La0  1  0.500415  0.500415  0.500000  1
  La  La1  1  0.499404  0.499404  0.000000  1
  Sm  Sm2  1  0.467955  0.999503  0.246159  1
  Sm  Sm3  1  0.000419  0.532104  0.246314  1
  Sm  Sm4  1  0.532104  0.000419  0.753686  1
  Sm  Sm5  1  0.999503  0.467955  0.753841  1
  Bi  Bi6  1  0.000198  0.000198  0.500000  1
  Sb  Sb7  1  0.999873  0.999873  0.000000  1
  O  O8  1  0.331372  0.072724  0.524848  1
  O  O9  1  0.933946  0.686368  0.967942  1
  O  O10  1  0.686368  0.933946  0.032058  1
  O  O11  1  0.072724  0.331372  0.475152  1
  O  O12  1  0.927243  0.668955  0.525151  1
  O  O13  1  0.313443  0.066146  0.967688  1
  O  O14  1  0.066146  0.313443  0.032312  1
  O  O15  1  0.668955  0.927243  0.474849  1
  O  O16  1  0.633010  0.366987  0.248176  1
  O  O17  1  0.366987  0.633010  0.751824  1
  O  O18  1  0.638806  0.361147  0.752637  1
  O  O19  1  0.361147  0.638806  0.247363  1
  O  O20  1  0.071933  0.928048  0.241558  1
  O  O21  1  0.928048  0.071933  0.758442  1
