# generated using pymatgen
data_YbLuU(Ni10B3)2
_symmetry_space_group_name_H-M   'P 1'
_cell_length_a   7.59637139
_cell_length_b   7.59637096
_cell_length_c   7.59637200
_cell_angle_alpha   60.00000418
_cell_angle_beta   60.00000605
_cell_angle_gamma   59.99999965
_symmetry_Int_Tables_number   1
_chemical_formula_structural   YbLuU(Ni10B3)2
_chemical_formula_sum   'Yb1 Lu1 U1 Ni20 B6'
_cell_volume   309.95854460
_cell_formula_units_Z   1
loop_
 _symmetry_equiv_pos_site_id
 _symmetry_equiv_pos_as_xyz
  1  'x, y, z'
loop_
 _atom_site_type_symbol
 _atom_site_label
 _atom_site_symmetry_multiplicity
 _atom_site_fract_x
 _atom_site_fract_y
 _atom_site_fract_z
 _atom_site_occupancy
  Yb  Yb0  1  0.250000  0.250000  0.250000  1
  Lu  Lu1  1  0.750000  0.750000  0.750000  1
  U  U2  1  0.000000  0.000000  0.000000  1
  Ni  Ni3  1  0.840197  0.386601  0.386601  1
  Ni  Ni4  1  0.386601  0.840197  0.386601  1
  Ni  Ni5  1  0.386601  0.386601  0.840197  1
  Ni  Ni6  1  0.386601  0.386601  0.386601  1
  Ni  Ni7  1  0.165222  0.611593  0.611593  1
  Ni  Ni8  1  0.611593  0.165222  0.611593  1
  Ni  Ni9  1  0.611593  0.611593  0.165222  1
  Ni  Ni10  1  0.611593  0.611593  0.611593  1
  Ni  Ni11  1  0.657856  0.000156  0.000156  1
  Ni  Ni12  1  0.657856  0.000156  0.341832  1
  Ni  Ni13  1  0.657856  0.341832  0.000156  1
  Ni  Ni14  1  0.000156  0.657856  0.341832  1
  Ni  Ni15  1  0.000156  0.657856  0.000156  1
  Ni  Ni16  1  0.341832  0.657856  0.000156  1
  Ni  Ni17  1  0.000156  0.341832  0.657856  1
  Ni  Ni18  1  0.341832  0.000156  0.657856  1
  Ni  Ni19  1  0.000156  0.000156  0.657856  1
  Ni  Ni20  1  0.341832  0.000156  0.000156  1
  Ni  Ni21  1  0.000156  0.341832  0.000156  1
  Ni  Ni22  1  0.000156  0.000156  0.341832  1
  B  B23  1  0.726955  0.273045  0.273045  1
  B  B24  1  0.726955  0.273045  0.726955  1
  B  B25  1  0.726955  0.726955  0.273045  1
  B  B26  1  0.273045  0.726955  0.726955  1
  B  B27  1  0.273045  0.726955  0.273045  1
  B  B28  1  0.273045  0.273045  0.726955  1
