# generated using pymatgen
data_ThGa2Co3
_symmetry_space_group_name_H-M   'P 1'
_cell_length_a   4.14950900
_cell_length_b   8.76139176
_cell_length_c   8.76139300
_cell_angle_alpha   59.99058698
_cell_angle_beta   90.00000000
_cell_angle_gamma   90.00000000
_symmetry_Int_Tables_number   1
_chemical_formula_structural   ThGa2Co3
_chemical_formula_sum   'Th3 Ga6 Co9'
_cell_volume   275.82422246
_cell_formula_units_Z   3
loop_
 _symmetry_equiv_pos_site_id
 _symmetry_equiv_pos_as_xyz
  1  'x, y, z'
loop_
 _atom_site_type_symbol
 _atom_site_label
 _atom_site_symmetry_multiplicity
 _atom_site_fract_x
 _atom_site_fract_y
 _atom_site_fract_z
 _atom_site_occupancy
  Th  Th0  1  0.500000  0.333516  0.333062  1
  Th  Th1  1  0.500000  0.666938  0.666484  1
  Th  Th2  1  0.000000  0.999673  0.000327  1
  Ga  Ga3  1  0.000000  0.491950  0.508050  1
  Ga  Ga4  1  0.000000  0.507977  0.999946  1
  Ga  Ga5  1  0.000000  0.000054  0.492023  1
  Ga  Ga6  1  0.500000  0.726806  0.273194  1
  Ga  Ga7  1  0.500000  0.273239  0.999855  1
  Ga  Ga8  1  0.500000  0.000145  0.726761  1
  Co  Co9  1  0.000000  0.181256  0.176311  1
  Co  Co10  1  0.000000  0.176522  0.642576  1
  Co  Co11  1  0.000000  0.642301  0.181314  1
  Co  Co12  1  0.000000  0.823689  0.818744  1
  Co  Co13  1  0.000000  0.357424  0.823478  1
  Co  Co14  1  0.000000  0.818686  0.357699  1
  Co  Co15  1  0.500000  0.307304  0.692696  1
  Co  Co16  1  0.500000  0.692336  0.999914  1
  Co  Co17  1  0.500000  0.000086  0.307664  1
