# generated using pymatgen
data_Ho3Hg3Pt2
_symmetry_space_group_name_H-M   'P 1'
_cell_length_a   7.63245600
_cell_length_b   7.63245791
_cell_length_c   3.67227100
_cell_angle_alpha   90.00000000
_cell_angle_beta   90.00000000
_cell_angle_gamma   119.99999170
_symmetry_Int_Tables_number   1
_chemical_formula_structural   Ho3Hg3Pt2
_chemical_formula_sum   'Ho3 Hg3 Pt2'
_cell_volume   185.26531477
_cell_formula_units_Z   1
loop_
 _symmetry_equiv_pos_site_id
 _symmetry_equiv_pos_as_xyz
  1  'x, y, z'
loop_
 _atom_site_type_symbol
 _atom_site_label
 _atom_site_symmetry_multiplicity
 _atom_site_fract_x
 _atom_site_fract_y
 _atom_site_fract_z
 _atom_site_occupancy
  Ho  Ho0  1  0.580219  0.000000  0.500000  1
  Ho  Ho1  1  0.419782  0.419782  0.500000  1
  Ho  Ho2  1  0.000000  0.580219  0.500000  1
  Hg  Hg3  1  0.232364  0.000000  0.000000  1
  Hg  Hg4  1  0.000000  0.232363  0.000000  1
  Hg  Hg5  1  0.767636  0.767636  0.000000  1
  Pt  Pt6  1  0.666667  0.333333  0.000000  1
  Pt  Pt7  1  0.333333  0.666667  0.000000  1
