# generated using pymatgen
data_Ho3ZrCoAg
_symmetry_space_group_name_H-M   'P 1'
_cell_length_a   9.19208414
_cell_length_b   9.19208224
_cell_length_c   9.19208400
_cell_angle_alpha   60.00000087
_cell_angle_beta   60.00000771
_cell_angle_gamma   60.00000661
_symmetry_Int_Tables_number   1
_chemical_formula_structural   Ho3ZrCoAg
_chemical_formula_sum   'Ho12 Zr4 Co4 Ag4'
_cell_volume   549.19544797
_cell_formula_units_Z   4
loop_
 _symmetry_equiv_pos_site_id
 _symmetry_equiv_pos_as_xyz
  1  'x, y, z'
loop_
 _atom_site_type_symbol
 _atom_site_label
 _atom_site_symmetry_multiplicity
 _atom_site_fract_x
 _atom_site_fract_y
 _atom_site_fract_z
 _atom_site_occupancy
  Ho  Ho0  1  0.807562  0.192591  0.192591  1
  Ho  Ho1  1  0.192630  0.807387  0.807387  1
  Ho  Ho2  1  0.192591  0.807562  0.192591  1
  Ho  Ho3  1  0.807387  0.192630  0.807387  1
  Ho  Ho4  1  0.192591  0.192591  0.807562  1
  Ho  Ho5  1  0.807387  0.807387  0.192630  1
  Ho  Ho6  1  0.941181  0.558827  0.558827  1
  Ho  Ho7  1  0.558782  0.941194  0.941194  1
  Ho  Ho8  1  0.558827  0.941181  0.558827  1
  Ho  Ho9  1  0.941194  0.558782  0.941194  1
  Ho  Ho10  1  0.558827  0.558827  0.941181  1
  Ho  Ho11  1  0.941194  0.941194  0.558782  1
  Zr  Zr12  1  0.344458  0.344458  0.344458  1
  Zr  Zr13  1  0.344435  0.344435  0.966534  1
  Zr  Zr14  1  0.344435  0.966534  0.344435  1
  Zr  Zr15  1  0.966534  0.344435  0.344435  1
  Co  Co16  1  0.146857  0.146857  0.146857  1
  Co  Co17  1  0.146858  0.146858  0.559437  1
  Co  Co18  1  0.146858  0.559437  0.146858  1
  Co  Co19  1  0.559437  0.146858  0.146858  1
  Ag  Ag20  1  0.580520  0.580520  0.580520  1
  Ag  Ag21  1  0.580519  0.580519  0.258417  1
  Ag  Ag22  1  0.580519  0.258417  0.580519  1
  Ag  Ag23  1  0.258417  0.580519  0.580519  1
