# generated using pymatgen
data_Nd9Er(SiSb2)2
_symmetry_space_group_name_H-M   'P 1'
_cell_length_a   8.24406300
_cell_length_b   9.37052500
_cell_length_c   12.45728200
_cell_angle_alpha   90.00000000
_cell_angle_beta   90.00000000
_cell_angle_gamma   90.00000000
_symmetry_Int_Tables_number   1
_chemical_formula_structural   Nd9Er(SiSb2)2
_chemical_formula_sum   'Nd18 Er2 Si4 Sb8'
_cell_volume   962.33996384
_cell_formula_units_Z   2
loop_
 _symmetry_equiv_pos_site_id
 _symmetry_equiv_pos_as_xyz
  1  'x, y, z'
loop_
 _atom_site_type_symbol
 _atom_site_label
 _atom_site_symmetry_multiplicity
 _atom_site_fract_x
 _atom_site_fract_y
 _atom_site_fract_z
 _atom_site_occupancy
  Nd  Nd0  1  0.312494  0.954942  0.065461  1
  Nd  Nd1  1  0.812494  0.045058  0.434539  1
  Nd  Nd2  1  0.688333  0.455668  0.934372  1
  Nd  Nd3  1  0.188333  0.544332  0.565628  1
  Nd  Nd4  1  0.688333  0.044332  0.934372  1
  Nd  Nd5  1  0.188333  0.955668  0.565628  1
  Nd  Nd6  1  0.312494  0.545058  0.065461  1
  Nd  Nd7  1  0.812494  0.454942  0.434539  1
  Nd  Nd8  1  0.659233  0.750000  0.212736  1
  Nd  Nd9  1  0.159233  0.250000  0.287264  1
  Nd  Nd10  1  0.336640  0.250000  0.786738  1
  Nd  Nd11  1  0.836640  0.750000  0.713262  1
  Nd  Nd12  1  0.137402  0.750000  0.293247  1
  Nd  Nd13  1  0.637402  0.250000  0.206753  1
  Nd  Nd14  1  0.864054  0.250000  0.705709  1
  Nd  Nd15  1  0.364054  0.750000  0.794291  1
  Nd  Nd16  1  0.538335  0.750000  0.499859  1
  Nd  Nd17  1  0.038335  0.250000  0.000141  1
  Er  Er18  1  0.458079  0.250000  0.499939  1
  Er  Er19  1  0.958079  0.750000  0.000061  1
  Si  Si20  1  0.582365  0.750000  0.981430  1
  Si  Si21  1  0.082365  0.250000  0.518570  1
  Si  Si22  1  0.426323  0.250000  0.016449  1
  Si  Si23  1  0.926323  0.750000  0.483551  1
  Sb  Sb24  1  0.928399  0.005665  0.170822  1
  Sb  Sb25  1  0.428399  0.994335  0.329178  1
  Sb  Sb26  1  0.069559  0.513530  0.829925  1
  Sb  Sb27  1  0.569559  0.486470  0.670075  1
  Sb  Sb28  1  0.069559  0.986470  0.829925  1
  Sb  Sb29  1  0.569559  0.013530  0.670075  1
  Sb  Sb30  1  0.928399  0.494335  0.170822  1
  Sb  Sb31  1  0.428399  0.505665  0.329178  1
