# generated using pymatgen
data_Cs4Rb4ZnCo3Br16
_symmetry_space_group_name_H-M   'P 1'
_cell_length_a   7.79351400
_cell_length_b   10.20544035
_cell_length_c   13.58681049
_cell_angle_alpha   89.96948451
_cell_angle_beta   90.00000000
_cell_angle_gamma   90.00000000
_symmetry_Int_Tables_number   1
_chemical_formula_structural   Cs4Rb4ZnCo3Br16
_chemical_formula_sum   'Cs4 Rb4 Zn1 Co3 Br16'
_cell_volume   1080.64369780
_cell_formula_units_Z   1
loop_
 _symmetry_equiv_pos_site_id
 _symmetry_equiv_pos_as_xyz
  1  'x, y, z'
loop_
 _atom_site_type_symbol
 _atom_site_label
 _atom_site_symmetry_multiplicity
 _atom_site_fract_x
 _atom_site_fract_y
 _atom_site_fract_z
 _atom_site_occupancy
  Cs  Cs0  1  0.250000  0.639947  0.909973  1
  Cs  Cs1  1  0.750000  0.360029  0.090256  1
  Cs  Cs2  1  0.750000  0.860204  0.409617  1
  Cs  Cs3  1  0.250000  0.139767  0.590273  1
  Rb  Rb4  1  0.250000  0.984718  0.172547  1
  Rb  Rb5  1  0.750000  0.015521  0.827522  1
  Rb  Rb6  1  0.750000  0.515190  0.672803  1
  Rb  Rb7  1  0.250000  0.484399  0.327059  1
  Zn  Zn8  1  0.250000  0.732261  0.577974  1
  Co  Co9  1  0.750000  0.267585  0.422316  1
  Co  Co10  1  0.750000  0.767558  0.077707  1
  Co  Co11  1  0.250000  0.232397  0.922327  1
  Br  Br12  1  0.994300  0.816394  0.658046  1
  Br  Br13  1  0.002161  0.184961  0.342947  1
  Br  Br14  1  0.002192  0.684888  0.157001  1
  Br  Br15  1  0.497839  0.184961  0.342947  1
  Br  Br16  1  0.997780  0.315074  0.843008  1
  Br  Br17  1  0.505700  0.816394  0.658046  1
  Br  Br18  1  0.502220  0.315074  0.843008  1
  Br  Br19  1  0.497808  0.684888  0.157001  1
  Br  Br20  1  0.250000  0.495151  0.587535  1
  Br  Br21  1  0.750000  0.501957  0.412318  1
  Br  Br22  1  0.750000  0.001896  0.087692  1
  Br  Br23  1  0.250000  0.998118  0.912388  1
  Br  Br24  1  0.250000  0.313289  0.088683  1
  Br  Br25  1  0.750000  0.686638  0.911422  1
  Br  Br26  1  0.750000  0.186801  0.588670  1
  Br  Br27  1  0.250000  0.813940  0.408912  1
