# generated using pymatgen
data_Cs2Li6HoTm3Se10
_symmetry_space_group_name_H-M   'P 1'
_cell_length_a   4.14528700
_cell_length_b   7.83211077
_cell_length_c   17.37721800
_cell_angle_alpha   89.95470976
_cell_angle_beta   90.00000000
_cell_angle_gamma   74.65479234
_symmetry_Int_Tables_number   1
_chemical_formula_structural   Cs2Li6HoTm3Se10
_chemical_formula_sum   'Cs2 Li6 Ho1 Tm3 Se10'
_cell_volume   544.06116364
_cell_formula_units_Z   1
loop_
 _symmetry_equiv_pos_site_id
 _symmetry_equiv_pos_as_xyz
  1  'x, y, z'
loop_
 _atom_site_type_symbol
 _atom_site_label
 _atom_site_symmetry_multiplicity
 _atom_site_fract_x
 _atom_site_fract_y
 _atom_site_fract_z
 _atom_site_occupancy
  Cs  Cs0  1  0.567670  0.864660  0.249995  1
  Cs  Cs1  1  0.432432  0.135137  0.749967  1
  Li  Li2  1  0.080062  0.839876  0.041294  1
  Li  Li3  1  0.856114  0.287772  0.249977  1
  Li  Li4  1  0.080174  0.839652  0.458768  1
  Li  Li5  1  0.919857  0.160287  0.541267  1
  Li  Li6  1  0.143804  0.712393  0.750057  1
  Li  Li7  1  0.919874  0.160252  0.958684  1
  Ho  Ho8  1  0.695022  0.609956  0.905932  1
  Tm  Tm9  1  0.305084  0.389831  0.094041  1
  Tm  Tm10  1  0.304992  0.390015  0.405982  1
  Tm  Tm11  1  0.694970  0.610062  0.593848  1
  Se  Se12  1  0.675210  0.649580  0.069518  1
  Se  Se13  1  0.930741  0.138518  0.110107  1
  Se  Se14  1  0.265857  0.468287  0.249965  1
  Se  Se15  1  0.930705  0.138590  0.389796  1
  Se  Se16  1  0.675367  0.649266  0.431371  1
  Se  Se17  1  0.324721  0.350560  0.568670  1
  Se  Se18  1  0.069298  0.861404  0.610326  1
  Se  Se19  1  0.734427  0.531146  0.749319  1
  Se  Se20  1  0.067888  0.864225  0.889602  1
  Se  Se21  1  0.325737  0.348526  0.931514  1
