# generated using pymatgen
data_ErTh3Al18(RePd2)2
_symmetry_space_group_name_H-M   'P 1'
_cell_length_a   7.68018826
_cell_length_b   7.68721094
_cell_length_c   9.57119900
_cell_angle_alpha   90.00000000
_cell_angle_beta   90.00000000
_cell_angle_gamma   118.58129772
_symmetry_Int_Tables_number   1
_chemical_formula_structural   ErTh3Al18(RePd2)2
_chemical_formula_sum   'Er1 Th3 Al18 Re2 Pd4'
_cell_volume   496.21554505
_cell_formula_units_Z   1
loop_
 _symmetry_equiv_pos_site_id
 _symmetry_equiv_pos_as_xyz
  1  'x, y, z'
loop_
 _atom_site_type_symbol
 _atom_site_label
 _atom_site_symmetry_multiplicity
 _atom_site_fract_x
 _atom_site_fract_y
 _atom_site_fract_z
 _atom_site_occupancy
  Er  Er0  1  0.319025  0.005246  0.750000  1
  Th  Th1  1  0.994311  0.685684  0.250000  1
  Th  Th2  1  0.003290  0.315851  0.750000  1
  Th  Th3  1  0.684096  0.993924  0.250000  1
  Al  Al4  1  0.145152  0.143407  0.250000  1
  Al  Al5  1  0.863921  0.861793  0.750000  1
  Al  Al6  1  0.007444  0.339561  0.077867  1
  Al  Al7  1  0.999902  0.668349  0.919723  1
  Al  Al8  1  0.999902  0.668349  0.580277  1
  Al  Al9  1  0.336624  0.005310  0.428194  1
  Al  Al10  1  0.007444  0.339561  0.422133  1
  Al  Al11  1  0.657476  0.993176  0.580085  1
  Al  Al12  1  0.657476  0.993176  0.919915  1
  Al  Al13  1  0.336624  0.005310  0.071806  1
  Al  Al14  1  0.331260  0.327469  0.549829  1
  Al  Al15  1  0.665864  0.665535  0.460293  1
  Al  Al16  1  0.665864  0.665535  0.039707  1
  Al  Al17  1  0.331260  0.327469  0.950171  1
  Al  Al18  1  0.349290  0.551640  0.250000  1
  Al  Al19  1  0.651999  0.445399  0.750000  1
  Al  Al20  1  0.551920  0.345350  0.250000  1
  Al  Al21  1  0.446832  0.654422  0.750000  1
  Re  Re22  1  0.997026  0.999722  0.001357  1
  Re  Re23  1  0.997026  0.999722  0.498643  1
  Pd  Pd24  1  0.672071  0.327970  0.999168  1
  Pd  Pd25  1  0.327414  0.671549  0.999718  1
  Pd  Pd26  1  0.327414  0.671549  0.500282  1
  Pd  Pd27  1  0.672071  0.327970  0.500832  1
