# generated using pymatgen
data_Mg6MnReN8
_symmetry_space_group_name_H-M   'P 1'
_cell_length_a   6.70680800
_cell_length_b   5.78770816
_cell_length_c   5.26845392
_cell_angle_alpha   89.90148238
_cell_angle_beta   90.00000000
_cell_angle_gamma   90.00000000
_symmetry_Int_Tables_number   1
_chemical_formula_structural   Mg6MnReN8
_chemical_formula_sum   'Mg6 Mn1 Re1 N8'
_cell_volume   204.50552348
_cell_formula_units_Z   1
loop_
 _symmetry_equiv_pos_site_id
 _symmetry_equiv_pos_as_xyz
  1  'x, y, z'
loop_
 _atom_site_type_symbol
 _atom_site_label
 _atom_site_symmetry_multiplicity
 _atom_site_fract_x
 _atom_site_fract_y
 _atom_site_fract_z
 _atom_site_occupancy
  Mg  Mg0  1  0.241005  0.175000  0.852738  1
  Mg  Mg1  1  0.758995  0.175000  0.852738  1
  Mg  Mg2  1  0.236176  0.834703  0.359686  1
  Mg  Mg3  1  0.763824  0.834703  0.359686  1
  Mg  Mg4  1  0.000000  0.644904  0.853980  1
  Mg  Mg5  1  0.500000  0.331675  0.360065  1
  Mn  Mn6  1  0.000000  0.328736  0.351695  1
  Re  Re7  1  0.500000  0.672828  0.845522  1
  N  N8  1  0.000000  0.625448  0.456995  1
  N  N9  1  0.500000  0.370470  0.950191  1
  N  N10  1  0.000000  0.324613  0.014497  1
  N  N11  1  0.500000  0.678656  0.499120  1
  N  N12  1  0.774617  0.180598  0.456416  1
  N  N13  1  0.225383  0.180598  0.456416  1
  N  N14  1  0.726701  0.821033  0.954747  1
  N  N15  1  0.273299  0.821033  0.954747  1
