# generated using pymatgen
data_Li8La8SiBi7
_symmetry_space_group_name_H-M   'P 1'
_cell_length_a   9.77757100
_cell_length_b   9.77757223
_cell_length_c   7.94884500
_cell_angle_alpha   90.00000000
_cell_angle_beta   90.00000000
_cell_angle_gamma   119.99999924
_symmetry_Int_Tables_number   1
_chemical_formula_structural   Li8La8SiBi7
_chemical_formula_sum   'Li8 La8 Si1 Bi7'
_cell_volume   658.10724891
_cell_formula_units_Z   1
loop_
 _symmetry_equiv_pos_site_id
 _symmetry_equiv_pos_as_xyz
  1  'x, y, z'
loop_
 _atom_site_type_symbol
 _atom_site_label
 _atom_site_symmetry_multiplicity
 _atom_site_fract_x
 _atom_site_fract_y
 _atom_site_fract_z
 _atom_site_occupancy
  Li  Li0  1  0.168732  0.337465  0.267576  1
  Li  Li1  1  0.168732  0.831268  0.267576  1
  Li  Li2  1  0.662535  0.831268  0.267576  1
  Li  Li3  1  0.826911  0.653820  0.766552  1
  Li  Li4  1  0.826911  0.173089  0.766552  1
  Li  Li5  1  0.346180  0.173089  0.766552  1
  Li  Li6  1  0.333333  0.666667  0.690406  1
  Li  Li7  1  0.666667  0.333333  0.196552  1
  La  La8  1  0.517637  0.035276  0.503779  1
  La  La9  1  0.517637  0.482363  0.503779  1
  La  La10  1  0.964724  0.482363  0.503779  1
  La  La11  1  0.499035  0.998070  0.992069  1
  La  La12  1  0.499035  0.500965  0.992069  1
  La  La13  1  0.001930  0.500965  0.992069  1
  La  La14  1  0.000000  0.000000  0.499384  1
  La  La15  1  0.000000  0.000000  0.999674  1
  Si  Si16  1  0.666667  0.333333  0.756772  1
  Bi  Bi17  1  0.166044  0.332087  0.742077  1
  Bi  Bi18  1  0.166044  0.833956  0.742077  1
  Bi  Bi19  1  0.667913  0.833956  0.742077  1
  Bi  Bi20  1  0.833719  0.667439  0.241351  1
  Bi  Bi21  1  0.833719  0.166281  0.241351  1
  Bi  Bi22  1  0.332561  0.166281  0.241351  1
  Bi  Bi23  1  0.333333  0.666667  0.258972  1
