# generated using pymatgen
data_Ba3Sn2(Hg2Bi)2
_symmetry_space_group_name_H-M   'P 1'
_cell_length_a   9.91544426
_cell_length_b   9.91544608
_cell_length_c   9.91544507
_cell_angle_alpha   148.88866138
_cell_angle_beta   132.67158292
_cell_angle_gamma   57.72659531
_symmetry_Int_Tables_number   1
_chemical_formula_structural   Ba3Sn2(Hg2Bi)2
_chemical_formula_sum   'Ba3 Sn2 Hg4 Bi2'
_cell_volume   367.58455140
_cell_formula_units_Z   1
loop_
 _symmetry_equiv_pos_site_id
 _symmetry_equiv_pos_as_xyz
  1  'x, y, z'
loop_
 _atom_site_type_symbol
 _atom_site_label
 _atom_site_symmetry_multiplicity
 _atom_site_fract_x
 _atom_site_fract_y
 _atom_site_fract_z
 _atom_site_occupancy
  Ba  Ba0  1  0.633230  0.133230  0.500000  1
  Ba  Ba1  1  0.366770  0.866770  0.500000  1
  Ba  Ba2  1  0.000000  0.000000  0.000000  1
  Sn  Sn3  1  0.789864  0.789864  0.000000  1
  Sn  Sn4  1  0.210136  0.210136  0.000000  1
  Hg  Hg5  1  0.977048  0.674209  0.302839  1
  Hg  Hg6  1  0.022952  0.325791  0.697161  1
  Hg  Hg7  1  0.628630  0.325791  0.302839  1
  Hg  Hg8  1  0.371370  0.674209  0.697161  1
  Bi  Bi9  1  0.694524  0.500000  0.194524  1
  Bi  Bi10  1  0.305476  0.500000  0.805476  1
