# generated using pymatgen
data_Zr6Zn20Ni3C
_symmetry_space_group_name_H-M   'P 1'
_cell_length_a   8.62977258
_cell_length_b   8.62977367
_cell_length_c   8.61433485
_cell_angle_alpha   59.91080456
_cell_angle_beta   59.91080337
_cell_angle_gamma   59.79940057
_symmetry_Int_Tables_number   1
_chemical_formula_structural   Zr6Zn20Ni3C
_chemical_formula_sum   'Zr6 Zn20 Ni3 C1'
_cell_volume   452.33242280
_cell_formula_units_Z   1
loop_
 _symmetry_equiv_pos_site_id
 _symmetry_equiv_pos_as_xyz
  1  'x, y, z'
loop_
 _atom_site_type_symbol
 _atom_site_label
 _atom_site_symmetry_multiplicity
 _atom_site_fract_x
 _atom_site_fract_y
 _atom_site_fract_z
 _atom_site_occupancy
  Zr  Zr0  1  0.691018  0.306354  0.309448  1
  Zr  Zr1  1  0.308982  0.693646  0.690552  1
  Zr  Zr2  1  0.306354  0.691018  0.309448  1
  Zr  Zr3  1  0.693646  0.308982  0.690552  1
  Zr  Zr4  1  0.310502  0.310502  0.686276  1
  Zr  Zr5  1  0.689498  0.689498  0.313724  1
  Zn  Zn6  1  0.116780  0.116780  0.116395  1
  Zn  Zn7  1  0.883220  0.883220  0.883605  1
  Zn  Zn8  1  0.123259  0.123259  0.645317  1
  Zn  Zn9  1  0.112496  0.647217  0.129045  1
  Zn  Zn10  1  0.876741  0.876741  0.354683  1
  Zn  Zn11  1  0.887504  0.352783  0.870955  1
  Zn  Zn12  1  0.647217  0.112496  0.129045  1
  Zn  Zn13  1  0.352783  0.887504  0.870955  1
  Zn  Zn14  1  0.500000  0.000000  0.000000  1
  Zn  Zn15  1  0.000000  0.500000  0.000000  1
  Zn  Zn16  1  0.000000  0.000000  0.500000  1
  Zn  Zn17  1  0.500000  0.500000  0.000000  1
  Zn  Zn18  1  0.328330  0.328330  0.337830  1
  Zn  Zn19  1  0.671670  0.671670  0.662170  1
  Zn  Zn20  1  0.331643  0.331643  0.005390  1
  Zn  Zn21  1  0.334848  0.006218  0.335136  1
  Zn  Zn22  1  0.668357  0.668357  0.994610  1
  Zn  Zn23  1  0.665152  0.993782  0.664864  1
  Zn  Zn24  1  0.006218  0.334848  0.335136  1
  Zn  Zn25  1  0.993782  0.665152  0.664864  1
  Ni  Ni26  1  0.000000  0.500000  0.500000  1
  Ni  Ni27  1  0.500000  0.000000  0.500000  1
  Ni  Ni28  1  0.000000  0.000000  0.000000  1
  C  C29  1  0.500000  0.500000  0.500000  1
