# generated using pymatgen
data_GdHoCCl
_symmetry_space_group_name_H-M   'P 1'
_cell_length_a   7.13611905
_cell_length_b   7.13611914
_cell_length_c   7.13611862
_cell_angle_alpha   29.78604677
_cell_angle_beta   29.78604207
_cell_angle_gamma   29.78604545
_symmetry_Int_Tables_number   1
_chemical_formula_structural   GdHoCCl
_chemical_formula_sum   'Gd1 Ho1 C1 Cl1'
_cell_volume   79.40969932
_cell_formula_units_Z   1
loop_
 _symmetry_equiv_pos_site_id
 _symmetry_equiv_pos_as_xyz
  1  'x, y, z'
loop_
 _atom_site_type_symbol
 _atom_site_label
 _atom_site_symmetry_multiplicity
 _atom_site_fract_x
 _atom_site_fract_y
 _atom_site_fract_z
 _atom_site_occupancy
  Gd  Gd0  1  0.229413  0.229413  0.229413  1
  Ho  Ho1  1  0.770455  0.770455  0.770455  1
  C  C2  1  0.497748  0.497748  0.497748  1
  Cl  Cl3  1  0.002383  0.002383  0.002383  1
