# generated using pymatgen
data_Na7PaS6
_symmetry_space_group_name_H-M   'P 1'
_cell_length_a   7.87342034
_cell_length_b   7.87323118
_cell_length_c   7.89810738
_cell_angle_alpha   60.10294942
_cell_angle_beta   119.90003701
_cell_angle_gamma   120.00106558
_symmetry_Int_Tables_number   1
_chemical_formula_structural   Na7PaS6
_chemical_formula_sum   'Na7 Pa1 S6'
_cell_volume   346.72508581
_cell_formula_units_Z   1
loop_
 _symmetry_equiv_pos_site_id
 _symmetry_equiv_pos_as_xyz
  1  'x, y, z'
loop_
 _atom_site_type_symbol
 _atom_site_label
 _atom_site_symmetry_multiplicity
 _atom_site_fract_x
 _atom_site_fract_y
 _atom_site_fract_z
 _atom_site_occupancy
  Na  Na0  1  0.341715  0.658260  0.025226  1
  Na  Na1  1  0.508340  0.942631  0.326273  1
  Na  Na2  1  0.760538  0.491688  0.326264  1
  Na  Na3  1  0.057435  0.239455  0.326283  1
  Na  Na4  1  0.275598  0.489369  0.668090  1
  Na  Na5  1  0.881887  0.724411  0.668073  1
  Na  Na6  1  0.510641  0.118115  0.668153  1
  Pa  Pa7  1  0.999145  0.000848  0.997441  1
  S  S8  1  0.769872  0.889455  0.225663  1
  S  S9  1  0.110549  0.654721  0.225722  1
  S  S10  1  0.345267  0.230069  0.225772  1
  S  S11  1  0.638817  0.796716  0.769013  1
  S  S12  1  0.926954  0.361207  0.769005  1
  S  S13  1  0.203250  0.073060  0.769018  1
