# generated using pymatgen
data_TbDy5SiBBr6
_symmetry_space_group_name_H-M   'P 1'
_cell_length_a   10.01254591
_cell_length_b   10.01310948
_cell_length_c   9.87749837
_cell_angle_alpha   109.46589531
_cell_angle_beta   109.45266395
_cell_angle_gamma   110.05181208
_symmetry_Int_Tables_number   1
_chemical_formula_structural   TbDy5SiBBr6
_chemical_formula_sum   'Tb2 Dy10 Si2 B2 Br12'
_cell_volume   757.01910121
_cell_formula_units_Z   2
loop_
 _symmetry_equiv_pos_site_id
 _symmetry_equiv_pos_as_xyz
  1  'x, y, z'
loop_
 _atom_site_type_symbol
 _atom_site_label
 _atom_site_symmetry_multiplicity
 _atom_site_fract_x
 _atom_site_fract_y
 _atom_site_fract_z
 _atom_site_occupancy
  Tb  Tb0  1  0.768585  0.027538  0.495324  1
  Tb  Tb1  1  0.489755  0.239681  0.479401  1
  Dy  Dy2  1  0.260533  0.010572  0.021130  1
  Dy  Dy3  1  0.033006  0.273822  0.004797  1
  Dy  Dy4  1  0.471862  0.731060  0.004879  1
  Dy  Dy5  1  0.770513  0.241594  0.278688  1
  Dy  Dy6  1  0.008236  0.037236  0.278717  1
  Dy  Dy7  1  0.022493  0.477511  0.749969  1
  Dy  Dy8  1  0.227518  0.272543  0.749954  1
  Dy  Dy9  1  0.258501  0.729579  0.221265  1
  Dy  Dy10  1  0.226213  0.466964  0.495070  1
  Dy  Dy11  1  0.462761  0.491750  0.221247  1
  Si  Si12  1  0.500237  0.998930  0.249155  1
  Si  Si13  1  0.248928  0.250672  0.249562  1
  B  B14  1  0.000801  0.250812  0.500754  1
  B  B15  1  0.249635  0.499615  0.999263  1
  Br  Br16  1  0.756153  0.743488  0.249610  1
  Br  Br17  1  0.504442  0.251084  0.994239  1
  Br  Br18  1  0.248481  0.995131  0.505695  1
  Br  Br19  1  0.513307  0.507397  0.758748  1
  Br  Br20  1  0.993416  0.986671  0.741985  1
  Br  Br21  1  0.745452  0.995445  0.990864  1
  Br  Br22  1  0.504230  0.754270  0.509053  1
  Br  Br23  1  0.757221  0.510585  0.505698  1
  Br  Br24  1  0.993847  0.506184  0.250002  1
  Br  Br25  1  0.989811  0.743175  0.994248  1
  Br  Br26  1  0.248596  0.754915  0.741572  1
  Br  Br27  1  0.745469  0.251774  0.759109  1
