# generated using pymatgen
data_Rb3BaIr2O9
_symmetry_space_group_name_H-M   'P 1'
_cell_length_a   6.34812815
_cell_length_b   6.34812900
_cell_length_c   15.97124368
_cell_angle_alpha   89.37865234
_cell_angle_beta   89.37865001
_cell_angle_gamma   119.80824101
_symmetry_Int_Tables_number   1
_chemical_formula_structural   Rb3BaIr2O9
_chemical_formula_sum   'Rb6 Ba2 Ir4 O18'
_cell_volume   558.33539447
_cell_formula_units_Z   2
loop_
 _symmetry_equiv_pos_site_id
 _symmetry_equiv_pos_as_xyz
  1  'x, y, z'
loop_
 _atom_site_type_symbol
 _atom_site_label
 _atom_site_symmetry_multiplicity
 _atom_site_fract_x
 _atom_site_fract_y
 _atom_site_fract_z
 _atom_site_occupancy
  Rb  Rb0  1  0.995290  0.004710  0.250000  1
  Rb  Rb1  1  0.004710  0.995290  0.750000  1
  Rb  Rb2  1  0.325535  0.660502  0.114920  1
  Rb  Rb3  1  0.674465  0.339498  0.885080  1
  Rb  Rb4  1  0.660502  0.325535  0.614920  1
  Rb  Rb5  1  0.339498  0.674465  0.385080  1
  Ba  Ba6  1  0.000000  0.000000  0.000000  1
  Ba  Ba7  1  0.000000  0.000000  0.500000  1
  Ir  Ir8  1  0.678357  0.348011  0.339613  1
  Ir  Ir9  1  0.321643  0.651989  0.660387  1
  Ir  Ir10  1  0.348011  0.678357  0.839613  1
  Ir  Ir11  1  0.651989  0.321643  0.160387  1
  O  O12  1  0.648745  0.833308  0.892451  1
  O  O13  1  0.535987  0.464013  0.250000  1
  O  O14  1  0.165722  0.788995  0.600644  1
  O  O15  1  0.536588  0.077565  0.255966  1
  O  O16  1  0.211005  0.834278  0.899356  1
  O  O17  1  0.922435  0.463412  0.244034  1
  O  O18  1  0.351255  0.166692  0.107549  1
  O  O19  1  0.834278  0.211005  0.399356  1
  O  O20  1  0.463412  0.922435  0.744034  1
  O  O21  1  0.464013  0.535987  0.750000  1
  O  O22  1  0.833308  0.648745  0.392451  1
  O  O23  1  0.787328  0.602567  0.092933  1
  O  O24  1  0.602567  0.787328  0.592933  1
  O  O25  1  0.212672  0.397433  0.907067  1
  O  O26  1  0.077565  0.536588  0.755966  1
  O  O27  1  0.397433  0.212672  0.407067  1
  O  O28  1  0.166692  0.351255  0.607549  1
  O  O29  1  0.788995  0.165722  0.100644  1
