# generated using pymatgen
data_Tb4ErTm3(ReC2)4
_symmetry_space_group_name_H-M   'P 1'
_cell_length_a   5.09499500
_cell_length_b   6.58287711
_cell_length_c   9.81654417
_cell_angle_alpha   90.02122676
_cell_angle_beta   90.00000000
_cell_angle_gamma   90.00000000
_symmetry_Int_Tables_number   1
_chemical_formula_structural   Tb4ErTm3(ReC2)4
_chemical_formula_sum   'Tb4 Er1 Tm3 Re4 C8'
_cell_volume   329.24417885
_cell_formula_units_Z   1
loop_
 _symmetry_equiv_pos_site_id
 _symmetry_equiv_pos_as_xyz
  1  'x, y, z'
loop_
 _atom_site_type_symbol
 _atom_site_label
 _atom_site_symmetry_multiplicity
 _atom_site_fract_x
 _atom_site_fract_y
 _atom_site_fract_z
 _atom_site_occupancy
  Tb  Tb0  1  0.750000  0.466953  0.785016  1
  Tb  Tb1  1  0.250000  0.033030  0.285220  1
  Tb  Tb2  1  0.750000  0.967172  0.714715  1
  Tb  Tb3  1  0.250000  0.532861  0.215000  1
  Er  Er4  1  0.750000  0.822900  0.057122  1
  Tm  Tm5  1  0.250000  0.676318  0.557476  1
  Tm  Tm6  1  0.750000  0.323599  0.442593  1
  Tm  Tm7  1  0.250000  0.176490  0.942451  1
  Re  Re8  1  0.750000  0.277906  0.133683  1
  Re  Re9  1  0.250000  0.222230  0.633594  1
  Re  Re10  1  0.750000  0.777821  0.366559  1
  Re  Re11  1  0.250000  0.722200  0.866195  1
  C  C12  1  0.750000  0.173261  0.950382  1
  C  C13  1  0.250000  0.827270  0.049341  1
  C  C14  1  0.750000  0.672585  0.549579  1
  C  C15  1  0.250000  0.327378  0.450496  1
  C  C16  1  0.750000  0.046109  0.260126  1
  C  C17  1  0.250000  0.454172  0.759864  1
  C  C18  1  0.750000  0.545542  0.240529  1
  C  C19  1  0.250000  0.954204  0.740059  1
