# generated using pymatgen
data_Zr6Ta5Al3Ga8Os7
_symmetry_space_group_name_H-M   'P 1'
_cell_length_a   8.89908903
_cell_length_b   8.89908849
_cell_length_c   8.87146875
_cell_angle_alpha   59.89695042
_cell_angle_beta   59.89695475
_cell_angle_gamma   59.99999116
_symmetry_Int_Tables_number   1
_chemical_formula_structural   Zr6Ta5Al3Ga8Os7
_chemical_formula_sum   'Zr6 Ta5 Al3 Ga8 Os7'
_cell_volume   496.01336432
_cell_formula_units_Z   1
loop_
 _symmetry_equiv_pos_site_id
 _symmetry_equiv_pos_as_xyz
  1  'x, y, z'
loop_
 _atom_site_type_symbol
 _atom_site_label
 _atom_site_symmetry_multiplicity
 _atom_site_fract_x
 _atom_site_fract_y
 _atom_site_fract_z
 _atom_site_occupancy
  Zr  Zr0  1  0.703485  0.703485  0.299529  1
  Zr  Zr1  1  0.293500  0.703485  0.299529  1
  Zr  Zr2  1  0.703485  0.293500  0.299529  1
  Zr  Zr3  1  0.305498  0.305498  0.702635  1
  Zr  Zr4  1  0.686370  0.305498  0.702635  1
  Zr  Zr5  1  0.305498  0.686370  0.702635  1
  Ta  Ta6  1  0.878008  0.878008  0.365976  1
  Ta  Ta7  1  0.874542  0.371038  0.879877  1
  Ta  Ta8  1  0.371038  0.874542  0.879877  1
  Ta  Ta9  1  0.874542  0.874542  0.879877  1
  Ta  Ta10  1  0.126025  0.126025  0.621926  1
  Al  Al11  1  0.120999  0.638072  0.119930  1
  Al  Al12  1  0.638072  0.120999  0.119930  1
  Al  Al13  1  0.120999  0.120999  0.119930  1
  Ga  Ga14  1  0.653911  0.653911  0.038266  1
  Ga  Ga15  1  0.657473  0.029825  0.655229  1
  Ga  Ga16  1  0.029825  0.657473  0.655229  1
  Ga  Ga17  1  0.657473  0.657473  0.655229  1
  Ga  Ga18  1  0.337217  0.337217  0.988349  1
  Ga  Ga19  1  0.341781  0.979127  0.337312  1
  Ga  Ga20  1  0.979127  0.341781  0.337312  1
  Ga  Ga21  1  0.341781  0.341781  0.337312  1
  Os  Os22  1  0.003654  0.003654  0.989039  1
  Os  Os23  1  0.998733  0.998733  0.504876  1
  Os  Os24  1  0.497657  0.998733  0.504876  1
  Os  Os25  1  0.998733  0.497657  0.504876  1
  Os  Os26  1  0.501646  0.501646  0.999425  1
  Os  Os27  1  0.997283  0.501646  0.999425  1
  Os  Os28  1  0.501646  0.997283  0.999425  1
