# generated using pymatgen
data_Ho4TmCo16(P4Os)3
_symmetry_space_group_name_H-M   'P 1'
_cell_length_a   11.99510900
_cell_length_b   11.99510950
_cell_length_c   3.71559100
_cell_angle_alpha   90.00000000
_cell_angle_beta   90.00000000
_cell_angle_gamma   120.00048767
_symmetry_Int_Tables_number   1
_chemical_formula_structural   Ho4TmCo16(P4Os)3
_chemical_formula_sum   'Ho4 Tm1 Co16 P12 Os3'
_cell_volume   462.98275555
_cell_formula_units_Z   1
loop_
 _symmetry_equiv_pos_site_id
 _symmetry_equiv_pos_as_xyz
  1  'x, y, z'
loop_
 _atom_site_type_symbol
 _atom_site_label
 _atom_site_symmetry_multiplicity
 _atom_site_fract_x
 _atom_site_fract_y
 _atom_site_fract_z
 _atom_site_occupancy
  Ho  Ho0  1  0.666796  0.333359  0.000000  1
  Ho  Ho1  1  0.333359  0.666796  0.000000  1
  Ho  Ho2  1  0.184303  0.999814  0.500000  1
  Ho  Ho3  1  0.999814  0.184303  0.500000  1
  Tm  Tm4  1  0.815476  0.815476  0.500000  1
  Co  Co5  1  0.874220  0.359024  0.500000  1
  Co  Co6  1  0.641142  0.515438  0.500000  1
  Co  Co7  1  0.485002  0.125739  0.500000  1
  Co  Co8  1  0.359024  0.874220  0.500000  1
  Co  Co9  1  0.515438  0.641142  0.500000  1
  Co  Co10  1  0.125739  0.485002  0.500000  1
  Co  Co11  1  0.803650  0.179620  0.000000  1
  Co  Co12  1  0.819990  0.624358  0.000000  1
  Co  Co13  1  0.376304  0.196392  0.000000  1
  Co  Co14  1  0.179620  0.803650  0.000000  1
  Co  Co15  1  0.624358  0.819990  0.000000  1
  Co  Co16  1  0.196392  0.376304  0.000000  1
  Co  Co17  1  0.283447  0.283447  0.500000  1
  Co  Co18  1  0.716691  0.999514  0.500000  1
  Co  Co19  1  0.999514  0.716691  0.500000  1
  Co  Co20  1  0.999674  0.999674  0.000000  1
  P  P21  1  0.687707  0.166217  0.500000  1
  P  P22  1  0.833567  0.521203  0.500000  1
  P  P23  1  0.478951  0.312522  0.500000  1
  P  P24  1  0.166217  0.687707  0.500000  1
  P  P25  1  0.521203  0.833567  0.500000  1
  P  P26  1  0.312522  0.478951  0.500000  1
  P  P27  1  0.178926  0.178926  0.000000  1
  P  P28  1  0.820821  0.999236  0.000000  1
  P  P29  1  0.999236  0.820821  0.000000  1
  P  P30  1  0.638438  0.638438  0.000000  1
  P  P31  1  0.362193  0.000021  0.000000  1
  P  P32  1  0.000021  0.362193  0.000000  1
  Os  Os33  1  0.446658  0.446658  0.000000  1
  Os  Os34  1  0.553878  0.999711  0.000000  1
  Os  Os35  1  0.999711  0.553878  0.000000  1
