# generated using pymatgen
data_TbDy(Hg2O)2
_symmetry_space_group_name_H-M   'P 1'
_cell_length_a   5.58584517
_cell_length_b   5.60739641
_cell_length_c   11.05610500
_cell_angle_alpha   86.02172684
_cell_angle_beta   90.01399098
_cell_angle_gamma   89.99968321
_symmetry_Int_Tables_number   1
_chemical_formula_structural   TbDy(Hg2O)2
_chemical_formula_sum   'Tb2 Dy2 Hg8 O4'
_cell_volume   345.46540920
_cell_formula_units_Z   2
loop_
 _symmetry_equiv_pos_site_id
 _symmetry_equiv_pos_as_xyz
  1  'x, y, z'
loop_
 _atom_site_type_symbol
 _atom_site_label
 _atom_site_symmetry_multiplicity
 _atom_site_fract_x
 _atom_site_fract_y
 _atom_site_fract_z
 _atom_site_occupancy
  Tb  Tb0  1  0.574973  0.487152  0.098753  1
  Tb  Tb1  1  0.074980  0.987435  0.098779  1
  Dy  Dy2  1  0.574882  0.012415  0.901728  1
  Dy  Dy3  1  0.074862  0.512628  0.901758  1
  Hg  Hg4  1  0.575121  0.967262  0.276678  1
  Hg  Hg5  1  0.075060  0.964956  0.415264  1
  Hg  Hg6  1  0.574939  0.035175  0.585424  1
  Hg  Hg7  1  0.074820  0.032538  0.723898  1
  Hg  Hg8  1  0.075239  0.461193  0.276893  1
  Hg  Hg9  1  0.575325  0.472648  0.414746  1
  Hg  Hg10  1  0.075224  0.527132  0.585851  1
  Hg  Hg11  1  0.574936  0.539130  0.723694  1
  O  O12  1  0.824693  0.250114  0.998907  1
  O  O13  1  0.825152  0.750053  0.999372  1
  O  O14  1  0.325156  0.250105  0.998885  1
  O  O15  1  0.324679  0.750065  0.999372  1
