# generated using pymatgen
data_Er3Th2(Cd2Ir)2
_symmetry_space_group_name_H-M   'P 1'
_cell_length_a   3.70682000
_cell_length_b   8.10518500
_cell_length_c   18.38363100
_cell_angle_alpha   90.00000000
_cell_angle_beta   90.00000000
_cell_angle_gamma   90.00000000
_symmetry_Int_Tables_number   1
_chemical_formula_structural   Er3Th2(Cd2Ir)2
_chemical_formula_sum   'Er6 Th4 Cd8 Ir4'
_cell_volume   552.32630046
_cell_formula_units_Z   2
loop_
 _symmetry_equiv_pos_site_id
 _symmetry_equiv_pos_as_xyz
  1  'x, y, z'
loop_
 _atom_site_type_symbol
 _atom_site_label
 _atom_site_symmetry_multiplicity
 _atom_site_fract_x
 _atom_site_fract_y
 _atom_site_fract_z
 _atom_site_occupancy
  Er  Er0  1  0.000000  0.500000  0.500000  1
  Er  Er1  1  0.000000  0.000000  0.000000  1
  Er  Er2  1  0.000000  0.608230  0.087151  1
  Er  Er3  1  0.000000  0.391770  0.912849  1
  Er  Er4  1  0.000000  0.891770  0.587151  1
  Er  Er5  1  0.000000  0.108230  0.412849  1
  Th  Th6  1  0.000000  0.741519  0.278583  1
  Th  Th7  1  0.000000  0.258481  0.721417  1
  Th  Th8  1  0.000000  0.758481  0.778583  1
  Th  Th9  1  0.000000  0.241519  0.221417  1
  Cd  Cd10  1  0.500000  0.711480  0.939583  1
  Cd  Cd11  1  0.500000  0.288520  0.060417  1
  Cd  Cd12  1  0.500000  0.788520  0.439583  1
  Cd  Cd13  1  0.500000  0.211480  0.560417  1
  Cd  Cd14  1  0.500000  0.576105  0.641079  1
  Cd  Cd15  1  0.500000  0.423895  0.358921  1
  Cd  Cd16  1  0.500000  0.923895  0.141079  1
  Cd  Cd17  1  0.500000  0.076105  0.858921  1
  Ir  Ir18  1  0.500000  0.521178  0.200407  1
  Ir  Ir19  1  0.500000  0.478822  0.799593  1
  Ir  Ir20  1  0.500000  0.978822  0.700407  1
  Ir  Ir21  1  0.500000  0.021178  0.299593  1
