# generated using pymatgen
data_HoLu3(Ni5Sn)4
_symmetry_space_group_name_H-M   'P 1'
_cell_length_a   4.83250200
_cell_length_b   7.99130901
_cell_length_c   10.19794801
_cell_angle_alpha   89.99466568
_cell_angle_beta   90.00000000
_cell_angle_gamma   90.00000000
_symmetry_Int_Tables_number   1
_chemical_formula_structural   HoLu3(Ni5Sn)4
_chemical_formula_sum   'Ho1 Lu3 Ni20 Sn4'
_cell_volume   393.82452557
_cell_formula_units_Z   1
loop_
 _symmetry_equiv_pos_site_id
 _symmetry_equiv_pos_as_xyz
  1  'x, y, z'
loop_
 _atom_site_type_symbol
 _atom_site_label
 _atom_site_symmetry_multiplicity
 _atom_site_fract_x
 _atom_site_fract_y
 _atom_site_fract_z
 _atom_site_occupancy
  Ho  Ho0  1  0.750000  0.247186  0.560449  1
  Lu  Lu1  1  0.250000  0.254084  0.060593  1
  Lu  Lu2  1  0.750000  0.745889  0.939373  1
  Lu  Lu3  1  0.250000  0.753876  0.439256  1
  Ni  Ni4  1  0.750000  0.912630  0.482465  1
  Ni  Ni5  1  0.250000  0.586616  0.982859  1
  Ni  Ni6  1  0.750000  0.413598  0.017317  1
  Ni  Ni7  1  0.250000  0.084276  0.516906  1
  Ni  Ni8  1  0.250000  0.188502  0.742658  1
  Ni  Ni9  1  0.750000  0.311097  0.242168  1
  Ni  Ni10  1  0.250000  0.688694  0.757807  1
  Ni  Ni11  1  0.750000  0.811284  0.257868  1
  Ni  Ni12  1  0.750000  0.548337  0.401375  1
  Ni  Ni13  1  0.250000  0.953073  0.901943  1
  Ni  Ni14  1  0.750000  0.047020  0.098118  1
  Ni  Ni15  1  0.250000  0.454138  0.598314  1
  Ni  Ni16  1  0.498374  0.065973  0.309118  1
  Ni  Ni17  1  0.501057  0.434026  0.809567  1
  Ni  Ni18  1  0.001243  0.566077  0.190725  1
  Ni  Ni19  1  0.998894  0.933320  0.690862  1
  Ni  Ni20  1  0.501106  0.933320  0.690862  1
  Ni  Ni21  1  0.498757  0.566077  0.190725  1
  Ni  Ni22  1  0.998943  0.434026  0.809567  1
  Ni  Ni23  1  0.001626  0.065973  0.309118  1
  Sn  Sn24  1  0.750000  0.640443  0.639703  1
  Sn  Sn25  1  0.250000  0.860116  0.139454  1
  Sn  Sn26  1  0.750000  0.139582  0.861011  1
  Sn  Sn27  1  0.250000  0.360765  0.359818  1
