# generated using pymatgen
data_Tl6Ir3RhCl18
_symmetry_space_group_name_H-M   'P 1'
_cell_length_a   7.21133200
_cell_length_b   7.21133225
_cell_length_c   18.39686000
_cell_angle_alpha   90.00000000
_cell_angle_beta   90.00000000
_cell_angle_gamma   119.99999884
_symmetry_Int_Tables_number   1
_chemical_formula_structural   Tl6Ir3RhCl18
_chemical_formula_sum   'Tl6 Ir3 Rh1 Cl18'
_cell_volume   828.52446346
_cell_formula_units_Z   1
loop_
 _symmetry_equiv_pos_site_id
 _symmetry_equiv_pos_as_xyz
  1  'x, y, z'
loop_
 _atom_site_type_symbol
 _atom_site_label
 _atom_site_symmetry_multiplicity
 _atom_site_fract_x
 _atom_site_fract_y
 _atom_site_fract_z
 _atom_site_occupancy
  Tl  Tl0  1  0.666667  0.333333  0.948347  1
  Tl  Tl1  1  0.333333  0.666667  0.449191  1
  Tl  Tl2  1  0.666667  0.333333  0.552515  1
  Tl  Tl3  1  0.333333  0.666667  0.050804  1
  Tl  Tl4  1  0.000000  0.000000  0.749102  1
  Tl  Tl5  1  0.000000  0.000000  0.250750  1
  Ir  Ir6  1  0.333333  0.666667  0.665160  1
  Ir  Ir7  1  0.666667  0.333333  0.163718  1
  Ir  Ir8  1  0.666667  0.333333  0.336053  1
  Rh  Rh9  1  0.333333  0.666667  0.836242  1
  Cl  Cl10  1  0.819439  0.638878  0.409368  1
  Cl  Cl11  1  0.180393  0.360787  0.908757  1
  Cl  Cl12  1  0.180393  0.819607  0.908757  1
  Cl  Cl13  1  0.180397  0.360796  0.591520  1
  Cl  Cl14  1  0.639213  0.819607  0.908757  1
  Cl  Cl15  1  0.361122  0.180561  0.409368  1
  Cl  Cl16  1  0.040121  0.520060  0.749469  1
  Cl  Cl17  1  0.819439  0.180561  0.409368  1
  Cl  Cl18  1  0.520972  0.041944  0.249873  1
  Cl  Cl19  1  0.479940  0.520060  0.749469  1
  Cl  Cl20  1  0.520972  0.479028  0.249873  1
  Cl  Cl21  1  0.958056  0.479028  0.249873  1
  Cl  Cl22  1  0.361085  0.180543  0.090386  1
  Cl  Cl23  1  0.479940  0.959879  0.749469  1
  Cl  Cl24  1  0.819457  0.638915  0.090386  1
  Cl  Cl25  1  0.180397  0.819603  0.591520  1
  Cl  Cl26  1  0.639204  0.819603  0.591520  1
  Cl  Cl27  1  0.819457  0.180543  0.090386  1
