# generated using pymatgen
data_TbSc7(CuP)12
_symmetry_space_group_name_H-M   'P 1'
_cell_length_a   3.76151000
_cell_length_b   10.41006901
_cell_length_c   12.63536300
_cell_angle_alpha   90.00305465
_cell_angle_beta   90.00000000
_cell_angle_gamma   90.00000000
_symmetry_Int_Tables_number   1
_chemical_formula_structural   TbSc7(CuP)12
_chemical_formula_sum   'Tb1 Sc7 Cu12 P12'
_cell_volume   494.77022037
_cell_formula_units_Z   1
loop_
 _symmetry_equiv_pos_site_id
 _symmetry_equiv_pos_as_xyz
  1  'x, y, z'
loop_
 _atom_site_type_symbol
 _atom_site_label
 _atom_site_symmetry_multiplicity
 _atom_site_fract_x
 _atom_site_fract_y
 _atom_site_fract_z
 _atom_site_occupancy
  Tb  Tb0  1  0.250000  0.929358  0.790359  1
  Sc  Sc1  1  0.750000  0.427553  0.711094  1
  Sc  Sc2  1  0.250000  0.571753  0.289232  1
  Sc  Sc3  1  0.750000  0.073246  0.210664  1
  Sc  Sc4  1  0.250000  0.837407  0.502764  1
  Sc  Sc5  1  0.750000  0.339796  0.995647  1
  Sc  Sc6  1  0.250000  0.658428  0.006184  1
  Sc  Sc7  1  0.750000  0.160624  0.493216  1
  Cu  Cu8  1  0.250000  0.409460  0.512781  1
  Cu  Cu9  1  0.750000  0.906440  0.988276  1
  Cu  Cu10  1  0.250000  0.093045  0.015421  1
  Cu  Cu11  1  0.750000  0.591817  0.486793  1
  Cu  Cu12  1  0.250000  0.273088  0.330189  1
  Cu  Cu13  1  0.750000  0.772188  0.169855  1
  Cu  Cu14  1  0.250000  0.228430  0.830732  1
  Cu  Cu15  1  0.750000  0.728494  0.670588  1
  Cu  Cu16  1  0.250000  0.863137  0.285830  1
  Cu  Cu17  1  0.750000  0.362326  0.214303  1
  Cu  Cu18  1  0.250000  0.633523  0.786367  1
  Cu  Cu19  1  0.750000  0.140877  0.711790  1
  P  P20  1  0.250000  0.247698  0.638354  1
  P  P21  1  0.750000  0.738358  0.864790  1
  P  P22  1  0.250000  0.255224  0.139383  1
  P  P23  1  0.750000  0.753646  0.360500  1
  P  P24  1  0.250000  0.607462  0.605282  1
  P  P25  1  0.750000  0.109169  0.896411  1
  P  P26  1  0.250000  0.893417  0.104565  1
  P  P27  1  0.750000  0.394161  0.395045  1
  P  P28  1  0.250000  0.058073  0.372698  1
  P  P29  1  0.750000  0.556963  0.126940  1
  P  P30  1  0.250000  0.441171  0.875013  1
  P  P31  1  0.750000  0.943667  0.618934  1
