# generated using pymatgen
data_Y10FeAg3
_symmetry_space_group_name_H-M   'P 1'
_cell_length_a   9.50102800
_cell_length_b   9.50102920
_cell_length_c   9.67161900
_cell_angle_alpha   90.00000000
_cell_angle_beta   90.00000000
_cell_angle_gamma   119.99999581
_symmetry_Int_Tables_number   1
_chemical_formula_structural   Y10FeAg3
_chemical_formula_sum   'Y20 Fe2 Ag6'
_cell_volume   756.08579843
_cell_formula_units_Z   2
loop_
 _symmetry_equiv_pos_site_id
 _symmetry_equiv_pos_as_xyz
  1  'x, y, z'
loop_
 _atom_site_type_symbol
 _atom_site_label
 _atom_site_symmetry_multiplicity
 _atom_site_fract_x
 _atom_site_fract_y
 _atom_site_fract_z
 _atom_site_occupancy
  Y  Y0  1  0.000000  0.000000  0.500000  1
  Y  Y1  1  0.000000  0.000000  0.000000  1
  Y  Y2  1  0.541954  0.458046  0.250000  1
  Y  Y3  1  0.541954  0.083910  0.250000  1
  Y  Y4  1  0.916090  0.458046  0.250000  1
  Y  Y5  1  0.458046  0.541954  0.750000  1
  Y  Y6  1  0.458046  0.916090  0.750000  1
  Y  Y7  1  0.083910  0.541954  0.750000  1
  Y  Y8  1  0.211001  0.788999  0.436643  1
  Y  Y9  1  0.211001  0.422002  0.436643  1
  Y  Y10  1  0.577998  0.788999  0.436643  1
  Y  Y11  1  0.788999  0.211001  0.563357  1
  Y  Y12  1  0.788999  0.577998  0.563357  1
  Y  Y13  1  0.422002  0.211001  0.563357  1
  Y  Y14  1  0.788999  0.211001  0.936643  1
  Y  Y15  1  0.788999  0.577998  0.936643  1
  Y  Y16  1  0.422002  0.211001  0.936643  1
  Y  Y17  1  0.211001  0.788999  0.063357  1
  Y  Y18  1  0.211001  0.422002  0.063357  1
  Y  Y19  1  0.577998  0.788999  0.063357  1
  Fe  Fe20  1  0.333333  0.666667  0.250000  1
  Fe  Fe21  1  0.666667  0.333333  0.750000  1
  Ag  Ag22  1  0.883793  0.116207  0.250000  1
  Ag  Ag23  1  0.883793  0.767585  0.250000  1
  Ag  Ag24  1  0.232415  0.116207  0.250000  1
  Ag  Ag25  1  0.116207  0.883793  0.750000  1
  Ag  Ag26  1  0.116207  0.232415  0.750000  1
  Ag  Ag27  1  0.767585  0.883793  0.750000  1
