# generated using pymatgen
data_K2Cu2H9
_symmetry_space_group_name_H-M   'P 1'
_cell_length_a   4.65763286
_cell_length_b   5.06940138
_cell_length_c   9.24557816
_cell_angle_alpha   93.31491570
_cell_angle_beta   103.09827336
_cell_angle_gamma   117.12840899
_symmetry_Int_Tables_number   1
_chemical_formula_structural   K2Cu2H9
_chemical_formula_sum   'K2 Cu2 H9'
_cell_volume   185.93116888
_cell_formula_units_Z   1
loop_
 _symmetry_equiv_pos_site_id
 _symmetry_equiv_pos_as_xyz
  1  'x, y, z'
loop_
 _atom_site_type_symbol
 _atom_site_label
 _atom_site_symmetry_multiplicity
 _atom_site_fract_x
 _atom_site_fract_y
 _atom_site_fract_z
 _atom_site_occupancy
  K  K0  1  0.875689  0.813560  0.553405  1
  K  K1  1  0.621397  0.654698  0.128759  1
  Cu  Cu2  1  0.450763  0.121918  0.341842  1
  Cu  Cu3  1  0.061208  0.345342  0.341738  1
  H  H4  1  0.838323  0.287947  0.468196  1
  H  H5  1  0.156161  0.876709  0.989745  1
  H  H6  1  0.258929  0.733191  0.340064  1
  H  H7  1  0.177017  0.188794  0.215449  1
  H  H8  1  0.417991  0.756438  0.740380  1
  H  H9  1  0.675392  0.185174  0.215209  1
  H  H10  1  0.056448  0.733909  0.928874  1
  H  H11  1  0.331941  0.274482  0.467939  1
  H  H12  1  0.512586  0.928284  0.763375  1
