# generated using pymatgen
data_K2Yb3Tc2N7
_symmetry_space_group_name_H-M   'P 1'
_cell_length_a   6.36824449
_cell_length_b   9.33427673
_cell_length_c   9.25195000
_cell_angle_alpha   117.53885404
_cell_angle_beta   95.32878416
_cell_angle_gamma   88.09592980
_symmetry_Int_Tables_number   1
_chemical_formula_structural   K2Yb3Tc2N7
_chemical_formula_sum   'K4 Yb6 Tc4 N14'
_cell_volume   485.51411997
_cell_formula_units_Z   2
loop_
 _symmetry_equiv_pos_site_id
 _symmetry_equiv_pos_as_xyz
  1  'x, y, z'
loop_
 _atom_site_type_symbol
 _atom_site_label
 _atom_site_symmetry_multiplicity
 _atom_site_fract_x
 _atom_site_fract_y
 _atom_site_fract_z
 _atom_site_occupancy
  K  K0  1  0.853227  0.596914  0.308441  1
  K  K1  1  0.280516  0.989780  0.555674  1
  K  K2  1  0.716693  0.415553  0.860496  1
  K  K3  1  0.288362  0.601361  0.156532  1
  Yb  Yb4  1  0.409686  0.798131  0.925649  1
  Yb  Yb5  1  0.579307  0.204983  0.053000  1
  Yb  Yb6  1  0.174504  0.422429  0.698465  1
  Yb  Yb7  1  0.913089  0.837591  0.747497  1
  Yb  Yb8  1  0.092454  0.165094  0.247510  1
  Yb  Yb9  1  0.758710  0.022425  0.464529  1
  Tc  Tc10  1  0.589595  0.350167  0.480722  1
  Tc  Tc11  1  0.436779  0.632094  0.526788  1
  Tc  Tc12  1  0.101290  0.190458  0.916047  1
  Tc  Tc13  1  0.870651  0.815565  0.070552  1
  N  N14  1  0.507621  0.541571  0.680416  1
  N  N15  1  0.499976  0.429572  0.322841  1
  N  N16  1  0.168384  0.688212  0.548499  1
  N  N17  1  0.863229  0.292153  0.493055  1
  N  N18  1  0.417656  0.188708  0.447456  1
  N  N19  1  0.607993  0.790653  0.548181  1
  N  N20  1  0.928629  0.085247  0.726970  1
  N  N21  1  0.014163  0.928391  0.271765  1
  N  N22  1  0.243034  0.047227  0.974629  1
  N  N23  1  0.745112  0.954537  0.000523  1
  N  N24  1  0.303116  0.309099  0.886582  1
  N  N25  1  0.941589  0.306389  0.084468  1
  N  N26  1  0.046446  0.679907  0.909820  1
  N  N27  1  0.648191  0.715789  0.092895  1
