# generated using pymatgen
data_Sc7Si16Tc13
_symmetry_space_group_name_H-M   'P 1'
_cell_length_a   6.58214199
_cell_length_b   6.65365501
_cell_length_c   12.30727655
_cell_angle_alpha   90.51010289
_cell_angle_beta   89.74382896
_cell_angle_gamma   91.17247410
_symmetry_Int_Tables_number   1
_chemical_formula_structural   Sc7Si16Tc13
_chemical_formula_sum   'Sc7 Si16 Tc13'
_cell_volume   538.86172670
_cell_formula_units_Z   1
loop_
 _symmetry_equiv_pos_site_id
 _symmetry_equiv_pos_as_xyz
  1  'x, y, z'
loop_
 _atom_site_type_symbol
 _atom_site_label
 _atom_site_symmetry_multiplicity
 _atom_site_fract_x
 _atom_site_fract_y
 _atom_site_fract_z
 _atom_site_occupancy
  Sc  Sc0  1  0.986295  0.821933  0.904961  1
  Sc  Sc1  1  0.512415  0.332331  0.091405  1
  Sc  Sc2  1  0.003768  0.171837  0.412654  1
  Sc  Sc3  1  0.505093  0.340325  0.416613  1
  Sc  Sc4  1  0.002153  0.166717  0.092628  1
  Sc  Sc5  1  0.493029  0.658533  0.910727  1
  Sc  Sc6  1  0.983425  0.837342  0.595118  1
  Si  Si7  1  0.650378  0.940637  0.449553  1
  Si  Si8  1  0.171175  0.542160  0.047187  1
  Si  Si9  1  0.328165  0.045017  0.953387  1
  Si  Si10  1  0.818033  0.458423  0.551760  1
  Si  Si11  1  0.342774  0.039981  0.550737  1
  Si  Si12  1  0.849147  0.438905  0.947910  1
  Si  Si13  1  0.654372  0.945424  0.047456  1
  Si  Si14  1  0.172919  0.550125  0.461368  1
  Si  Si15  1  0.481683  0.371629  0.728146  1
  Si  Si16  1  0.975113  0.139276  0.764327  1
  Si  Si17  1  0.532097  0.648115  0.252095  1
  Si  Si18  1  0.014002  0.870006  0.250364  1
  Si  Si19  1  0.675406  0.839988  0.746426  1
  Si  Si20  1  0.208267  0.642424  0.740823  1
  Si  Si21  1  0.308148  0.150334  0.252513  1
  Si  Si22  1  0.806924  0.367372  0.252855  1
  Tc  Tc23  1  0.695241  0.131476  0.626143  1
  Tc  Tc24  1  0.206001  0.358864  0.872074  1
  Tc  Tc25  1  0.304076  0.857040  0.125873  1
  Tc  Tc26  1  0.843617  0.652300  0.383709  1
  Tc  Tc27  1  0.298520  0.860157  0.374959  1
  Tc  Tc28  1  0.838278  0.647847  0.116093  1
  Tc  Tc29  1  0.658834  0.143523  0.874447  1
  Tc  Tc30  1  0.160975  0.342660  0.622687  1
  Tc  Tc31  1  0.516088  0.687788  0.580293  1
  Tc  Tc32  1  0.828330  0.510895  0.752460  1
  Tc  Tc33  1  0.323045  0.988667  0.750145  1
  Tc  Tc34  1  0.181040  0.486753  0.251511  1
  Tc  Tc35  1  0.671174  0.013196  0.248597  1
