# generated using pymatgen
data_Ca3La5(CdCo)2
_symmetry_space_group_name_H-M   'P 1'
_cell_length_a   9.94756029
_cell_length_b   9.94756016
_cell_length_c   9.94756100
_cell_angle_alpha   60.00000052
_cell_angle_beta   60.00000096
_cell_angle_gamma   60.00000212
_symmetry_Int_Tables_number   1
_chemical_formula_structural   Ca3La5(CdCo)2
_chemical_formula_sum   'Ca6 La10 Cd4 Co4'
_cell_volume   696.04093090
_cell_formula_units_Z   2
loop_
 _symmetry_equiv_pos_site_id
 _symmetry_equiv_pos_as_xyz
  1  'x, y, z'
loop_
 _atom_site_type_symbol
 _atom_site_label
 _atom_site_symmetry_multiplicity
 _atom_site_fract_x
 _atom_site_fract_y
 _atom_site_fract_z
 _atom_site_occupancy
  Ca  Ca0  1  0.938613  0.561387  0.561387  1
  Ca  Ca1  1  0.561388  0.938612  0.938612  1
  Ca  Ca2  1  0.561387  0.938613  0.561387  1
  Ca  Ca3  1  0.561387  0.561387  0.938613  1
  Ca  Ca4  1  0.938612  0.561388  0.938612  1
  Ca  Ca5  1  0.938612  0.938612  0.561388  1
  La  La6  1  0.809816  0.190185  0.190185  1
  La  La7  1  0.190186  0.809815  0.809815  1
  La  La8  1  0.190185  0.809816  0.190185  1
  La  La9  1  0.190185  0.190185  0.809816  1
  La  La10  1  0.809815  0.190186  0.809815  1
  La  La11  1  0.809815  0.809815  0.190186  1
  La  La12  1  0.344297  0.344297  0.344297  1
  La  La13  1  0.344297  0.344297  0.967109  1
  La  La14  1  0.967109  0.344297  0.344297  1
  La  La15  1  0.344297  0.967109  0.344297  1
  Cd  Cd16  1  0.578764  0.578764  0.578764  1
  Cd  Cd17  1  0.578764  0.578764  0.263706  1
  Cd  Cd18  1  0.263706  0.578764  0.578764  1
  Cd  Cd19  1  0.578764  0.263706  0.578764  1
  Co  Co20  1  0.138469  0.138469  0.138469  1
  Co  Co21  1  0.138469  0.138469  0.584591  1
  Co  Co22  1  0.584591  0.138469  0.138469  1
  Co  Co23  1  0.138469  0.584591  0.138469  1
