# generated using pymatgen
data_Bi2Pb2O7
_symmetry_space_group_name_H-M   'P 1'
_cell_length_a   6.77801087
_cell_length_b   6.69915582
_cell_length_c   7.92671761
_cell_angle_alpha   106.72646047
_cell_angle_beta   88.86353290
_cell_angle_gamma   100.29545982
_symmetry_Int_Tables_number   1
_chemical_formula_structural   Bi2Pb2O7
_chemical_formula_sum   'Bi4 Pb4 O14'
_cell_volume   338.95866042
_cell_formula_units_Z   2
loop_
 _symmetry_equiv_pos_site_id
 _symmetry_equiv_pos_as_xyz
  1  'x, y, z'
loop_
 _atom_site_type_symbol
 _atom_site_label
 _atom_site_symmetry_multiplicity
 _atom_site_fract_x
 _atom_site_fract_y
 _atom_site_fract_z
 _atom_site_occupancy
  Bi  Bi0  1  0.243422  0.543018  0.884867  1
  Bi  Bi1  1  0.756578  0.456982  0.115133  1
  Bi  Bi2  1  0.741766  0.469335  0.606786  1
  Bi  Bi3  1  0.258234  0.530665  0.393214  1
  Pb  Pb4  1  0.000000  0.000000  0.500000  1
  Pb  Pb5  1  0.465368  0.008241  0.261781  1
  Pb  Pb6  1  0.534632  0.991759  0.738219  1
  Pb  Pb7  1  0.000000  0.000000  0.000000  1
  O  O8  1  0.438709  0.674761  0.181493  1
  O  O9  1  0.561291  0.325239  0.818507  1
  O  O10  1  0.302621  0.926105  0.929650  1
  O  O11  1  0.697379  0.073895  0.070350  1
  O  O12  1  0.299022  0.916263  0.516591  1
  O  O13  1  0.700978  0.083737  0.483409  1
  O  O14  1  0.527709  0.349302  0.352990  1
  O  O15  1  0.472291  0.650698  0.647010  1
  O  O16  1  0.939402  0.657942  0.947859  1
  O  O17  1  0.060598  0.342058  0.052141  1
  O  O18  1  0.084634  0.350937  0.617330  1
  O  O19  1  0.915366  0.649063  0.382670  1
  O  O20  1  0.859728  0.933144  0.735133  1
  O  O21  1  0.140272  0.066856  0.264867  1
