# generated using pymatgen
data_Tb4Ga10CoNi5
_symmetry_space_group_name_H-M   'P 1'
_cell_length_a   8.33329001
_cell_length_b   8.33329052
_cell_length_c   5.51747380
_cell_angle_alpha   70.73743396
_cell_angle_beta   70.73743540
_cell_angle_gamma   95.18176405
_symmetry_Int_Tables_number   1
_chemical_formula_structural   Tb4Ga10CoNi5
_chemical_formula_sum   'Tb4 Ga10 Co1 Ni5'
_cell_volume   332.81934183
_cell_formula_units_Z   1
loop_
 _symmetry_equiv_pos_site_id
 _symmetry_equiv_pos_as_xyz
  1  'x, y, z'
loop_
 _atom_site_type_symbol
 _atom_site_label
 _atom_site_symmetry_multiplicity
 _atom_site_fract_x
 _atom_site_fract_y
 _atom_site_fract_z
 _atom_site_occupancy
  Tb  Tb0  1  0.579165  0.865762  0.778317  1
  Tb  Tb1  1  0.134238  0.420835  0.721683  1
  Tb  Tb2  1  0.421049  0.134396  0.224336  1
  Tb  Tb3  1  0.865604  0.578951  0.275664  1
  Ga  Ga4  1  0.499795  0.500205  0.750000  1
  Ga  Ga5  1  0.500043  0.499957  0.250000  1
  Ga  Ga6  1  0.260214  0.084250  0.831389  1
  Ga  Ga7  1  0.915750  0.739786  0.668611  1
  Ga  Ga8  1  0.739983  0.915737  0.174534  1
  Ga  Ga9  1  0.084263  0.260017  0.325466  1
  Ga  Ga10  1  0.790797  0.209203  0.750000  1
  Ga  Ga11  1  0.207132  0.792868  0.250000  1
  Ga  Ga12  1  0.209339  0.790661  0.750000  1
  Ga  Ga13  1  0.792695  0.207305  0.250000  1
  Co  Co14  1  0.000230  0.999770  0.250000  1
  Ni  Ni15  1  0.552333  0.261800  0.591006  1
  Ni  Ni16  1  0.738200  0.447667  0.908994  1
  Ni  Ni17  1  0.447599  0.738418  0.403627  1
  Ni  Ni18  1  0.261582  0.552401  0.096373  1
  Ni  Ni19  1  0.999990  0.000010  0.750000  1
