# generated using pymatgen
data_Dy17Tm3Si15Hg
_symmetry_space_group_name_H-M   'P 1'
_cell_length_a   7.43717956
_cell_length_b   7.70427074
_cell_length_c   14.66523414
_cell_angle_alpha   89.97773173
_cell_angle_beta   89.39563771
_cell_angle_gamma   90.11471831
_symmetry_Int_Tables_number   1
_chemical_formula_structural   Dy17Tm3Si15Hg
_chemical_formula_sum   'Dy17 Tm3 Si15 Hg1'
_cell_volume   840.24074313
_cell_formula_units_Z   1
loop_
 _symmetry_equiv_pos_site_id
 _symmetry_equiv_pos_as_xyz
  1  'x, y, z'
loop_
 _atom_site_type_symbol
 _atom_site_label
 _atom_site_symmetry_multiplicity
 _atom_site_fract_x
 _atom_site_fract_y
 _atom_site_fract_z
 _atom_site_occupancy
  Dy  Dy0  1  0.349584  0.012099  0.749121  1
  Dy  Dy1  1  0.975981  0.822449  0.101995  1
  Dy  Dy2  1  0.471042  0.684222  0.401049  1
  Dy  Dy3  1  0.519145  0.312885  0.899137  1
  Dy  Dy4  1  0.029857  0.182617  0.598057  1
  Dy  Dy5  1  0.029206  0.176779  0.899766  1
  Dy  Dy6  1  0.529679  0.316019  0.598140  1
  Dy  Dy7  1  0.474761  0.682685  0.101214  1
  Dy  Dy8  1  0.969920  0.816477  0.400547  1
  Dy  Dy9  1  0.674113  0.829593  0.873833  1
  Dy  Dy10  1  0.182158  0.679868  0.621586  1
  Dy  Dy11  1  0.821922  0.319923  0.126276  1
  Dy  Dy12  1  0.318094  0.178775  0.377544  1
  Dy  Dy13  1  0.322491  0.177088  0.124546  1
  Dy  Dy14  1  0.818673  0.320830  0.377428  1
  Dy  Dy15  1  0.182645  0.676214  0.877263  1
  Dy  Dy16  1  0.682346  0.821904  0.621729  1
  Tm  Tm17  1  0.648887  0.989359  0.250635  1
  Tm  Tm18  1  0.151178  0.511714  0.249076  1
  Tm  Tm19  1  0.849277  0.489000  0.747616  1
  Si  Si20  1  0.767804  0.629409  0.251896  1
  Si  Si21  1  0.267634  0.871753  0.251701  1
  Si  Si22  1  0.735207  0.128217  0.748111  1
  Si  Si23  1  0.230244  0.373809  0.747716  1
  Si  Si24  1  0.021307  0.103108  0.251605  1
  Si  Si25  1  0.522049  0.396007  0.252064  1
  Si  Si26  1  0.477870  0.603170  0.747654  1
  Si  Si27  1  0.977530  0.892950  0.748082  1
  Si  Si28  1  0.354337  0.971537  0.540000  1
  Si  Si29  1  0.650219  0.028759  0.041873  1
  Si  Si30  1  0.146232  0.470844  0.459859  1
  Si  Si31  1  0.161196  0.470396  0.043380  1
  Si  Si32  1  0.645523  0.028268  0.458729  1
  Si  Si33  1  0.350684  0.969026  0.961436  1
  Si  Si34  1  0.855101  0.529578  0.539508  1
  Hg  Hg35  1  0.836106  0.532664  0.959832  1
