# generated using pymatgen
data_Gd4NiB16Ir3
_symmetry_space_group_name_H-M   'P 1'
_cell_length_a   7.01003223
_cell_length_b   7.01003114
_cell_length_c   7.01003123
_cell_angle_alpha   111.40219315
_cell_angle_beta   112.29726314
_cell_angle_gamma   104.81362724
_symmetry_Int_Tables_number   1
_chemical_formula_structural   Gd4NiB16Ir3
_chemical_formula_sum   'Gd4 Ni1 B16 Ir3'
_cell_volume   263.86058396
_cell_formula_units_Z   1
loop_
 _symmetry_equiv_pos_site_id
 _symmetry_equiv_pos_as_xyz
  1  'x, y, z'
loop_
 _atom_site_type_symbol
 _atom_site_label
 _atom_site_symmetry_multiplicity
 _atom_site_fract_x
 _atom_site_fract_y
 _atom_site_fract_z
 _atom_site_occupancy
  Gd  Gd0  1  0.788808  0.791768  0.002959  1
  Gd  Gd1  1  0.211192  0.214152  0.002959  1
  Gd  Gd2  1  0.751608  0.252273  0.500665  1
  Gd  Gd3  1  0.248392  0.749058  0.500665  1
  Ni  Ni4  1  0.500000  0.256927  0.756927  1
  B  B5  1  0.270359  0.108941  0.379298  1
  B  B6  1  0.734951  0.893519  0.628470  1
  B  B7  1  0.265049  0.893519  0.158568  1
  B  B8  1  0.729641  0.108941  0.838582  1
  B  B9  1  0.108531  0.731168  0.839699  1
  B  B10  1  0.890904  0.265123  0.156026  1
  B  B11  1  0.109096  0.265123  0.374219  1
  B  B12  1  0.891469  0.731168  0.622636  1
  B  B13  1  0.117457  0.112855  0.530632  1
  B  B14  1  0.585125  0.585111  0.475356  1
  B  B15  1  0.109756  0.585111  0.999987  1
  B  B16  1  0.582222  0.112855  0.995398  1
  B  B17  1  0.890244  0.890231  0.475356  1
  B  B18  1  0.417778  0.413176  0.530632  1
  B  B19  1  0.882543  0.413176  0.995398  1
  B  B20  1  0.414875  0.890231  0.999987  1
  Ir  Ir21  1  0.267838  0.496727  0.764565  1
  Ir  Ir22  1  0.732162  0.496727  0.228890  1
  Ir  Ir23  1  0.500000  0.742123  0.242123  1
