# generated using pymatgen
data_Er8Cu2SiPd22
_symmetry_space_group_name_H-M   'P 1'
_cell_length_a   8.20741700
_cell_length_b   8.30381000
_cell_length_c   8.33016100
_cell_angle_alpha   90.00000000
_cell_angle_beta   90.00000000
_cell_angle_gamma   90.00000000
_symmetry_Int_Tables_number   1
_chemical_formula_structural   Er8Cu2SiPd22
_chemical_formula_sum   'Er8 Cu2 Si1 Pd22'
_cell_volume   567.72405782
_cell_formula_units_Z   1
loop_
 _symmetry_equiv_pos_site_id
 _symmetry_equiv_pos_as_xyz
  1  'x, y, z'
loop_
 _atom_site_type_symbol
 _atom_site_label
 _atom_site_symmetry_multiplicity
 _atom_site_fract_x
 _atom_site_fract_y
 _atom_site_fract_z
 _atom_site_occupancy
  Er  Er0  1  0.254282  0.252192  0.256910  1
  Er  Er1  1  0.745718  0.747808  0.743090  1
  Er  Er2  1  0.745718  0.747808  0.256910  1
  Er  Er3  1  0.745718  0.252192  0.743090  1
  Er  Er4  1  0.254282  0.252192  0.743090  1
  Er  Er5  1  0.254282  0.747808  0.256910  1
  Er  Er6  1  0.254282  0.747808  0.743090  1
  Er  Er7  1  0.745718  0.252192  0.256910  1
  Cu  Cu8  1  0.258973  0.500000  0.000000  1
  Cu  Cu9  1  0.741027  0.500000  0.000000  1
  Si  Si10  1  0.000000  0.000000  0.000000  1
  Pd  Pd11  1  0.000000  0.257022  0.500000  1
  Pd  Pd12  1  0.500000  0.262297  0.000000  1
  Pd  Pd13  1  0.000000  0.742978  0.500000  1
  Pd  Pd14  1  0.500000  0.737703  0.000000  1
  Pd  Pd15  1  0.500000  0.000000  0.256263  1
  Pd  Pd16  1  0.256674  0.000000  0.500000  1
  Pd  Pd17  1  0.500000  0.000000  0.743737  1
  Pd  Pd18  1  0.743326  0.000000  0.500000  1
  Pd  Pd19  1  0.000000  0.500000  0.255000  1
  Pd  Pd20  1  0.000000  0.500000  0.745000  1
  Pd  Pd21  1  0.252283  0.500000  0.500000  1
  Pd  Pd22  1  0.747717  0.500000  0.500000  1
  Pd  Pd23  1  0.500000  0.252656  0.500000  1
  Pd  Pd24  1  0.500000  0.747344  0.500000  1
  Pd  Pd25  1  0.500000  0.500000  0.247911  1
  Pd  Pd26  1  0.500000  0.500000  0.752089  1
  Pd  Pd27  1  0.280726  0.000000  0.000000  1
  Pd  Pd28  1  0.719274  0.000000  0.000000  1
  Pd  Pd29  1  0.000000  0.285045  0.000000  1
  Pd  Pd30  1  0.000000  0.714955  0.000000  1
  Pd  Pd31  1  0.000000  0.000000  0.278658  1
  Pd  Pd32  1  0.000000  0.000000  0.721342  1
