# generated using pymatgen
data_Tb2ErTm3(RuI3)2
_symmetry_space_group_name_H-M   'P 1'
_cell_length_a   4.19035700
_cell_length_b   8.88794243
_cell_length_c   12.34409335
_cell_angle_alpha   94.26422308
_cell_angle_beta   90.00000000
_cell_angle_gamma   90.00000000
_symmetry_Int_Tables_number   1
_chemical_formula_structural   Tb2ErTm3(RuI3)2
_chemical_formula_sum   'Tb2 Er1 Tm3 Ru2 I6'
_cell_volume   458.46644488
_cell_formula_units_Z   1
loop_
 _symmetry_equiv_pos_site_id
 _symmetry_equiv_pos_as_xyz
  1  'x, y, z'
loop_
 _atom_site_type_symbol
 _atom_site_label
 _atom_site_symmetry_multiplicity
 _atom_site_fract_x
 _atom_site_fract_y
 _atom_site_fract_z
 _atom_site_occupancy
  Tb  Tb0  1  0.750000  0.265738  0.603166  1
  Tb  Tb1  1  0.250000  0.733952  0.396418  1
  Er  Er2  1  0.250000  0.102521  0.812813  1
  Tm  Tm3  1  0.750000  0.876381  0.625917  1
  Tm  Tm4  1  0.250000  0.123569  0.374044  1
  Tm  Tm5  1  0.750000  0.897476  0.188779  1
  Ru  Ru6  1  0.750000  0.942931  0.407831  1
  Ru  Ru7  1  0.250000  0.057071  0.592300  1
  I  I8  1  0.750000  0.420946  0.365851  1
  I  I9  1  0.250000  0.579053  0.633581  1
  I  I10  1  0.750000  0.864963  0.888885  1
  I  I11  1  0.250000  0.133145  0.110892  1
  I  I12  1  0.750000  0.354625  0.865614  1
  I  I13  1  0.250000  0.647629  0.133910  1
