# generated using pymatgen
data_NdDy7Mg2(SiB4)4
_symmetry_space_group_name_H-M   'P 1'
_cell_length_a   7.18678111
_cell_length_b   7.18678111
_cell_length_c   7.90712124
_cell_angle_alpha   90.02001379
_cell_angle_beta   90.02001379
_cell_angle_gamma   89.99849944
_symmetry_Int_Tables_number   1
_chemical_formula_structural   NdDy7Mg2(SiB4)4
_chemical_formula_sum   'Nd1 Dy7 Mg2 Si4 B16'
_cell_volume   408.40136041
_cell_formula_units_Z   1
loop_
 _symmetry_equiv_pos_site_id
 _symmetry_equiv_pos_as_xyz
  1  'x, y, z'
loop_
 _atom_site_type_symbol
 _atom_site_label
 _atom_site_symmetry_multiplicity
 _atom_site_fract_x
 _atom_site_fract_y
 _atom_site_fract_z
 _atom_site_occupancy
  Nd  Nd0  1  0.683245  0.183245  0.239698  1
  Dy  Dy1  1  0.316605  0.816605  0.767099  1
  Dy  Dy2  1  0.316353  0.816353  0.232813  1
  Dy  Dy3  1  0.817185  0.683154  0.232821  1
  Dy  Dy4  1  0.817002  0.683246  0.767456  1
  Dy  Dy5  1  0.683074  0.183074  0.767026  1
  Dy  Dy6  1  0.183246  0.317002  0.767456  1
  Dy  Dy7  1  0.183154  0.317185  0.232821  1
  Mg  Mg8  1  0.001546  0.998966  0.501768  1
  Mg  Mg9  1  0.498966  0.501546  0.501768  1
  Si  Si10  1  0.116787  0.616787  0.500637  1
  Si  Si11  1  0.887568  0.387568  0.504348  1
  Si  Si12  1  0.381522  0.113029  0.503418  1
  Si  Si13  1  0.613029  0.881522  0.503418  1
  B  B14  1  0.174132  0.039404  0.998536  1
  B  B15  1  0.827286  0.959087  0.998604  1
  B  B16  1  0.961227  0.173015  0.998804  1
  B  B17  1  0.325849  0.540469  0.998810  1
  B  B18  1  0.040469  0.825849  0.998810  1
  B  B19  1  0.673015  0.461227  0.998804  1
  B  B20  1  0.539404  0.674132  0.998536  1
  B  B21  1  0.459087  0.327286  0.998604  1
  B  B22  1  0.089442  0.589442  0.999072  1
  B  B23  1  0.910585  0.410585  0.999262  1
  B  B24  1  0.409871  0.089685  0.997503  1
  B  B25  1  0.589685  0.909871  0.997503  1
  B  B26  1  0.002167  0.998844  0.159295  1
  B  B27  1  0.000109  0.999547  0.838008  1
  B  B28  1  0.499547  0.500109  0.838008  1
  B  B29  1  0.498844  0.502167  0.159295  1
