# generated using pymatgen
data_In3AgP6N13
_symmetry_space_group_name_H-M   'P 1'
_cell_length_a   7.20160754
_cell_length_b   7.20160704
_cell_length_c   7.20160800
_cell_angle_alpha   109.52834573
_cell_angle_beta   109.52834433
_cell_angle_gamma   109.52834878
_symmetry_Int_Tables_number   1
_chemical_formula_structural   In3AgP6N13
_chemical_formula_sum   'In3 Ag1 P6 N13'
_cell_volume   286.90921955
_cell_formula_units_Z   1
loop_
 _symmetry_equiv_pos_site_id
 _symmetry_equiv_pos_as_xyz
  1  'x, y, z'
loop_
 _atom_site_type_symbol
 _atom_site_label
 _atom_site_symmetry_multiplicity
 _atom_site_fract_x
 _atom_site_fract_y
 _atom_site_fract_z
 _atom_site_occupancy
  In  In0  1  0.700143  0.003731  0.003731  1
  In  In1  1  0.003731  0.003731  0.700143  1
  In  In2  1  0.003731  0.700143  0.003731  1
  Ag  Ag3  1  0.263411  0.263411  0.263411  1
  P  P4  1  0.254016  0.750254  0.503888  1
  P  P5  1  0.750254  0.254016  0.503888  1
  P  P6  1  0.750254  0.503888  0.254016  1
  P  P7  1  0.254016  0.503888  0.750254  1
  P  P8  1  0.503888  0.750254  0.254016  1
  P  P9  1  0.503888  0.254016  0.750254  1
  N  N10  1  0.955983  0.955983  0.955983  1
  N  N11  1  0.722857  0.280498  0.280498  1
  N  N12  1  0.280498  0.722857  0.280498  1
  N  N13  1  0.291487  0.566802  0.566802  1
  N  N14  1  0.566802  0.566802  0.291487  1
  N  N15  1  0.440014  0.729825  0.004032  1
  N  N16  1  0.004032  0.729825  0.440014  1
  N  N17  1  0.566802  0.291487  0.566802  1
  N  N18  1  0.729825  0.004032  0.440014  1
  N  N19  1  0.440014  0.004032  0.729825  1
  N  N20  1  0.729825  0.440014  0.004032  1
  N  N21  1  0.280498  0.280498  0.722857  1
  N  N22  1  0.004032  0.440014  0.729825  1
