# generated using pymatgen
data_Tb16InHg3Ir4
_symmetry_space_group_name_H-M   'P 1'
_cell_length_a   9.67050835
_cell_length_b   9.67050846
_cell_length_c   9.66831512
_cell_angle_alpha   59.99249474
_cell_angle_beta   59.99249885
_cell_angle_gamma   59.99999723
_symmetry_Int_Tables_number   1
_chemical_formula_structural   Tb16InHg3Ir4
_chemical_formula_sum   'Tb16 In1 Hg3 Ir4'
_cell_volume   639.27120206
_cell_formula_units_Z   1
loop_
 _symmetry_equiv_pos_site_id
 _symmetry_equiv_pos_as_xyz
  1  'x, y, z'
loop_
 _atom_site_type_symbol
 _atom_site_label
 _atom_site_symmetry_multiplicity
 _atom_site_fract_x
 _atom_site_fract_y
 _atom_site_fract_z
 _atom_site_occupancy
  Tb  Tb0  1  0.099664  0.700864  0.099809  1
  Tb  Tb1  1  0.939750  0.939750  0.560245  1
  Tb  Tb2  1  0.940784  0.559837  0.939541  1
  Tb  Tb3  1  0.312384  0.688095  0.311425  1
  Tb  Tb4  1  0.939750  0.560255  0.560245  1
  Tb  Tb5  1  0.312310  0.312310  0.685428  1
  Tb  Tb6  1  0.099664  0.099664  0.099809  1
  Tb  Tb7  1  0.559837  0.559837  0.939541  1
  Tb  Tb8  1  0.100064  0.100064  0.699809  1
  Tb  Tb9  1  0.689952  0.312310  0.685428  1
  Tb  Tb10  1  0.688095  0.688095  0.311425  1
  Tb  Tb11  1  0.688095  0.312384  0.311425  1
  Tb  Tb12  1  0.312310  0.689952  0.685428  1
  Tb  Tb13  1  0.560255  0.939750  0.560245  1
  Tb  Tb14  1  0.700864  0.099664  0.099809  1
  Tb  Tb15  1  0.559837  0.940784  0.939541  1
  In  In16  1  0.330784  0.330784  0.007647  1
  Hg  Hg17  1  0.334074  0.334074  0.334041  1
  Hg  Hg18  1  0.997811  0.334074  0.334041  1
  Hg  Hg19  1  0.334074  0.997811  0.334041  1
  Ir  Ir20  1  0.891798  0.891798  0.891869  1
  Ir  Ir21  1  0.891510  0.891510  0.325471  1
  Ir  Ir22  1  0.324535  0.891798  0.891869  1
  Ir  Ir23  1  0.891798  0.324535  0.891869  1
