# generated using pymatgen
data_Ba3ScFeOsO9
_symmetry_space_group_name_H-M   'P 1'
_cell_length_a   5.88026800
_cell_length_b   5.88026896
_cell_length_c   14.47321600
_cell_angle_alpha   90.00000000
_cell_angle_beta   90.00000000
_cell_angle_gamma   120.00000585
_symmetry_Int_Tables_number   1
_chemical_formula_structural   Ba3ScFeOsO9
_chemical_formula_sum   'Ba6 Sc2 Fe2 Os2 O18'
_cell_volume   433.40105144
_cell_formula_units_Z   2
loop_
 _symmetry_equiv_pos_site_id
 _symmetry_equiv_pos_as_xyz
  1  'x, y, z'
loop_
 _atom_site_type_symbol
 _atom_site_label
 _atom_site_symmetry_multiplicity
 _atom_site_fract_x
 _atom_site_fract_y
 _atom_site_fract_z
 _atom_site_occupancy
  Ba  Ba0  1  0.666667  0.333333  0.590486  1
  Ba  Ba1  1  0.333333  0.666667  0.403816  1
  Ba  Ba2  1  0.333333  0.666667  0.090486  1
  Ba  Ba3  1  0.666667  0.333333  0.903816  1
  Ba  Ba4  1  0.000000  0.000000  0.753253  1
  Ba  Ba5  1  0.000000  0.000000  0.253253  1
  Sc  Sc6  1  0.000000  0.000000  0.495587  1
  Sc  Sc7  1  0.000000  0.000000  0.995587  1
  Fe  Fe8  1  0.666667  0.333333  0.354229  1
  Fe  Fe9  1  0.333333  0.666667  0.854229  1
  Os  Os10  1  0.333333  0.666667  0.660445  1
  Os  Os11  1  0.666667  0.333333  0.160445  1
  O  O12  1  0.484944  0.969887  0.743763  1
  O  O13  1  0.484944  0.515056  0.743763  1
  O  O14  1  0.030113  0.515056  0.743763  1
  O  O15  1  0.515056  0.030113  0.243763  1
  O  O16  1  0.515056  0.484944  0.243763  1
  O  O17  1  0.969887  0.484944  0.243763  1
  O  O18  1  0.173682  0.347363  0.586339  1
  O  O19  1  0.173682  0.826318  0.586339  1
  O  O20  1  0.652637  0.826318  0.586339  1
  O  O21  1  0.833023  0.666047  0.417274  1
  O  O22  1  0.833023  0.166977  0.417274  1
  O  O23  1  0.333953  0.166977  0.417274  1
  O  O24  1  0.826318  0.652637  0.086339  1
  O  O25  1  0.826318  0.173682  0.086339  1
  O  O26  1  0.347363  0.173682  0.086339  1
  O  O27  1  0.166977  0.333953  0.917274  1
  O  O28  1  0.166977  0.833023  0.917274  1
  O  O29  1  0.666047  0.833023  0.917274  1
