# generated using pymatgen
data_LaPrHo4CoCl10
_symmetry_space_group_name_H-M   'P 1'
_cell_length_a   7.10408869
_cell_length_b   8.88407164
_cell_length_c   8.88735600
_cell_angle_alpha   108.55601096
_cell_angle_beta   95.77398708
_cell_angle_gamma   106.82613389
_symmetry_Int_Tables_number   1
_chemical_formula_structural   LaPrHo4CoCl10
_chemical_formula_sum   'La1 Pr1 Ho4 Co1 Cl10'
_cell_volume   497.37246356
_cell_formula_units_Z   1
loop_
 _symmetry_equiv_pos_site_id
 _symmetry_equiv_pos_as_xyz
  1  'x, y, z'
loop_
 _atom_site_type_symbol
 _atom_site_label
 _atom_site_symmetry_multiplicity
 _atom_site_fract_x
 _atom_site_fract_y
 _atom_site_fract_z
 _atom_site_occupancy
  La  La0  1  0.636945  0.055054  0.756845  1
  Pr  Pr1  1  0.363139  0.945486  0.239309  1
  Ho  Ho2  1  0.865848  0.142638  0.184542  1
  Ho  Ho3  1  0.134610  0.857088  0.813756  1
  Ho  Ho4  1  0.525022  0.694157  0.898448  1
  Ho  Ho5  1  0.475218  0.306982  0.104514  1
  Co  Co6  1  0.502572  0.001482  0.995098  1
  Cl  Cl7  1  0.757398  0.082972  0.446070  1
  Cl  Cl8  1  0.236714  0.914271  0.549750  1
  Cl  Cl9  1  0.941196  0.825666  0.072398  1
  Cl  Cl10  1  0.061744  0.175860  0.930141  1
  Cl  Cl11  1  0.281381  0.260621  0.344201  1
  Cl  Cl12  1  0.719264  0.734631  0.658757  1
  Cl  Cl13  1  0.584998  0.382835  0.844783  1
  Cl  Cl14  1  0.412792  0.620421  0.160434  1
  Cl  Cl15  1  0.851610  0.452641  0.275426  1
  Cl  Cl16  1  0.149551  0.547195  0.725526  1
