# generated using pymatgen
data_Pr2NdAg(Pt2O7)2
_symmetry_space_group_name_H-M   'P 1'
_cell_length_a   7.33165194
_cell_length_b   7.33078818
_cell_length_c   7.33078625
_cell_angle_alpha   61.37006748
_cell_angle_beta   61.36852104
_cell_angle_gamma   61.36851858
_symmetry_Int_Tables_number   1
_chemical_formula_structural   Pr2NdAg(Pt2O7)2
_chemical_formula_sum   'Pr2 Nd1 Ag1 Pt4 O14'
_cell_volume   287.17417730
_cell_formula_units_Z   1
loop_
 _symmetry_equiv_pos_site_id
 _symmetry_equiv_pos_as_xyz
  1  'x, y, z'
loop_
 _atom_site_type_symbol
 _atom_site_label
 _atom_site_symmetry_multiplicity
 _atom_site_fract_x
 _atom_site_fract_y
 _atom_site_fract_z
 _atom_site_occupancy
  Pr  Pr0  1  0.625000  0.625000  0.125000  1
  Pr  Pr1  1  0.625000  0.125000  0.625000  1
  Nd  Nd2  1  0.125000  0.625000  0.625000  1
  Ag  Ag3  1  0.625000  0.625000  0.625000  1
  Pt  Pt4  1  0.125000  0.125000  0.625000  1
  Pt  Pt5  1  0.125000  0.625000  0.125000  1
  Pt  Pt6  1  0.625000  0.125000  0.125000  1
  Pt  Pt7  1  0.125000  0.125000  0.125000  1
  O  O8  1  0.506657  0.509646  0.509646  1
  O  O9  1  0.743343  0.740354  0.740354  1
  O  O10  1  0.451527  0.056152  0.451524  1
  O  O11  1  0.211842  0.790077  0.213495  1
  O  O12  1  0.451527  0.451524  0.056152  1
  O  O13  1  0.056605  0.451984  0.451984  1
  O  O14  1  0.459566  0.037643  0.037643  1
  O  O15  1  0.038158  0.036505  0.459923  1
  O  O16  1  0.038158  0.459923  0.036505  1
  O  O17  1  0.790434  0.212357  0.212357  1
  O  O18  1  0.193395  0.798016  0.798016  1
  O  O19  1  0.798473  0.193848  0.798476  1
  O  O20  1  0.211842  0.213495  0.790077  1
  O  O21  1  0.798473  0.798476  0.193848  1
