# generated using pymatgen
data_Ho7ErCd2RuPt
_symmetry_space_group_name_H-M   'P 1'
_cell_length_a   9.60397859
_cell_length_b   9.60397931
_cell_length_c   9.63418600
_cell_angle_alpha   59.89590211
_cell_angle_beta   59.89589959
_cell_angle_gamma   59.76763633
_symmetry_Int_Tables_number   1
_chemical_formula_structural   Ho7ErCd2RuPt
_chemical_formula_sum   'Ho14 Er2 Cd4 Ru2 Pt2'
_cell_volume   626.25502048
_cell_formula_units_Z   2
loop_
 _symmetry_equiv_pos_site_id
 _symmetry_equiv_pos_as_xyz
  1  'x, y, z'
loop_
 _atom_site_type_symbol
 _atom_site_label
 _atom_site_symmetry_multiplicity
 _atom_site_fract_x
 _atom_site_fract_y
 _atom_site_fract_z
 _atom_site_occupancy
  Ho  Ho0  1  0.597010  0.203044  0.599973  1
  Ho  Ho1  1  0.203044  0.597010  0.599973  1
  Ho  Ho2  1  0.065308  0.438448  0.439252  1
  Ho  Ho3  1  0.438448  0.065308  0.056992  1
  Ho  Ho4  1  0.438448  0.065308  0.439252  1
  Ho  Ho5  1  0.065308  0.438448  0.056992  1
  Ho  Ho6  1  0.437884  0.437884  0.062116  1
  Ho  Ho7  1  0.059144  0.059144  0.440856  1
  Ho  Ho8  1  0.186949  0.809932  0.816559  1
  Ho  Ho9  1  0.809932  0.186949  0.186561  1
  Ho  Ho10  1  0.809932  0.186949  0.816559  1
  Ho  Ho11  1  0.186949  0.809932  0.186561  1
  Ho  Ho12  1  0.814170  0.814170  0.185830  1
  Ho  Ho13  1  0.188155  0.188155  0.811845  1
  Er  Er14  1  0.598943  0.598943  0.602740  1
  Er  Er15  1  0.598943  0.598943  0.199374  1
  Cd  Cd16  1  0.830119  0.830119  0.831598  1
  Cd  Cd17  1  0.830119  0.830119  0.508165  1
  Cd  Cd18  1  0.831067  0.505359  0.831786  1
  Cd  Cd19  1  0.505359  0.831067  0.831786  1
  Ru  Ru20  1  0.393707  0.393707  0.389106  1
  Ru  Ru21  1  0.393707  0.393707  0.823479  1
  Pt  Pt22  1  0.394575  0.822781  0.391322  1
  Pt  Pt23  1  0.822781  0.394575  0.391322  1
