# generated using pymatgen
data_Pa2BiN2
_symmetry_space_group_name_H-M   'P 1'
_cell_length_a   6.85533255
_cell_length_b   6.85533303
_cell_length_c   6.85533275
_cell_angle_alpha   146.30689464
_cell_angle_beta   146.30689933
_cell_angle_gamma   48.39114144
_symmetry_Int_Tables_number   1
_chemical_formula_structural   Pa2BiN2
_chemical_formula_sum   'Pa2 Bi1 N2'
_cell_volume   98.72746301
_cell_formula_units_Z   1
loop_
 _symmetry_equiv_pos_site_id
 _symmetry_equiv_pos_as_xyz
  1  'x, y, z'
loop_
 _atom_site_type_symbol
 _atom_site_label
 _atom_site_symmetry_multiplicity
 _atom_site_fract_x
 _atom_site_fract_y
 _atom_site_fract_z
 _atom_site_occupancy
  Pa  Pa0  1  0.342284  0.342284  0.000000  1
  Pa  Pa1  1  0.657717  0.657717  0.000000  1
  Bi  Bi2  1  0.000000  0.000000  0.000000  1
  N  N3  1  0.250000  0.750000  0.500000  1
  N  N4  1  0.750000  0.250000  0.500000  1
