# generated using pymatgen
data_La6Sm2GaPd24
_symmetry_space_group_name_H-M   'P 1'
_cell_length_a   8.52618500
_cell_length_b   8.52618500
_cell_length_c   8.52618500
_cell_angle_alpha   90.00083327
_cell_angle_beta   89.99916673
_cell_angle_gamma   89.99916673
_symmetry_Int_Tables_number   1
_chemical_formula_structural   La6Sm2GaPd24
_chemical_formula_sum   'La6 Sm2 Ga1 Pd24'
_cell_volume   619.81810079
_cell_formula_units_Z   1
loop_
 _symmetry_equiv_pos_site_id
 _symmetry_equiv_pos_as_xyz
  1  'x, y, z'
loop_
 _atom_site_type_symbol
 _atom_site_label
 _atom_site_symmetry_multiplicity
 _atom_site_fract_x
 _atom_site_fract_y
 _atom_site_fract_z
 _atom_site_occupancy
  La  La0  1  0.252261  0.252260  0.252260  1
  La  La1  1  0.747739  0.747740  0.747740  1
  La  La2  1  0.747740  0.747739  0.252260  1
  La  La3  1  0.747740  0.252260  0.747739  1
  La  La4  1  0.252260  0.252261  0.747740  1
  La  La5  1  0.252260  0.747740  0.252261  1
  Sm  Sm6  1  0.251896  0.748104  0.748104  1
  Sm  Sm7  1  0.748104  0.251896  0.251896  1
  Ga  Ga8  1  0.000000  0.000000  0.000000  1
  Pd  Pd9  1  0.260550  0.500722  0.999267  1
  Pd  Pd10  1  0.739450  0.499278  0.000733  1
  Pd  Pd11  1  0.999267  0.260550  0.499278  1
  Pd  Pd12  1  0.500722  0.260550  0.000733  1
  Pd  Pd13  1  0.000733  0.739450  0.500722  1
  Pd  Pd14  1  0.499278  0.739450  0.999267  1
  Pd  Pd15  1  0.500722  0.000733  0.260550  1
  Pd  Pd16  1  0.260550  0.999267  0.500722  1
  Pd  Pd17  1  0.499278  0.999267  0.739450  1
  Pd  Pd18  1  0.739450  0.000733  0.499278  1
  Pd  Pd19  1  0.999267  0.499278  0.260550  1
  Pd  Pd20  1  0.000733  0.500722  0.739450  1
  Pd  Pd21  1  0.253206  0.500789  0.500789  1
  Pd  Pd22  1  0.746794  0.499211  0.499211  1
  Pd  Pd23  1  0.500789  0.253206  0.499211  1
  Pd  Pd24  1  0.499211  0.746794  0.500789  1
  Pd  Pd25  1  0.500789  0.499211  0.253206  1
  Pd  Pd26  1  0.499211  0.500789  0.746794  1
  Pd  Pd27  1  0.293253  0.999215  0.999215  1
  Pd  Pd28  1  0.706747  0.000785  0.000785  1
  Pd  Pd29  1  0.999215  0.293253  0.000785  1
  Pd  Pd30  1  0.000785  0.706747  0.999215  1
  Pd  Pd31  1  0.999215  0.000785  0.293253  1
  Pd  Pd32  1  0.000785  0.999215  0.706747  1
