# generated using pymatgen
data_Tb6Y2Hf11Si16Mo
_symmetry_space_group_name_H-M   'P 1'
_cell_length_a   7.25945572
_cell_length_b   7.25857903
_cell_length_c   13.32225601
_cell_angle_alpha   89.94050561
_cell_angle_beta   90.05878278
_cell_angle_gamma   90.04938591
_symmetry_Int_Tables_number   1
_chemical_formula_structural   Tb6Y2Hf11Si16Mo
_chemical_formula_sum   'Tb6 Y2 Hf11 Si16 Mo1'
_cell_volume   701.99306499
_cell_formula_units_Z   1
loop_
 _symmetry_equiv_pos_site_id
 _symmetry_equiv_pos_as_xyz
  1  'x, y, z'
loop_
 _atom_site_type_symbol
 _atom_site_label
 _atom_site_symmetry_multiplicity
 _atom_site_fract_x
 _atom_site_fract_y
 _atom_site_fract_z
 _atom_site_occupancy
  Tb  Tb0  1  0.156695  0.495443  0.465472  1
  Tb  Tb1  1  0.501248  0.845532  0.034270  1
  Tb  Tb2  1  0.845549  0.501223  0.965735  1
  Tb  Tb3  1  0.495425  0.156724  0.534493  1
  Tb  Tb4  1  0.342986  0.998590  0.787413  1
  Tb  Tb5  1  0.656700  0.004114  0.283547  1
  Y  Y6  1  0.998595  0.342999  0.212571  1
  Y  Y7  1  0.004095  0.656689  0.716470  1
  Hf  Hf8  1  0.825591  0.825608  0.499950  1
  Hf  Hf9  1  0.324409  0.674370  0.249020  1
  Hf  Hf10  1  0.674395  0.324402  0.750992  1
  Hf  Hf11  1  0.148639  0.996884  0.373701  1
  Hf  Hf12  1  0.853180  0.005114  0.877411  1
  Hf  Hf13  1  0.504107  0.648701  0.624675  1
  Hf  Hf14  1  0.349059  0.493006  0.877273  1
  Hf  Hf15  1  0.492956  0.349106  0.122765  1
  Hf  Hf16  1  0.648769  0.504099  0.375367  1
  Hf  Hf17  1  0.996980  0.148592  0.626317  1
  Hf  Hf18  1  0.005027  0.853273  0.122622  1
  Si  Si19  1  0.362744  0.295137  0.316287  1
  Si  Si20  1  0.636372  0.704932  0.817448  1
  Si  Si21  1  0.204929  0.863035  0.567206  1
  Si  Si22  1  0.137360  0.796429  0.933152  1
  Si  Si23  1  0.796544  0.137370  0.066889  1
  Si  Si24  1  0.863025  0.204987  0.432845  1
  Si  Si25  1  0.295100  0.362840  0.683691  1
  Si  Si26  1  0.704964  0.636281  0.182517  1
  Si  Si27  1  0.294040  0.051232  0.182922  1
  Si  Si28  1  0.704314  0.951934  0.685899  1
  Si  Si29  1  0.450783  0.795536  0.435114  1
  Si  Si30  1  0.204271  0.547130  0.064215  1
  Si  Si31  1  0.547204  0.204296  0.935792  1
  Si  Si32  1  0.795568  0.450825  0.564883  1
  Si  Si33  1  0.051198  0.294104  0.817033  1
  Si  Si34  1  0.951962  0.704257  0.314059  1
  Mo  Mo35  1  0.175218  0.175202  0.999985  1
