# generated using pymatgen
data_ScVHgO5
_symmetry_space_group_name_H-M   'P 1'
_cell_length_a   6.51839100
_cell_length_b   8.59195400
_cell_length_c   8.78101000
_cell_angle_alpha   90.00000000
_cell_angle_beta   90.00000000
_cell_angle_gamma   90.00000000
_symmetry_Int_Tables_number   1
_chemical_formula_structural   ScVHgO5
_chemical_formula_sum   'Sc4 V4 Hg4 O20'
_cell_volume   491.78674897
_cell_formula_units_Z   4
loop_
 _symmetry_equiv_pos_site_id
 _symmetry_equiv_pos_as_xyz
  1  'x, y, z'
loop_
 _atom_site_type_symbol
 _atom_site_label
 _atom_site_symmetry_multiplicity
 _atom_site_fract_x
 _atom_site_fract_y
 _atom_site_fract_z
 _atom_site_occupancy
  Sc  Sc0  1  0.000000  0.000000  0.500000  1
  Sc  Sc1  1  0.500000  0.500000  0.000000  1
  Sc  Sc2  1  0.500000  0.000000  0.500000  1
  Sc  Sc3  1  0.000000  0.500000  0.000000  1
  V  V4  1  0.750000  0.309913  0.708581  1
  V  V5  1  0.750000  0.809913  0.791419  1
  V  V6  1  0.250000  0.690087  0.291419  1
  V  V7  1  0.250000  0.190087  0.208581  1
  Hg  Hg8  1  0.250000  0.575186  0.656922  1
  Hg  Hg9  1  0.250000  0.075186  0.843078  1
  Hg  Hg10  1  0.750000  0.424814  0.343078  1
  Hg  Hg11  1  0.750000  0.924814  0.156922  1
  O  O12  1  0.535722  0.331722  0.822168  1
  O  O13  1  0.964278  0.831722  0.677832  1
  O  O14  1  0.035722  0.668278  0.177832  1
  O  O15  1  0.464278  0.168278  0.322168  1
  O  O16  1  0.464278  0.668278  0.177832  1
  O  O17  1  0.035722  0.168278  0.322168  1
  O  O18  1  0.964278  0.331722  0.822168  1
  O  O19  1  0.535722  0.831722  0.677832  1
  O  O20  1  0.750000  0.129382  0.608215  1
  O  O21  1  0.750000  0.629382  0.891785  1
  O  O22  1  0.250000  0.870618  0.391785  1
  O  O23  1  0.250000  0.370618  0.108215  1
  O  O24  1  0.250000  0.095253  0.613386  1
  O  O25  1  0.250000  0.595253  0.886614  1
  O  O26  1  0.750000  0.904747  0.386614  1
  O  O27  1  0.750000  0.404747  0.113386  1
  O  O28  1  0.750000  0.461486  0.572448  1
  O  O29  1  0.750000  0.961486  0.927552  1
  O  O30  1  0.250000  0.538514  0.427552  1
  O  O31  1  0.250000  0.038514  0.072448  1
