# generated using pymatgen
data_Er2Ga10Tc2Ru
_symmetry_space_group_name_H-M   'P 1'
_cell_length_a   9.03378900
_cell_length_b   9.03378900
_cell_length_c   6.28694800
_cell_angle_alpha   90.00000000
_cell_angle_beta   90.00000000
_cell_angle_gamma   90.00000000
_symmetry_Int_Tables_number   1
_chemical_formula_structural   Er2Ga10Tc2Ru
_chemical_formula_sum   'Er4 Ga20 Tc4 Ru2'
_cell_volume   513.07370013
_cell_formula_units_Z   2
loop_
 _symmetry_equiv_pos_site_id
 _symmetry_equiv_pos_as_xyz
  1  'x, y, z'
loop_
 _atom_site_type_symbol
 _atom_site_label
 _atom_site_symmetry_multiplicity
 _atom_site_fract_x
 _atom_site_fract_y
 _atom_site_fract_z
 _atom_site_occupancy
  Er  Er0  1  0.683118  0.183118  0.000000  1
  Er  Er1  1  0.316882  0.816882  0.000000  1
  Er  Er2  1  0.816882  0.683118  0.000000  1
  Er  Er3  1  0.183118  0.316882  0.000000  1
  Ga  Ga4  1  0.940168  0.205740  0.290938  1
  Ga  Ga5  1  0.705740  0.440168  0.290938  1
  Ga  Ga6  1  0.500000  0.000000  0.286307  1
  Ga  Ga7  1  0.559832  0.705740  0.709062  1
  Ga  Ga8  1  0.294260  0.559832  0.709062  1
  Ga  Ga9  1  0.794260  0.940168  0.290938  1
  Ga  Ga10  1  0.940168  0.205740  0.709062  1
  Ga  Ga11  1  0.294260  0.559832  0.290938  1
  Ga  Ga12  1  0.059832  0.794260  0.290938  1
  Ga  Ga13  1  0.705740  0.440168  0.709062  1
  Ga  Ga14  1  0.440168  0.294260  0.709062  1
  Ga  Ga15  1  0.059832  0.794260  0.709062  1
  Ga  Ga16  1  0.205740  0.059832  0.709062  1
  Ga  Ga17  1  0.794260  0.940168  0.709062  1
  Ga  Ga18  1  0.205740  0.059832  0.290938  1
  Ga  Ga19  1  0.000000  0.500000  0.713693  1
  Ga  Ga20  1  0.000000  0.500000  0.286307  1
  Ga  Ga21  1  0.559832  0.705740  0.290938  1
  Ga  Ga22  1  0.440168  0.294260  0.290938  1
  Ga  Ga23  1  0.500000  0.000000  0.713693  1
  Tc  Tc24  1  0.679404  0.179404  0.500000  1
  Tc  Tc25  1  0.820596  0.679404  0.500000  1
  Tc  Tc26  1  0.179404  0.320596  0.500000  1
  Tc  Tc27  1  0.320596  0.820596  0.500000  1
  Ru  Ru28  1  0.000000  0.000000  0.000000  1
  Ru  Ru29  1  0.500000  0.500000  0.000000  1
