# generated using pymatgen
data_Ba3TlCO3F7
_symmetry_space_group_name_H-M   'P 1'
_cell_length_a   9.05339204
_cell_length_b   9.05339162
_cell_length_c   6.22251200
_cell_angle_alpha   90.00000000
_cell_angle_beta   90.00000000
_cell_angle_gamma   98.72154494
_symmetry_Int_Tables_number   1
_chemical_formula_structural   Ba3TlCO3F7
_chemical_formula_sum   'Ba6 Tl2 C2 O6 F14'
_cell_volume   504.12396534
_cell_formula_units_Z   2
loop_
 _symmetry_equiv_pos_site_id
 _symmetry_equiv_pos_as_xyz
  1  'x, y, z'
loop_
 _atom_site_type_symbol
 _atom_site_label
 _atom_site_symmetry_multiplicity
 _atom_site_fract_x
 _atom_site_fract_y
 _atom_site_fract_z
 _atom_site_occupancy
  Ba  Ba0  1  0.606535  0.849485  0.750000  1
  Ba  Ba1  1  0.849485  0.606535  0.250000  1
  Ba  Ba2  1  0.150515  0.393465  0.750000  1
  Ba  Ba3  1  0.905869  0.094131  0.250000  1
  Ba  Ba4  1  0.094131  0.905869  0.750000  1
  Ba  Ba5  1  0.393465  0.150515  0.250000  1
  Tl  Tl6  1  0.726722  0.273278  0.750000  1
  Tl  Tl7  1  0.273278  0.726722  0.250000  1
  C  C8  1  0.529098  0.470902  0.750000  1
  C  C9  1  0.470902  0.529098  0.250000  1
  O  O10  1  0.436362  0.563638  0.750000  1
  O  O11  1  0.516402  0.674518  0.250000  1
  O  O12  1  0.674518  0.516402  0.750000  1
  O  O13  1  0.483598  0.325482  0.750000  1
  O  O14  1  0.563638  0.436362  0.250000  1
  O  O15  1  0.325482  0.483598  0.250000  1
  F  F16  1  0.160900  0.160900  0.500000  1
  F  F17  1  0.889314  0.110686  0.750000  1
  F  F18  1  0.110686  0.889314  0.250000  1
  F  F19  1  0.839100  0.839100  0.500000  1
  F  F20  1  0.638917  0.105240  0.491317  1
  F  F21  1  0.105240  0.638917  0.508683  1
  F  F22  1  0.894760  0.361083  0.008683  1
  F  F23  1  0.894760  0.361083  0.491317  1
  F  F24  1  0.638917  0.105240  0.008683  1
  F  F25  1  0.361083  0.894760  0.991317  1
  F  F26  1  0.839100  0.839100  0.000000  1
  F  F27  1  0.160900  0.160900  0.000000  1
  F  F28  1  0.105240  0.638917  0.991317  1
  F  F29  1  0.361083  0.894760  0.508683  1
