# generated using pymatgen
data_Y2Zr4Sn6Ir5Rh
_symmetry_space_group_name_H-M   'P 1'
_cell_length_a   7.49295795
_cell_length_b   7.50699685
_cell_length_c   7.45697800
_cell_angle_alpha   90.00000000
_cell_angle_beta   90.00000000
_cell_angle_gamma   120.05680990
_symmetry_Int_Tables_number   1
_chemical_formula_structural   Y2Zr4Sn6Ir5Rh
_chemical_formula_sum   'Y2 Zr4 Sn6 Ir5 Rh1'
_cell_volume   363.04806289
_cell_formula_units_Z   1
loop_
 _symmetry_equiv_pos_site_id
 _symmetry_equiv_pos_as_xyz
  1  'x, y, z'
loop_
 _atom_site_type_symbol
 _atom_site_label
 _atom_site_symmetry_multiplicity
 _atom_site_fract_x
 _atom_site_fract_y
 _atom_site_fract_z
 _atom_site_occupancy
  Y  Y0  1  0.593969  0.998891  0.250000  1
  Y  Y1  1  0.406267  0.404641  0.250000  1
  Zr  Zr2  1  0.611183  0.003810  0.750000  1
  Zr  Zr3  1  0.388533  0.392857  0.750000  1
  Zr  Zr4  1  0.000246  0.606970  0.750000  1
  Zr  Zr5  1  0.000736  0.597357  0.250000  1
  Sn  Sn6  1  0.267325  0.999988  0.993791  1
  Sn  Sn7  1  0.732813  0.732481  0.506059  1
  Sn  Sn8  1  0.999732  0.266747  0.495429  1
  Sn  Sn9  1  0.999732  0.266747  0.004571  1
  Sn  Sn10  1  0.732813  0.732481  0.993941  1
  Sn  Sn11  1  0.267325  0.999988  0.506209  1
  Ir  Ir12  1  0.672439  0.337941  0.972107  1
  Ir  Ir13  1  0.672439  0.337941  0.527893  1
  Ir  Ir14  1  0.327234  0.665478  0.973016  1
  Ir  Ir15  1  0.327234  0.665478  0.526984  1
  Ir  Ir16  1  0.999894  0.003550  0.750000  1
  Rh  Rh17  1  0.000086  0.986654  0.250000  1
