# generated using pymatgen
data_Tb16ZnIn(HgIr2)2
_symmetry_space_group_name_H-M   'P 1'
_cell_length_a   9.63439213
_cell_length_b   9.63439156
_cell_length_c   9.62193628
_cell_angle_alpha   59.97961975
_cell_angle_beta   59.97962344
_cell_angle_gamma   60.03124673
_symmetry_Int_Tables_number   1
_chemical_formula_structural   Tb16ZnIn(HgIr2)2
_chemical_formula_sum   'Tb16 Zn1 In1 Hg2 Ir4'
_cell_volume   631.48732653
_cell_formula_units_Z   1
loop_
 _symmetry_equiv_pos_site_id
 _symmetry_equiv_pos_as_xyz
  1  'x, y, z'
loop_
 _atom_site_type_symbol
 _atom_site_label
 _atom_site_symmetry_multiplicity
 _atom_site_fract_x
 _atom_site_fract_y
 _atom_site_fract_z
 _atom_site_occupancy
  Tb  Tb0  1  0.102018  0.697201  0.101697  1
  Tb  Tb1  1  0.940603  0.940603  0.559047  1
  Tb  Tb2  1  0.942589  0.558152  0.940368  1
  Tb  Tb3  1  0.312407  0.687340  0.310834  1
  Tb  Tb4  1  0.939380  0.558987  0.559125  1
  Tb  Tb5  1  0.312961  0.312961  0.684316  1
  Tb  Tb6  1  0.100096  0.100096  0.099510  1
  Tb  Tb7  1  0.557952  0.557952  0.939719  1
  Tb  Tb8  1  0.102186  0.102186  0.696561  1
  Tb  Tb9  1  0.691082  0.310677  0.686598  1
  Tb  Tb10  1  0.689455  0.689455  0.308920  1
  Tb  Tb11  1  0.687340  0.312407  0.310834  1
  Tb  Tb12  1  0.310677  0.691082  0.686598  1
  Tb  Tb13  1  0.558987  0.939380  0.559125  1
  Tb  Tb14  1  0.697201  0.102018  0.101697  1
  Tb  Tb15  1  0.558152  0.942589  0.940368  1
  Zn  Zn16  1  0.332623  0.332623  0.332783  1
  In  In17  1  0.330553  0.330553  0.009123  1
  Hg  Hg18  1  0.996395  0.335583  0.335558  1
  Hg  Hg19  1  0.335583  0.996395  0.335558  1
  Ir  Ir20  1  0.892380  0.892380  0.892495  1
  Ir  Ir21  1  0.892414  0.892414  0.324393  1
  Ir  Ir22  1  0.324949  0.892016  0.892388  1
  Ir  Ir23  1  0.892016  0.324949  0.892388  1
