# generated using pymatgen
data_Ta12Al8ZnRe2RhC4
_symmetry_space_group_name_H-M   'P 1'
_cell_length_a   8.32176485
_cell_length_b   8.32176541
_cell_length_c   8.27839200
_cell_angle_alpha   60.17226380
_cell_angle_beta   60.17226158
_cell_angle_gamma   60.37813933
_symmetry_Int_Tables_number   1
_chemical_formula_structural   Ta12Al8ZnRe2RhC4
_chemical_formula_sum   'Ta12 Al8 Zn1 Re2 Rh1 C4'
_cell_volume   407.58672962
_cell_formula_units_Z   1
loop_
 _symmetry_equiv_pos_site_id
 _symmetry_equiv_pos_as_xyz
  1  'x, y, z'
loop_
 _atom_site_type_symbol
 _atom_site_label
 _atom_site_symmetry_multiplicity
 _atom_site_fract_x
 _atom_site_fract_y
 _atom_site_fract_z
 _atom_site_occupancy
  Ta  Ta0  1  0.569627  0.937513  0.554540  1
  Ta  Ta1  1  0.312487  0.680373  0.695460  1
  Ta  Ta2  1  0.681085  0.312316  0.311194  1
  Ta  Ta3  1  0.312316  0.681085  0.311194  1
  Ta  Ta4  1  0.692672  0.692672  0.307530  1
  Ta  Ta5  1  0.315648  0.315648  0.684860  1
  Ta  Ta6  1  0.557328  0.557328  0.942470  1
  Ta  Ta7  1  0.937513  0.569627  0.554540  1
  Ta  Ta8  1  0.568915  0.937684  0.938806  1
  Ta  Ta9  1  0.934352  0.934352  0.565140  1
  Ta  Ta10  1  0.680373  0.312487  0.695460  1
  Ta  Ta11  1  0.937684  0.568915  0.938806  1
  Al  Al12  1  0.918074  0.918074  0.915208  1
  Al  Al13  1  0.993081  0.332765  0.333137  1
  Al  Al14  1  0.332765  0.993081  0.333137  1
  Al  Al15  1  0.329747  0.329747  0.002176  1
  Al  Al16  1  0.917235  0.256919  0.916863  1
  Al  Al17  1  0.920253  0.920253  0.247824  1
  Al  Al18  1  0.256919  0.917235  0.916863  1
  Al  Al19  1  0.331926  0.331926  0.334792  1
  Zn  Zn20  1  0.125000  0.125000  0.625000  1
  Re  Re21  1  0.625000  0.125000  0.125000  1
  Re  Re22  1  0.125000  0.625000  0.125000  1
  Rh  Rh23  1  0.125000  0.125000  0.125000  1
  C  C24  1  0.625000  0.625000  0.625000  1
  C  C25  1  0.125000  0.625000  0.625000  1
  C  C26  1  0.625000  0.125000  0.625000  1
  C  C27  1  0.625000  0.625000  0.125000  1
