# generated using pymatgen
data_PrZr(AsPt)2
_symmetry_space_group_name_H-M   'P 1'
_cell_length_a   4.25819100
_cell_length_b   4.25819298
_cell_length_c   15.52584200
_cell_angle_alpha   90.00000000
_cell_angle_beta   90.00000000
_cell_angle_gamma   120.00000793
_symmetry_Int_Tables_number   1
_chemical_formula_structural   PrZr(AsPt)2
_chemical_formula_sum   'Pr2 Zr2 As4 Pt4'
_cell_volume   243.80142321
_cell_formula_units_Z   2
loop_
 _symmetry_equiv_pos_site_id
 _symmetry_equiv_pos_as_xyz
  1  'x, y, z'
loop_
 _atom_site_type_symbol
 _atom_site_label
 _atom_site_symmetry_multiplicity
 _atom_site_fract_x
 _atom_site_fract_y
 _atom_site_fract_z
 _atom_site_occupancy
  Pr  Pr0  1  0.000000  0.000000  0.500000  1
  Pr  Pr1  1  0.000000  0.000000  0.000000  1
  Zr  Zr2  1  0.000000  0.000000  0.250000  1
  Zr  Zr3  1  0.000000  0.000000  0.750000  1
  As  As4  1  0.333333  0.666667  0.880107  1
  As  As5  1  0.666667  0.333333  0.119893  1
  As  As6  1  0.666667  0.333333  0.380107  1
  As  As7  1  0.333333  0.666667  0.619893  1
  Pt  Pt8  1  0.333333  0.666667  0.345057  1
  Pt  Pt9  1  0.666667  0.333333  0.654943  1
  Pt  Pt10  1  0.666667  0.333333  0.845057  1
  Pt  Pt11  1  0.333333  0.666667  0.154943  1
