# generated using pymatgen
data_Dy2YAg(Pt2O7)2
_symmetry_space_group_name_H-M   'P 1'
_cell_length_a   7.33551315
_cell_length_b   7.33484574
_cell_length_c   7.19824401
_cell_angle_alpha   59.36259167
_cell_angle_beta   59.36714850
_cell_angle_gamma   59.99699141
_symmetry_Int_Tables_number   1
_chemical_formula_structural   Dy2YAg(Pt2O7)2
_chemical_formula_sum   'Dy2 Y1 Ag1 Pt4 O14'
_cell_volume   271.19816498
_cell_formula_units_Z   1
loop_
 _symmetry_equiv_pos_site_id
 _symmetry_equiv_pos_as_xyz
  1  'x, y, z'
loop_
 _atom_site_type_symbol
 _atom_site_label
 _atom_site_symmetry_multiplicity
 _atom_site_fract_x
 _atom_site_fract_y
 _atom_site_fract_z
 _atom_site_occupancy
  Dy  Dy0  1  0.625000  0.125000  0.125000  1
  Dy  Dy1  1  0.125000  0.125000  0.125000  1
  Y  Y2  1  0.125000  0.625000  0.125000  1
  Ag  Ag3  1  0.125000  0.125000  0.625000  1
  Pt  Pt4  1  0.625000  0.625000  0.625000  1
  Pt  Pt5  1  0.125000  0.625000  0.625000  1
  Pt  Pt6  1  0.625000  0.125000  0.625000  1
  Pt  Pt7  1  0.625000  0.625000  0.125000  1
  O  O8  1  0.293245  0.694930  0.718581  1
  O  O9  1  0.531869  0.965238  0.971024  1
  O  O10  1  0.694912  0.293128  0.718762  1
  O  O11  1  0.293199  0.293128  0.718762  1
  O  O12  1  0.717938  0.718190  0.279018  1
  O  O13  1  0.004671  0.004909  0.985749  1
  O  O14  1  0.284855  0.718190  0.279018  1
  O  O15  1  0.965145  0.531810  0.970982  1
  O  O16  1  0.956801  0.956872  0.531238  1
  O  O17  1  0.532062  0.531810  0.970982  1
  O  O18  1  0.245329  0.245091  0.264251  1
  O  O19  1  0.555088  0.956872  0.531238  1
  O  O20  1  0.718131  0.284762  0.278976  1
  O  O21  1  0.956755  0.555070  0.531419  1
