# generated using pymatgen
data_Pr2Ga3Ge2Pd3
_symmetry_space_group_name_H-M   'P 1'
_cell_length_a   6.11268947
_cell_length_b   8.61282385
_cell_length_c   8.61284453
_cell_angle_alpha   74.83883490
_cell_angle_beta   69.21483022
_cell_angle_gamma   69.21469410
_symmetry_Int_Tables_number   1
_chemical_formula_structural   Pr2Ga3Ge2Pd3
_chemical_formula_sum   'Pr4 Ga6 Ge4 Pd6'
_cell_volume   391.54374224
_cell_formula_units_Z   2
loop_
 _symmetry_equiv_pos_site_id
 _symmetry_equiv_pos_as_xyz
  1  'x, y, z'
loop_
 _atom_site_type_symbol
 _atom_site_label
 _atom_site_symmetry_multiplicity
 _atom_site_fract_x
 _atom_site_fract_y
 _atom_site_fract_z
 _atom_site_occupancy
  Pr  Pr0  1  0.870150  0.870899  0.388689  1
  Pr  Pr1  1  0.129850  0.129101  0.611311  1
  Pr  Pr2  1  0.370152  0.388688  0.870899  1
  Pr  Pr3  1  0.629848  0.611312  0.129101  1
  Ga  Ga4  1  0.250002  0.499981  0.500022  1
  Ga  Ga5  1  0.749998  0.500019  0.499978  1
  Ga  Ga6  1  0.018237  0.231776  0.231769  1
  Ga  Ga7  1  0.481770  0.768222  0.768216  1
  Ga  Ga8  1  0.981763  0.768224  0.768231  1
  Ga  Ga9  1  0.518230  0.231778  0.231784  1
  Ge  Ge10  1  0.611083  0.040327  0.737533  1
  Ge  Ge11  1  0.388917  0.959673  0.262467  1
  Ge  Ge12  1  0.111085  0.737528  0.040328  1
  Ge  Ge13  1  0.888915  0.262472  0.959672  1
  Pd  Pd14  1  0.249995  0.999996  0.999991  1
  Pd  Pd15  1  0.750005  0.000004  0.000009  1
  Pd  Pd16  1  0.634024  0.251051  0.480945  1
  Pd  Pd17  1  0.365976  0.748949  0.519055  1
  Pd  Pd18  1  0.134014  0.480944  0.251063  1
  Pd  Pd19  1  0.865986  0.519056  0.748937  1
