# generated using pymatgen
data_Ho2Ti3Co9As7
_symmetry_space_group_name_H-M   'P 1'
_cell_length_a   3.75830400
_cell_length_b   9.51577795
_cell_length_c   9.51577900
_cell_angle_alpha   119.99999323
_cell_angle_beta   90.00000000
_cell_angle_gamma   90.00000000
_symmetry_Int_Tables_number   1
_chemical_formula_structural   Ho2Ti3Co9As7
_chemical_formula_sum   'Ho2 Ti3 Co9 As7'
_cell_volume   294.72108935
_cell_formula_units_Z   1
loop_
 _symmetry_equiv_pos_site_id
 _symmetry_equiv_pos_as_xyz
  1  'x, y, z'
loop_
 _atom_site_type_symbol
 _atom_site_label
 _atom_site_symmetry_multiplicity
 _atom_site_fract_x
 _atom_site_fract_y
 _atom_site_fract_z
 _atom_site_occupancy
  Ho  Ho0  1  0.000000  0.666667  0.333333  1
  Ho  Ho1  1  0.500000  0.333333  0.666667  1
  Ti  Ti2  1  0.500000  0.777306  0.891498  1
  Ti  Ti3  1  0.500000  0.114193  0.222694  1
  Ti  Ti4  1  0.500000  0.108502  0.885807  1
  Co  Co5  1  0.000000  0.573198  0.939574  1
  Co  Co6  1  0.000000  0.366376  0.426802  1
  Co  Co7  1  0.000000  0.060426  0.633624  1
  Co  Co8  1  0.000000  0.879856  0.160271  1
  Co  Co9  1  0.000000  0.280416  0.120144  1
  Co  Co10  1  0.000000  0.839729  0.719584  1
  Co  Co11  1  0.500000  0.949315  0.385951  1
  Co  Co12  1  0.500000  0.436636  0.050685  1
  Co  Co13  1  0.500000  0.614049  0.563364  1
  As  As14  1  0.000000  0.000000  0.000000  1
  As  As15  1  0.500000  0.709954  0.123536  1
  As  As16  1  0.500000  0.413581  0.290046  1
  As  As17  1  0.500000  0.876464  0.586419  1
  As  As18  1  0.000000  0.580398  0.693973  1
  As  As19  1  0.000000  0.113576  0.419602  1
  As  As20  1  0.000000  0.306027  0.886424  1
