# generated using pymatgen
data_Y8Ho4Co4RuPb
_symmetry_space_group_name_H-M   'P 1'
_cell_length_a   8.34221092
_cell_length_b   8.34221073
_cell_length_c   8.34221033
_cell_angle_alpha   111.22613336
_cell_angle_beta   110.53842700
_cell_angle_gamma   106.68529858
_symmetry_Int_Tables_number   1
_chemical_formula_structural   Y8Ho4Co4RuPb
_chemical_formula_sum   'Y8 Ho4 Co4 Ru1 Pb1'
_cell_volume   446.10700911
_cell_formula_units_Z   1
loop_
 _symmetry_equiv_pos_site_id
 _symmetry_equiv_pos_as_xyz
  1  'x, y, z'
loop_
 _atom_site_type_symbol
 _atom_site_label
 _atom_site_symmetry_multiplicity
 _atom_site_fract_x
 _atom_site_fract_y
 _atom_site_fract_z
 _atom_site_occupancy
  Y  Y0  1  0.408331  0.215003  0.193328  1
  Y  Y1  1  0.591669  0.784997  0.806672  1
  Y  Y2  1  0.021675  0.215003  0.806672  1
  Y  Y3  1  0.978325  0.784997  0.193328  1
  Y  Y4  1  0.183961  0.285887  0.469849  1
  Y  Y5  1  0.816039  0.714113  0.530151  1
  Y  Y6  1  0.183961  0.714113  0.898073  1
  Y  Y7  1  0.816039  0.285887  0.101927  1
  Ho  Ho8  1  0.312741  0.622604  0.309864  1
  Ho  Ho9  1  0.687259  0.377396  0.690136  1
  Ho  Ho10  1  0.312741  0.002878  0.690136  1
  Ho  Ho11  1  0.687259  0.997122  0.309864  1
  Co  Co12  1  0.380256  0.000000  0.380256  1
  Co  Co13  1  0.619744  0.000000  0.619744  1
  Co  Co14  1  0.111002  0.611002  0.500000  1
  Co  Co15  1  0.888998  0.388998  0.500000  1
  Ru  Ru16  1  0.000000  0.000000  0.000000  1
  Pb  Pb17  1  0.500000  0.500000  0.000000  1
