# generated using pymatgen
data_DyTm3Lu12(CdPt)4
_symmetry_space_group_name_H-M   'P 1'
_cell_length_a   9.51447571
_cell_length_b   9.50656477
_cell_length_c   9.51200352
_cell_angle_alpha   60.03611471
_cell_angle_beta   59.95358593
_cell_angle_gamma   59.86626527
_symmetry_Int_Tables_number   1
_chemical_formula_structural   DyTm3Lu12(CdPt)4
_chemical_formula_sum   'Dy1 Tm3 Lu12 Cd4 Pt4'
_cell_volume   607.70165662
_cell_formula_units_Z   1
loop_
 _symmetry_equiv_pos_site_id
 _symmetry_equiv_pos_as_xyz
  1  'x, y, z'
loop_
 _atom_site_type_symbol
 _atom_site_label
 _atom_site_symmetry_multiplicity
 _atom_site_fract_x
 _atom_site_fract_y
 _atom_site_fract_z
 _atom_site_occupancy
  Dy  Dy0  1  0.935482  0.935482  0.564517  1
  Tm  Tm1  1  0.563976  0.934568  0.565374  1
  Tm  Tm2  1  0.934568  0.563975  0.936082  1
  Tm  Tm3  1  0.565969  0.565969  0.934031  1
  Lu  Lu4  1  0.354082  0.352651  0.349965  1
  Lu  Lu5  1  0.352651  0.354082  0.943303  1
  Lu  Lu6  1  0.355506  0.938647  0.353628  1
  Lu  Lu7  1  0.938647  0.355506  0.352220  1
  Lu  Lu8  1  0.810573  0.189806  0.188911  1
  Lu  Lu9  1  0.189806  0.810573  0.810711  1
  Lu  Lu10  1  0.189808  0.810583  0.188887  1
  Lu  Lu11  1  0.810583  0.189808  0.810722  1
  Lu  Lu12  1  0.189758  0.189758  0.810242  1
  Lu  Lu13  1  0.811114  0.811114  0.188886  1
  Lu  Lu14  1  0.937187  0.561587  0.562538  1
  Lu  Lu15  1  0.561587  0.937187  0.938687  1
  Cd  Cd16  1  0.582877  0.581289  0.581858  1
  Cd  Cd17  1  0.581289  0.582877  0.253975  1
  Cd  Cd18  1  0.580564  0.254368  0.583339  1
  Cd  Cd19  1  0.254368  0.580564  0.581729  1
  Pt  Pt20  1  0.144342  0.142870  0.143118  1
  Pt  Pt21  1  0.142870  0.144342  0.569671  1
  Pt  Pt22  1  0.142115  0.570279  0.144649  1
  Pt  Pt23  1  0.570279  0.142115  0.142957  1
