# generated using pymatgen
data_Er4Al18Ni5Os
_symmetry_space_group_name_H-M   'P 1'
_cell_length_a   7.41746560
_cell_length_b   7.41735356
_cell_length_c   9.27666321
_cell_angle_alpha   89.79746083
_cell_angle_beta   89.78356362
_cell_angle_gamma   119.02623841
_symmetry_Int_Tables_number   1
_chemical_formula_structural   Er4Al18Ni5Os
_chemical_formula_sum   'Er4 Al18 Ni5 Os1'
_cell_volume   446.26619030
_cell_formula_units_Z   1
loop_
 _symmetry_equiv_pos_site_id
 _symmetry_equiv_pos_as_xyz
  1  'x, y, z'
loop_
 _atom_site_type_symbol
 _atom_site_label
 _atom_site_symmetry_multiplicity
 _atom_site_fract_x
 _atom_site_fract_y
 _atom_site_fract_z
 _atom_site_occupancy
  Er  Er0  1  0.993649  0.675121  0.249513  1
  Er  Er1  1  0.006351  0.324879  0.750487  1
  Er  Er2  1  0.675123  0.993649  0.249505  1
  Er  Er3  1  0.324877  0.006351  0.750495  1
  Al  Al4  1  0.132042  0.132037  0.252306  1
  Al  Al5  1  0.867958  0.867963  0.747694  1
  Al  Al6  1  0.997681  0.337249  0.073776  1
  Al  Al7  1  0.002319  0.662751  0.926224  1
  Al  Al8  1  0.002903  0.662880  0.574793  1
  Al  Al9  1  0.337123  0.997129  0.425210  1
  Al  Al10  1  0.997097  0.337120  0.425207  1
  Al  Al11  1  0.662877  0.002871  0.574790  1
  Al  Al12  1  0.662755  0.002329  0.926211  1
  Al  Al13  1  0.337245  0.997671  0.073789  1
  Al  Al14  1  0.332546  0.332565  0.548421  1
  Al  Al15  1  0.667454  0.667435  0.451579  1
  Al  Al16  1  0.665475  0.665483  0.048414  1
  Al  Al17  1  0.334525  0.334517  0.951586  1
  Al  Al18  1  0.341490  0.557270  0.250084  1
  Al  Al19  1  0.658510  0.442730  0.749916  1
  Al  Al20  1  0.557282  0.341478  0.250047  1
  Al  Al21  1  0.442718  0.658522  0.749953  1
  Ni  Ni22  1  0.671396  0.328913  0.000437  1
  Ni  Ni23  1  0.328604  0.671087  0.999563  1
  Ni  Ni24  1  0.328658  0.671467  0.499405  1
  Ni  Ni25  1  0.671342  0.328533  0.500595  1
  Ni  Ni26  1  0.000000  0.000000  0.500000  1
  Os  Os27  1  0.000000  0.000000  0.000000  1
