# generated using pymatgen
data_TbTmSi2NiRu
_symmetry_space_group_name_H-M   'P 1'
_cell_length_a   4.21959200
_cell_length_b   6.90051989
_cell_length_c   7.18657689
_cell_angle_alpha   91.86479721
_cell_angle_beta   90.00000000
_cell_angle_gamma   90.00000000
_symmetry_Int_Tables_number   1
_chemical_formula_structural   TbTmSi2NiRu
_chemical_formula_sum   'Tb2 Tm2 Si4 Ni2 Ru2'
_cell_volume   209.14345816
_cell_formula_units_Z   2
loop_
 _symmetry_equiv_pos_site_id
 _symmetry_equiv_pos_as_xyz
  1  'x, y, z'
loop_
 _atom_site_type_symbol
 _atom_site_label
 _atom_site_symmetry_multiplicity
 _atom_site_fract_x
 _atom_site_fract_y
 _atom_site_fract_z
 _atom_site_occupancy
  Tb  Tb0  1  0.250000  0.991906  0.797423  1
  Tb  Tb1  1  0.750000  0.008094  0.202577  1
  Tm  Tm2  1  0.250000  0.490131  0.685566  1
  Tm  Tm3  1  0.750000  0.509869  0.314434  1
  Si  Si4  1  0.250000  0.301531  0.098264  1
  Si  Si5  1  0.750000  0.698469  0.901736  1
  Si  Si6  1  0.250000  0.800692  0.401578  1
  Si  Si7  1  0.750000  0.199308  0.598422  1
  Ni  Ni8  1  0.750000  0.828113  0.576606  1
  Ni  Ni9  1  0.250000  0.171887  0.423394  1
  Ru  Ru10  1  0.750000  0.344645  0.929202  1
  Ru  Ru11  1  0.250000  0.655355  0.070798  1
