# generated using pymatgen
data_Er9TmZn3Bi2Au
_symmetry_space_group_name_H-M   'P 1'
_cell_length_a   8.60395081
_cell_length_b   8.60395067
_cell_length_c   8.60281232
_cell_angle_alpha   124.06490652
_cell_angle_beta   124.06271873
_cell_angle_gamma   83.10308448
_symmetry_Int_Tables_number   1
_chemical_formula_structural   Er9TmZn3Bi2Au
_chemical_formula_sum   'Er9 Tm1 Zn3 Bi2 Au1'
_cell_volume   419.29020763
_cell_formula_units_Z   1
loop_
 _symmetry_equiv_pos_site_id
 _symmetry_equiv_pos_as_xyz
  1  'x, y, z'
loop_
 _atom_site_type_symbol
 _atom_site_label
 _atom_site_symmetry_multiplicity
 _atom_site_fract_x
 _atom_site_fract_y
 _atom_site_fract_z
 _atom_site_occupancy
  Er  Er0  1  0.000445  0.000392  0.000838  1
  Er  Er1  1  0.510068  0.011442  0.805509  1
  Er  Er2  1  0.204709  0.705802  0.194485  1
  Er  Er3  1  0.011635  0.205405  0.500152  1
  Er  Er4  1  0.705583  0.511165  0.499865  1
  Er  Er5  1  0.488682  0.989774  0.194485  1
  Er  Er6  1  0.794068  0.295442  0.805509  1
  Er  Er7  1  0.988700  0.794282  0.499865  1
  Er  Er8  1  0.294746  0.488517  0.500152  1
  Tm  Tm9  1  0.499625  0.499469  0.999095  1
  Zn  Zn10  1  0.137962  0.639538  0.777500  1
  Zn  Zn11  1  0.860334  0.362163  0.222497  1
  Zn  Zn12  1  0.639819  0.860029  0.499848  1
  Bi  Bi13  1  0.249505  0.250738  0.000006  1
  Bi  Bi14  1  0.749268  0.750501  0.000006  1
  Au  Au15  1  0.364850  0.135339  0.500189  1
