# generated using pymatgen
data_Mg2SiPt5
_symmetry_space_group_name_H-M   'P 1'
_cell_length_a   4.06398000
_cell_length_b   5.54415300
_cell_length_c   10.74711500
_cell_angle_alpha   90.00000000
_cell_angle_beta   90.00000000
_cell_angle_gamma   90.00000000
_symmetry_Int_Tables_number   1
_chemical_formula_structural   Mg2SiPt5
_chemical_formula_sum   'Mg4 Si2 Pt10'
_cell_volume   242.14676139
_cell_formula_units_Z   2
loop_
 _symmetry_equiv_pos_site_id
 _symmetry_equiv_pos_as_xyz
  1  'x, y, z'
loop_
 _atom_site_type_symbol
 _atom_site_label
 _atom_site_symmetry_multiplicity
 _atom_site_fract_x
 _atom_site_fract_y
 _atom_site_fract_z
 _atom_site_occupancy
  Mg  Mg0  1  0.500000  0.167094  0.142596  1
  Mg  Mg1  1  0.500000  0.832906  0.857404  1
  Mg  Mg2  1  0.500000  0.332906  0.642596  1
  Mg  Mg3  1  0.500000  0.667094  0.357404  1
  Si  Si4  1  0.000000  0.000000  0.500000  1
  Si  Si5  1  0.000000  0.500000  0.000000  1
  Pt  Pt6  1  0.500000  0.182348  0.398313  1
  Pt  Pt7  1  0.500000  0.817652  0.601687  1
  Pt  Pt8  1  0.500000  0.317652  0.898313  1
  Pt  Pt9  1  0.500000  0.682348  0.101687  1
  Pt  Pt10  1  0.000000  0.427404  0.235686  1
  Pt  Pt11  1  0.000000  0.572596  0.764314  1
  Pt  Pt12  1  0.000000  0.072596  0.735686  1
  Pt  Pt13  1  0.000000  0.927404  0.264314  1
  Pt  Pt14  1  0.000000  0.000000  0.000000  1
  Pt  Pt15  1  0.000000  0.500000  0.500000  1
