# generated using pymatgen
data_Er16In6FeCo
_symmetry_space_group_name_H-M   'P 1'
_cell_length_a   10.24137800
_cell_length_b   10.24137705
_cell_length_c   6.92770500
_cell_angle_alpha   90.00000000
_cell_angle_beta   90.00000000
_cell_angle_gamma   119.99999660
_symmetry_Int_Tables_number   1
_chemical_formula_structural   Er16In6FeCo
_chemical_formula_sum   'Er16 In6 Fe1 Co1'
_cell_volume   629.26964716
_cell_formula_units_Z   1
loop_
 _symmetry_equiv_pos_site_id
 _symmetry_equiv_pos_as_xyz
  1  'x, y, z'
loop_
 _atom_site_type_symbol
 _atom_site_label
 _atom_site_symmetry_multiplicity
 _atom_site_fract_x
 _atom_site_fract_y
 _atom_site_fract_z
 _atom_site_occupancy
  Er  Er0  1  0.534863  0.069726  0.791851  1
  Er  Er1  1  0.930274  0.465137  0.791851  1
  Er  Er2  1  0.534863  0.465137  0.791851  1
  Er  Er3  1  0.465976  0.931953  0.292072  1
  Er  Er4  1  0.068047  0.534024  0.292072  1
  Er  Er5  1  0.465976  0.534024  0.292072  1
  Er  Er6  1  0.821307  0.642614  0.499119  1
  Er  Er7  1  0.357386  0.178693  0.499119  1
  Er  Er8  1  0.821307  0.178693  0.499119  1
  Er  Er9  1  0.178617  0.357235  0.998338  1
  Er  Er10  1  0.642765  0.821383  0.998338  1
  Er  Er11  1  0.178617  0.821383  0.998338  1
  Er  Er12  1  0.666667  0.333333  0.179522  1
  Er  Er13  1  0.333333  0.666667  0.680721  1
  Er  Er14  1  0.000000  0.000000  0.778766  1
  Er  Er15  1  0.000000  0.000000  0.278586  1
  In  In16  1  0.837380  0.674761  0.038950  1
  In  In17  1  0.325239  0.162620  0.038950  1
  In  In18  1  0.837380  0.162620  0.038950  1
  In  In19  1  0.163031  0.326061  0.539244  1
  In  In20  1  0.673939  0.836969  0.539244  1
  In  In21  1  0.163031  0.836969  0.539244  1
  Fe  Fe22  1  0.666667  0.333333  0.570462  1
  Co  Co23  1  0.333333  0.666667  0.069127  1
