# generated using pymatgen
data_Nb8FeCo5(Si7Ni)2
_symmetry_space_group_name_H-M   'P 1'
_cell_length_a   9.27571875
_cell_length_b   9.27559873
_cell_length_c   9.26234857
_cell_angle_alpha   94.20175556
_cell_angle_beta   94.20220804
_cell_angle_gamma   148.61271881
_symmetry_Int_Tables_number   1
_chemical_formula_structural   Nb8FeCo5(Si7Ni)2
_chemical_formula_sum   'Nb8 Fe1 Co5 Si14 Ni2'
_cell_volume   399.53013689
_cell_formula_units_Z   1
loop_
 _symmetry_equiv_pos_site_id
 _symmetry_equiv_pos_as_xyz
  1  'x, y, z'
loop_
 _atom_site_type_symbol
 _atom_site_label
 _atom_site_symmetry_multiplicity
 _atom_site_fract_x
 _atom_site_fract_y
 _atom_site_fract_z
 _atom_site_occupancy
  Nb  Nb0  1  0.133941  0.133942  0.267888  1
  Nb  Nb1  1  0.866400  0.866398  0.732795  1
  Nb  Nb2  1  0.865915  0.133512  0.000647  1
  Nb  Nb3  1  0.134733  0.867137  0.000644  1
  Nb  Nb4  1  0.499502  0.690436  0.191440  1
  Nb  Nb5  1  0.498162  0.307872  0.808220  1
  Nb  Nb6  1  0.310062  0.500351  0.808222  1
  Nb  Nb7  1  0.691934  0.501001  0.191441  1
  Fe  Fe8  1  0.600321  0.100322  0.200631  1
  Co  Co9  1  0.102264  0.895060  0.499238  1
  Co  Co10  1  0.396968  0.604176  0.499239  1
  Co  Co11  1  0.599457  0.401419  0.501090  1
  Co  Co12  1  0.901632  0.099667  0.501090  1
  Co  Co13  1  0.899239  0.399236  0.798477  1
  Si  Si14  1  0.291485  0.291488  0.582965  1
  Si  Si15  1  0.708461  0.708463  0.416942  1
  Si  Si16  1  0.707021  0.292202  0.999653  1
  Si  Si17  1  0.292635  0.707457  0.999653  1
  Si  Si18  1  0.993339  0.288849  0.297206  1
  Si  Si19  1  0.993742  0.698613  0.703399  1
  Si  Si20  1  0.709664  0.004785  0.703401  1
  Si  Si21  1  0.303866  0.008359  0.297202  1
  Si  Si22  1  0.517453  0.923084  0.407530  1
  Si  Si23  1  0.508288  0.103861  0.592097  1
  Si  Si24  1  0.083807  0.488230  0.592100  1
  Si  Si25  1  0.890075  0.484441  0.407531  1
  Si  Si26  1  0.750776  0.750738  0.000023  1
  Si  Si27  1  0.249247  0.249285  0.000022  1
  Ni  Ni28  1  0.397683  0.897681  0.795362  1
  Ni  Ni29  1  0.101926  0.601932  0.203850  1
