# generated using pymatgen
data_La3InI3
_symmetry_space_group_name_H-M   'P 1'
_cell_length_a   11.27324757
_cell_length_b   11.27109612
_cell_length_c   11.27545215
_cell_angle_alpha   109.46339477
_cell_angle_beta   109.49166629
_cell_angle_gamma   109.45107043
_symmetry_Int_Tables_number   1
_chemical_formula_structural   La3InI3
_chemical_formula_sum   'La12 In4 I12'
_cell_volume   1102.97986698
_cell_formula_units_Z   4
loop_
 _symmetry_equiv_pos_site_id
 _symmetry_equiv_pos_as_xyz
  1  'x, y, z'
loop_
 _atom_site_type_symbol
 _atom_site_label
 _atom_site_symmetry_multiplicity
 _atom_site_fract_x
 _atom_site_fract_y
 _atom_site_fract_z
 _atom_site_occupancy
  La  La0  1  0.485967  0.492972  0.243024  1
  La  La1  1  0.749867  0.242869  0.257028  1
  La  La2  1  0.014175  0.257057  0.007073  1
  La  La3  1  0.749882  0.007017  0.492859  1
  La  La4  1  0.242959  0.485822  0.492911  1
  La  La5  1  0.492964  0.242919  0.485864  1
  La  La6  1  0.492904  0.750091  0.007151  1
  La  La7  1  0.242910  0.257096  0.749988  1
  La  La8  1  0.257135  0.750094  0.242959  1
  La  La9  1  0.257113  0.007015  0.014108  1
  La  La10  1  0.007057  0.014093  0.257024  1
  La  La11  1  0.007083  0.492963  0.750036  1
  In  In12  1  0.249950  0.250040  0.250010  1
  In  In13  1  0.500023  0.000004  0.250004  1
  In  In14  1  0.249925  0.499895  0.999894  1
  In  In15  1  0.000093  0.250054  0.500079  1
  I  I16  1  0.249990  0.993354  0.506642  1
  I  I17  1  0.986679  0.743330  0.993344  1
  I  I18  1  0.249998  0.756668  0.743329  1
  I  I19  1  0.513316  0.506650  0.756659  1
  I  I20  1  0.506663  0.250007  0.993341  1
  I  I21  1  0.993347  0.506649  0.249998  1
  I  I22  1  0.756658  0.513311  0.506648  1
  I  I23  1  0.743339  0.993342  0.986677  1
  I  I24  1  0.993345  0.986675  0.743331  1
  I  I25  1  0.756664  0.743330  0.249990  1
  I  I26  1  0.743330  0.250014  0.756681  1
  I  I27  1  0.506661  0.756668  0.513341  1
