# generated using pymatgen
data_Yb8HoErIr4
_symmetry_space_group_name_H-M   'P 1'
_cell_length_a   6.54425975
_cell_length_b   7.30349093
_cell_length_c   8.50187640
_cell_angle_alpha   97.22129733
_cell_angle_beta   112.63575468
_cell_angle_gamma   90.00000127
_symmetry_Int_Tables_number   1
_chemical_formula_structural   Yb8HoErIr4
_chemical_formula_sum   'Yb8 Ho1 Er1 Ir4'
_cell_volume   371.55911371
_cell_formula_units_Z   1
loop_
 _symmetry_equiv_pos_site_id
 _symmetry_equiv_pos_as_xyz
  1  'x, y, z'
loop_
 _atom_site_type_symbol
 _atom_site_label
 _atom_site_symmetry_multiplicity
 _atom_site_fract_x
 _atom_site_fract_y
 _atom_site_fract_z
 _atom_site_occupancy
  Yb  Yb0  1  0.972618  0.921520  0.171163  1
  Yb  Yb1  1  0.801456  0.578480  0.828837  1
  Yb  Yb2  1  0.027342  0.078310  0.828825  1
  Yb  Yb3  1  0.198516  0.421690  0.171175  1
  Yb  Yb4  1  0.643672  0.819788  0.437454  1
  Yb  Yb5  1  0.206218  0.680212  0.562546  1
  Yb  Yb6  1  0.356243  0.180172  0.562410  1
  Yb  Yb7  1  0.793832  0.319828  0.437590  1
  Ho  Ho8  1  0.562069  0.250000  0.000000  1
  Er  Er9  1  0.438237  0.750000  0.000000  1
  Ir  Ir10  1  0.813977  0.574094  0.211051  1
  Ir  Ir11  1  0.602927  0.925906  0.788949  1
  Ir  Ir12  1  0.185932  0.426453  0.788969  1
  Ir  Ir13  1  0.396962  0.073547  0.211031  1
