# generated using pymatgen
data_TbY2RuI3
_symmetry_space_group_name_H-M   'P 1'
_cell_length_a   4.23573700
_cell_length_b   8.91232239
_cell_length_c   12.35424508
_cell_angle_alpha   86.51947034
_cell_angle_beta   90.00000000
_cell_angle_gamma   90.00000000
_symmetry_Int_Tables_number   1
_chemical_formula_structural   TbY2RuI3
_chemical_formula_sum   'Tb2 Y4 Ru2 I6'
_cell_volume   465.51564937
_cell_formula_units_Z   2
loop_
 _symmetry_equiv_pos_site_id
 _symmetry_equiv_pos_as_xyz
  1  'x, y, z'
loop_
 _atom_site_type_symbol
 _atom_site_label
 _atom_site_symmetry_multiplicity
 _atom_site_fract_x
 _atom_site_fract_y
 _atom_site_fract_z
 _atom_site_occupancy
  Tb  Tb0  1  0.750000  0.131184  0.125272  1
  Tb  Tb1  1  0.250000  0.868816  0.874728  1
  Y  Y2  1  0.750000  0.098740  0.684517  1
  Y  Y3  1  0.250000  0.901260  0.315483  1
  Y  Y4  1  0.250000  0.263194  0.896752  1
  Y  Y5  1  0.750000  0.736806  0.103248  1
  Ru  Ru6  1  0.750000  0.054000  0.907172  1
  Ru  Ru7  1  0.250000  0.946000  0.092828  1
  I  I8  1  0.250000  0.351050  0.637470  1
  I  I9  1  0.750000  0.648950  0.362530  1
  I  I10  1  0.750000  0.140742  0.392862  1
  I  I11  1  0.250000  0.859258  0.607138  1
  I  I12  1  0.250000  0.428291  0.132551  1
  I  I13  1  0.750000  0.571709  0.867449  1
