# generated using pymatgen
data_EuHo13(Th3Pb8)2
_symmetry_space_group_name_H-M   'P 1'
_cell_length_a   8.27055523
_cell_length_b   8.32191221
_cell_length_c   15.71415000
_cell_angle_alpha   90.06988205
_cell_angle_beta   90.48411913
_cell_angle_gamma   89.89423217
_symmetry_Int_Tables_number   1
_chemical_formula_structural   EuHo13(Th3Pb8)2
_chemical_formula_sum   'Eu1 Ho13 Th6 Pb16'
_cell_volume   1081.51396793
_cell_formula_units_Z   1
loop_
 _symmetry_equiv_pos_site_id
 _symmetry_equiv_pos_as_xyz
  1  'x, y, z'
loop_
 _atom_site_type_symbol
 _atom_site_label
 _atom_site_symmetry_multiplicity
 _atom_site_fract_x
 _atom_site_fract_y
 _atom_site_fract_z
 _atom_site_occupancy
  Eu  Eu0  1  0.971092  0.824000  0.596977  1
  Ho  Ho1  1  0.632831  0.157905  0.623468  1
  Ho  Ho2  1  0.137663  0.342377  0.877042  1
  Ho  Ho3  1  0.364392  0.839316  0.122877  1
  Ho  Ho4  1  0.867455  0.659897  0.378325  1
  Ho  Ho5  1  0.368596  0.840462  0.378064  1
  Ho  Ho6  1  0.864278  0.660418  0.122534  1
  Ho  Ho7  1  0.635830  0.157391  0.875877  1
  Ho  Ho8  1  0.131877  0.341929  0.623272  1
  Ho  Ho9  1  0.466056  0.671268  0.601238  1
  Ho  Ho10  1  0.802097  0.498722  0.749327  1
  Ho  Ho11  1  0.301131  0.000467  0.748939  1
  Ho  Ho12  1  0.197439  0.500949  0.250644  1
  Ho  Ho13  1  0.697686  0.999656  0.249421  1
  Th  Th14  1  0.975161  0.821251  0.903289  1
  Th  Th15  1  0.525454  0.323099  0.096199  1
  Th  Th16  1  0.029523  0.178230  0.402537  1
  Th  Th17  1  0.528823  0.323166  0.402437  1
  Th  Th18  1  0.025357  0.176028  0.096408  1
  Th  Th19  1  0.476542  0.678960  0.904786  1
  Pb  Pb20  1  0.708705  0.967556  0.453260  1
  Pb  Pb21  1  0.205492  0.538842  0.043465  1
  Pb  Pb22  1  0.295190  0.039444  0.956816  1
  Pb  Pb23  1  0.785631  0.463019  0.543706  1
  Pb  Pb24  1  0.294843  0.038971  0.542897  1
  Pb  Pb25  1  0.795464  0.459379  0.956904  1
  Pb  Pb26  1  0.705137  0.961191  0.042990  1
  Pb  Pb27  1  0.212556  0.536441  0.456464  1
  Pb  Pb28  1  0.439595  0.372958  0.750757  1
  Pb  Pb29  1  0.938968  0.128863  0.752330  1
  Pb  Pb30  1  0.561467  0.628047  0.250337  1
  Pb  Pb31  1  0.061315  0.871887  0.250417  1
  Pb  Pb32  1  0.657665  0.848097  0.748001  1
  Pb  Pb33  1  0.163979  0.649253  0.749718  1
  Pb  Pb34  1  0.337360  0.147305  0.249095  1
  Pb  Pb35  1  0.837348  0.353253  0.249179  1
