# generated using pymatgen
data_TbHf(Si7Ir3)2
_symmetry_space_group_name_H-M   'P 1'
_cell_length_a   8.01060394
_cell_length_b   8.01060441
_cell_length_c   8.01060387
_cell_angle_alpha   56.69200124
_cell_angle_beta   56.69199768
_cell_angle_gamma   56.69200328
_symmetry_Int_Tables_number   1
_chemical_formula_structural   TbHf(Si7Ir3)2
_chemical_formula_sum   'Tb1 Hf1 Si14 Ir6'
_cell_volume   335.71411739
_cell_formula_units_Z   1
loop_
 _symmetry_equiv_pos_site_id
 _symmetry_equiv_pos_as_xyz
  1  'x, y, z'
loop_
 _atom_site_type_symbol
 _atom_site_label
 _atom_site_symmetry_multiplicity
 _atom_site_fract_x
 _atom_site_fract_y
 _atom_site_fract_z
 _atom_site_occupancy
  Tb  Tb0  1  0.000000  0.000000  0.000000  1
  Hf  Hf1  1  0.500000  0.500000  0.500000  1
  Si  Si2  1  0.750187  0.750187  0.750187  1
  Si  Si3  1  0.249813  0.249813  0.249813  1
  Si  Si4  1  0.850220  0.066655  0.671144  1
  Si  Si5  1  0.671144  0.850220  0.066655  1
  Si  Si6  1  0.066655  0.671144  0.850220  1
  Si  Si7  1  0.647974  0.825448  0.437298  1
  Si  Si8  1  0.437298  0.647974  0.825448  1
  Si  Si9  1  0.825448  0.437298  0.647974  1
  Si  Si10  1  0.174552  0.562702  0.352026  1
  Si  Si11  1  0.562702  0.352026  0.174552  1
  Si  Si12  1  0.352026  0.174552  0.562702  1
  Si  Si13  1  0.933345  0.328856  0.149780  1
  Si  Si14  1  0.328856  0.149780  0.933345  1
  Si  Si15  1  0.149780  0.933345  0.328856  1
  Ir  Ir16  1  0.073972  0.430806  0.746980  1
  Ir  Ir17  1  0.253020  0.926028  0.569194  1
  Ir  Ir18  1  0.569194  0.253020  0.926028  1
  Ir  Ir19  1  0.926028  0.569194  0.253020  1
  Ir  Ir20  1  0.430806  0.746980  0.073972  1
  Ir  Ir21  1  0.746980  0.073972  0.430806  1
