# generated using pymatgen
data_Dy10GaBi5C2
_symmetry_space_group_name_H-M   'P 1'
_cell_length_a   9.06800115
_cell_length_b   9.06799975
_cell_length_c   6.51568600
_cell_angle_alpha   90.00000000
_cell_angle_beta   90.00000000
_cell_angle_gamma   120.34102499
_symmetry_Int_Tables_number   1
_chemical_formula_structural   Dy10GaBi5C2
_chemical_formula_sum   'Dy10 Ga1 Bi5 C2'
_cell_volume   462.39290049
_cell_formula_units_Z   1
loop_
 _symmetry_equiv_pos_site_id
 _symmetry_equiv_pos_as_xyz
  1  'x, y, z'
loop_
 _atom_site_type_symbol
 _atom_site_label
 _atom_site_symmetry_multiplicity
 _atom_site_fract_x
 _atom_site_fract_y
 _atom_site_fract_z
 _atom_site_occupancy
  Dy  Dy0  1  0.656508  0.335559  0.994950  1
  Dy  Dy1  1  0.335559  0.656508  0.994950  1
  Dy  Dy2  1  0.335559  0.656508  0.505050  1
  Dy  Dy3  1  0.656508  0.335559  0.505050  1
  Dy  Dy4  1  0.790803  0.790803  0.750000  1
  Dy  Dy5  1  0.215820  0.010750  0.750000  1
  Dy  Dy6  1  0.010750  0.215820  0.750000  1
  Dy  Dy7  1  0.208633  0.208633  0.250000  1
  Dy  Dy8  1  0.790409  0.999803  0.250000  1
  Dy  Dy9  1  0.999803  0.790409  0.250000  1
  Ga  Ga10  1  0.405433  0.405433  0.750000  1
  Bi  Bi11  1  0.600573  0.000885  0.750000  1
  Bi  Bi12  1  0.000885  0.600573  0.750000  1
  Bi  Bi13  1  0.595692  0.595692  0.250000  1
  Bi  Bi14  1  0.401128  0.995938  0.250000  1
  Bi  Bi15  1  0.995938  0.401128  0.250000  1
  C  C16  1  0.999999  0.999999  0.001254  1
  C  C17  1  0.999999  0.999999  0.498746  1
