# generated using pymatgen
data_Th5GaSnSb2
_symmetry_space_group_name_H-M   'P 1'
_cell_length_a   9.55629600
_cell_length_b   9.56187662
_cell_length_c   6.51552200
_cell_angle_alpha   90.00000000
_cell_angle_beta   90.00000000
_cell_angle_gamma   119.98068855
_symmetry_Int_Tables_number   1
_chemical_formula_structural   Th5GaSnSb2
_chemical_formula_sum   'Th10 Ga2 Sn2 Sb4'
_cell_volume   515.69990905
_cell_formula_units_Z   2
loop_
 _symmetry_equiv_pos_site_id
 _symmetry_equiv_pos_as_xyz
  1  'x, y, z'
loop_
 _atom_site_type_symbol
 _atom_site_label
 _atom_site_symmetry_multiplicity
 _atom_site_fract_x
 _atom_site_fract_y
 _atom_site_fract_z
 _atom_site_occupancy
  Th  Th0  1  0.999536  0.264463  0.250000  1
  Th  Th1  1  0.730201  0.000000  0.750000  1
  Th  Th2  1  0.735072  0.735537  0.250000  1
  Th  Th3  1  0.666426  0.332417  0.500450  1
  Th  Th4  1  0.000757  0.732771  0.750000  1
  Th  Th5  1  0.267986  0.267229  0.750000  1
  Th  Th6  1  0.334008  0.667583  0.999550  1
  Th  Th7  1  0.666426  0.332417  0.999550  1
  Th  Th8  1  0.334008  0.667583  0.500450  1
  Th  Th9  1  0.265188  0.000000  0.250000  1
  Ga  Ga10  1  0.999518  0.000000  0.995283  1
  Ga  Ga11  1  0.999518  0.000000  0.504717  1
  Sn  Sn12  1  0.999968  0.382965  0.750000  1
  Sn  Sn13  1  0.617003  0.617035  0.750000  1
  Sb  Sb14  1  0.615303  0.000000  0.250000  1
  Sb  Sb15  1  0.383924  0.000000  0.750000  1
  Sb  Sb16  1  0.385828  0.386499  0.250000  1
  Sb  Sb17  1  0.999330  0.613501  0.250000  1
