# generated using pymatgen
data_Sr3(LiBi)4
_symmetry_space_group_name_H-M   'P 1'
_cell_length_a   9.27968128
_cell_length_b   9.27968120
_cell_length_c   9.27968154
_cell_angle_alpha   148.90159930
_cell_angle_beta   130.86554721
_cell_angle_gamma   59.29834539
_symmetry_Int_Tables_number   1
_chemical_formula_structural   Sr3(LiBi)4
_chemical_formula_sum   'Sr3 Li4 Bi4'
_cell_volume   309.59860089
_cell_formula_units_Z   1
loop_
 _symmetry_equiv_pos_site_id
 _symmetry_equiv_pos_as_xyz
  1  'x, y, z'
loop_
 _atom_site_type_symbol
 _atom_site_label
 _atom_site_symmetry_multiplicity
 _atom_site_fract_x
 _atom_site_fract_y
 _atom_site_fract_z
 _atom_site_occupancy
  Sr  Sr0  1  0.629378  0.629378  0.000000  1
  Sr  Sr1  1  0.000000  0.500000  0.500000  1
  Sr  Sr2  1  0.370622  0.370622  0.000000  1
  Li  Li3  1  0.983269  0.176903  0.806366  1
  Li  Li4  1  0.370537  0.176903  0.193634  1
  Li  Li5  1  0.629463  0.823097  0.806366  1
  Li  Li6  1  0.016731  0.823097  0.193634  1
  Bi  Bi7  1  0.786604  0.286604  0.500000  1
  Bi  Bi8  1  0.213396  0.713396  0.500000  1
  Bi  Bi9  1  0.301265  0.000000  0.301265  1
  Bi  Bi10  1  0.698735  0.000000  0.698735  1
