# generated using pymatgen
data_TmVF7
_symmetry_space_group_name_H-M   'P 1'
_cell_length_a   5.49827900
_cell_length_b   5.81691008
_cell_length_c   8.13697911
_cell_angle_alpha   103.31536865
_cell_angle_beta   90.00000000
_cell_angle_gamma   90.00000000
_symmetry_Int_Tables_number   1
_chemical_formula_structural   TmVF7
_chemical_formula_sum   'Tm2 V2 F14'
_cell_volume   253.24882745
_cell_formula_units_Z   2
loop_
 _symmetry_equiv_pos_site_id
 _symmetry_equiv_pos_as_xyz
  1  'x, y, z'
loop_
 _atom_site_type_symbol
 _atom_site_label
 _atom_site_symmetry_multiplicity
 _atom_site_fract_x
 _atom_site_fract_y
 _atom_site_fract_z
 _atom_site_occupancy
  Tm  Tm0  1  0.699702  0.650278  0.691582  1
  Tm  Tm1  1  0.199702  0.349722  0.308418  1
  V  V2  1  0.708729  0.815767  0.223953  1
  V  V3  1  0.208729  0.184233  0.776047  1
  F  F4  1  0.898047  0.455567  0.480714  1
  F  F5  1  0.398047  0.544433  0.519286  1
  F  F6  1  0.426242  0.928793  0.771782  1
  F  F7  1  0.926242  0.071207  0.228218  1
  F  F8  1  0.944368  0.963210  0.758216  1
  F  F9  1  0.444368  0.036790  0.241784  1
  F  F10  1  0.997091  0.447974  0.791261  1
  F  F11  1  0.497091  0.552026  0.208739  1
  F  F12  1  0.701449  0.763354  0.992339  1
  F  F13  1  0.201449  0.236646  0.007661  1
  F  F14  1  0.712235  0.869156  0.453452  1
  F  F15  1  0.212235  0.130844  0.546548  1
  F  F16  1  0.488495  0.383668  0.787775  1
  F  F17  1  0.988495  0.616332  0.212225  1
