# generated using pymatgen
data_PrFe3P12Ir
_symmetry_space_group_name_H-M   'P 1'
_cell_length_a   6.84858191
_cell_length_b   6.84858222
_cell_length_c   6.84858059
_cell_angle_alpha   109.52099465
_cell_angle_beta   109.52099060
_cell_angle_gamma   109.52099022
_symmetry_Int_Tables_number   1
_chemical_formula_structural   PrFe3P12Ir
_chemical_formula_sum   'Pr1 Fe3 P12 Ir1'
_cell_volume   246.81817247
_cell_formula_units_Z   1
loop_
 _symmetry_equiv_pos_site_id
 _symmetry_equiv_pos_as_xyz
  1  'x, y, z'
loop_
 _atom_site_type_symbol
 _atom_site_label
 _atom_site_symmetry_multiplicity
 _atom_site_fract_x
 _atom_site_fract_y
 _atom_site_fract_z
 _atom_site_occupancy
  Pr  Pr0  1  0.000000  0.000000  0.000000  1
  Fe  Fe1  1  0.000000  0.000000  0.500000  1
  Fe  Fe2  1  0.000000  0.500000  0.000000  1
  Fe  Fe3  1  0.500000  0.000000  0.000000  1
  P  P4  1  0.864605  0.655230  0.498371  1
  P  P5  1  0.848696  0.349799  0.199340  1
  P  P6  1  0.151304  0.650201  0.800660  1
  P  P7  1  0.344770  0.501629  0.135395  1
  P  P8  1  0.501629  0.135395  0.344770  1
  P  P9  1  0.135395  0.344770  0.501629  1
  P  P10  1  0.650201  0.800660  0.151304  1
  P  P11  1  0.199340  0.848696  0.349799  1
  P  P12  1  0.655230  0.498371  0.864605  1
  P  P13  1  0.800660  0.151304  0.650201  1
  P  P14  1  0.349799  0.199340  0.848696  1
  P  P15  1  0.498371  0.864605  0.655230  1
  Ir  Ir16  1  0.500000  0.500000  0.500000  1
