# generated using pymatgen
data_Pr2Ga9Ir2Pt
_symmetry_space_group_name_H-M   'P 1'
_cell_length_a   7.70381841
_cell_length_b   7.70381719
_cell_length_c   9.62258920
_cell_angle_alpha   89.96346809
_cell_angle_beta   89.96347045
_cell_angle_gamma   119.72976455
_symmetry_Int_Tables_number   1
_chemical_formula_structural   Pr2Ga9Ir2Pt
_chemical_formula_sum   'Pr4 Ga18 Ir4 Pt2'
_cell_volume   495.91862464
_cell_formula_units_Z   2
loop_
 _symmetry_equiv_pos_site_id
 _symmetry_equiv_pos_as_xyz
  1  'x, y, z'
loop_
 _atom_site_type_symbol
 _atom_site_label
 _atom_site_symmetry_multiplicity
 _atom_site_fract_x
 _atom_site_fract_y
 _atom_site_fract_z
 _atom_site_occupancy
  Pr  Pr0  1  0.996509  0.668649  0.249650  1
  Pr  Pr1  1  0.003491  0.331351  0.750350  1
  Pr  Pr2  1  0.668649  0.996509  0.249650  1
  Pr  Pr3  1  0.331351  0.003491  0.750350  1
  Ga  Ga4  1  0.128233  0.128233  0.250725  1
  Ga  Ga5  1  0.871767  0.871767  0.749275  1
  Ga  Ga6  1  0.002138  0.331283  0.080925  1
  Ga  Ga7  1  0.997862  0.668717  0.919075  1
  Ga  Ga8  1  0.000146  0.665387  0.576954  1
  Ga  Ga9  1  0.334613  0.999854  0.423046  1
  Ga  Ga10  1  0.999854  0.334613  0.423046  1
  Ga  Ga11  1  0.665387  0.000146  0.576954  1
  Ga  Ga12  1  0.668717  0.997862  0.919075  1
  Ga  Ga13  1  0.331283  0.002138  0.080925  1
  Ga  Ga14  1  0.331835  0.331835  0.556532  1
  Ga  Ga15  1  0.668165  0.668165  0.443468  1
  Ga  Ga16  1  0.668897  0.668897  0.063018  1
  Ga  Ga17  1  0.331103  0.331103  0.936982  1
  Ga  Ga18  1  0.341610  0.544276  0.253280  1
  Ga  Ga19  1  0.658390  0.455724  0.746720  1
  Ga  Ga20  1  0.544276  0.341610  0.253280  1
  Ga  Ga21  1  0.455724  0.658390  0.746720  1
  Ir  Ir22  1  0.329141  0.670859  0.500000  1
  Ir  Ir23  1  0.670859  0.329141  0.500000  1
  Ir  Ir24  1  0.000000  0.000000  0.000000  1
  Ir  Ir25  1  0.000000  0.000000  0.500000  1
  Pt  Pt26  1  0.670616  0.329384  0.000000  1
  Pt  Pt27  1  0.329384  0.670616  0.000000  1
