# generated using pymatgen
data_Tb6Y2Hf9Nb3Si16
_symmetry_space_group_name_H-M   'P 1'
_cell_length_a   7.24739724
_cell_length_b   7.24601310
_cell_length_c   13.29601500
_cell_angle_alpha   90.03430790
_cell_angle_beta   90.03381104
_cell_angle_gamma   90.03849681
_symmetry_Int_Tables_number   1
_chemical_formula_structural   Tb6Y2Hf9Nb3Si16
_chemical_formula_sum   'Tb6 Y2 Hf9 Nb3 Si16'
_cell_volume   698.23630419
_cell_formula_units_Z   1
loop_
 _symmetry_equiv_pos_site_id
 _symmetry_equiv_pos_as_xyz
  1  'x, y, z'
loop_
 _atom_site_type_symbol
 _atom_site_label
 _atom_site_symmetry_multiplicity
 _atom_site_fract_x
 _atom_site_fract_y
 _atom_site_fract_z
 _atom_site_occupancy
  Tb  Tb0  1  0.155962  0.498234  0.464431  1
  Tb  Tb1  1  0.501793  0.844015  0.035513  1
  Tb  Tb2  1  0.844167  0.502793  0.966527  1
  Tb  Tb3  1  0.497200  0.155899  0.533442  1
  Tb  Tb4  1  0.342779  0.997001  0.785746  1
  Tb  Tb5  1  0.655848  0.001359  0.285413  1
  Y  Y6  1  0.998815  0.344184  0.214551  1
  Y  Y7  1  0.002910  0.657217  0.714221  1
  Hf  Hf8  1  0.675021  0.325010  0.750010  1
  Hf  Hf9  1  0.148437  0.993430  0.374980  1
  Hf  Hf10  1  0.852750  0.004544  0.876220  1
  Hf  Hf11  1  0.506469  0.650012  0.622798  1
  Hf  Hf12  1  0.349904  0.493577  0.877275  1
  Hf  Hf13  1  0.493092  0.351691  0.125036  1
  Hf  Hf14  1  0.648365  0.506857  0.375009  1
  Hf  Hf15  1  0.995572  0.147091  0.623828  1
  Hf  Hf16  1  0.006409  0.851693  0.125069  1
  Nb  Nb17  1  0.175350  0.174913  0.000506  1
  Nb  Nb18  1  0.825071  0.824658  0.499438  1
  Nb  Nb19  1  0.324394  0.675583  0.249998  1
  Si  Si20  1  0.362937  0.295734  0.316654  1
  Si  Si21  1  0.636684  0.704827  0.816935  1
  Si  Si22  1  0.204085  0.862694  0.566434  1
  Si  Si23  1  0.137303  0.795808  0.933637  1
  Si  Si24  1  0.795716  0.136906  0.067061  1
  Si  Si25  1  0.863118  0.204388  0.433038  1
  Si  Si26  1  0.295106  0.363473  0.683062  1
  Si  Si27  1  0.704368  0.636881  0.183297  1
  Si  Si28  1  0.295526  0.048713  0.185325  1
  Si  Si29  1  0.704702  0.950242  0.684335  1
  Si  Si30  1  0.450765  0.795754  0.434458  1
  Si  Si31  1  0.204200  0.549125  0.065555  1
  Si  Si32  1  0.547504  0.203403  0.936202  1
  Si  Si33  1  0.796628  0.452581  0.563799  1
  Si  Si34  1  0.049736  0.295401  0.815595  1
  Si  Si35  1  0.951311  0.704310  0.314604  1
