# generated using pymatgen
data_LaP12Os3Ru
_symmetry_space_group_name_H-M   'P 1'
_cell_length_a   7.03929365
_cell_length_b   7.03929410
_cell_length_c   7.03929400
_cell_angle_alpha   109.47300391
_cell_angle_beta   109.47300377
_cell_angle_gamma   109.47299445
_symmetry_Int_Tables_number   1
_chemical_formula_structural   LaP12Os3Ru
_chemical_formula_sum   'La1 P12 Os3 Ru1'
_cell_volume   268.49535749
_cell_formula_units_Z   1
loop_
 _symmetry_equiv_pos_site_id
 _symmetry_equiv_pos_as_xyz
  1  'x, y, z'
loop_
 _atom_site_type_symbol
 _atom_site_label
 _atom_site_symmetry_multiplicity
 _atom_site_fract_x
 _atom_site_fract_y
 _atom_site_fract_z
 _atom_site_occupancy
  La  La0  1  0.000000  0.000000  0.000000  1
  P  P1  1  0.143653  0.785789  0.642232  1
  P  P2  1  0.144074  0.501514  0.357983  1
  P  P3  1  0.855926  0.498486  0.642017  1
  P  P4  1  0.357983  0.144074  0.501514  1
  P  P5  1  0.785789  0.642232  0.143653  1
  P  P6  1  0.856347  0.214211  0.357768  1
  P  P7  1  0.642232  0.143653  0.785789  1
  P  P8  1  0.498486  0.642017  0.855926  1
  P  P9  1  0.642017  0.855926  0.498486  1
  P  P10  1  0.501514  0.357983  0.144074  1
  P  P11  1  0.357768  0.856347  0.214211  1
  P  P12  1  0.214211  0.357768  0.856347  1
  Os  Os13  1  0.500000  0.000000  0.000000  1
  Os  Os14  1  0.000000  0.500000  0.000000  1
  Os  Os15  1  0.000000  0.000000  0.500000  1
  Ru  Ru16  1  0.500000  0.500000  0.500000  1
