# generated using pymatgen
data_DyYAl20(RuRh)2
_symmetry_space_group_name_H-M   'P 1'
_cell_length_a   6.85262518
_cell_length_b   6.84737723
_cell_length_c   9.16263300
_cell_angle_alpha   90.00000000
_cell_angle_beta   90.00000000
_cell_angle_gamma   97.12060294
_symmetry_Int_Tables_number   1
_chemical_formula_structural   DyYAl20(RuRh)2
_chemical_formula_sum   'Dy1 Y1 Al20 Ru2 Rh2'
_cell_volume   426.61784038
_cell_formula_units_Z   1
loop_
 _symmetry_equiv_pos_site_id
 _symmetry_equiv_pos_as_xyz
  1  'x, y, z'
loop_
 _atom_site_type_symbol
 _atom_site_label
 _atom_site_symmetry_multiplicity
 _atom_site_fract_x
 _atom_site_fract_y
 _atom_site_fract_z
 _atom_site_occupancy
  Dy  Dy0  1  0.869591  0.125402  0.750000  1
  Y  Y1  1  0.130536  0.874479  0.250000  1
  Al  Al2  1  0.621360  0.375433  0.549832  1
  Al  Al3  1  0.378682  0.624534  0.450269  1
  Al  Al4  1  0.378682  0.624534  0.049731  1
  Al  Al5  1  0.621360  0.375433  0.950168  1
  Al  Al6  1  0.225335  0.223632  0.499208  1
  Al  Al7  1  0.774607  0.776426  0.500894  1
  Al  Al8  1  0.774607  0.776426  0.999106  1
  Al  Al9  1  0.225335  0.223632  0.000792  1
  Al  Al10  1  0.844333  0.154458  0.101359  1
  Al  Al11  1  0.155582  0.845621  0.898551  1
  Al  Al12  1  0.155582  0.845621  0.601449  1
  Al  Al13  1  0.844333  0.154458  0.398641  1
  Al  Al14  1  0.857187  0.588522  0.750000  1
  Al  Al15  1  0.142754  0.411424  0.250000  1
  Al  Al16  1  0.412512  0.140915  0.750000  1
  Al  Al17  1  0.587557  0.859143  0.250000  1
  Al  Al18  1  0.224532  0.480573  0.750000  1
  Al  Al19  1  0.775388  0.519380  0.250000  1
  Al  Al20  1  0.518854  0.777559  0.750000  1
  Al  Al21  1  0.481201  0.222509  0.250000  1
  Ru  Ru22  1  0.500090  0.000042  0.999951  1
  Ru  Ru23  1  0.500090  0.000042  0.500049  1
  Rh  Rh24  1  0.999955  0.499902  0.500024  1
  Rh  Rh25  1  0.999955  0.499902  0.999976  1
