# generated using pymatgen
data_NaPrY5CoBr12
_symmetry_space_group_name_H-M   'P 1'
_cell_length_a   9.31675818
_cell_length_b   9.25188517
_cell_length_c   9.20174691
_cell_angle_alpha   106.70285867
_cell_angle_beta   106.62927510
_cell_angle_gamma   107.53235265
_symmetry_Int_Tables_number   1
_chemical_formula_structural   NaPrY5CoBr12
_chemical_formula_sum   'Na1 Pr1 Y5 Co1 Br12'
_cell_volume   661.33107950
_cell_formula_units_Z   1
loop_
 _symmetry_equiv_pos_site_id
 _symmetry_equiv_pos_as_xyz
  1  'x, y, z'
loop_
 _atom_site_type_symbol
 _atom_site_label
 _atom_site_symmetry_multiplicity
 _atom_site_fract_x
 _atom_site_fract_y
 _atom_site_fract_z
 _atom_site_occupancy
  Na  Na0  1  0.499928  0.500548  0.499379  1
  Pr  Pr1  1  0.893291  0.685937  0.971556  1
  Y  Y2  1  0.104762  0.304899  0.028588  1
  Y  Y3  1  0.320819  0.031200  0.109984  1
  Y  Y4  1  0.029148  0.106309  0.306973  1
  Y  Y5  1  0.972133  0.897920  0.694671  1
  Y  Y6  1  0.679225  0.967707  0.890157  1
  Co  Co7  1  0.000162  0.998511  0.001197  1
  Br  Br8  1  0.230485  0.683639  0.077058  1
  Br  Br9  1  0.448783  0.369924  0.145640  1
  Br  Br10  1  0.682347  0.073435  0.218229  1
  Br  Br11  1  0.929592  0.789832  0.330138  1
  Br  Br12  1  0.146480  0.449116  0.367795  1
  Br  Br13  1  0.368185  0.146864  0.449413  1
  Br  Br14  1  0.632194  0.854744  0.551273  1
  Br  Br15  1  0.852169  0.551038  0.618479  1
  Br  Br16  1  0.073854  0.219974  0.683972  1
  Br  Br17  1  0.318164  0.928442  0.782817  1
  Br  Br18  1  0.537516  0.630241  0.847028  1
  Br  Br19  1  0.780768  0.309722  0.925658  1
