# generated using pymatgen
data_LaEr3(PPt)4
_symmetry_space_group_name_H-M   'P 1'
_cell_length_a   4.12777700
_cell_length_b   4.12777611
_cell_length_c   15.78622100
_cell_angle_alpha   90.00000000
_cell_angle_beta   90.00000000
_cell_angle_gamma   119.99999915
_symmetry_Int_Tables_number   1
_chemical_formula_structural   LaEr3(PPt)4
_chemical_formula_sum   'La1 Er3 P4 Pt4'
_cell_volume   232.93844582
_cell_formula_units_Z   1
loop_
 _symmetry_equiv_pos_site_id
 _symmetry_equiv_pos_as_xyz
  1  'x, y, z'
loop_
 _atom_site_type_symbol
 _atom_site_label
 _atom_site_symmetry_multiplicity
 _atom_site_fract_x
 _atom_site_fract_y
 _atom_site_fract_z
 _atom_site_occupancy
  La  La0  1  0.000000  0.000000  0.500000  1
  Er  Er1  1  0.000000  0.000000  0.000000  1
  Er  Er2  1  0.000000  0.000000  0.245218  1
  Er  Er3  1  0.000000  0.000000  0.754782  1
  P  P4  1  0.333333  0.666667  0.884357  1
  P  P5  1  0.666667  0.333333  0.115643  1
  P  P6  1  0.666667  0.333333  0.372514  1
  P  P7  1  0.333333  0.666667  0.627486  1
  Pt  Pt8  1  0.333333  0.666667  0.357419  1
  Pt  Pt9  1  0.666667  0.333333  0.642581  1
  Pt  Pt10  1  0.666667  0.333333  0.869991  1
  Pt  Pt11  1  0.333333  0.666667  0.130009  1
