# generated using pymatgen
data_Ho2Er10OsRu3
_symmetry_space_group_name_H-M   'P 1'
_cell_length_a   6.27040005
_cell_length_b   7.30918224
_cell_length_c   9.04068900
_cell_angle_alpha   90.00000000
_cell_angle_beta   90.00000000
_cell_angle_gamma   90.07323198
_symmetry_Int_Tables_number   1
_chemical_formula_structural   Ho2Er10OsRu3
_chemical_formula_sum   'Ho2 Er10 Os1 Ru3'
_cell_volume   414.34796992
_cell_formula_units_Z   1
loop_
 _symmetry_equiv_pos_site_id
 _symmetry_equiv_pos_as_xyz
  1  'x, y, z'
loop_
 _atom_site_type_symbol
 _atom_site_label
 _atom_site_symmetry_multiplicity
 _atom_site_fract_x
 _atom_site_fract_y
 _atom_site_fract_z
 _atom_site_occupancy
  Ho  Ho0  1  0.868202  0.540330  0.250000  1
  Ho  Ho1  1  0.632265  0.040097  0.250000  1
  Er  Er2  1  0.333523  0.675470  0.062336  1
  Er  Er3  1  0.167272  0.175878  0.436323  1
  Er  Er4  1  0.668129  0.324321  0.563974  1
  Er  Er5  1  0.831630  0.823652  0.935458  1
  Er  Er6  1  0.668129  0.324321  0.936026  1
  Er  Er7  1  0.831630  0.823652  0.564542  1
  Er  Er8  1  0.333523  0.675470  0.437664  1
  Er  Er9  1  0.167272  0.175878  0.063677  1
  Er  Er10  1  0.130599  0.460142  0.750000  1
  Er  Er11  1  0.367462  0.961331  0.750000  1
  Os  Os12  1  0.539283  0.616441  0.750000  1
  Ru  Ru13  1  0.038942  0.883608  0.250000  1
  Ru  Ru14  1  0.461024  0.383266  0.250000  1
  Ru  Ru15  1  0.961113  0.116139  0.750000  1
