# generated using pymatgen
data_Er4LuCu2Sb
_symmetry_space_group_name_H-M   'P 1'
_cell_length_a   8.43561059
_cell_length_b   8.43561006
_cell_length_c   8.43561100
_cell_angle_alpha   124.66938722
_cell_angle_beta   124.66937560
_cell_angle_gamma   82.08636439
_symmetry_Int_Tables_number   1
_chemical_formula_structural   Er4LuCu2Sb
_chemical_formula_sum   'Er8 Lu2 Cu4 Sb2'
_cell_volume   390.40290927
_cell_formula_units_Z   2
loop_
 _symmetry_equiv_pos_site_id
 _symmetry_equiv_pos_as_xyz
  1  'x, y, z'
loop_
 _atom_site_type_symbol
 _atom_site_label
 _atom_site_symmetry_multiplicity
 _atom_site_fract_x
 _atom_site_fract_y
 _atom_site_fract_z
 _atom_site_occupancy
  Er  Er0  1  0.796337  0.296337  0.811607  1
  Er  Er1  1  0.203663  0.703663  0.188393  1
  Er  Er2  1  0.484730  0.984730  0.188393  1
  Er  Er3  1  0.296337  0.484730  0.500000  1
  Er  Er4  1  0.015270  0.203663  0.500000  1
  Er  Er5  1  0.515270  0.015270  0.811607  1
  Er  Er6  1  0.703663  0.515270  0.500000  1
  Er  Er7  1  0.984730  0.796337  0.500000  1
  Lu  Lu8  1  0.000000  0.000000  0.000000  1
  Lu  Lu9  1  0.500000  0.500000  0.000000  1
  Cu  Cu10  1  0.132136  0.632136  0.764273  1
  Cu  Cu11  1  0.867864  0.367864  0.235727  1
  Cu  Cu12  1  0.632136  0.867864  0.500000  1
  Cu  Cu13  1  0.367864  0.132136  0.500000  1
  Sb  Sb14  1  0.250000  0.250000  0.000000  1
  Sb  Sb15  1  0.750000  0.750000  0.000000  1
