# generated using pymatgen
data_Ti10Sn6O
_symmetry_space_group_name_H-M   'P 1'
_cell_length_a   8.05964700
_cell_length_b   8.05964671
_cell_length_c   5.41037800
_cell_angle_alpha   90.00000000
_cell_angle_beta   90.00000000
_cell_angle_gamma   119.99999709
_symmetry_Int_Tables_number   1
_chemical_formula_structural   Ti10Sn6O
_chemical_formula_sum   'Ti10 Sn6 O1'
_cell_volume   304.36189457
_cell_formula_units_Z   1
loop_
 _symmetry_equiv_pos_site_id
 _symmetry_equiv_pos_as_xyz
  1  'x, y, z'
loop_
 _atom_site_type_symbol
 _atom_site_label
 _atom_site_symmetry_multiplicity
 _atom_site_fract_x
 _atom_site_fract_y
 _atom_site_fract_z
 _atom_site_occupancy
  Ti  Ti0  1  0.666667  0.333333  0.500000  1
  Ti  Ti1  1  0.333333  0.666667  0.500000  1
  Ti  Ti2  1  0.333333  0.666667  0.000000  1
  Ti  Ti3  1  0.666667  0.333333  0.000000  1
  Ti  Ti4  1  0.775052  0.775052  0.260748  1
  Ti  Ti5  1  0.224948  0.000000  0.260748  1
  Ti  Ti6  1  0.000000  0.224948  0.260748  1
  Ti  Ti7  1  0.224948  0.224948  0.739252  1
  Ti  Ti8  1  0.775052  0.000000  0.739252  1
  Ti  Ti9  1  0.000000  0.775052  0.739252  1
  Sn  Sn10  1  0.398368  0.398368  0.245173  1
  Sn  Sn11  1  0.601632  0.000000  0.245173  1
  Sn  Sn12  1  0.000000  0.601632  0.245173  1
  Sn  Sn13  1  0.601632  0.601632  0.754827  1
  Sn  Sn14  1  0.398368  0.000000  0.754827  1
  Sn  Sn15  1  0.000000  0.398368  0.754827  1
  O  O16  1  0.000000  0.000000  0.500000  1
