# generated using pymatgen
data_Ac(ZnAs)3
_symmetry_space_group_name_H-M   'P 1'
_cell_length_a   4.21414900
_cell_length_b   11.79118800
_cell_length_c   12.81787800
_cell_angle_alpha   90.00000000
_cell_angle_beta   90.00000000
_cell_angle_gamma   90.00000000
_symmetry_Int_Tables_number   1
_chemical_formula_structural   Ac(ZnAs)3
_chemical_formula_sum   'Ac4 Zn12 As12'
_cell_volume   636.91809058
_cell_formula_units_Z   4
loop_
 _symmetry_equiv_pos_site_id
 _symmetry_equiv_pos_as_xyz
  1  'x, y, z'
loop_
 _atom_site_type_symbol
 _atom_site_label
 _atom_site_symmetry_multiplicity
 _atom_site_fract_x
 _atom_site_fract_y
 _atom_site_fract_z
 _atom_site_occupancy
  Ac  Ac0  1  0.750000  0.944127  0.333648  1
  Ac  Ac1  1  0.250000  0.444127  0.166352  1
  Ac  Ac2  1  0.750000  0.555873  0.833648  1
  Ac  Ac3  1  0.250000  0.055873  0.666352  1
  Zn  Zn4  1  0.750000  0.237336  0.453663  1
  Zn  Zn5  1  0.250000  0.737336  0.046337  1
  Zn  Zn6  1  0.750000  0.262664  0.953663  1
  Zn  Zn7  1  0.250000  0.762664  0.546337  1
  Zn  Zn8  1  0.750000  0.655532  0.274872  1
  Zn  Zn9  1  0.250000  0.155532  0.225128  1
  Zn  Zn10  1  0.750000  0.844468  0.774872  1
  Zn  Zn11  1  0.250000  0.344468  0.725128  1
  Zn  Zn12  1  0.750000  0.036894  0.066904  1
  Zn  Zn13  1  0.250000  0.536894  0.433096  1
  Zn  Zn14  1  0.750000  0.463106  0.566904  1
  Zn  Zn15  1  0.250000  0.963106  0.933096  1
  As  As16  1  0.750000  0.435202  0.363725  1
  As  As17  1  0.250000  0.935202  0.136275  1
  As  As18  1  0.750000  0.064798  0.863725  1
  As  As19  1  0.250000  0.564798  0.636275  1
  As  As20  1  0.750000  0.236080  0.150239  1
  As  As21  1  0.250000  0.736080  0.349761  1
  As  As22  1  0.750000  0.263920  0.650239  1
  As  As23  1  0.250000  0.763920  0.849761  1
  As  As24  1  0.750000  0.624361  0.081578  1
  As  As25  1  0.250000  0.124361  0.418422  1
  As  As26  1  0.750000  0.875639  0.581578  1
  As  As27  1  0.250000  0.375639  0.918422  1
