# generated using pymatgen
data_TbTm3Al24Pt7Au2
_symmetry_space_group_name_H-M   'P 1'
_cell_length_a   7.56088593
_cell_length_b   7.57427764
_cell_length_c   13.12556161
_cell_angle_alpha   84.55874078
_cell_angle_beta   78.98390850
_cell_angle_gamma   59.93077815
_symmetry_Int_Tables_number   1
_chemical_formula_structural   TbTm3Al24Pt7Au2
_chemical_formula_sum   'Tb1 Tm3 Al24 Pt7 Au2'
_cell_volume   638.53054277
_cell_formula_units_Z   1
loop_
 _symmetry_equiv_pos_site_id
 _symmetry_equiv_pos_as_xyz
  1  'x, y, z'
loop_
 _atom_site_type_symbol
 _atom_site_label
 _atom_site_symmetry_multiplicity
 _atom_site_fract_x
 _atom_site_fract_y
 _atom_site_fract_z
 _atom_site_occupancy
  Tb  Tb0  1  0.392453  0.169285  0.809798  1
  Tm  Tm1  1  0.607204  0.830629  0.191194  1
  Tm  Tm2  1  0.733480  0.498983  0.809643  1
  Tm  Tm3  1  0.266325  0.501176  0.190430  1
  Al  Al4  1  0.683528  0.833191  0.945135  1
  Al  Al5  1  0.316931  0.165868  0.056444  1
  Al  Al6  1  0.145781  0.839078  0.562360  1
  Al  Al7  1  0.854412  0.160820  0.437420  1
  Al  Al8  1  0.488348  0.159098  0.559307  1
  Al  Al9  1  0.511786  0.840768  0.440369  1
  Al  Al10  1  0.223909  0.160774  0.324089  1
  Al  Al11  1  0.777041  0.838704  0.674888  1
  Al  Al12  1  0.439967  0.506919  0.675077  1
  Al  Al13  1  0.560395  0.493706  0.323897  1
  Al  Al14  1  0.108453  0.154908  0.673514  1
  Al  Al15  1  0.891461  0.844897  0.325551  1
  Al  Al16  1  0.353524  0.499385  0.945046  1
  Al  Al17  1  0.646097  0.501526  0.056035  1
  Al  Al18  1  0.014532  0.168034  0.953525  1
  Al  Al19  1  0.984074  0.832107  0.047598  1
  Al  Al20  1  0.195558  0.499519  0.437379  1
  Al  Al21  1  0.804499  0.500626  0.562335  1
  Al  Al22  1  0.731973  0.164736  0.182916  1
  Al  Al23  1  0.267399  0.834418  0.816969  1
  Al  Al24  1  0.059493  0.634407  0.817911  1
  Al  Al25  1  0.939631  0.366985  0.182131  1
  Al  Al26  1  0.854951  0.042539  0.816499  1
  Al  Al27  1  0.146483  0.956802  0.183464  1
  Pt  Pt28  1  0.657139  0.171805  0.999714  1
  Pt  Pt29  1  0.343098  0.828006  0.000269  1
  Pt  Pt30  1  0.537146  0.166916  0.361483  1
  Pt  Pt31  1  0.462954  0.832394  0.638225  1
  Pt  Pt32  1  0.779871  0.175544  0.636868  1
  Pt  Pt33  1  0.220939  0.824490  0.362767  1
  Pt  Pt34  1  0.999720  0.500260  0.000075  1
  Au  Au35  1  0.119274  0.490834  0.638129  1
  Au  Au36  1  0.880168  0.509863  0.361545  1
