# generated using pymatgen
data_U4N7O
_symmetry_space_group_name_H-M   'P 1'
_cell_length_a   10.58131007
_cell_length_b   5.28918104
_cell_length_c   5.29291908
_cell_angle_alpha   90.01485705
_cell_angle_beta   89.98664445
_cell_angle_gamma   89.99978949
_symmetry_Int_Tables_number   1
_chemical_formula_structural   U4N7O
_chemical_formula_sum   'U8 N14 O2'
_cell_volume   296.22595068
_cell_formula_units_Z   2
loop_
 _symmetry_equiv_pos_site_id
 _symmetry_equiv_pos_as_xyz
  1  'x, y, z'
loop_
 _atom_site_type_symbol
 _atom_site_label
 _atom_site_symmetry_multiplicity
 _atom_site_fract_x
 _atom_site_fract_y
 _atom_site_fract_z
 _atom_site_occupancy
  U  U0  1  0.121232  0.500028  0.254524  1
  U  U1  1  0.378752  0.999990  0.254602  1
  U  U2  1  0.873840  0.999979  0.250673  1
  U  U3  1  0.626171  0.500006  0.250677  1
  U  U4  1  0.379287  0.499977  0.741602  1
  U  U5  1  0.120706  0.000016  0.741544  1
  U  U6  1  0.626184  0.999992  0.752607  1
  U  U7  1  0.873841  0.499967  0.752639  1
  N  N8  1  0.001527  0.249635  0.000036  1
  N  N9  1  0.498441  0.749693  0.000009  1
  N  N10  1  0.750015  0.750148  0.004499  1
  N  N11  1  0.749968  0.250033  0.004490  1
  N  N12  1  0.250070  0.250080  0.495174  1
  N  N13  1  0.250056  0.750084  0.495174  1
  N  N14  1  0.000475  0.749672  0.500220  1
  N  N15  1  0.499494  0.249634  0.500339  1
  N  N16  1  0.499535  0.750343  0.500363  1
  N  N17  1  0.000445  0.250301  0.500277  1
  N  N18  1  0.749974  0.249838  0.504660  1
  N  N19  1  0.749990  0.750017  0.504657  1
  N  N20  1  0.498439  0.250296  0.999997  1
  N  N21  1  0.001536  0.750358  0.000044  1
  O  O22  1  0.250015  0.749952  0.995599  1
  O  O23  1  0.250006  0.249957  0.995599  1
