# generated using pymatgen
data_Ce8Be3Si12Pd
_symmetry_space_group_name_H-M   'P 1'
_cell_length_a   8.00310300
_cell_length_b   8.00310268
_cell_length_c   8.47107900
_cell_angle_alpha   90.00000000
_cell_angle_beta   90.00000000
_cell_angle_gamma   119.99998894
_symmetry_Int_Tables_number   1
_chemical_formula_structural   Ce8Be3Si12Pd
_chemical_formula_sum   'Ce8 Be3 Si12 Pd1'
_cell_volume   469.87918534
_cell_formula_units_Z   1
loop_
 _symmetry_equiv_pos_site_id
 _symmetry_equiv_pos_as_xyz
  1  'x, y, z'
loop_
 _atom_site_type_symbol
 _atom_site_label
 _atom_site_symmetry_multiplicity
 _atom_site_fract_x
 _atom_site_fract_y
 _atom_site_fract_z
 _atom_site_occupancy
  Ce  Ce0  1  0.000000  0.000000  0.250489  1
  Ce  Ce1  1  0.000000  0.000000  0.749440  1
  Ce  Ce2  1  0.501003  0.498997  0.251116  1
  Ce  Ce3  1  0.501003  0.002006  0.251116  1
  Ce  Ce4  1  0.997994  0.498997  0.251116  1
  Ce  Ce5  1  0.500792  0.499208  0.748879  1
  Ce  Ce6  1  0.500792  0.001584  0.748879  1
  Ce  Ce7  1  0.998416  0.499208  0.748879  1
  Be  Be8  1  0.333333  0.666667  0.498938  1
  Be  Be9  1  0.666667  0.333333  0.500735  1
  Be  Be10  1  0.666667  0.333333  0.999942  1
  Si  Si11  1  0.172251  0.827749  0.499671  1
  Si  Si12  1  0.172251  0.344502  0.499671  1
  Si  Si13  1  0.655498  0.827749  0.499671  1
  Si  Si14  1  0.827090  0.172910  0.499896  1
  Si  Si15  1  0.827090  0.654177  0.499896  1
  Si  Si16  1  0.345823  0.172910  0.499896  1
  Si  Si17  1  0.826546  0.173454  0.000159  1
  Si  Si18  1  0.826546  0.653092  0.000159  1
  Si  Si19  1  0.346908  0.173454  0.000159  1
  Si  Si20  1  0.163471  0.836529  0.000142  1
  Si  Si21  1  0.163471  0.326944  0.000142  1
  Si  Si22  1  0.673056  0.836529  0.000142  1
  Pd  Pd23  1  0.333333  0.666667  0.000864  1
