# generated using pymatgen
data_Th4Hg2PtRh3
_symmetry_space_group_name_H-M   'P 1'
_cell_length_a   7.84303840
_cell_length_b   7.84303840
_cell_length_c   3.78506400
_cell_angle_alpha   90.00000000
_cell_angle_beta   90.00000000
_cell_angle_gamma   89.91027625
_symmetry_Int_Tables_number   1
_chemical_formula_structural   Th4Hg2PtRh3
_chemical_formula_sum   'Th4 Hg2 Pt1 Rh3'
_cell_volume   232.83130795
_cell_formula_units_Z   1
loop_
 _symmetry_equiv_pos_site_id
 _symmetry_equiv_pos_as_xyz
  1  'x, y, z'
loop_
 _atom_site_type_symbol
 _atom_site_label
 _atom_site_symmetry_multiplicity
 _atom_site_fract_x
 _atom_site_fract_y
 _atom_site_fract_z
 _atom_site_occupancy
  Th  Th0  1  0.323550  0.170056  0.500001  1
  Th  Th1  1  0.834228  0.334228  0.500001  1
  Th  Th2  1  0.172939  0.672939  0.500001  1
  Th  Th3  1  0.670056  0.823550  0.500001  1
  Hg  Hg4  1  0.001891  0.999379  0.000000  1
  Hg  Hg5  1  0.499379  0.501891  0.000000  1
  Pt  Pt6  1  0.629094  0.129096  0.000000  1
  Rh  Rh7  1  0.132418  0.368837  0.000000  1
  Rh  Rh8  1  0.868837  0.632416  0.000000  1
  Rh  Rh9  1  0.367607  0.867607  0.000000  1
