# generated using pymatgen
data_Lu19MgIr12
_symmetry_space_group_name_H-M   'P 1'
_cell_length_a   10.65731300
_cell_length_b   10.65731300
_cell_length_c   6.22822900
_cell_angle_alpha   90.00000000
_cell_angle_beta   90.00000000
_cell_angle_gamma   90.00000000
_symmetry_Int_Tables_number   1
_chemical_formula_structural   Lu19MgIr12
_chemical_formula_sum   'Lu19 Mg1 Ir12'
_cell_volume   707.39178876
_cell_formula_units_Z   1
loop_
 _symmetry_equiv_pos_site_id
 _symmetry_equiv_pos_as_xyz
  1  'x, y, z'
loop_
 _atom_site_type_symbol
 _atom_site_label
 _atom_site_symmetry_multiplicity
 _atom_site_fract_x
 _atom_site_fract_y
 _atom_site_fract_z
 _atom_site_occupancy
  Lu  Lu0  1  0.284990  0.084399  0.378937  1
  Lu  Lu1  1  0.291690  0.912180  0.879840  1
  Lu  Lu2  1  0.708310  0.087820  0.879840  1
  Lu  Lu3  1  0.715010  0.915601  0.378937  1
  Lu  Lu4  1  0.588075  0.792196  0.879640  1
  Lu  Lu5  1  0.587367  0.208239  0.377192  1
  Lu  Lu6  1  0.412633  0.791761  0.377192  1
  Lu  Lu7  1  0.411925  0.207804  0.879640  1
  Lu  Lu8  1  0.208239  0.412633  0.622808  1
  Lu  Lu9  1  0.207804  0.588075  0.120360  1
  Lu  Lu10  1  0.792196  0.411925  0.120360  1
  Lu  Lu11  1  0.791761  0.587367  0.622808  1
  Lu  Lu12  1  0.912180  0.708310  0.120160  1
  Lu  Lu13  1  0.915601  0.284990  0.621063  1
  Lu  Lu14  1  0.084399  0.715010  0.621063  1
  Lu  Lu15  1  0.087820  0.291690  0.120160  1
  Lu  Lu16  1  0.000000  0.000000  0.000000  1
  Lu  Lu17  1  0.500000  0.500000  0.000000  1
  Lu  Lu18  1  0.500000  0.500000  0.500000  1
  Mg  Mg19  1  0.000000  0.000000  0.500000  1
  Ir  Ir20  1  0.845936  0.155920  0.245462  1
  Ir  Ir21  1  0.844080  0.845936  0.754538  1
  Ir  Ir22  1  0.155920  0.154064  0.754538  1
  Ir  Ir23  1  0.154064  0.844080  0.245462  1
  Ir  Ir24  1  0.654323  0.346742  0.748330  1
  Ir  Ir25  1  0.653258  0.654323  0.251670  1
  Ir  Ir26  1  0.346742  0.345677  0.251670  1
  Ir  Ir27  1  0.345677  0.653258  0.748330  1
  Ir  Ir28  1  0.500000  0.000000  0.127556  1
  Ir  Ir29  1  0.500000  0.000000  0.622196  1
  Ir  Ir30  1  0.000000  0.500000  0.872444  1
  Ir  Ir31  1  0.000000  0.500000  0.377804  1
