# generated using pymatgen
data_Ta3Ga2BOs
_symmetry_space_group_name_H-M   'P 1'
_cell_length_a   8.38108390
_cell_length_b   8.38108429
_cell_length_c   8.38116300
_cell_angle_alpha   60.00137466
_cell_angle_beta   60.00137315
_cell_angle_gamma   60.00052042
_symmetry_Int_Tables_number   1
_chemical_formula_structural   Ta3Ga2BOs
_chemical_formula_sum   'Ta12 Ga8 B4 Os4'
_cell_volume   416.29425030
_cell_formula_units_Z   4
loop_
 _symmetry_equiv_pos_site_id
 _symmetry_equiv_pos_as_xyz
  1  'x, y, z'
loop_
 _atom_site_type_symbol
 _atom_site_label
 _atom_site_symmetry_multiplicity
 _atom_site_fract_x
 _atom_site_fract_y
 _atom_site_fract_z
 _atom_site_occupancy
  Ta  Ta0  1  0.550235  0.949763  0.550236  1
  Ta  Ta1  1  0.300237  0.699765  0.699764  1
  Ta  Ta2  1  0.699774  0.300222  0.300236  1
  Ta  Ta3  1  0.300222  0.699774  0.300236  1
  Ta  Ta4  1  0.699764  0.699764  0.300246  1
  Ta  Ta5  1  0.300233  0.300233  0.699770  1
  Ta  Ta6  1  0.550236  0.550236  0.949754  1
  Ta  Ta7  1  0.949763  0.550235  0.550236  1
  Ta  Ta8  1  0.550226  0.949778  0.949764  1
  Ta  Ta9  1  0.949767  0.949767  0.550230  1
  Ta  Ta10  1  0.699765  0.300237  0.699764  1
  Ta  Ta11  1  0.949778  0.550226  0.949764  1
  Ga  Ga12  1  0.912630  0.912630  0.912629  1
  Ga  Ga13  1  0.987886  0.337368  0.337369  1
  Ga  Ga14  1  0.337368  0.987886  0.337369  1
  Ga  Ga15  1  0.337370  0.337370  0.987882  1
  Ga  Ga16  1  0.912632  0.262114  0.912631  1
  Ga  Ga17  1  0.912630  0.912630  0.262118  1
  Ga  Ga18  1  0.262114  0.912632  0.912631  1
  Ga  Ga19  1  0.337370  0.337370  0.337371  1
  B  B20  1  0.625000  0.625000  0.625000  1
  B  B21  1  0.125000  0.625000  0.625000  1
  B  B22  1  0.625000  0.125000  0.625000  1
  B  B23  1  0.625000  0.625000  0.125000  1
  Os  Os24  1  0.125000  0.125000  0.125000  1
  Os  Os25  1  0.625000  0.125000  0.125000  1
  Os  Os26  1  0.125000  0.625000  0.125000  1
  Os  Os27  1  0.125000  0.125000  0.625000  1
