# generated using pymatgen
data_Ta4Be4CrRh
_symmetry_space_group_name_H-M   'P 1'
_cell_length_a   6.25256000
_cell_length_b   6.25256000
_cell_length_c   3.30241700
_cell_angle_alpha   90.00000000
_cell_angle_beta   90.00000000
_cell_angle_gamma   90.00000000
_symmetry_Int_Tables_number   1
_chemical_formula_structural   Ta4Be4CrRh
_chemical_formula_sum   'Ta4 Be4 Cr1 Rh1'
_cell_volume   129.10636305
_cell_formula_units_Z   1
loop_
 _symmetry_equiv_pos_site_id
 _symmetry_equiv_pos_as_xyz
  1  'x, y, z'
loop_
 _atom_site_type_symbol
 _atom_site_label
 _atom_site_symmetry_multiplicity
 _atom_site_fract_x
 _atom_site_fract_y
 _atom_site_fract_z
 _atom_site_occupancy
  Ta  Ta0  1  0.684917  0.168007  0.500000  1
  Ta  Ta1  1  0.315083  0.831993  0.500000  1
  Ta  Ta2  1  0.168007  0.315083  0.500000  1
  Ta  Ta3  1  0.831993  0.684917  0.500000  1
  Be  Be4  1  0.122686  0.617534  0.000000  1
  Be  Be5  1  0.877314  0.382466  0.000000  1
  Be  Be6  1  0.617534  0.877314  0.000000  1
  Be  Be7  1  0.382466  0.122686  0.000000  1
  Cr  Cr8  1  0.000000  0.000000  0.000000  1
  Rh  Rh9  1  0.500000  0.500000  0.000000  1
