# generated using pymatgen
data_Ho3Tm(TaIr3)2
_symmetry_space_group_name_H-M   'P 1'
_cell_length_a   5.61939253
_cell_length_b   5.61940040
_cell_length_c   8.26264328
_cell_angle_alpha   90.00000115
_cell_angle_beta   90.01172726
_cell_angle_gamma   59.99994218
_symmetry_Int_Tables_number   1
_chemical_formula_structural   Ho3Tm(TaIr3)2
_chemical_formula_sum   'Ho3 Tm1 Ta2 Ir6'
_cell_volume   225.95851817
_cell_formula_units_Z   1
loop_
 _symmetry_equiv_pos_site_id
 _symmetry_equiv_pos_as_xyz
  1  'x, y, z'
loop_
 _atom_site_type_symbol
 _atom_site_label
 _atom_site_symmetry_multiplicity
 _atom_site_fract_x
 _atom_site_fract_y
 _atom_site_fract_z
 _atom_site_occupancy
  Ho  Ho0  1  0.666650  0.666675  0.437315  1
  Ho  Ho1  1  0.666688  0.666656  0.063438  1
  Ho  Ho2  1  0.333294  0.333352  0.936256  1
  Tm  Tm3  1  0.333391  0.333304  0.561581  1
  Ta  Ta4  1  0.000009  0.999995  0.500324  1
  Ta  Ta5  1  0.999993  0.000004  0.999961  1
  Ir  Ir6  1  0.826741  0.346523  0.749827  1
  Ir  Ir7  1  0.346505  0.826747  0.749857  1
  Ir  Ir8  1  0.826741  0.826736  0.749827  1
  Ir  Ir9  1  0.173239  0.653498  0.250546  1
  Ir  Ir10  1  0.653510  0.173245  0.250519  1
  Ir  Ir11  1  0.173239  0.173262  0.250546  1
