# generated using pymatgen
data_Dy16CdHg3(IrRu)2
_symmetry_space_group_name_H-M   'P 1'
_cell_length_a   9.61093353
_cell_length_b   9.61095598
_cell_length_c   9.64659100
_cell_angle_alpha   59.87726918
_cell_angle_beta   59.87719156
_cell_angle_gamma   59.77265923
_symmetry_Int_Tables_number   1
_chemical_formula_structural   Dy16CdHg3(IrRu)2
_chemical_formula_sum   'Dy16 Cd1 Hg3 Ir2 Ru2'
_cell_volume   627.81785956
_cell_formula_units_Z   1
loop_
 _symmetry_equiv_pos_site_id
 _symmetry_equiv_pos_as_xyz
  1  'x, y, z'
loop_
 _atom_site_type_symbol
 _atom_site_label
 _atom_site_symmetry_multiplicity
 _atom_site_fract_x
 _atom_site_fract_y
 _atom_site_fract_z
 _atom_site_occupancy
  Dy  Dy0  1  0.599054  0.598577  0.598418  1
  Dy  Dy1  1  0.599054  0.598577  0.203952  1
  Dy  Dy2  1  0.598393  0.205614  0.597997  1
  Dy  Dy3  1  0.201967  0.599331  0.599351  1
  Dy  Dy4  1  0.060607  0.439129  0.440862  1
  Dy  Dy5  1  0.438036  0.061542  0.060101  1
  Dy  Dy6  1  0.438036  0.061542  0.440322  1
  Dy  Dy7  1  0.060607  0.439129  0.059402  1
  Dy  Dy8  1  0.438078  0.438645  0.061638  1
  Dy  Dy9  1  0.058664  0.058922  0.441207  1
  Dy  Dy10  1  0.188091  0.809933  0.812481  1
  Dy  Dy11  1  0.809933  0.188847  0.188564  1
  Dy  Dy12  1  0.809933  0.188847  0.812657  1
  Dy  Dy13  1  0.188091  0.809933  0.189496  1
  Dy  Dy14  1  0.811314  0.811886  0.188400  1
  Dy  Dy15  1  0.189078  0.189940  0.810491  1
  Cd  Cd16  1  0.510798  0.829269  0.829966  1
  Hg  Hg17  1  0.833192  0.835132  0.835517  1
  Hg  Hg18  1  0.833192  0.835132  0.496159  1
  Hg  Hg19  1  0.833061  0.495664  0.835638  1
  Ir  Ir20  1  0.392796  0.826752  0.390226  1
  Ir  Ir21  1  0.826753  0.393517  0.389866  1
  Ru  Ru22  1  0.390637  0.392071  0.388347  1
  Ru  Ru23  1  0.390637  0.392071  0.828945  1
