# generated using pymatgen
data_Sb8OsRu3
_symmetry_space_group_name_H-M   'P 1'
_cell_length_a   6.75604752
_cell_length_b   6.84450901
_cell_length_c   6.84456661
_cell_angle_alpha   56.34801834
_cell_angle_beta   90.01917429
_cell_angle_gamma   90.02158480
_symmetry_Int_Tables_number   1
_chemical_formula_structural   Sb8OsRu3
_chemical_formula_sum   'Sb8 Os1 Ru3'
_cell_volume   263.46492804
_cell_formula_units_Z   1
loop_
 _symmetry_equiv_pos_site_id
 _symmetry_equiv_pos_as_xyz
  1  'x, y, z'
loop_
 _atom_site_type_symbol
 _atom_site_label
 _atom_site_symmetry_multiplicity
 _atom_site_fract_x
 _atom_site_fract_y
 _atom_site_fract_z
 _atom_site_occupancy
  Sb  Sb0  1  0.142104  0.159170  0.158314  1
  Sb  Sb1  1  0.642916  0.840753  0.342207  1
  Sb  Sb2  1  0.857678  0.841012  0.841932  1
  Sb  Sb3  1  0.357077  0.157759  0.659254  1
  Sb  Sb4  1  0.642347  0.341572  0.840113  1
  Sb  Sb5  1  0.142311  0.658084  0.658994  1
  Sb  Sb6  1  0.357647  0.659871  0.158422  1
  Sb  Sb7  1  0.857894  0.341698  0.340849  1
  Os  Os8  1  0.500002  0.250811  0.249175  1
  Ru  Ru9  1  0.000078  0.750352  0.250379  1
  Ru  Ru10  1  0.500002  0.749274  0.750720  1
  Ru  Ru11  1  0.999940  0.249642  0.749642  1
