# generated using pymatgen
data_Ce4Pr2Y2Al5Ga3Rh8
_symmetry_space_group_name_H-M   'P 1'
_cell_length_a   4.23355300
_cell_length_b   7.07070962
_cell_length_c   16.04942300
_cell_angle_alpha   90.54222135
_cell_angle_beta   90.00000000
_cell_angle_gamma   90.00000000
_symmetry_Int_Tables_number   1
_chemical_formula_structural   Ce4Pr2Y2Al5Ga3Rh8
_chemical_formula_sum   'Ce4 Pr2 Y2 Al5 Ga3 Rh8'
_cell_volume   480.40550884
_cell_formula_units_Z   1
loop_
 _symmetry_equiv_pos_site_id
 _symmetry_equiv_pos_as_xyz
  1  'x, y, z'
loop_
 _atom_site_type_symbol
 _atom_site_label
 _atom_site_symmetry_multiplicity
 _atom_site_fract_x
 _atom_site_fract_y
 _atom_site_fract_z
 _atom_site_occupancy
  Ce  Ce0  1  0.250000  0.031983  0.781807  1
  Ce  Ce1  1  0.750000  0.966564  0.218116  1
  Ce  Ce2  1  0.250000  0.533133  0.722032  1
  Ce  Ce3  1  0.750000  0.468130  0.276720  1
  Pr  Pr4  1  0.250000  0.156409  0.560702  1
  Pr  Pr5  1  0.750000  0.843369  0.438194  1
  Y  Y6  1  0.250000  0.659482  0.942743  1
  Y  Y7  1  0.750000  0.341599  0.059254  1
  Al  Al8  1  0.750000  0.362297  0.855520  1
  Al  Al9  1  0.250000  0.007850  0.060609  1
  Al  Al10  1  0.750000  0.992913  0.939694  1
  Al  Al11  1  0.250000  0.504850  0.436532  1
  Al  Al12  1  0.750000  0.495055  0.562119  1
  Ga  Ga13  1  0.250000  0.140539  0.348180  1
  Ga  Ga14  1  0.750000  0.859890  0.651357  1
  Ga  Ga15  1  0.250000  0.634279  0.145500  1
  Rh  Rh16  1  0.750000  0.291242  0.423328  1
  Rh  Rh17  1  0.250000  0.709509  0.575457  1
  Rh  Rh18  1  0.750000  0.781654  0.071215  1
  Rh  Rh19  1  0.250000  0.224344  0.928506  1
  Rh  Rh20  1  0.750000  0.743848  0.816218  1
  Rh  Rh21  1  0.250000  0.251358  0.184461  1
  Rh  Rh22  1  0.750000  0.252200  0.691422  1
  Rh  Rh23  1  0.250000  0.747503  0.310316  1
