# generated using pymatgen
data_Nd7Ho(AlNi)8
_symmetry_space_group_name_H-M   'P 1'
_cell_length_a   4.14745900
_cell_length_b   6.99736101
_cell_length_c   15.99891229
_cell_angle_alpha   89.86221399
_cell_angle_beta   90.00000000
_cell_angle_gamma   90.00000000
_symmetry_Int_Tables_number   1
_chemical_formula_structural   Nd7Ho(AlNi)8
_chemical_formula_sum   'Nd7 Ho1 Al8 Ni8'
_cell_volume   464.30737704
_cell_formula_units_Z   1
loop_
 _symmetry_equiv_pos_site_id
 _symmetry_equiv_pos_as_xyz
  1  'x, y, z'
loop_
 _atom_site_type_symbol
 _atom_site_label
 _atom_site_symmetry_multiplicity
 _atom_site_fract_x
 _atom_site_fract_y
 _atom_site_fract_z
 _atom_site_occupancy
  Nd  Nd0  1  0.750000  0.857008  0.934854  1
  Nd  Nd1  1  0.250000  0.143240  0.061170  1
  Nd  Nd2  1  0.250000  0.642978  0.438384  1
  Nd  Nd3  1  0.750000  0.358214  0.565112  1
  Nd  Nd4  1  0.750000  0.987025  0.721957  1
  Nd  Nd5  1  0.250000  0.011663  0.278263  1
  Nd  Nd6  1  0.250000  0.511041  0.221154  1
  Ho  Ho7  1  0.750000  0.485936  0.780393  1
  Al  Al8  1  0.750000  0.833064  0.145059  1
  Al  Al9  1  0.250000  0.173532  0.851078  1
  Al  Al10  1  0.250000  0.663604  0.650500  1
  Al  Al11  1  0.750000  0.333381  0.354484  1
  Al  Al12  1  0.750000  0.991388  0.439580  1
  Al  Al13  1  0.250000  0.008545  0.562043  1
  Al  Al14  1  0.250000  0.511282  0.936987  1
  Al  Al15  1  0.750000  0.490647  0.059725  1
  Ni  Ni16  1  0.750000  0.790668  0.570082  1
  Ni  Ni17  1  0.250000  0.208001  0.431262  1
  Ni  Ni18  1  0.250000  0.708803  0.068459  1
  Ni  Ni19  1  0.750000  0.294225  0.928177  1
  Ni  Ni20  1  0.750000  0.723312  0.318645  1
  Ni  Ni21  1  0.250000  0.281884  0.686059  1
  Ni  Ni22  1  0.250000  0.766119  0.815293  1
  Ni  Ni23  1  0.750000  0.224439  0.181280  1
