# generated using pymatgen
data_TbEr2Ga4Pd7
_symmetry_space_group_name_H-M   'P 1'
_cell_length_a   8.06402216
_cell_length_b   8.06402235
_cell_length_c   9.61796214
_cell_angle_alpha   56.29121332
_cell_angle_beta   56.29121261
_cell_angle_gamma   29.46408985
_symmetry_Int_Tables_number   1
_chemical_formula_structural   TbEr2Ga4Pd7
_chemical_formula_sum   'Tb1 Er2 Ga4 Pd7'
_cell_volume   251.94851403
_cell_formula_units_Z   1
loop_
 _symmetry_equiv_pos_site_id
 _symmetry_equiv_pos_as_xyz
  1  'x, y, z'
loop_
 _atom_site_type_symbol
 _atom_site_label
 _atom_site_symmetry_multiplicity
 _atom_site_fract_x
 _atom_site_fract_y
 _atom_site_fract_z
 _atom_site_occupancy
  Tb  Tb0  1  0.500000  0.500000  0.500000  1
  Er  Er1  1  0.827780  0.827780  0.166223  1
  Er  Er2  1  0.172220  0.172220  0.833777  1
  Ga  Ga3  1  0.387692  0.387692  0.333569  1
  Ga  Ga4  1  0.612308  0.612308  0.666431  1
  Ga  Ga5  1  0.837381  0.837381  0.767012  1
  Ga  Ga6  1  0.162619  0.162619  0.232988  1
  Pd  Pd7  1  0.664633  0.664633  0.072464  1
  Pd  Pd8  1  0.007983  0.007983  0.210236  1
  Pd  Pd9  1  0.992017  0.992017  0.789764  1
  Pd  Pd10  1  0.500000  0.500000  0.000000  1
  Pd  Pd11  1  0.191616  0.191616  0.464488  1
  Pd  Pd12  1  0.808384  0.808384  0.535512  1
  Pd  Pd13  1  0.335367  0.335367  0.927536  1
