# generated using pymatgen
data_Dy8ErTmIr4
_symmetry_space_group_name_H-M   'P 1'
_cell_length_a   6.47723233
_cell_length_b   7.19315713
_cell_length_c   8.51482578
_cell_angle_alpha   96.51253715
_cell_angle_beta   112.35538123
_cell_angle_gamma   89.99999977
_symmetry_Int_Tables_number   1
_chemical_formula_structural   Dy8ErTmIr4
_chemical_formula_sum   'Dy8 Er1 Tm1 Ir4'
_cell_volume   364.13453026
_cell_formula_units_Z   1
loop_
 _symmetry_equiv_pos_site_id
 _symmetry_equiv_pos_as_xyz
  1  'x, y, z'
loop_
 _atom_site_type_symbol
 _atom_site_label
 _atom_site_symmetry_multiplicity
 _atom_site_fract_x
 _atom_site_fract_y
 _atom_site_fract_z
 _atom_site_occupancy
  Dy  Dy0  1  0.971192  0.918571  0.181829  1
  Dy  Dy1  1  0.789362  0.581429  0.818171  1
  Dy  Dy2  1  0.028764  0.081641  0.818241  1
  Dy  Dy3  1  0.210525  0.418359  0.181759  1
  Dy  Dy4  1  0.653108  0.816678  0.440167  1
  Dy  Dy5  1  0.212941  0.683322  0.559833  1
  Dy  Dy6  1  0.347083  0.183393  0.560005  1
  Dy  Dy7  1  0.787077  0.316607  0.439995  1
  Er  Er8  1  0.429009  0.750000  0.000000  1
  Tm  Tm9  1  0.570686  0.250000  0.000000  1
  Ir  Ir10  1  0.822185  0.572556  0.217442  1
  Ir  Ir11  1  0.604743  0.927444  0.782558  1
  Ir  Ir12  1  0.177949  0.427069  0.782572  1
  Ir  Ir13  1  0.395376  0.072931  0.217428  1
