# generated using pymatgen
data_TmFe2PC
_symmetry_space_group_name_H-M   'P 1'
_cell_length_a   5.47692120
_cell_length_b   5.47692122
_cell_length_c   6.64628800
_cell_angle_alpha   90.00000000
_cell_angle_beta   90.00000000
_cell_angle_gamma   141.42968082
_symmetry_Int_Tables_number   1
_chemical_formula_structural   TmFe2PC
_chemical_formula_sum   'Tm2 Fe4 P2 C2'
_cell_volume   124.29994970
_cell_formula_units_Z   2
loop_
 _symmetry_equiv_pos_site_id
 _symmetry_equiv_pos_as_xyz
  1  'x, y, z'
loop_
 _atom_site_type_symbol
 _atom_site_label
 _atom_site_symmetry_multiplicity
 _atom_site_fract_x
 _atom_site_fract_y
 _atom_site_fract_z
 _atom_site_occupancy
  Tm  Tm0  1  0.547412  0.452588  0.250000  1
  Tm  Tm1  1  0.452588  0.547412  0.750000  1
  Fe  Fe2  1  0.832852  0.167148  0.056491  1
  Fe  Fe3  1  0.167148  0.832852  0.943509  1
  Fe  Fe4  1  0.167148  0.832852  0.556491  1
  Fe  Fe5  1  0.832852  0.167148  0.443509  1
  P  P6  1  0.269417  0.730583  0.250000  1
  P  P7  1  0.730583  0.269417  0.750000  1
  C  C8  1  0.000000  0.000000  0.000000  1
  C  C9  1  0.000000  0.000000  0.500000  1
