# generated using pymatgen
data_Pr2ErWO7
_symmetry_space_group_name_H-M   'P 1'
_cell_length_a   6.68138855
_cell_length_b   6.51841366
_cell_length_c   7.66706800
_cell_angle_alpha   90.00000000
_cell_angle_beta   90.00000000
_cell_angle_gamma   109.61674202
_symmetry_Int_Tables_number   1
_chemical_formula_structural   Pr2ErWO7
_chemical_formula_sum   'Pr4 Er2 W2 O14'
_cell_volume   314.53584225
_cell_formula_units_Z   2
loop_
 _symmetry_equiv_pos_site_id
 _symmetry_equiv_pos_as_xyz
  1  'x, y, z'
loop_
 _atom_site_type_symbol
 _atom_site_label
 _atom_site_symmetry_multiplicity
 _atom_site_fract_x
 _atom_site_fract_y
 _atom_site_fract_z
 _atom_site_occupancy
  Pr  Pr0  1  0.934595  0.479716  0.750000  1
  Pr  Pr1  1  0.065405  0.520284  0.250000  1
  Pr  Pr2  1  0.000000  0.000000  0.500000  1
  Pr  Pr3  1  0.000000  0.000000  0.000000  1
  Er  Er4  1  0.488151  0.939585  0.750000  1
  Er  Er5  1  0.511849  0.060415  0.250000  1
  W  W6  1  0.500000  0.500000  0.500000  1
  W  W7  1  0.500000  0.500000  0.000000  1
  O  O8  1  0.573321  0.598771  0.750000  1
  O  O9  1  0.426679  0.401229  0.250000  1
  O  O10  1  0.831644  0.093988  0.750000  1
  O  O11  1  0.168356  0.906012  0.250000  1
  O  O12  1  0.141261  0.855230  0.750000  1
  O  O13  1  0.858739  0.144770  0.250000  1
  O  O14  1  0.484891  0.199994  0.958835  1
  O  O15  1  0.515109  0.800006  0.458835  1
  O  O16  1  0.174950  0.407235  0.969066  1
  O  O17  1  0.825050  0.592765  0.469066  1
  O  O18  1  0.484891  0.199994  0.541165  1
  O  O19  1  0.515109  0.800006  0.041165  1
  O  O20  1  0.825050  0.592765  0.030934  1
  O  O21  1  0.174950  0.407235  0.530934  1
