# generated using pymatgen
data_Dy4FeOs7
_symmetry_space_group_name_H-M   'P 1'
_cell_length_a   5.32275800
_cell_length_b   5.27273390
_cell_length_c   8.84320700
_cell_angle_alpha   90.00000000
_cell_angle_beta   90.00000000
_cell_angle_gamma   120.31436248
_symmetry_Int_Tables_number   1
_chemical_formula_structural   Dy4FeOs7
_chemical_formula_sum   'Dy4 Fe1 Os7'
_cell_volume   214.25380277
_cell_formula_units_Z   1
loop_
 _symmetry_equiv_pos_site_id
 _symmetry_equiv_pos_as_xyz
  1  'x, y, z'
loop_
 _atom_site_type_symbol
 _atom_site_label
 _atom_site_symmetry_multiplicity
 _atom_site_fract_x
 _atom_site_fract_y
 _atom_site_fract_z
 _atom_site_occupancy
  Dy  Dy0  1  0.331346  0.662694  0.436567  1
  Dy  Dy1  1  0.667611  0.335223  0.566111  1
  Dy  Dy2  1  0.667611  0.335223  0.933889  1
  Dy  Dy3  1  0.331346  0.662694  0.063433  1
  Fe  Fe4  1  0.167527  0.335055  0.750000  1
  Os  Os5  1  0.177069  0.833917  0.750000  1
  Os  Os6  1  0.345505  0.171613  0.250000  1
  Os  Os7  1  0.831412  0.662825  0.250000  1
  Os  Os8  1  0.656848  0.833917  0.750000  1
  Os  Os9  1  0.998806  0.997614  0.997906  1
  Os  Os10  1  0.826107  0.171613  0.250000  1
  Os  Os11  1  0.998806  0.997614  0.502094  1
