# generated using pymatgen
data_Pr2InBiO7
_symmetry_space_group_name_H-M   'P 1'
_cell_length_a   7.75203063
_cell_length_b   7.75203063
_cell_length_c   7.85827100
_cell_angle_alpha   59.54559805
_cell_angle_beta   59.54559805
_cell_angle_gamma   59.27353985
_symmetry_Int_Tables_number   1
_chemical_formula_structural   Pr2InBiO7
_chemical_formula_sum   'Pr4 In2 Bi2 O14'
_cell_volume   329.77471552
_cell_formula_units_Z   2
loop_
 _symmetry_equiv_pos_site_id
 _symmetry_equiv_pos_as_xyz
  1  'x, y, z'
loop_
 _atom_site_type_symbol
 _atom_site_label
 _atom_site_symmetry_multiplicity
 _atom_site_fract_x
 _atom_site_fract_y
 _atom_site_fract_z
 _atom_site_occupancy
  Pr  Pr0  1  0.625000  0.125000  0.125000  1
  Pr  Pr1  1  0.125000  0.125000  0.125000  1
  Pr  Pr2  1  0.125000  0.625000  0.125000  1
  Pr  Pr3  1  0.125000  0.125000  0.625000  1
  In  In4  1  0.625000  0.125000  0.625000  1
  In  In5  1  0.125000  0.625000  0.625000  1
  Bi  Bi6  1  0.625000  0.625000  0.125000  1
  Bi  Bi7  1  0.625000  0.625000  0.625000  1
  O  O8  1  0.708992  0.289812  0.281354  1
  O  O9  1  0.709663  0.709663  0.290337  1
  O  O10  1  0.289812  0.708992  0.281354  1
  O  O11  1  0.998944  0.998944  0.001056  1
  O  O12  1  0.708992  0.289812  0.719841  1
  O  O13  1  0.960188  0.541008  0.530159  1
  O  O14  1  0.289812  0.708992  0.719841  1
  O  O15  1  0.541008  0.960188  0.530159  1
  O  O16  1  0.251056  0.251056  0.248944  1
  O  O17  1  0.960188  0.541008  0.968646  1
  O  O18  1  0.540337  0.540337  0.959663  1
  O  O19  1  0.969425  0.969425  0.530575  1
  O  O20  1  0.541008  0.960188  0.968646  1
  O  O21  1  0.280575  0.280575  0.719425  1
