# generated using pymatgen
data_SrPr2Y4FeI12
_symmetry_space_group_name_H-M   'P 1'
_cell_length_a   9.90302719
_cell_length_b   9.94311250
_cell_length_c   9.89324464
_cell_angle_alpha   106.64029410
_cell_angle_beta   106.19861351
_cell_angle_gamma   105.96326852
_symmetry_Int_Tables_number   1
_chemical_formula_structural   SrPr2Y4FeI12
_chemical_formula_sum   'Sr1 Pr2 Y4 Fe1 I12'
_cell_volume   826.94214053
_cell_formula_units_Z   1
loop_
 _symmetry_equiv_pos_site_id
 _symmetry_equiv_pos_as_xyz
  1  'x, y, z'
loop_
 _atom_site_type_symbol
 _atom_site_label
 _atom_site_symmetry_multiplicity
 _atom_site_fract_x
 _atom_site_fract_y
 _atom_site_fract_z
 _atom_site_occupancy
  Sr  Sr0  1  0.499290  0.498362  0.500419  1
  Pr  Pr1  1  0.710830  0.981811  0.910234  1
  Pr  Pr2  1  0.979636  0.907808  0.708870  1
  Y  Y3  1  0.096662  0.298659  0.021067  1
  Y  Y4  1  0.278102  0.019295  0.089976  1
  Y  Y5  1  0.906876  0.702281  0.978682  1
  Y  Y6  1  0.019603  0.089757  0.279940  1
  Fe  Fe7  1  0.997147  0.999776  0.995708  1
  I  I8  1  0.077769  0.233018  0.686115  1
  I  I9  1  0.361798  0.135208  0.441759  1
  I  I10  1  0.624514  0.855888  0.544709  1
  I  I11  1  0.223503  0.683661  0.074754  1
  I  I12  1  0.786478  0.331064  0.931190  1
  I  I13  1  0.690487  0.078889  0.236378  1
  I  I14  1  0.556951  0.626698  0.865038  1
  I  I15  1  0.859669  0.546144  0.634276  1
  I  I16  1  0.927538  0.780234  0.314270  1
  I  I17  1  0.324120  0.927693  0.786106  1
  I  I18  1  0.443308  0.361493  0.135696  1
  I  I19  1  0.135719  0.442261  0.364813  1
