# generated using pymatgen
data_Pr20Sn9Pb7
_symmetry_space_group_name_H-M   'P 1'
_cell_length_a   8.48233612
_cell_length_b   8.53088062
_cell_length_c   16.18420900
_cell_angle_alpha   90.03046505
_cell_angle_beta   89.97051566
_cell_angle_gamma   90.05126089
_symmetry_Int_Tables_number   1
_chemical_formula_structural   Pr20Sn9Pb7
_chemical_formula_sum   'Pr20 Sn9 Pb7'
_cell_volume   1171.11765446
_cell_formula_units_Z   1
loop_
 _symmetry_equiv_pos_site_id
 _symmetry_equiv_pos_as_xyz
  1  'x, y, z'
loop_
 _atom_site_type_symbol
 _atom_site_label
 _atom_site_symmetry_multiplicity
 _atom_site_fract_x
 _atom_site_fract_y
 _atom_site_fract_z
 _atom_site_occupancy
  Pr  Pr0  1  0.380713  0.839784  0.880937  1
  Pr  Pr1  1  0.881182  0.661611  0.620787  1
  Pr  Pr2  1  0.617812  0.161715  0.379512  1
  Pr  Pr3  1  0.119686  0.335496  0.120217  1
  Pr  Pr4  1  0.616836  0.161466  0.119837  1
  Pr  Pr5  1  0.118631  0.337857  0.379191  1
  Pr  Pr6  1  0.381127  0.838308  0.620268  1
  Pr  Pr7  1  0.880777  0.661525  0.879413  1
  Pr  Pr8  1  0.531868  0.320760  0.896434  1
  Pr  Pr9  1  0.033502  0.177915  0.604145  1
  Pr  Pr10  1  0.466222  0.678570  0.395280  1
  Pr  Pr11  1  0.969760  0.823385  0.103461  1
  Pr  Pr12  1  0.466328  0.680701  0.103807  1
  Pr  Pr13  1  0.966461  0.822305  0.395472  1
  Pr  Pr14  1  0.533626  0.321934  0.604500  1
  Pr  Pr15  1  0.035366  0.176486  0.897090  1
  Pr  Pr16  1  0.211502  0.502495  0.750179  1
  Pr  Pr17  1  0.711157  0.997238  0.750133  1
  Pr  Pr18  1  0.788999  0.497619  0.249591  1
  Pr  Pr19  1  0.288382  0.002557  0.248425  1
  Sn  Sn20  1  0.280928  0.031101  0.042997  1
  Sn  Sn21  1  0.580249  0.618810  0.750392  1
  Sn  Sn22  1  0.081297  0.881376  0.750245  1
  Sn  Sn23  1  0.419214  0.382111  0.249925  1
  Sn  Sn24  1  0.918000  0.118624  0.250100  1
  Sn  Sn25  1  0.337586  0.143294  0.750091  1
  Sn  Sn26  1  0.838181  0.355792  0.750632  1
  Sn  Sn27  1  0.662877  0.856988  0.249746  1
  Sn  Sn28  1  0.162392  0.643004  0.249706  1
  Pb  Pb29  1  0.779821  0.469101  0.457798  1
  Pb  Pb30  1  0.719950  0.968682  0.541793  1
  Pb  Pb31  1  0.219044  0.532112  0.958274  1
  Pb  Pb32  1  0.720414  0.968260  0.958097  1
  Pb  Pb33  1  0.219890  0.531099  0.541856  1
  Pb  Pb34  1  0.279778  0.031017  0.457621  1
  Pb  Pb35  1  0.780443  0.468898  0.042049  1
