# generated using pymatgen
data_YErHf3Si4
_symmetry_space_group_name_H-M   'P 1'
_cell_length_a   7.26738400
_cell_length_b   7.26738400
_cell_length_c   13.35199800
_cell_angle_alpha   90.00000000
_cell_angle_beta   90.00000000
_cell_angle_gamma   90.00000000
_symmetry_Int_Tables_number   1
_chemical_formula_structural   YErHf3Si4
_chemical_formula_sum   'Y4 Er4 Hf12 Si16'
_cell_volume   705.18404133
_cell_formula_units_Z   4
loop_
 _symmetry_equiv_pos_site_id
 _symmetry_equiv_pos_as_xyz
  1  'x, y, z'
loop_
 _atom_site_type_symbol
 _atom_site_label
 _atom_site_symmetry_multiplicity
 _atom_site_fract_x
 _atom_site_fract_y
 _atom_site_fract_z
 _atom_site_occupancy
  Y  Y0  1  0.845583  0.504928  0.965080  1
  Y  Y1  1  0.154417  0.495072  0.465080  1
  Y  Y2  1  0.004928  0.654417  0.715080  1
  Y  Y3  1  0.995072  0.345583  0.215080  1
  Er  Er4  1  0.496012  0.153380  0.535126  1
  Er  Er5  1  0.503988  0.846620  0.035126  1
  Er  Er6  1  0.653380  0.003988  0.285126  1
  Er  Er7  1  0.346620  0.996012  0.785126  1
  Hf  Hf8  1  0.675169  0.323641  0.749869  1
  Hf  Hf9  1  0.324831  0.676359  0.249869  1
  Hf  Hf10  1  0.823641  0.824831  0.499869  1
  Hf  Hf11  1  0.176359  0.175169  0.999869  1
  Hf  Hf12  1  0.496413  0.352380  0.124838  1
  Hf  Hf13  1  0.503587  0.647620  0.624838  1
  Hf  Hf14  1  0.852380  0.003587  0.874838  1
  Hf  Hf15  1  0.147620  0.996413  0.374838  1
  Hf  Hf16  1  0.647282  0.503862  0.375336  1
  Hf  Hf17  1  0.352718  0.496138  0.875336  1
  Hf  Hf18  1  0.003862  0.852718  0.125336  1
  Hf  Hf19  1  0.996138  0.147282  0.625336  1
  Si  Si20  1  0.794820  0.138690  0.067388  1
  Si  Si21  1  0.205180  0.861310  0.567388  1
  Si  Si22  1  0.638690  0.705180  0.817388  1
  Si  Si23  1  0.361310  0.294820  0.317388  1
  Si  Si24  1  0.858664  0.203265  0.432517  1
  Si  Si25  1  0.141336  0.796735  0.932517  1
  Si  Si26  1  0.703265  0.641336  0.182517  1
  Si  Si27  1  0.296735  0.358664  0.682517  1
  Si  Si28  1  0.549724  0.204092  0.935762  1
  Si  Si29  1  0.450276  0.795908  0.435762  1
  Si  Si30  1  0.704092  0.950276  0.685762  1
  Si  Si31  1  0.295908  0.049724  0.185762  1
  Si  Si32  1  0.793646  0.448717  0.564085  1
  Si  Si33  1  0.206354  0.551283  0.064085  1
  Si  Si34  1  0.948717  0.706354  0.314085  1
  Si  Si35  1  0.051283  0.293646  0.814085  1
