# generated using pymatgen
data_Y18Tm2Cd6RuRh
_symmetry_space_group_name_H-M   'P 1'
_cell_length_a   9.66412000
_cell_length_b   9.66411963
_cell_length_c   9.82068700
_cell_angle_alpha   90.00000000
_cell_angle_beta   90.00000000
_cell_angle_gamma   120.00000126
_symmetry_Int_Tables_number   1
_chemical_formula_structural   Y18Tm2Cd6RuRh
_chemical_formula_sum   'Y18 Tm2 Cd6 Ru1 Rh1'
_cell_volume   794.32294383
_cell_formula_units_Z   1
loop_
 _symmetry_equiv_pos_site_id
 _symmetry_equiv_pos_as_xyz
  1  'x, y, z'
loop_
 _atom_site_type_symbol
 _atom_site_label
 _atom_site_symmetry_multiplicity
 _atom_site_fract_x
 _atom_site_fract_y
 _atom_site_fract_z
 _atom_site_occupancy
  Y  Y0  1  0.208668  0.791332  0.440248  1
  Y  Y1  1  0.208668  0.417336  0.440248  1
  Y  Y2  1  0.582664  0.791332  0.440248  1
  Y  Y3  1  0.790776  0.209224  0.560233  1
  Y  Y4  1  0.790776  0.581550  0.560233  1
  Y  Y5  1  0.418450  0.209224  0.560233  1
  Y  Y6  1  0.790776  0.209224  0.939767  1
  Y  Y7  1  0.790776  0.581550  0.939767  1
  Y  Y8  1  0.418450  0.209224  0.939767  1
  Y  Y9  1  0.208668  0.791332  0.059752  1
  Y  Y10  1  0.208668  0.417336  0.059752  1
  Y  Y11  1  0.582664  0.791332  0.059752  1
  Y  Y12  1  0.542167  0.457833  0.250000  1
  Y  Y13  1  0.542167  0.084336  0.250000  1
  Y  Y14  1  0.915664  0.457833  0.250000  1
  Y  Y15  1  0.458774  0.541226  0.750000  1
  Y  Y16  1  0.458774  0.917550  0.750000  1
  Y  Y17  1  0.082450  0.541226  0.750000  1
  Tm  Tm18  1  0.000000  0.000000  0.499718  1
  Tm  Tm19  1  0.000000  0.000000  0.000282  1
  Cd  Cd20  1  0.885684  0.114316  0.250000  1
  Cd  Cd21  1  0.885684  0.771371  0.250000  1
  Cd  Cd22  1  0.228629  0.114316  0.250000  1
  Cd  Cd23  1  0.114194  0.885806  0.750000  1
  Cd  Cd24  1  0.114194  0.228385  0.750000  1
  Cd  Cd25  1  0.771615  0.885806  0.750000  1
  Ru  Ru26  1  0.666667  0.333333  0.750000  1
  Rh  Rh27  1  0.333333  0.666667  0.250000  1
