# generated using pymatgen
data_DyNi3PtAu
_symmetry_space_group_name_H-M   'P 1'
_cell_length_a   4.99071974
_cell_length_b   4.99071940
_cell_length_c   5.11590768
_cell_angle_alpha   60.80622353
_cell_angle_beta   60.80622841
_cell_angle_gamma   59.99999278
_symmetry_Int_Tables_number   1
_chemical_formula_structural   DyNi3PtAu
_chemical_formula_sum   'Dy1 Ni3 Pt1 Au1'
_cell_volume   91.18433772
_cell_formula_units_Z   1
loop_
 _symmetry_equiv_pos_site_id
 _symmetry_equiv_pos_as_xyz
  1  'x, y, z'
loop_
 _atom_site_type_symbol
 _atom_site_label
 _atom_site_symmetry_multiplicity
 _atom_site_fract_x
 _atom_site_fract_y
 _atom_site_fract_z
 _atom_site_occupancy
  Dy  Dy0  1  0.000489  0.000489  0.998534  1
  Ni  Ni1  1  0.626391  0.129301  0.617918  1
  Ni  Ni2  1  0.129301  0.626391  0.617918  1
  Ni  Ni3  1  0.626391  0.626391  0.617918  1
  Pt  Pt4  1  0.627264  0.627264  0.118209  1
  Au  Au5  1  0.240165  0.240165  0.279505  1
