# generated using pymatgen
data_Dy2Sc3Ti3(P3Ir4)4
_symmetry_space_group_name_H-M   'P 1'
_cell_length_a   12.70883600
_cell_length_b   12.70883615
_cell_length_c   3.92237900
_cell_angle_alpha   90.00000000
_cell_angle_beta   90.00000000
_cell_angle_gamma   119.99999961
_symmetry_Int_Tables_number   1
_chemical_formula_structural   Dy2Sc3Ti3(P3Ir4)4
_chemical_formula_sum   'Dy2 Sc3 Ti3 P12 Ir16'
_cell_volume   548.64540263
_cell_formula_units_Z   1
loop_
 _symmetry_equiv_pos_site_id
 _symmetry_equiv_pos_as_xyz
  1  'x, y, z'
loop_
 _atom_site_type_symbol
 _atom_site_label
 _atom_site_symmetry_multiplicity
 _atom_site_fract_x
 _atom_site_fract_y
 _atom_site_fract_z
 _atom_site_occupancy
  Dy  Dy0  1  0.333333  0.666667  0.500000  1
  Dy  Dy1  1  0.666667  0.333333  0.500000  1
  Sc  Sc2  1  0.000000  0.811650  0.000000  1
  Sc  Sc3  1  0.188350  0.188350  0.000000  1
  Sc  Sc4  1  0.811650  0.000000  0.000000  1
  Ti  Ti5  1  0.000000  0.448425  0.500000  1
  Ti  Ti6  1  0.551575  0.551575  0.500000  1
  Ti  Ti7  1  0.448425  0.000000  0.500000  1
  P  P8  1  0.000000  0.642992  0.500000  1
  P  P9  1  0.357008  0.357008  0.500000  1
  P  P10  1  0.642992  0.000000  0.500000  1
  P  P11  1  0.517974  0.684837  0.000000  1
  P  P12  1  0.315163  0.833138  0.000000  1
  P  P13  1  0.166862  0.482026  0.000000  1
  P  P14  1  0.482026  0.166862  0.000000  1
  P  P15  1  0.684837  0.517974  0.000000  1
  P  P16  1  0.833138  0.315163  0.000000  1
  P  P17  1  0.000000  0.174211  0.500000  1
  P  P18  1  0.825789  0.825789  0.500000  1
  P  P19  1  0.174211  0.000000  0.500000  1
  Ir  Ir20  1  0.509353  0.866951  0.000000  1
  Ir  Ir21  1  0.133049  0.642403  0.000000  1
  Ir  Ir22  1  0.357597  0.490647  0.000000  1
  Ir  Ir23  1  0.490647  0.357597  0.000000  1
  Ir  Ir24  1  0.866951  0.509353  0.000000  1
  Ir  Ir25  1  0.642403  0.133049  0.000000  1
  Ir  Ir26  1  0.000000  0.279963  0.000000  1
  Ir  Ir27  1  0.720037  0.720037  0.000000  1
  Ir  Ir28  1  0.279963  0.000000  0.000000  1
  Ir  Ir29  1  0.630638  0.808950  0.500000  1
  Ir  Ir30  1  0.191050  0.821688  0.500000  1
  Ir  Ir31  1  0.178312  0.369362  0.500000  1
  Ir  Ir32  1  0.369362  0.178312  0.500000  1
  Ir  Ir33  1  0.808950  0.630638  0.500000  1
  Ir  Ir34  1  0.821688  0.191050  0.500000  1
  Ir  Ir35  1  0.000000  0.000000  0.500000  1
