# generated using pymatgen
data_Nb6PbS12
_symmetry_space_group_name_H-M   'P 1'
_cell_length_a   5.81730716
_cell_length_b   5.81730728
_cell_length_c   14.67582700
_cell_angle_alpha   86.20005570
_cell_angle_beta   86.20005563
_cell_angle_gamma   119.99632554
_symmetry_Int_Tables_number   1
_chemical_formula_structural   Nb6PbS12
_chemical_formula_sum   'Nb6 Pb1 S12'
_cell_volume   426.32901052
_cell_formula_units_Z   1
loop_
 _symmetry_equiv_pos_site_id
 _symmetry_equiv_pos_as_xyz
  1  'x, y, z'
loop_
 _atom_site_type_symbol
 _atom_site_label
 _atom_site_symmetry_multiplicity
 _atom_site_fract_x
 _atom_site_fract_y
 _atom_site_fract_z
 _atom_site_occupancy
  Nb  Nb0  1  0.086422  0.086422  0.741101  1
  Nb  Nb1  1  0.419839  0.753037  0.740695  1
  Nb  Nb2  1  0.753037  0.419839  0.740695  1
  Nb  Nb3  1  0.246963  0.580161  0.259305  1
  Nb  Nb4  1  0.580161  0.246963  0.259305  1
  Nb  Nb5  1  0.913578  0.913578  0.258899  1
  Pb  Pb6  1  0.000000  0.000000  0.000000  1
  S  S7  1  0.285738  0.285738  0.150432  1
  S  S8  1  0.613668  0.949955  0.150407  1
  S  S9  1  0.949955  0.613668  0.150407  1
  S  S10  1  0.050045  0.386332  0.849593  1
  S  S11  1  0.386332  0.050045  0.849593  1
  S  S12  1  0.714262  0.714262  0.849568  1
  S  S13  1  0.210591  0.210591  0.365209  1
  S  S14  1  0.545306  0.878081  0.365216  1
  S  S15  1  0.878081  0.545306  0.365216  1
  S  S16  1  0.121919  0.454694  0.634784  1
  S  S17  1  0.454694  0.121919  0.634784  1
  S  S18  1  0.789409  0.789409  0.634791  1
