# generated using pymatgen
data_Tb2Pu3U(Ni3Sb4)2
_symmetry_space_group_name_H-M   'P 1'
_cell_length_a   8.18085273
_cell_length_b   8.18085255
_cell_length_c   8.17280732
_cell_angle_alpha   109.82906230
_cell_angle_beta   109.01805215
_cell_angle_gamma   109.60737703
_symmetry_Int_Tables_number   1
_chemical_formula_structural   Tb2Pu3U(Ni3Sb4)2
_chemical_formula_sum   'Tb2 Pu3 U1 Ni6 Sb8'
_cell_volume   420.83327549
_cell_formula_units_Z   1
loop_
 _symmetry_equiv_pos_site_id
 _symmetry_equiv_pos_as_xyz
  1  'x, y, z'
loop_
 _atom_site_type_symbol
 _atom_site_label
 _atom_site_symmetry_multiplicity
 _atom_site_fract_x
 _atom_site_fract_y
 _atom_site_fract_z
 _atom_site_occupancy
  Tb  Tb0  1  0.874663  0.249127  0.124116  1
  Tb  Tb1  1  0.625011  0.750546  0.375884  1
  Pu  Pu2  1  0.248442  0.126299  0.874991  1
  Pu  Pu3  1  0.751308  0.373451  0.625009  1
  Pu  Pu4  1  0.124689  0.874689  0.250000  1
  U  U5  1  0.374676  0.624676  0.750000  1
  Ni  Ni6  1  0.376619  0.268422  0.632593  1
  Ni  Ni7  1  0.135827  0.744026  0.867407  1
  Ni  Ni8  1  0.255680  0.621651  0.390024  1
  Ni  Ni9  1  0.731627  0.865656  0.109976  1
  Ni  Ni10  1  0.626116  0.376116  0.250000  1
  Ni  Ni11  1  0.874273  0.124273  0.750000  1
  Sb  Sb12  1  0.659982  0.501390  0.002520  1
  Sb  Sb13  1  0.499284  0.000867  0.658844  1
  Sb  Sb14  1  0.998870  0.657461  0.497480  1
  Sb  Sb15  1  0.842023  0.840440  0.841156  1
  Sb  Sb16  1  0.499923  0.003007  0.158599  1
  Sb  Sb17  1  0.159370  0.499888  0.002677  1
  Sb  Sb18  1  0.997211  0.156692  0.497323  1
  Sb  Sb19  1  0.344407  0.341324  0.341401  1
