# generated using pymatgen
data_Pr2NdTh(Zn5Sn)2
_symmetry_space_group_name_H-M   'P 1'
_cell_length_a   8.61936227
_cell_length_b   8.61936199
_cell_length_c   9.10021300
_cell_angle_alpha   90.00000000
_cell_angle_beta   90.00000000
_cell_angle_gamma   149.64343969
_symmetry_Int_Tables_number   1
_chemical_formula_structural   Pr2NdTh(Zn5Sn)2
_chemical_formula_sum   'Pr2 Nd1 Th1 Zn10 Sn2'
_cell_volume   341.68003056
_cell_formula_units_Z   1
loop_
 _symmetry_equiv_pos_site_id
 _symmetry_equiv_pos_as_xyz
  1  'x, y, z'
loop_
 _atom_site_type_symbol
 _atom_site_label
 _atom_site_symmetry_multiplicity
 _atom_site_fract_x
 _atom_site_fract_y
 _atom_site_fract_z
 _atom_site_occupancy
  Pr  Pr0  1  0.000354  0.999646  0.502439  1
  Pr  Pr1  1  0.000354  0.999646  0.997561  1
  Nd  Nd2  1  0.794750  0.205250  0.750000  1
  Th  Th3  1  0.205470  0.794530  0.250000  1
  Zn  Zn4  1  0.813048  0.186952  0.392379  1
  Zn  Zn5  1  0.185820  0.814180  0.608687  1
  Zn  Zn6  1  0.813048  0.186952  0.107621  1
  Zn  Zn7  1  0.185820  0.814180  0.891313  1
  Zn  Zn8  1  0.657883  0.342117  0.482725  1
  Zn  Zn9  1  0.343192  0.656808  0.516452  1
  Zn  Zn10  1  0.657883  0.342117  0.017275  1
  Zn  Zn11  1  0.343192  0.656808  0.983548  1
  Zn  Zn12  1  0.394708  0.605292  0.250000  1
  Zn  Zn13  1  0.605142  0.394858  0.750000  1
  Sn  Sn14  1  0.554851  0.445149  0.250000  1
  Sn  Sn15  1  0.444485  0.555515  0.750000  1
