# generated using pymatgen
data_Ca10Ga5Bi
_symmetry_space_group_name_H-M   'P 1'
_cell_length_a   9.32024659
_cell_length_b   9.32024653
_cell_length_c   9.32024648
_cell_angle_alpha   128.71910612
_cell_angle_beta   128.71910771
_cell_angle_gamma   75.46296484
_symmetry_Int_Tables_number   1
_chemical_formula_structural   Ca10Ga5Bi
_chemical_formula_sum   'Ca10 Ga5 Bi1'
_cell_volume   479.59576043
_cell_formula_units_Z   1
loop_
 _symmetry_equiv_pos_site_id
 _symmetry_equiv_pos_as_xyz
  1  'x, y, z'
loop_
 _atom_site_type_symbol
 _atom_site_label
 _atom_site_symmetry_multiplicity
 _atom_site_fract_x
 _atom_site_fract_y
 _atom_site_fract_z
 _atom_site_occupancy
  Ca  Ca0  1  0.500640  0.500640  0.000000  1
  Ca  Ca1  1  0.999360  0.999360  0.000000  1
  Ca  Ca2  1  0.537313  0.029349  0.847513  1
  Ca  Ca3  1  0.181836  0.689800  0.152487  1
  Ca  Ca4  1  0.029349  0.181836  0.492036  1
  Ca  Ca5  1  0.689800  0.537313  0.507964  1
  Ca  Ca6  1  0.470651  0.962687  0.152487  1
  Ca  Ca7  1  0.810200  0.318164  0.847513  1
  Ca  Ca8  1  0.962687  0.810200  0.492036  1
  Ca  Ca9  1  0.318164  0.470651  0.507964  1
  Ga  Ga10  1  0.750000  0.750000  0.000000  1
  Ga  Ga11  1  0.885900  0.385900  0.271801  1
  Ga  Ga12  1  0.114100  0.614100  0.728199  1
  Ga  Ga13  1  0.385900  0.114100  0.500000  1
  Ga  Ga14  1  0.614100  0.885900  0.500000  1
  Bi  Bi15  1  0.250000  0.250000  0.000000  1
