# generated using pymatgen
data_ErLu7Hf6O24
_symmetry_space_group_name_H-M   'P 1'
_cell_length_a   6.28186603
_cell_length_b   6.34628217
_cell_length_c   12.63749495
_cell_angle_alpha   99.20139864
_cell_angle_beta   99.38563728
_cell_angle_gamma   99.37367354
_symmetry_Int_Tables_number   1
_chemical_formula_structural   ErLu7Hf6O24
_chemical_formula_sum   'Er1 Lu7 Hf6 O24'
_cell_volume   481.34903781
_cell_formula_units_Z   1
loop_
 _symmetry_equiv_pos_site_id
 _symmetry_equiv_pos_as_xyz
  1  'x, y, z'
loop_
 _atom_site_type_symbol
 _atom_site_label
 _atom_site_symmetry_multiplicity
 _atom_site_fract_x
 _atom_site_fract_y
 _atom_site_fract_z
 _atom_site_occupancy
  Er  Er0  1  0.298921  0.610688  0.818424  1
  Lu  Lu1  1  0.390095  0.862939  0.594771  1
  Lu  Lu2  1  0.859054  0.689429  0.947495  1
  Lu  Lu3  1  0.312953  0.609562  0.317858  1
  Lu  Lu4  1  0.140284  0.309589  0.054061  1
  Lu  Lu5  1  0.700404  0.390839  0.182224  1
  Lu  Lu6  1  0.689577  0.388612  0.681343  1
  Lu  Lu7  1  0.610295  0.135796  0.403268  1
  Hf  Hf8  1  0.006466  0.006134  0.252280  1
  Hf  Hf9  1  0.391297  0.858090  0.095230  1
  Hf  Hf10  1  0.991807  0.993354  0.747204  1
  Hf  Hf11  1  0.854937  0.676148  0.446060  1
  Hf  Hf12  1  0.145485  0.323926  0.552358  1
  Hf  Hf13  1  0.608622  0.144140  0.908013  1
  O  O14  1  0.317734  0.964968  0.798110  1
  O  O15  1  0.071170  0.920276  0.093888  1
  O  O16  1  0.321427  0.943584  0.286366  1
  O  O17  1  0.037451  0.890950  0.588931  1
  O  O18  1  0.572079  0.831850  0.965040  1
  O  O19  1  0.588003  0.819133  0.461469  1
  O  O20  1  0.184619  0.593068  0.970993  1
  O  O21  1  0.922210  0.681234  0.778806  1
  O  O22  1  0.428906  0.584011  0.159135  1
  O  O23  1  0.173153  0.574094  0.462939  1
  O  O24  1  0.920776  0.693226  0.289625  1
  O  O25  1  0.577387  0.416379  0.841631  1
  O  O26  1  0.409554  0.566981  0.655957  1
  O  O27  1  0.077906  0.319422  0.222374  1
  O  O28  1  0.814402  0.408130  0.032542  1
  O  O29  1  0.591376  0.431120  0.342100  1
  O  O30  1  0.074132  0.305202  0.707140  1
  O  O31  1  0.826008  0.424944  0.534875  1
  O  O32  1  0.429409  0.170243  0.038039  1
  O  O33  1  0.411437  0.178970  0.536684  1
  O  O34  1  0.927977  0.084173  0.906041  1
  O  O35  1  0.682371  0.041660  0.204097  1
  O  O36  1  0.962755  0.103807  0.411321  1
  O  O37  1  0.677561  0.053329  0.711307  1
