# generated using pymatgen
data_Li2Dy3Er2P12Ir17
_symmetry_space_group_name_H-M   'P 1'
_cell_length_a   12.66179500
_cell_length_b   12.76390541
_cell_length_c   3.95417700
_cell_angle_alpha   90.00000000
_cell_angle_beta   90.00000000
_cell_angle_gamma   119.73571784
_symmetry_Int_Tables_number   1
_chemical_formula_structural   Li2Dy3Er2P12Ir17
_chemical_formula_sum   'Li2 Dy3 Er2 P12 Ir17'
_cell_volume   554.90163592
_cell_formula_units_Z   1
loop_
 _symmetry_equiv_pos_site_id
 _symmetry_equiv_pos_as_xyz
  1  'x, y, z'
loop_
 _atom_site_type_symbol
 _atom_site_label
 _atom_site_symmetry_multiplicity
 _atom_site_fract_x
 _atom_site_fract_y
 _atom_site_fract_z
 _atom_site_occupancy
  Li  Li0  1  0.999594  0.442161  0.500000  1
  Li  Li1  1  0.557433  0.557839  0.500000  1
  Dy  Dy2  1  0.001729  0.809196  0.000000  1
  Dy  Dy3  1  0.192532  0.190804  0.000000  1
  Dy  Dy4  1  0.811235  0.000000  0.000000  1
  Er  Er5  1  0.332512  0.662422  0.500000  1
  Er  Er6  1  0.670091  0.337578  0.500000  1
  P  P7  1  0.999380  0.630486  0.500000  1
  P  P8  1  0.368893  0.369514  0.500000  1
  P  P9  1  0.639673  0.000000  0.500000  1
  P  P10  1  0.513074  0.683216  0.000000  1
  P  P11  1  0.307319  0.822851  0.000000  1
  P  P12  1  0.167199  0.480247  0.000000  1
  P  P13  1  0.484468  0.177149  0.000000  1
  P  P14  1  0.686952  0.519753  0.000000  1
  P  P15  1  0.829858  0.316784  0.000000  1
  P  P16  1  0.997689  0.178022  0.500000  1
  P  P17  1  0.819668  0.821978  0.500000  1
  P  P18  1  0.178462  0.000000  0.500000  1
  Ir  Ir19  1  0.503020  0.864656  0.000000  1
  Ir  Ir20  1  0.129864  0.638744  0.000000  1
  Ir  Ir21  1  0.356225  0.488332  0.000000  1
  Ir  Ir22  1  0.491121  0.361256  0.000000  1
  Ir  Ir23  1  0.867894  0.511668  0.000000  1
  Ir  Ir24  1  0.638365  0.135344  0.000000  1
  Ir  Ir25  1  0.458799  0.000000  0.500000  1
  Ir  Ir26  1  0.996333  0.277599  0.000000  1
  Ir  Ir27  1  0.718735  0.722401  0.000000  1
  Ir  Ir28  1  0.286804  0.000000  0.000000  1
  Ir  Ir29  1  0.621899  0.807034  0.500000  1
  Ir  Ir30  1  0.199682  0.823371  0.500000  1
  Ir  Ir31  1  0.177129  0.370714  0.500000  1
  Ir  Ir32  1  0.376311  0.176629  0.500000  1
  Ir  Ir33  1  0.806415  0.629286  0.500000  1
  Ir  Ir34  1  0.814866  0.192966  0.500000  1
  Ir  Ir35  1  0.998774  0.000000  0.500000  1
