# generated using pymatgen
data_Nb12Al6ZnCuN4
_symmetry_space_group_name_H-M   'P 1'
_cell_length_a   7.05551578
_cell_length_b   7.05529677
_cell_length_c   7.05619433
_cell_angle_alpha   90.05335441
_cell_angle_beta   89.95400498
_cell_angle_gamma   90.13535520
_symmetry_Int_Tables_number   1
_chemical_formula_structural   Nb12Al6ZnCuN4
_chemical_formula_sum   'Nb12 Al6 Zn1 Cu1 N4'
_cell_volume   351.24734314
_cell_formula_units_Z   1
loop_
 _symmetry_equiv_pos_site_id
 _symmetry_equiv_pos_as_xyz
  1  'x, y, z'
loop_
 _atom_site_type_symbol
 _atom_site_label
 _atom_site_symmetry_multiplicity
 _atom_site_fract_x
 _atom_site_fract_y
 _atom_site_fract_z
 _atom_site_occupancy
  Nb  Nb0  1  0.790990  0.956176  0.375915  1
  Nb  Nb1  1  0.708472  0.043014  0.875009  1
  Nb  Nb2  1  0.204073  0.455482  0.127292  1
  Nb  Nb3  1  0.296032  0.543695  0.626413  1
  Nb  Nb4  1  0.955567  0.378018  0.792910  1
  Nb  Nb5  1  0.042537  0.870186  0.706283  1
  Nb  Nb6  1  0.457746  0.129029  0.206644  1
  Nb  Nb7  1  0.545123  0.621512  0.292171  1
  Nb  Nb8  1  0.376710  0.792649  0.955402  1
  Nb  Nb9  1  0.873429  0.706627  0.043329  1
  Nb  Nb10  1  0.122947  0.207157  0.455641  1
  Nb  Nb11  1  0.628056  0.294004  0.543124  1
  Al  Al12  1  0.822706  0.320962  0.175654  1
  Al  Al13  1  0.675904  0.678478  0.677465  1
  Al  Al14  1  0.561823  0.418496  0.924417  1
  Al  Al15  1  0.420962  0.937020  0.577948  1
  Al  Al16  1  0.932896  0.575693  0.426846  1
  Al  Al17  1  0.082223  0.071340  0.065860  1
  Zn  Zn18  1  0.181675  0.822777  0.319864  1
  Cu  Cu19  1  0.317658  0.180297  0.819546  1
  N  N20  1  0.878421  0.123431  0.627707  1
  N  N21  1  0.622469  0.875770  0.126825  1
  N  N22  1  0.127131  0.623621  0.878763  1
  N  N23  1  0.374450  0.374566  0.378976  1
