# generated using pymatgen
data_Lu7Pa(TcB6)4
_symmetry_space_group_name_H-M   'P 1'
_cell_length_a   3.64055400
_cell_length_b   9.06632658
_cell_length_c   11.42706900
_cell_angle_alpha   90.13262781
_cell_angle_beta   90.00000000
_cell_angle_gamma   90.00000000
_symmetry_Int_Tables_number   1
_chemical_formula_structural   Lu7Pa(TcB6)4
_chemical_formula_sum   'Lu7 Pa1 Tc4 B24'
_cell_volume   377.16598829
_cell_formula_units_Z   1
loop_
 _symmetry_equiv_pos_site_id
 _symmetry_equiv_pos_as_xyz
  1  'x, y, z'
loop_
 _atom_site_type_symbol
 _atom_site_label
 _atom_site_symmetry_multiplicity
 _atom_site_fract_x
 _atom_site_fract_y
 _atom_site_fract_z
 _atom_site_occupancy
  Lu  Lu0  1  0.000000  0.679763  0.587242  1
  Lu  Lu1  1  0.000000  0.822855  0.084851  1
  Lu  Lu2  1  0.000000  0.175846  0.913627  1
  Lu  Lu3  1  0.000000  0.942285  0.370887  1
  Lu  Lu4  1  0.000000  0.055185  0.630345  1
  Lu  Lu5  1  0.000000  0.443564  0.127602  1
  Lu  Lu6  1  0.000000  0.557496  0.870252  1
  Pa  Pa7  1  0.000000  0.323268  0.414182  1
  Tc  Tc8  1  0.000000  0.637002  0.321056  1
  Tc  Tc9  1  0.000000  0.361779  0.677485  1
  Tc  Tc10  1  0.000000  0.140734  0.181302  1
  Tc  Tc11  1  0.000000  0.861268  0.820804  1
  B  B12  1  0.500000  0.553643  0.432737  1
  B  B13  1  0.500000  0.446387  0.567366  1
  B  B14  1  0.500000  0.053571  0.066522  1
  B  B15  1  0.500000  0.946905  0.934178  1
  B  B16  1  0.500000  0.750189  0.419213  1
  B  B17  1  0.500000  0.249409  0.581611  1
  B  B18  1  0.500000  0.249721  0.079344  1
  B  B19  1  0.500000  0.750045  0.919770  1
  B  B20  1  0.500000  0.792799  0.264926  1
  B  B21  1  0.500000  0.207150  0.736072  1
  B  B22  1  0.500000  0.292340  0.233994  1
  B  B23  1  0.500000  0.707219  0.765208  1
  B  B24  1  0.500000  0.631378  0.183546  1
  B  B25  1  0.500000  0.369831  0.815380  1
  B  B26  1  0.500000  0.130795  0.315164  1
  B  B27  1  0.500000  0.868944  0.685190  1
  B  B28  1  0.500000  0.981210  0.211797  1
  B  B29  1  0.500000  0.018624  0.788422  1
  B  B30  1  0.500000  0.482691  0.286725  1
  B  B31  1  0.500000  0.518966  0.713169  1
  B  B32  1  0.500000  0.601367  0.027537  1
  B  B33  1  0.500000  0.398833  0.971212  1
  B  B34  1  0.500000  0.101044  0.472240  1
  B  B35  1  0.500000  0.895894  0.529041  1
