# generated using pymatgen
data_Sc10GaPb5S2
_symmetry_space_group_name_H-M   'P 1'
_cell_length_a   8.56159900
_cell_length_b   8.56159923
_cell_length_c   6.36043600
_cell_angle_alpha   90.00000000
_cell_angle_beta   90.00000000
_cell_angle_gamma   119.91597912
_symmetry_Int_Tables_number   1
_chemical_formula_structural   Sc10GaPb5S2
_chemical_formula_sum   'Sc10 Ga1 Pb5 S2'
_cell_volume   404.10513551
_cell_formula_units_Z   1
loop_
 _symmetry_equiv_pos_site_id
 _symmetry_equiv_pos_as_xyz
  1  'x, y, z'
loop_
 _atom_site_type_symbol
 _atom_site_label
 _atom_site_symmetry_multiplicity
 _atom_site_fract_x
 _atom_site_fract_y
 _atom_site_fract_z
 _atom_site_occupancy
  Sc  Sc0  1  0.752767  0.752767  0.750000  1
  Sc  Sc1  1  0.246758  0.014435  0.750000  1
  Sc  Sc2  1  0.014435  0.246758  0.750000  1
  Sc  Sc3  1  0.239555  0.239555  0.250000  1
  Sc  Sc4  1  0.759419  0.000849  0.250000  1
  Sc  Sc5  1  0.000849  0.759419  0.250000  1
  Sc  Sc6  1  0.657788  0.335398  0.995095  1
  Sc  Sc7  1  0.335398  0.657788  0.995095  1
  Sc  Sc8  1  0.335398  0.657788  0.504905  1
  Sc  Sc9  1  0.657788  0.335398  0.504905  1
  Ga  Ga10  1  0.400770  0.400770  0.750000  1
  Pb  Pb11  1  0.603454  0.002060  0.750000  1
  Pb  Pb12  1  0.002060  0.603454  0.750000  1
  Pb  Pb13  1  0.600140  0.600140  0.250000  1
  Pb  Pb14  1  0.398846  0.997222  0.250000  1
  Pb  Pb15  1  0.997222  0.398846  0.250000  1
  S  S16  1  0.998678  0.998678  0.999784  1
  S  S17  1  0.998678  0.998678  0.500216  1
