# generated using pymatgen
data_CaCeDyAs3
_symmetry_space_group_name_H-M   'P 1'
_cell_length_a   7.26428540
_cell_length_b   7.26428505
_cell_length_c   7.26428526
_cell_angle_alpha   146.22461344
_cell_angle_beta   131.98175058
_cell_angle_gamma   59.99223718
_symmetry_Int_Tables_number   1
_chemical_formula_structural   CaCeDyAs3
_chemical_formula_sum   'Ca1 Ce1 Dy1 As3'
_cell_volume   156.96254953
_cell_formula_units_Z   1
loop_
 _symmetry_equiv_pos_site_id
 _symmetry_equiv_pos_as_xyz
  1  'x, y, z'
loop_
 _atom_site_type_symbol
 _atom_site_label
 _atom_site_symmetry_multiplicity
 _atom_site_fract_x
 _atom_site_fract_y
 _atom_site_fract_z
 _atom_site_occupancy
  Ca  Ca0  1  0.667461  0.667461  0.000000  1
  Ce  Ce1  1  0.001634  0.001634  0.000000  1
  Dy  Dy2  1  0.332521  0.332521  0.000000  1
  As  As3  1  0.491640  0.991640  0.500000  1
  As  As4  1  0.164899  0.664899  0.500000  1
  As  As5  1  0.841845  0.341845  0.500000  1
