# generated using pymatgen
data_La2Nd5Ni16
_symmetry_space_group_name_H-M   'P 1'
_cell_length_a   7.27439540
_cell_length_b   7.27439386
_cell_length_c   8.85664400
_cell_angle_alpha   114.11527718
_cell_angle_beta   114.11527577
_cell_angle_gamma   90.29307919
_symmetry_Int_Tables_number   1
_chemical_formula_structural   La2Nd5Ni16
_chemical_formula_sum   'La2 Nd5 Ni16'
_cell_volume   382.01288523
_cell_formula_units_Z   1
loop_
 _symmetry_equiv_pos_site_id
 _symmetry_equiv_pos_as_xyz
  1  'x, y, z'
loop_
 _atom_site_type_symbol
 _atom_site_label
 _atom_site_symmetry_multiplicity
 _atom_site_fract_x
 _atom_site_fract_y
 _atom_site_fract_z
 _atom_site_occupancy
  La  La0  1  0.595362  0.200774  0.796136  1
  La  La1  1  0.200774  0.595362  0.796136  1
  Nd  Nd2  1  0.999120  0.999120  0.998240  1
  Nd  Nd3  1  0.404046  0.404046  0.210512  1
  Nd  Nd4  1  0.806466  0.806466  0.210512  1
  Nd  Nd5  1  0.749854  0.249854  0.499707  1
  Nd  Nd6  1  0.249854  0.749854  0.499707  1
  Ni  Ni7  1  0.698786  0.181417  0.132434  1
  Ni  Ni8  1  0.951017  0.433649  0.132434  1
  Ni  Ni9  1  0.181417  0.698786  0.132434  1
  Ni  Ni10  1  0.433649  0.951017  0.132434  1
  Ni  Ni11  1  0.303205  0.066622  0.369828  1
  Ni  Ni12  1  0.066622  0.303205  0.369828  1
  Ni  Ni13  1  0.836371  0.559258  0.395628  1
  Ni  Ni14  1  0.559258  0.836371  0.395628  1
  Ni  Ni15  1  0.161579  0.161579  0.601229  1
  Ni  Ni16  1  0.439648  0.439648  0.601229  1
  Ni  Ni17  1  0.693822  0.693822  0.626566  1
  Ni  Ni18  1  0.932743  0.932743  0.626566  1
  Ni  Ni19  1  0.301450  0.051712  0.868202  1
  Ni  Ni20  1  0.051712  0.301450  0.868202  1
  Ni  Ni21  1  0.816490  0.566753  0.868202  1
  Ni  Ni22  1  0.566753  0.816490  0.868202  1
