# generated using pymatgen
data_Lu4Ga4IrPd3
_symmetry_space_group_name_H-M   'P 1'
_cell_length_a   4.42851300
_cell_length_b   6.74737193
_cell_length_c   7.59989142
_cell_angle_alpha   90.46411993
_cell_angle_beta   90.00000000
_cell_angle_gamma   90.00000000
_symmetry_Int_Tables_number   1
_chemical_formula_structural   Lu4Ga4IrPd3
_chemical_formula_sum   'Lu4 Ga4 Ir1 Pd3'
_cell_volume   227.08356987
_cell_formula_units_Z   1
loop_
 _symmetry_equiv_pos_site_id
 _symmetry_equiv_pos_as_xyz
  1  'x, y, z'
loop_
 _atom_site_type_symbol
 _atom_site_label
 _atom_site_symmetry_multiplicity
 _atom_site_fract_x
 _atom_site_fract_y
 _atom_site_fract_z
 _atom_site_occupancy
  Lu  Lu0  1  0.250000  0.486647  0.202486  1
  Lu  Lu1  1  0.750000  0.514718  0.793753  1
  Lu  Lu2  1  0.750000  0.004683  0.701010  1
  Lu  Lu3  1  0.250000  0.983242  0.303181  1
  Ga  Ga4  1  0.250000  0.812873  0.921829  1
  Ga  Ga5  1  0.750000  0.184293  0.076412  1
  Ga  Ga6  1  0.750000  0.683749  0.422527  1
  Ga  Ga7  1  0.250000  0.322775  0.578270  1
  Ir  Ir8  1  0.250000  0.726528  0.593800  1
  Pd  Pd9  1  0.750000  0.280851  0.405582  1
  Pd  Pd10  1  0.750000  0.780905  0.095255  1
  Pd  Pd11  1  0.250000  0.218737  0.905895  1
