# generated using pymatgen
data_Mn6Ga6Pt11Rh
_symmetry_space_group_name_H-M   'P 1'
_cell_length_a   4.04630600
_cell_length_b   7.26336100
_cell_length_c   12.12274800
_cell_angle_alpha   90.00000000
_cell_angle_beta   90.00022197
_cell_angle_gamma   90.00000000
_symmetry_Int_Tables_number   1
_chemical_formula_structural   Mn6Ga6Pt11Rh
_chemical_formula_sum   'Mn6 Ga6 Pt11 Rh1'
_cell_volume   356.28491119
_cell_formula_units_Z   1
loop_
 _symmetry_equiv_pos_site_id
 _symmetry_equiv_pos_as_xyz
  1  'x, y, z'
loop_
 _atom_site_type_symbol
 _atom_site_label
 _atom_site_symmetry_multiplicity
 _atom_site_fract_x
 _atom_site_fract_y
 _atom_site_fract_z
 _atom_site_occupancy
  Mn  Mn0  1  0.000000  0.003675  0.000000  1
  Mn  Mn1  1  0.500029  0.497886  0.165339  1
  Mn  Mn2  1  0.000014  0.000120  0.332720  1
  Mn  Mn3  1  0.500000  0.500332  0.500000  1
  Mn  Mn4  1  0.999986  0.000120  0.667280  1
  Mn  Mn5  1  0.499971  0.497886  0.834660  1
  Ga  Ga6  1  0.000000  0.493964  0.000000  1
  Ga  Ga7  1  0.500038  0.003230  0.164814  1
  Ga  Ga8  1  0.000014  0.500093  0.332752  1
  Ga  Ga9  1  0.500000  0.999471  0.500000  1
  Ga  Ga10  1  0.999986  0.500093  0.667248  1
  Ga  Ga11  1  0.499962  0.003230  0.835186  1
  Pt  Pt12  1  0.500000  0.750666  0.000000  1
  Pt  Pt13  1  0.000022  0.250644  0.167067  1
  Pt  Pt14  1  0.000023  0.749215  0.166393  1
  Pt  Pt15  1  0.500020  0.249955  0.334018  1
  Pt  Pt16  1  0.500021  0.750416  0.332905  1
  Pt  Pt17  1  0.000000  0.249842  0.500000  1
  Pt  Pt18  1  0.000000  0.749982  0.500000  1
  Pt  Pt19  1  0.499981  0.249955  0.665981  1
  Pt  Pt20  1  0.499980  0.750416  0.667094  1
  Pt  Pt21  1  0.999978  0.250644  0.832932  1
  Pt  Pt22  1  0.999977  0.749215  0.833606  1
  Rh  Rh23  1  0.500000  0.248943  0.000000  1
