# generated using pymatgen
data_TbDy5Rh18
_symmetry_space_group_name_H-M   'P 1'
_cell_length_a   5.26902900
_cell_length_b   5.26902841
_cell_length_c   17.58877000
_cell_angle_alpha   90.00000000
_cell_angle_beta   90.00000000
_cell_angle_gamma   120.00000997
_symmetry_Int_Tables_number   1
_chemical_formula_structural   TbDy5Rh18
_chemical_formula_sum   'Tb1 Dy5 Rh18'
_cell_volume   422.88977767
_cell_formula_units_Z   1
loop_
 _symmetry_equiv_pos_site_id
 _symmetry_equiv_pos_as_xyz
  1  'x, y, z'
loop_
 _atom_site_type_symbol
 _atom_site_label
 _atom_site_symmetry_multiplicity
 _atom_site_fract_x
 _atom_site_fract_y
 _atom_site_fract_z
 _atom_site_occupancy
  Tb  Tb0  1  0.666667  0.333333  0.250000  1
  Dy  Dy1  1  0.333333  0.666667  0.542236  1
  Dy  Dy2  1  0.666667  0.333333  0.041748  1
  Dy  Dy3  1  0.666667  0.333333  0.458252  1
  Dy  Dy4  1  0.333333  0.666667  0.957764  1
  Dy  Dy5  1  0.333333  0.666667  0.750000  1
  Rh  Rh6  1  0.167337  0.334672  0.125979  1
  Rh  Rh7  1  0.832659  0.665320  0.625897  1
  Rh  Rh8  1  0.665328  0.832663  0.125979  1
  Rh  Rh9  1  0.167337  0.832663  0.125979  1
  Rh  Rh10  1  0.832659  0.167341  0.625897  1
  Rh  Rh11  1  0.334680  0.167341  0.625897  1
  Rh  Rh12  1  0.832659  0.665320  0.874103  1
  Rh  Rh13  1  0.832659  0.167341  0.874103  1
  Rh  Rh14  1  0.334680  0.167341  0.874103  1
  Rh  Rh15  1  0.665328  0.832663  0.374021  1
  Rh  Rh16  1  0.167337  0.832663  0.374021  1
  Rh  Rh17  1  0.167337  0.334672  0.374021  1
  Rh  Rh18  1  0.000000  0.000000  0.250000  1
  Rh  Rh19  1  0.000000  0.000000  0.750000  1
  Rh  Rh20  1  0.333333  0.666667  0.250000  1
  Rh  Rh21  1  0.666667  0.333333  0.750000  1
  Rh  Rh22  1  0.000000  0.000000  0.999926  1
  Rh  Rh23  1  0.000000  0.000000  0.500074  1
