# generated using pymatgen
data_Ba2SrLiBi6
_symmetry_space_group_name_H-M   'P 1'
_cell_length_a   6.98548401
_cell_length_b   6.99413370
_cell_length_c   14.88738700
_cell_angle_alpha   90.00000000
_cell_angle_beta   90.00000000
_cell_angle_gamma   84.14678258
_symmetry_Int_Tables_number   1
_chemical_formula_structural   Ba2SrLiBi6
_chemical_formula_sum   'Ba4 Sr2 Li2 Bi12'
_cell_volume   723.56700913
_cell_formula_units_Z   2
loop_
 _symmetry_equiv_pos_site_id
 _symmetry_equiv_pos_as_xyz
  1  'x, y, z'
loop_
 _atom_site_type_symbol
 _atom_site_label
 _atom_site_symmetry_multiplicity
 _atom_site_fract_x
 _atom_site_fract_y
 _atom_site_fract_z
 _atom_site_occupancy
  Ba  Ba0  1  0.520532  0.518405  0.223607  1
  Ba  Ba1  1  0.479468  0.481595  0.776393  1
  Ba  Ba2  1  0.979468  0.981595  0.223607  1
  Ba  Ba3  1  0.020532  0.018405  0.776393  1
  Sr  Sr4  1  0.750000  0.250000  0.500083  1
  Sr  Sr5  1  0.250000  0.750000  0.499917  1
  Li  Li6  1  0.750000  0.750000  0.002906  1
  Li  Li7  1  0.250000  0.250000  0.997094  1
  Bi  Bi8  1  0.750000  0.750000  0.439603  1
  Bi  Bi9  1  0.250000  0.250000  0.560397  1
  Bi  Bi10  1  0.750000  0.250000  0.003030  1
  Bi  Bi11  1  0.250000  0.750000  0.996970  1
  Bi  Bi12  1  0.014929  0.489730  0.133424  1
  Bi  Bi13  1  0.985071  0.510270  0.866576  1
  Bi  Bi14  1  0.068517  0.431833  0.345679  1
  Bi  Bi15  1  0.431483  0.068167  0.345679  1
  Bi  Bi16  1  0.931483  0.568167  0.654321  1
  Bi  Bi17  1  0.568517  0.931833  0.654321  1
  Bi  Bi18  1  0.485071  0.010270  0.133424  1
  Bi  Bi19  1  0.514929  0.989730  0.866576  1
