# generated using pymatgen
data_Ho3(BeSi2)2
_symmetry_space_group_name_H-M   'P 1'
_cell_length_a   5.58803988
_cell_length_b   5.58803921
_cell_length_c   7.82168338
_cell_angle_alpha   81.34733478
_cell_angle_beta   81.34733356
_cell_angle_gamma   40.64269726
_symmetry_Int_Tables_number   1
_chemical_formula_structural   Ho3(BeSi2)2
_chemical_formula_sum   'Ho3 Be2 Si4'
_cell_volume   157.02355411
_cell_formula_units_Z   1
loop_
 _symmetry_equiv_pos_site_id
 _symmetry_equiv_pos_as_xyz
  1  'x, y, z'
loop_
 _atom_site_type_symbol
 _atom_site_label
 _atom_site_symmetry_multiplicity
 _atom_site_fract_x
 _atom_site_fract_y
 _atom_site_fract_z
 _atom_site_occupancy
  Ho  Ho0  1  0.335487  0.335487  0.667058  1
  Ho  Ho1  1  0.664513  0.664513  0.332942  1
  Ho  Ho2  1  0.000000  0.000000  0.000000  1
  Be  Be3  1  0.388094  0.388094  0.283522  1
  Be  Be4  1  0.611906  0.611906  0.716478  1
  Si  Si5  1  0.061755  0.061755  0.615417  1
  Si  Si6  1  0.938245  0.938245  0.384583  1
  Si  Si7  1  0.714340  0.714340  0.936891  1
  Si  Si8  1  0.285660  0.285660  0.063109  1
