# generated using pymatgen
data_K5Rb5Ca2(TaAs4)2
_symmetry_space_group_name_H-M   'P 1'
_cell_length_a   10.68014698
_cell_length_b   10.67536486
_cell_length_c   7.76260118
_cell_angle_alpha   87.67994851
_cell_angle_beta   88.04680238
_cell_angle_gamma   120.82068662
_symmetry_Int_Tables_number   1
_chemical_formula_structural   K5Rb5Ca2(TaAs4)2
_chemical_formula_sum   'K5 Rb5 Ca2 Ta2 As8'
_cell_volume   757.88308418
_cell_formula_units_Z   1
loop_
 _symmetry_equiv_pos_site_id
 _symmetry_equiv_pos_as_xyz
  1  'x, y, z'
loop_
 _atom_site_type_symbol
 _atom_site_label
 _atom_site_symmetry_multiplicity
 _atom_site_fract_x
 _atom_site_fract_y
 _atom_site_fract_z
 _atom_site_occupancy
  K  K0  1  0.466951  0.526130  0.496523  1
  K  K1  1  0.056751  0.530681  0.497558  1
  K  K2  1  0.525808  0.465766  0.996918  1
  K  K3  1  0.531469  0.056499  0.999157  1
  K  K4  1  0.854556  0.145057  0.686531  1
  Rb  Rb5  1  0.293543  0.154052  0.738423  1
  Rb  Rb6  1  0.857282  0.722194  0.661222  1
  Rb  Rb7  1  0.141126  0.863063  0.185830  1
  Rb  Rb8  1  0.721205  0.856476  0.161250  1
  Rb  Rb9  1  0.154288  0.294014  0.240046  1
  Ca  Ca10  1  0.460587  0.931838  0.490059  1
  Ca  Ca11  1  0.930874  0.456786  0.991312  1
  Ta  Ta12  1  0.672562  0.327048  0.391094  1
  Ta  Ta13  1  0.327691  0.670399  0.886310  1
  As  As14  1  0.695613  0.346397  0.711471  1
  As  As15  1  0.345379  0.693429  0.206513  1
  As  As16  1  0.794478  0.196432  0.278666  1
  As  As17  1  0.408306  0.182730  0.325308  1
  As  As18  1  0.800834  0.578799  0.245190  1
  As  As19  1  0.199850  0.794430  0.771690  1
  As  As20  1  0.581936  0.803341  0.744810  1
  As  As21  1  0.178908  0.404436  0.822697  1
