# generated using pymatgen
data_Sm2Pa2Al24Pt8Rh
_symmetry_space_group_name_H-M   'P 1'
_cell_length_a   7.57109571
_cell_length_b   7.57886524
_cell_length_c   13.15400095
_cell_angle_alpha   84.49525200
_cell_angle_beta   78.91155557
_cell_angle_gamma   59.90177875
_symmetry_Int_Tables_number   1
_chemical_formula_structural   Sm2Pa2Al24Pt8Rh
_chemical_formula_sum   'Sm2 Pa2 Al24 Pt8 Rh1'
_cell_volume   640.82047176
_cell_formula_units_Z   1
loop_
 _symmetry_equiv_pos_site_id
 _symmetry_equiv_pos_as_xyz
  1  'x, y, z'
loop_
 _atom_site_type_symbol
 _atom_site_label
 _atom_site_symmetry_multiplicity
 _atom_site_fract_x
 _atom_site_fract_y
 _atom_site_fract_z
 _atom_site_occupancy
  Sm  Sm0  1  0.731995  0.498527  0.809495  1
  Sm  Sm1  1  0.268005  0.501473  0.190505  1
  Pa  Pa2  1  0.395786  0.168017  0.804894  1
  Pa  Pa3  1  0.604214  0.831983  0.195106  1
  Al  Al4  1  0.687144  0.831151  0.946678  1
  Al  Al5  1  0.312856  0.168849  0.053322  1
  Al  Al6  1  0.145939  0.832586  0.560993  1
  Al  Al7  1  0.854061  0.167414  0.439007  1
  Al  Al8  1  0.481025  0.167452  0.558058  1
  Al  Al9  1  0.518975  0.832548  0.441942  1
  Al  Al10  1  0.213640  0.167559  0.331406  1
  Al  Al11  1  0.786360  0.832441  0.668594  1
  Al  Al12  1  0.436316  0.509986  0.669823  1
  Al  Al13  1  0.563684  0.490014  0.330177  1
  Al  Al14  1  0.108740  0.159005  0.667316  1
  Al  Al15  1  0.891260  0.840995  0.332684  1
  Al  Al16  1  0.348002  0.499483  0.945370  1
  Al  Al17  1  0.651998  0.500517  0.054630  1
  Al  Al18  1  0.015897  0.170448  0.955221  1
  Al  Al19  1  0.984103  0.829552  0.044779  1
  Al  Al20  1  0.185768  0.500257  0.441638  1
  Al  Al21  1  0.814232  0.499743  0.558362  1
  Al  Al22  1  0.739124  0.160070  0.182372  1
  Al  Al23  1  0.260876  0.839930  0.817628  1
  Al  Al24  1  0.062859  0.628470  0.818353  1
  Al  Al25  1  0.937141  0.371530  0.181647  1
  Al  Al26  1  0.856153  0.037833  0.817178  1
  Al  Al27  1  0.143847  0.962167  0.182822  1
  Pt  Pt28  1  0.121767  0.491262  0.639577  1
  Pt  Pt29  1  0.878233  0.508738  0.360423  1
  Pt  Pt30  1  0.656595  0.171556  0.000024  1
  Pt  Pt31  1  0.343405  0.828444  0.999976  1
  Pt  Pt32  1  0.538225  0.165001  0.360946  1
  Pt  Pt33  1  0.461775  0.834999  0.639054  1
  Pt  Pt34  1  0.778220  0.174312  0.638179  1
  Pt  Pt35  1  0.221780  0.825688  0.361821  1
  Rh  Rh36  1  0.000000  0.500000  0.000000  1
