# generated using pymatgen
data_Np4Ga4Ir3Os
_symmetry_space_group_name_H-M   'P 1'
_cell_length_a   4.30301900
_cell_length_b   6.62627511
_cell_length_c   7.93408891
_cell_angle_alpha   90.16879663
_cell_angle_beta   90.00000000
_cell_angle_gamma   90.00000000
_symmetry_Int_Tables_number   1
_chemical_formula_structural   Np4Ga4Ir3Os
_chemical_formula_sum   'Np4 Ga4 Ir3 Os1'
_cell_volume   226.22359779
_cell_formula_units_Z   1
loop_
 _symmetry_equiv_pos_site_id
 _symmetry_equiv_pos_as_xyz
  1  'x, y, z'
loop_
 _atom_site_type_symbol
 _atom_site_label
 _atom_site_symmetry_multiplicity
 _atom_site_fract_x
 _atom_site_fract_y
 _atom_site_fract_z
 _atom_site_occupancy
  Np  Np0  1  0.250000  0.529814  0.191215  1
  Np  Np1  1  0.750000  0.475947  0.807099  1
  Np  Np2  1  0.750000  0.969835  0.698208  1
  Np  Np3  1  0.250000  0.027999  0.305625  1
  Ga  Ga4  1  0.250000  0.653081  0.568268  1
  Ga  Ga5  1  0.750000  0.346258  0.431089  1
  Ga  Ga6  1  0.750000  0.843783  0.069961  1
  Ga  Ga7  1  0.250000  0.155434  0.930925  1
  Ir  Ir8  1  0.750000  0.244564  0.109756  1
  Ir  Ir9  1  0.750000  0.745855  0.391705  1
  Ir  Ir10  1  0.250000  0.253399  0.608067  1
  Os  Os11  1  0.250000  0.754033  0.888081  1
