# generated using pymatgen
data_Eu4Hf3AsO14
_symmetry_space_group_name_H-M   'P 1'
_cell_length_a   7.48095002
_cell_length_b   7.48095031
_cell_length_c   7.45742792
_cell_angle_alpha   59.89560149
_cell_angle_beta   59.89560295
_cell_angle_gamma   59.99999369
_symmetry_Int_Tables_number   1
_chemical_formula_structural   Eu4Hf3AsO14
_chemical_formula_sum   'Eu4 Hf3 As1 O14'
_cell_volume   294.64593868
_cell_formula_units_Z   1
loop_
 _symmetry_equiv_pos_site_id
 _symmetry_equiv_pos_as_xyz
  1  'x, y, z'
loop_
 _atom_site_type_symbol
 _atom_site_label
 _atom_site_symmetry_multiplicity
 _atom_site_fract_x
 _atom_site_fract_y
 _atom_site_fract_z
 _atom_site_occupancy
  Eu  Eu0  1  0.625000  0.125000  0.125000  1
  Eu  Eu1  1  0.125000  0.625000  0.125000  1
  Eu  Eu2  1  0.125000  0.125000  0.625000  1
  Eu  Eu3  1  0.125000  0.125000  0.125000  1
  Hf  Hf4  1  0.125000  0.625000  0.625000  1
  Hf  Hf5  1  0.625000  0.125000  0.625000  1
  Hf  Hf6  1  0.625000  0.625000  0.625000  1
  As  As7  1  0.625000  0.625000  0.125000  1
  O  O8  1  0.251788  0.251788  0.244635  1
  O  O9  1  0.998212  0.998212  0.005365  1
  O  O10  1  0.691436  0.691436  0.292109  1
  O  O11  1  0.289790  0.289790  0.721046  1
  O  O12  1  0.699375  0.289790  0.721046  1
  O  O13  1  0.325018  0.691436  0.292109  1
  O  O14  1  0.289790  0.699375  0.721046  1
  O  O15  1  0.691436  0.325018  0.292109  1
  O  O16  1  0.558564  0.558564  0.957891  1
  O  O17  1  0.960210  0.960210  0.528954  1
  O  O18  1  0.550625  0.960210  0.528954  1
  O  O19  1  0.924982  0.558564  0.957891  1
  O  O20  1  0.960210  0.550625  0.528954  1
  O  O21  1  0.558564  0.924982  0.957891  1
