# generated using pymatgen
data_Na6FeCuS4(O4F)4
_symmetry_space_group_name_H-M   'P 1'
_cell_length_a   6.73968800
_cell_length_b   8.94933400
_cell_length_c   14.24180400
_cell_angle_alpha   90.00000000
_cell_angle_beta   90.00000000
_cell_angle_gamma   90.00000000
_symmetry_Int_Tables_number   1
_chemical_formula_structural   Na6FeCuS4(O4F)4
_chemical_formula_sum   'Na12 Fe2 Cu2 S8 O32 F8'
_cell_volume   859.00464766
_cell_formula_units_Z   2
loop_
 _symmetry_equiv_pos_site_id
 _symmetry_equiv_pos_as_xyz
  1  'x, y, z'
loop_
 _atom_site_type_symbol
 _atom_site_label
 _atom_site_symmetry_multiplicity
 _atom_site_fract_x
 _atom_site_fract_y
 _atom_site_fract_z
 _atom_site_occupancy
  Na  Na0  1  0.520105  0.671097  0.902555  1
  Na  Na1  1  0.020105  0.828903  0.597445  1
  Na  Na2  1  0.479895  0.171097  0.597445  1
  Na  Na3  1  0.979895  0.328903  0.902555  1
  Na  Na4  1  0.479423  0.334332  0.095520  1
  Na  Na5  1  0.979423  0.165668  0.404480  1
  Na  Na6  1  0.520577  0.834332  0.404480  1
  Na  Na7  1  0.020577  0.665668  0.095520  1
  Na  Na8  1  0.750000  0.000000  0.044078  1
  Na  Na9  1  0.250000  0.500000  0.455922  1
  Na  Na10  1  0.250000  0.000000  0.950184  1
  Na  Na11  1  0.750000  0.500000  0.549816  1
  Fe  Fe12  1  0.250000  0.000000  0.194042  1
  Fe  Fe13  1  0.750000  0.500000  0.305958  1
  Cu  Cu14  1  0.750000  0.000000  0.804175  1
  Cu  Cu15  1  0.250000  0.500000  0.695825  1
  S  S16  1  0.003211  0.693224  0.854587  1
  S  S17  1  0.503211  0.806776  0.645413  1
  S  S18  1  0.996789  0.193224  0.645413  1
  S  S19  1  0.496789  0.306776  0.854587  1
  S  S20  1  0.995674  0.306643  0.142587  1
  S  S21  1  0.495674  0.193357  0.357413  1
  S  S22  1  0.004326  0.806643  0.357413  1
  S  S23  1  0.504326  0.693357  0.142587  1
  O  O24  1  0.449735  0.447606  0.798990  1
  O  O25  1  0.949735  0.052394  0.701010  1
  O  O26  1  0.550265  0.947606  0.701010  1
  O  O27  1  0.050265  0.552394  0.798990  1
  O  O28  1  0.552485  0.557081  0.201440  1
  O  O29  1  0.052485  0.942919  0.298560  1
  O  O30  1  0.447515  0.057081  0.298560  1
  O  O31  1  0.947515  0.442919  0.201440  1
  O  O32  1  0.185065  0.766578  0.886562  1
  O  O33  1  0.685065  0.733422  0.613438  1
  O  O34  1  0.814935  0.266578  0.613438  1
  O  O35  1  0.314935  0.233422  0.886562  1
  O  O36  1  0.812850  0.234075  0.110566  1
  O  O37  1  0.312850  0.265925  0.389434  1
  O  O38  1  0.187150  0.734075  0.389434  1
  O  O39  1  0.687150  0.765925  0.110566  1
  O  O40  1  0.878837  0.642771  0.934156  1
  O  O41  1  0.378837  0.857229  0.565844  1
  O  O42  1  0.121163  0.142771  0.565844  1
  O  O43  1  0.621163  0.357229  0.934156  1
  O  O44  1  0.119953  0.358200  0.063501  1
  O  O45  1  0.619953  0.141800  0.436499  1
  O  O46  1  0.880047  0.858200  0.436499  1
  O  O47  1  0.380047  0.641800  0.063501  1
  O  O48  1  0.384412  0.709125  0.710933  1
  O  O49  1  0.884412  0.790875  0.789067  1
  O  O50  1  0.615588  0.209125  0.789067  1
  O  O51  1  0.115588  0.290875  0.710933  1
  O  O52  1  0.614663  0.296405  0.295081  1
  O  O53  1  0.114663  0.203595  0.204919  1
  O  O54  1  0.385337  0.796405  0.204919  1
  O  O55  1  0.885337  0.703595  0.295081  1
  F  F56  1  0.577229  0.927831  0.903625  1
  F  F57  1  0.077229  0.572169  0.596375  1
  F  F58  1  0.422771  0.427831  0.596375  1
  F  F59  1  0.922771  0.072169  0.903625  1
  F  F60  1  0.422834  0.073169  0.095066  1
  F  F61  1  0.922834  0.426831  0.404934  1
  F  F62  1  0.577166  0.573169  0.404934  1
  F  F63  1  0.077166  0.926831  0.095066  1
