# generated using pymatgen
data_Dy16InHg3Rh4
_symmetry_space_group_name_H-M   'P 1'
_cell_length_a   9.61200228
_cell_length_b   9.61200276
_cell_length_c   9.61200278
_cell_angle_alpha   59.94309390
_cell_angle_beta   59.94309214
_cell_angle_gamma   59.94309438
_symmetry_Int_Tables_number   1
_chemical_formula_structural   Dy16InHg3Rh4
_chemical_formula_sum   'Dy16 In1 Hg3 Rh4'
_cell_volume   627.14179871
_cell_formula_units_Z   1
loop_
 _symmetry_equiv_pos_site_id
 _symmetry_equiv_pos_as_xyz
  1  'x, y, z'
loop_
 _atom_site_type_symbol
 _atom_site_label
 _atom_site_symmetry_multiplicity
 _atom_site_fract_x
 _atom_site_fract_y
 _atom_site_fract_z
 _atom_site_occupancy
  Dy  Dy0  1  0.689874  0.310747  0.310747  1
  Dy  Dy1  1  0.690027  0.690027  0.310696  1
  Dy  Dy2  1  0.310747  0.689874  0.310747  1
  Dy  Dy3  1  0.936244  0.936244  0.560676  1
  Dy  Dy4  1  0.148334  0.148334  0.552315  1
  Dy  Dy5  1  0.562641  0.937250  0.562641  1
  Dy  Dy6  1  0.149914  0.149914  0.149914  1
  Dy  Dy7  1  0.310747  0.310747  0.689874  1
  Dy  Dy8  1  0.937250  0.562641  0.562641  1
  Dy  Dy9  1  0.562641  0.562641  0.937250  1
  Dy  Dy10  1  0.560676  0.936244  0.936244  1
  Dy  Dy11  1  0.936244  0.560676  0.936244  1
  Dy  Dy12  1  0.148334  0.552315  0.148334  1
  Dy  Dy13  1  0.310696  0.690027  0.690027  1
  Dy  Dy14  1  0.690027  0.310696  0.690027  1
  Dy  Dy15  1  0.552315  0.148334  0.148334  1
  In  In16  1  0.919292  0.919292  0.919292  1
  Hg  Hg17  1  0.914908  0.914908  0.255630  1
  Hg  Hg18  1  0.255630  0.914908  0.914908  1
  Hg  Hg19  1  0.914908  0.255630  0.914908  1
  Rh  Rh20  1  0.357297  0.357297  0.357297  1
  Rh  Rh21  1  0.927739  0.356757  0.356757  1
  Rh  Rh22  1  0.356757  0.356757  0.927739  1
  Rh  Rh23  1  0.356757  0.927739  0.356757  1
