# generated using pymatgen
data_Dy4Ga2SiGe
_symmetry_space_group_name_H-M   'P 1'
_cell_length_a   3.98021100
_cell_length_b   4.31983400
_cell_length_c   10.75353500
_cell_angle_alpha   90.00000000
_cell_angle_beta   90.00000000
_cell_angle_gamma   90.00000000
_symmetry_Int_Tables_number   1
_chemical_formula_structural   Dy4Ga2SiGe
_chemical_formula_sum   'Dy4 Ga2 Si1 Ge1'
_cell_volume   184.89467642
_cell_formula_units_Z   1
loop_
 _symmetry_equiv_pos_site_id
 _symmetry_equiv_pos_as_xyz
  1  'x, y, z'
loop_
 _atom_site_type_symbol
 _atom_site_label
 _atom_site_symmetry_multiplicity
 _atom_site_fract_x
 _atom_site_fract_y
 _atom_site_fract_z
 _atom_site_occupancy
  Dy  Dy0  1  0.000000  0.000000  0.141719  1
  Dy  Dy1  1  0.000000  0.500000  0.637007  1
  Dy  Dy2  1  0.500000  0.500000  0.360465  1
  Dy  Dy3  1  0.500000  0.000000  0.860477  1
  Ga  Ga4  1  0.500000  0.500000  0.079717  1
  Ga  Ga5  1  0.500000  0.000000  0.576935  1
  Si  Si6  1  0.000000  0.000000  0.423847  1
  Ge  Ge7  1  0.000000  0.500000  0.919831  1
