# generated using pymatgen
data_Ho16Zr4Ir11Rh
_symmetry_space_group_name_H-M   'P 1'
_cell_length_a   10.80905100
_cell_length_b   10.80905100
_cell_length_c   6.25196000
_cell_angle_alpha   90.00000000
_cell_angle_beta   90.00000000
_cell_angle_gamma   90.00000000
_symmetry_Int_Tables_number   1
_chemical_formula_structural   Ho16Zr4Ir11Rh
_chemical_formula_sum   'Ho16 Zr4 Ir11 Rh1'
_cell_volume   730.45139475
_cell_formula_units_Z   1
loop_
 _symmetry_equiv_pos_site_id
 _symmetry_equiv_pos_as_xyz
  1  'x, y, z'
loop_
 _atom_site_type_symbol
 _atom_site_label
 _atom_site_symmetry_multiplicity
 _atom_site_fract_x
 _atom_site_fract_y
 _atom_site_fract_z
 _atom_site_occupancy
  Ho  Ho0  1  0.289686  0.087168  0.375206  1
  Ho  Ho1  1  0.289464  0.912701  0.873544  1
  Ho  Ho2  1  0.710536  0.087299  0.873544  1
  Ho  Ho3  1  0.710314  0.912832  0.375206  1
  Ho  Ho4  1  0.587299  0.789464  0.873544  1
  Ho  Ho5  1  0.587168  0.210314  0.375206  1
  Ho  Ho6  1  0.412832  0.789686  0.375206  1
  Ho  Ho7  1  0.412701  0.210536  0.873544  1
  Ho  Ho8  1  0.210155  0.412825  0.625721  1
  Ho  Ho9  1  0.210115  0.587300  0.125706  1
  Ho  Ho10  1  0.789885  0.412700  0.125706  1
  Ho  Ho11  1  0.789845  0.587175  0.625721  1
  Ho  Ho12  1  0.912700  0.710115  0.125706  1
  Ho  Ho13  1  0.912825  0.289845  0.625721  1
  Ho  Ho14  1  0.087175  0.710155  0.625721  1
  Ho  Ho15  1  0.087300  0.289885  0.125706  1
  Zr  Zr16  1  0.000000  0.000000  0.499870  1
  Zr  Zr17  1  0.000000  0.000000  0.000181  1
  Zr  Zr18  1  0.500000  0.500000  0.000181  1
  Zr  Zr19  1  0.500000  0.500000  0.499870  1
  Ir  Ir20  1  0.853632  0.145839  0.249746  1
  Ir  Ir21  1  0.853737  0.854113  0.749985  1
  Ir  Ir22  1  0.146263  0.145887  0.749985  1
  Ir  Ir23  1  0.146368  0.854161  0.249746  1
  Ir  Ir24  1  0.645887  0.353737  0.749985  1
  Ir  Ir25  1  0.645839  0.646368  0.249746  1
  Ir  Ir26  1  0.354161  0.353632  0.249746  1
  Ir  Ir27  1  0.354113  0.646263  0.749985  1
  Ir  Ir28  1  0.500000  0.000000  0.621881  1
  Ir  Ir29  1  0.000000  0.500000  0.878643  1
  Ir  Ir30  1  0.000000  0.500000  0.378573  1
  Rh  Rh31  1  0.500000  0.000000  0.121169  1
