# generated using pymatgen
data_Nd3Mg2ScSn2Au
_symmetry_space_group_name_H-M   'P 1'
_cell_length_a   7.73256700
_cell_length_b   7.81498834
_cell_length_c   4.55022500
_cell_angle_alpha   90.00000000
_cell_angle_beta   90.00000000
_cell_angle_gamma   119.65172695
_symmetry_Int_Tables_number   1
_chemical_formula_structural   Nd3Mg2ScSn2Au
_chemical_formula_sum   'Nd3 Mg2 Sc1 Sn2 Au1'
_cell_volume   238.96207641
_cell_formula_units_Z   1
loop_
 _symmetry_equiv_pos_site_id
 _symmetry_equiv_pos_as_xyz
  1  'x, y, z'
loop_
 _atom_site_type_symbol
 _atom_site_label
 _atom_site_symmetry_multiplicity
 _atom_site_fract_x
 _atom_site_fract_y
 _atom_site_fract_z
 _atom_site_occupancy
  Nd  Nd0  1  0.599825  0.000000  0.000000  1
  Nd  Nd1  1  0.996672  0.592622  0.000000  1
  Nd  Nd2  1  0.404050  0.407378  0.000000  1
  Mg  Mg3  1  0.999744  0.237632  0.500000  1
  Mg  Mg4  1  0.762112  0.762368  0.500000  1
  Sc  Sc5  1  0.229861  0.000000  0.500000  1
  Sn  Sn6  1  0.334997  0.670183  0.500000  1
  Sn  Sn7  1  0.664815  0.329817  0.500000  1
  Au  Au8  1  0.007924  0.000000  0.000000  1
