# generated using pymatgen
data_Tm2Ga2Si2Mo3
_symmetry_space_group_name_H-M   'P 1'
_cell_length_a   6.84907800
_cell_length_b   6.81716549
_cell_length_c   7.04853746
_cell_angle_alpha   70.42201227
_cell_angle_beta   90.00000000
_cell_angle_gamma   90.00000000
_symmetry_Int_Tables_number   1
_chemical_formula_structural   Tm2Ga2Si2Mo3
_chemical_formula_sum   'Tm4 Ga4 Si4 Mo6'
_cell_volume   310.07855212
_cell_formula_units_Z   2
loop_
 _symmetry_equiv_pos_site_id
 _symmetry_equiv_pos_as_xyz
  1  'x, y, z'
loop_
 _atom_site_type_symbol
 _atom_site_label
 _atom_site_symmetry_multiplicity
 _atom_site_fract_x
 _atom_site_fract_y
 _atom_site_fract_z
 _atom_site_occupancy
  Tm  Tm0  1  0.332977  0.558774  0.804475  1
  Tm  Tm1  1  0.832977  0.941226  0.195525  1
  Tm  Tm2  1  0.667023  0.441226  0.195525  1
  Tm  Tm3  1  0.167023  0.058774  0.804475  1
  Ga  Ga4  1  0.543531  0.860137  0.919364  1
  Ga  Ga5  1  0.043531  0.639863  0.080636  1
  Ga  Ga6  1  0.456469  0.139863  0.080636  1
  Ga  Ga7  1  0.956469  0.360137  0.919364  1
  Si  Si8  1  0.130132  0.868648  0.503443  1
  Si  Si9  1  0.630132  0.631352  0.496557  1
  Si  Si10  1  0.869868  0.131352  0.496557  1
  Si  Si11  1  0.369868  0.368648  0.503443  1
  Mo  Mo12  1  0.500000  0.000000  0.500000  1
  Mo  Mo13  1  0.000000  0.500000  0.500000  1
  Mo  Mo14  1  0.829289  0.753860  0.730783  1
  Mo  Mo15  1  0.329289  0.746140  0.269217  1
  Mo  Mo16  1  0.170711  0.246140  0.269217  1
  Mo  Mo17  1  0.670711  0.253860  0.730783  1
