# generated using pymatgen
data_Tm3Zr(Nb3Ge4)2
_symmetry_space_group_name_H-M   'P 1'
_cell_length_a   6.94840500
_cell_length_b   7.11868036
_cell_length_c   13.48182901
_cell_angle_alpha   89.79727710
_cell_angle_beta   90.00000000
_cell_angle_gamma   90.00000000
_symmetry_Int_Tables_number   1
_chemical_formula_structural   Tm3Zr(Nb3Ge4)2
_chemical_formula_sum   'Tm6 Zr2 Nb12 Ge16'
_cell_volume   666.85392729
_cell_formula_units_Z   2
loop_
 _symmetry_equiv_pos_site_id
 _symmetry_equiv_pos_as_xyz
  1  'x, y, z'
loop_
 _atom_site_type_symbol
 _atom_site_label
 _atom_site_symmetry_multiplicity
 _atom_site_fract_x
 _atom_site_fract_y
 _atom_site_fract_z
 _atom_site_occupancy
  Tm  Tm0  1  0.493993  0.324233  0.093588  1
  Tm  Tm1  1  0.993993  0.175767  0.406412  1
  Tm  Tm2  1  0.504674  0.672953  0.593344  1
  Tm  Tm3  1  0.004674  0.827047  0.906656  1
  Tm  Tm4  1  0.504443  0.674660  0.906387  1
  Tm  Tm5  1  0.004443  0.825340  0.593613  1
  Zr  Zr6  1  0.493691  0.322678  0.403197  1
  Zr  Zr7  1  0.993691  0.177322  0.096803  1
  Nb  Nb8  1  0.664590  0.011459  0.749969  1
  Nb  Nb9  1  0.164590  0.488541  0.750031  1
  Nb  Nb10  1  0.335846  0.990781  0.250649  1
  Nb  Nb11  1  0.835846  0.509219  0.249351  1
  Nb  Nb12  1  0.840326  0.331045  0.625928  1
  Nb  Nb13  1  0.340326  0.168955  0.874072  1
  Nb  Nb14  1  0.160407  0.667718  0.125998  1
  Nb  Nb15  1  0.660407  0.832282  0.374002  1
  Nb  Nb16  1  0.162033  0.666791  0.373397  1
  Nb  Nb17  1  0.662033  0.833209  0.126603  1
  Nb  Nb18  1  0.841588  0.329435  0.875066  1
  Nb  Nb19  1  0.341588  0.170565  0.624934  1
  Ge  Ge20  1  0.804565  0.642356  0.750307  1
  Ge  Ge21  1  0.304565  0.857644  0.749693  1
  Ge  Ge22  1  0.195503  0.356438  0.249618  1
  Ge  Ge23  1  0.695503  0.143562  0.250382  1
  Ge  Ge24  1  0.539844  0.380791  0.750391  1
  Ge  Ge25  1  0.039844  0.119209  0.749609  1
  Ge  Ge26  1  0.461827  0.617534  0.250347  1
  Ge  Ge27  1  0.961827  0.882466  0.249653  1
  Ge  Ge28  1  0.675313  0.039954  0.540643  1
  Ge  Ge29  1  0.175313  0.460046  0.959357  1
  Ge  Ge30  1  0.317844  0.963465  0.042199  1
  Ge  Ge31  1  0.817844  0.536535  0.457801  1
  Ge  Ge32  1  0.325277  0.963237  0.457652  1
  Ge  Ge33  1  0.825277  0.536763  0.042348  1
  Ge  Ge34  1  0.678237  0.038403  0.959600  1
  Ge  Ge35  1  0.178237  0.461597  0.540400  1
