# generated using pymatgen
data_SrTh3(Tc2Ge)8
_symmetry_space_group_name_H-M   'P 1'
_cell_length_a   4.17525600
_cell_length_b   7.17524529
_cell_length_c   15.70081800
_cell_angle_alpha   89.90296378
_cell_angle_beta   90.00000000
_cell_angle_gamma   90.00000000
_symmetry_Int_Tables_number   1
_chemical_formula_structural   SrTh3(Tc2Ge)8
_chemical_formula_sum   'Sr1 Th3 Tc16 Ge8'
_cell_volume   470.37206087
_cell_formula_units_Z   1
loop_
 _symmetry_equiv_pos_site_id
 _symmetry_equiv_pos_as_xyz
  1  'x, y, z'
loop_
 _atom_site_type_symbol
 _atom_site_label
 _atom_site_symmetry_multiplicity
 _atom_site_fract_x
 _atom_site_fract_y
 _atom_site_fract_z
 _atom_site_occupancy
  Sr  Sr0  1  0.500000  0.912858  0.618763  1
  Th  Th1  1  0.000000  0.593817  0.118419  1
  Th  Th2  1  0.000000  0.409370  0.880277  1
  Th  Th3  1  0.500000  0.092831  0.383208  1
  Tc  Tc4  1  0.000000  0.139587  0.051576  1
  Tc  Tc5  1  0.000000  0.860243  0.949661  1
  Tc  Tc6  1  0.500000  0.637284  0.445813  1
  Tc  Tc7  1  0.500000  0.363715  0.550705  1
  Tc  Tc8  1  0.000000  0.733480  0.320640  1
  Tc  Tc9  1  0.000000  0.269626  0.681101  1
  Tc  Tc10  1  0.500000  0.232500  0.178850  1
  Tc  Tc11  1  0.500000  0.764332  0.821019  1
  Tc  Tc12  1  0.000000  0.433623  0.420660  1
  Tc  Tc13  1  0.000000  0.557498  0.577525  1
  Tc  Tc14  1  0.500000  0.933442  0.078544  1
  Tc  Tc15  1  0.500000  0.064859  0.922398  1
  Tc  Tc16  1  0.000000  0.999710  0.202768  1
  Tc  Tc17  1  0.000000  0.001268  0.798477  1
  Tc  Tc18  1  0.500000  0.498814  0.296447  1
  Tc  Tc19  1  0.500000  0.498886  0.704551  1
  Ge  Ge20  1  0.000000  0.830515  0.474893  1
  Ge  Ge21  1  0.000000  0.167987  0.527457  1
  Ge  Ge22  1  0.500000  0.333211  0.025994  1
  Ge  Ge23  1  0.500000  0.666796  0.973458  1
  Ge  Ge24  1  0.000000  0.307159  0.271809  1
  Ge  Ge25  1  0.000000  0.698035  0.724377  1
  Ge  Ge26  1  0.500000  0.808595  0.228137  1
  Ge  Ge27  1  0.500000  0.189962  0.772476  1
