# generated using pymatgen
data_TbPr6TmAu4
_symmetry_space_group_name_H-M   'P 1'
_cell_length_a   5.04242500
_cell_length_b   7.39240411
_cell_length_c   9.27093600
_cell_angle_alpha   89.94748173
_cell_angle_beta   90.00000000
_cell_angle_gamma   90.00000000
_symmetry_Int_Tables_number   1
_chemical_formula_structural   TbPr6TmAu4
_chemical_formula_sum   'Tb1 Pr6 Tm1 Au4'
_cell_volume   345.57995795
_cell_formula_units_Z   1
loop_
 _symmetry_equiv_pos_site_id
 _symmetry_equiv_pos_as_xyz
  1  'x, y, z'
loop_
 _atom_site_type_symbol
 _atom_site_label
 _atom_site_symmetry_multiplicity
 _atom_site_fract_x
 _atom_site_fract_y
 _atom_site_fract_z
 _atom_site_occupancy
  Tb  Tb0  1  0.250000  0.851420  0.923000  1
  Pr  Pr1  1  0.250000  0.488490  0.175450  1
  Pr  Pr2  1  0.750000  0.509307  0.824885  1
  Pr  Pr3  1  0.250000  0.992126  0.324170  1
  Pr  Pr4  1  0.750000  0.008469  0.676232  1
  Pr  Pr5  1  0.750000  0.650736  0.410690  1
  Pr  Pr6  1  0.250000  0.349311  0.588813  1
  Tm  Tm7  1  0.750000  0.148308  0.077299  1
  Au  Au8  1  0.250000  0.242215  0.913480  1
  Au  Au9  1  0.750000  0.760050  0.088511  1
  Au  Au10  1  0.250000  0.757183  0.610056  1
  Au  Au11  1  0.750000  0.242384  0.387416  1
