# generated using pymatgen
data_YHoZn14Co3
_symmetry_space_group_name_H-M   'P 1'
_cell_length_a   6.65575284
_cell_length_b   6.65575328
_cell_length_c   6.65575230
_cell_angle_alpha   82.51968796
_cell_angle_beta   82.51969271
_cell_angle_gamma   82.51967513
_symmetry_Int_Tables_number   1
_chemical_formula_structural   YHoZn14Co3
_chemical_formula_sum   'Y1 Ho1 Zn14 Co3'
_cell_volume   287.91705292
_cell_formula_units_Z   1
loop_
 _symmetry_equiv_pos_site_id
 _symmetry_equiv_pos_as_xyz
  1  'x, y, z'
loop_
 _atom_site_type_symbol
 _atom_site_label
 _atom_site_symmetry_multiplicity
 _atom_site_fract_x
 _atom_site_fract_y
 _atom_site_fract_z
 _atom_site_occupancy
  Y  Y0  1  0.334345  0.334345  0.334345  1
  Ho  Ho1  1  0.666452  0.666452  0.666452  1
  Zn  Zn2  1  0.346729  0.346729  0.851996  1
  Zn  Zn3  1  0.851996  0.346729  0.346729  1
  Zn  Zn4  1  0.105341  0.105341  0.105341  1
  Zn  Zn5  1  0.894085  0.894085  0.894085  1
  Zn  Zn6  1  0.293541  0.707027  0.999481  1
  Zn  Zn7  1  0.707027  0.999481  0.293541  1
  Zn  Zn8  1  0.999481  0.293541  0.707027  1
  Zn  Zn9  1  0.707027  0.293541  0.999481  1
  Zn  Zn10  1  0.293541  0.999481  0.707027  1
  Zn  Zn11  1  0.999481  0.707027  0.293541  1
  Zn  Zn12  1  0.147509  0.653621  0.653621  1
  Zn  Zn13  1  0.653621  0.653621  0.147509  1
  Zn  Zn14  1  0.653621  0.147509  0.653621  1
  Zn  Zn15  1  0.346729  0.851996  0.346729  1
  Co  Co16  1  0.999606  0.999606  0.500264  1
  Co  Co17  1  0.999606  0.500264  0.999606  1
  Co  Co18  1  0.500264  0.999606  0.999606  1
