# generated using pymatgen
data_Rb4H11Pt2
_symmetry_space_group_name_H-M   'P 1'
_cell_length_a   6.11450302
_cell_length_b   10.43496236
_cell_length_c   11.68545990
_cell_angle_alpha   58.42964112
_cell_angle_beta   91.48755726
_cell_angle_gamma   94.68682340
_symmetry_Int_Tables_number   1
_chemical_formula_structural   Rb4H11Pt2
_chemical_formula_sum   'Rb8 H22 Pt4'
_cell_volume   632.98957079
_cell_formula_units_Z   2
loop_
 _symmetry_equiv_pos_site_id
 _symmetry_equiv_pos_as_xyz
  1  'x, y, z'
loop_
 _atom_site_type_symbol
 _atom_site_label
 _atom_site_symmetry_multiplicity
 _atom_site_fract_x
 _atom_site_fract_y
 _atom_site_fract_z
 _atom_site_occupancy
  Rb  Rb0  1  0.739985  0.298825  0.545675  1
  Rb  Rb1  1  0.308876  0.641986  0.447054  1
  Rb  Rb2  1  0.706117  0.509240  0.097980  1
  Rb  Rb3  1  0.310251  0.566606  0.836406  1
  Rb  Rb4  1  0.781453  0.969215  0.426588  1
  Rb  Rb5  1  0.215893  0.006282  0.623708  1
  Rb  Rb6  1  0.767400  0.167683  0.959309  1
  Rb  Rb7  1  0.183464  0.834677  0.029498  1
  H  H8  1  0.639110  0.684301  0.635718  1
  H  H9  1  0.347000  0.258876  0.298537  1
  H  H10  1  0.606018  0.436958  0.693656  1
  H  H11  1  0.433981  0.497005  0.282292  1
  H  H12  1  0.539840  0.069427  0.798793  1
  H  H13  1  0.308601  0.000983  0.371532  1
  H  H14  1  0.805338  0.781840  0.839831  1
  H  H15  1  0.285364  0.284992  0.056631  1
  H  H16  1  0.015643  0.695806  0.620230  1
  H  H17  1  0.957112  0.303255  0.325518  1
  H  H18  1  0.799456  0.622432  0.493364  1
  H  H19  1  0.234046  0.315629  0.463224  1
  H  H20  1  0.912405  0.027873  0.790141  1
  H  H21  1  0.034759  0.127569  0.211444  1
  H  H22  1  0.679702  0.855260  0.010036  1
  H  H23  1  0.316985  0.038768  0.159231  1
  H  H24  1  0.826372  0.510739  0.814725  1
  H  H25  1  0.167872  0.493616  0.135601  1
  H  H26  1  0.991552  0.438752  0.679648  1
  H  H27  1  0.072710  0.527402  0.304624  1
  H  H28  1  0.441278  0.820046  0.848263  1
  H  H29  1  0.577589  0.181151  0.198437  1
  Pt  Pt30  1  0.677591  0.919359  0.833624  1
  Pt  Pt31  1  0.304815  0.150094  0.214062  1
  Pt  Pt32  1  0.813278  0.564366  0.654698  1
  Pt  Pt33  1  0.198149  0.398985  0.299925  1
