# generated using pymatgen
data_Tm12Th8Sn13Sb3
_symmetry_space_group_name_H-M   'P 1'
_cell_length_a   8.11180478
_cell_length_b   8.18538440
_cell_length_c   15.38939500
_cell_angle_alpha   90.09496588
_cell_angle_beta   89.93779386
_cell_angle_gamma   89.95854551
_symmetry_Int_Tables_number   1
_chemical_formula_structural   Tm12Th8Sn13Sb3
_chemical_formula_sum   'Tm12 Th8 Sn13 Sb3'
_cell_volume   1021.82647239
_cell_formula_units_Z   1
loop_
 _symmetry_equiv_pos_site_id
 _symmetry_equiv_pos_as_xyz
  1  'x, y, z'
loop_
 _atom_site_type_symbol
 _atom_site_label
 _atom_site_symmetry_multiplicity
 _atom_site_fract_x
 _atom_site_fract_y
 _atom_site_fract_z
 _atom_site_occupancy
  Tm  Tm0  1  0.357936  0.838758  0.875795  1
  Tm  Tm1  1  0.859341  0.659862  0.624015  1
  Tm  Tm2  1  0.640617  0.159120  0.375784  1
  Tm  Tm3  1  0.141561  0.338900  0.125146  1
  Tm  Tm4  1  0.642920  0.162702  0.124156  1
  Tm  Tm5  1  0.142354  0.338570  0.375987  1
  Tm  Tm6  1  0.358188  0.838695  0.623877  1
  Tm  Tm7  1  0.858016  0.662718  0.874890  1
  Tm  Tm8  1  0.187650  0.497191  0.749586  1
  Tm  Tm9  1  0.687475  0.003114  0.751422  1
  Tm  Tm10  1  0.812203  0.503507  0.249077  1
  Tm  Tm11  1  0.312444  0.996624  0.251300  1
  Th  Th12  1  0.516144  0.323257  0.905424  1
  Th  Th13  1  0.018269  0.178110  0.594766  1
  Th  Th14  1  0.481857  0.678073  0.405150  1
  Th  Th15  1  0.982289  0.821593  0.095013  1
  Th  Th16  1  0.484364  0.678127  0.094098  1
  Th  Th17  1  0.984162  0.820410  0.405874  1
  Th  Th18  1  0.515846  0.321033  0.594199  1
  Th  Th19  1  0.015770  0.179333  0.904993  1
  Sn  Sn20  1  0.197293  0.542747  0.957937  1
  Sn  Sn21  1  0.700286  0.959454  0.956998  1
  Sn  Sn22  1  0.200345  0.541083  0.543219  1
  Sn  Sn23  1  0.299697  0.040927  0.456815  1
  Sn  Sn24  1  0.803149  0.458911  0.042308  1
  Sn  Sn25  1  0.552505  0.622845  0.749289  1
  Sn  Sn26  1  0.052541  0.877540  0.749143  1
  Sn  Sn27  1  0.448048  0.377013  0.250429  1
  Sn  Sn28  1  0.947471  0.122540  0.250567  1
  Sn  Sn29  1  0.323558  0.144047  0.750064  1
  Sn  Sn30  1  0.822941  0.355985  0.749571  1
  Sn  Sn31  1  0.676290  0.855927  0.250065  1
  Sn  Sn32  1  0.176704  0.644377  0.249892  1
  Sb  Sb33  1  0.299963  0.042111  0.043156  1
  Sb  Sb34  1  0.799241  0.457111  0.456750  1
  Sb  Sb35  1  0.700562  0.957681  0.543244  1
