# generated using pymatgen
data_Ce7Th(Nb3Si4)4
_symmetry_space_group_name_H-M   'P 1'
_cell_length_a   7.12832840
_cell_length_b   7.12973839
_cell_length_c   13.24890672
_cell_angle_alpha   89.96225234
_cell_angle_beta   90.00083875
_cell_angle_gamma   89.99843031
_symmetry_Int_Tables_number   1
_chemical_formula_structural   Ce7Th(Nb3Si4)4
_chemical_formula_sum   'Ce7 Th1 Nb12 Si16'
_cell_volume   673.35058552
_cell_formula_units_Z   1
loop_
 _symmetry_equiv_pos_site_id
 _symmetry_equiv_pos_as_xyz
  1  'x, y, z'
loop_
 _atom_site_type_symbol
 _atom_site_label
 _atom_site_symmetry_multiplicity
 _atom_site_fract_x
 _atom_site_fract_y
 _atom_site_fract_z
 _atom_site_occupancy
  Ce  Ce0  1  0.004829  0.663513  0.716749  1
  Ce  Ce1  1  0.163518  0.495580  0.467609  1
  Ce  Ce2  1  0.504047  0.836614  0.032116  1
  Ce  Ce3  1  0.836674  0.504491  0.966364  1
  Ce  Ce4  1  0.495542  0.163133  0.533475  1
  Ce  Ce5  1  0.336877  0.995645  0.782709  1
  Ce  Ce6  1  0.661306  0.002602  0.283742  1
  Th  Th7  1  0.994848  0.336367  0.217404  1
  Nb  Nb8  1  0.170437  0.169101  0.999467  1
  Nb  Nb9  1  0.829908  0.830266  0.500497  1
  Nb  Nb10  1  0.329200  0.668985  0.250186  1
  Nb  Nb11  1  0.670491  0.330460  0.749993  1
  Nb  Nb12  1  0.157224  0.995421  0.374508  1
  Nb  Nb13  1  0.843931  0.005551  0.873684  1
  Nb  Nb14  1  0.505658  0.656966  0.624191  1
  Nb  Nb15  1  0.343961  0.495498  0.875558  1
  Nb  Nb16  1  0.494491  0.342680  0.124062  1
  Nb  Nb17  1  0.656401  0.505395  0.376497  1
  Nb  Nb18  1  0.995409  0.156922  0.626008  1
  Nb  Nb19  1  0.004383  0.843283  0.125952  1
  Si  Si20  1  0.293746  0.039788  0.185589  1
  Si  Si21  1  0.708599  0.957598  0.685953  1
  Si  Si22  1  0.456677  0.791524  0.436277  1
  Si  Si23  1  0.209666  0.544292  0.062609  1
  Si  Si24  1  0.542400  0.208424  0.935228  1
  Si  Si25  1  0.792021  0.457088  0.564386  1
  Si  Si26  1  0.043706  0.292135  0.813860  1
  Si  Si27  1  0.956113  0.711348  0.315264  1
  Si  Si28  1  0.374025  0.295989  0.315042  1
  Si  Si29  1  0.629559  0.703317  0.813649  1
  Si  Si30  1  0.202929  0.871106  0.563966  1
  Si  Si31  1  0.128805  0.797809  0.935746  1
  Si  Si32  1  0.795216  0.126896  0.062400  1
  Si  Si33  1  0.869886  0.201698  0.436949  1
  Si  Si34  1  0.298014  0.371258  0.686290  1
  Si  Si35  1  0.699500  0.631259  0.186021  1
