# generated using pymatgen
data_Ca2H6PtRh
_symmetry_space_group_name_H-M   'P 1'
_cell_length_a   5.23630900
_cell_length_b   5.23630978
_cell_length_c   5.23630900
_cell_angle_alpha   120.00000138
_cell_angle_beta   90.00000000
_cell_angle_gamma   120.00000138
_symmetry_Int_Tables_number   1
_chemical_formula_structural   Ca2H6PtRh
_chemical_formula_sum   'Ca2 H6 Pt1 Rh1'
_cell_volume   101.52215998
_cell_formula_units_Z   1
loop_
 _symmetry_equiv_pos_site_id
 _symmetry_equiv_pos_as_xyz
  1  'x, y, z'
loop_
 _atom_site_type_symbol
 _atom_site_label
 _atom_site_symmetry_multiplicity
 _atom_site_fract_x
 _atom_site_fract_y
 _atom_site_fract_z
 _atom_site_occupancy
  Ca  Ca0  1  0.749998  0.499999  0.249999  1
  Ca  Ca1  1  0.249999  0.499999  0.750001  1
  H  H2  1  0.755817  0.000000  0.244183  1
  H  H3  1  0.244184  0.488368  0.244184  1
  H  H4  1  0.244184  0.000000  0.244184  1
  H  H5  1  0.755816  0.000000  0.755816  1
  H  H6  1  0.244183  0.000000  0.755817  1
  H  H7  1  0.755817  0.511633  0.755817  1
  Pt  Pt8  1  0.500000  0.000000  0.500000  1
  Rh  Rh9  1  0.000000  0.000000  0.000000  1
