# generated using pymatgen
data_MgTi2VPd12
_symmetry_space_group_name_H-M   'P 1'
_cell_length_a   5.57345200
_cell_length_b   5.57345248
_cell_length_c   9.00952400
_cell_angle_alpha   90.00000000
_cell_angle_beta   90.00000000
_cell_angle_gamma   120.00000900
_symmetry_Int_Tables_number   1
_chemical_formula_structural   MgTi2VPd12
_chemical_formula_sum   'Mg1 Ti2 V1 Pd12'
_cell_volume   242.37119659
_cell_formula_units_Z   1
loop_
 _symmetry_equiv_pos_site_id
 _symmetry_equiv_pos_as_xyz
  1  'x, y, z'
loop_
 _atom_site_type_symbol
 _atom_site_label
 _atom_site_symmetry_multiplicity
 _atom_site_fract_x
 _atom_site_fract_y
 _atom_site_fract_z
 _atom_site_occupancy
  Mg  Mg0  1  0.333333  0.666667  0.249317  1
  Ti  Ti1  1  0.000000  0.000000  0.002716  1
  Ti  Ti2  1  0.666667  0.333333  0.752123  1
  V  V3  1  0.000000  0.000000  0.496015  1
  Pd  Pd4  1  0.501993  0.498007  0.503844  1
  Pd  Pd5  1  0.501993  0.003985  0.503844  1
  Pd  Pd6  1  0.996015  0.498007  0.503844  1
  Pd  Pd7  1  0.501877  0.498123  0.995943  1
  Pd  Pd8  1  0.501877  0.003753  0.995943  1
  Pd  Pd9  1  0.996247  0.498123  0.995943  1
  Pd  Pd10  1  0.834354  0.668709  0.251953  1
  Pd  Pd11  1  0.331291  0.165646  0.251953  1
  Pd  Pd12  1  0.834354  0.165646  0.251953  1
  Pd  Pd13  1  0.164825  0.329649  0.748203  1
  Pd  Pd14  1  0.670351  0.835175  0.748203  1
  Pd  Pd15  1  0.164825  0.835175  0.748203  1
