# generated using pymatgen
data_NdGe3AsRh6
_symmetry_space_group_name_H-M   'P 1'
_cell_length_a   7.22483400
_cell_length_b   7.27681502
_cell_length_c   3.87937200
_cell_angle_alpha   90.00000000
_cell_angle_beta   90.00000000
_cell_angle_gamma   119.76397906
_symmetry_Int_Tables_number   1
_chemical_formula_structural   NdGe3AsRh6
_chemical_formula_sum   'Nd1 Ge3 As1 Rh6'
_cell_volume   177.04727446
_cell_formula_units_Z   1
loop_
 _symmetry_equiv_pos_site_id
 _symmetry_equiv_pos_as_xyz
  1  'x, y, z'
loop_
 _atom_site_type_symbol
 _atom_site_label
 _atom_site_symmetry_multiplicity
 _atom_site_fract_x
 _atom_site_fract_y
 _atom_site_fract_z
 _atom_site_occupancy
  Nd  Nd0  1  0.001198  0.002396  0.000000  1
  Ge  Ge1  1  0.801997  0.194584  0.500000  1
  Ge  Ge2  1  0.392587  0.194584  0.500000  1
  Ge  Ge3  1  0.333896  0.667793  0.000000  1
  As  As4  1  0.804907  0.609813  0.500000  1
  Rh  Rh5  1  0.199033  0.798664  0.500000  1
  Rh  Rh6  1  0.200428  0.400856  0.500000  1
  Rh  Rh7  1  0.533934  0.067868  0.000000  1
  Rh  Rh8  1  0.932136  0.465722  0.000000  1
  Rh  Rh9  1  0.533586  0.465722  0.000000  1
  Rh  Rh10  1  0.599632  0.798664  0.500000  1
