# generated using pymatgen
data_K6Li4TiSiP6
_symmetry_space_group_name_H-M   'P 1'
_cell_length_a   9.72287222
_cell_length_b   9.72287120
_cell_length_c   14.76716500
_cell_angle_alpha   90.00000000
_cell_angle_beta   90.00000000
_cell_angle_gamma   142.76470740
_symmetry_Int_Tables_number   1
_chemical_formula_structural   K6Li4TiSiP6
_chemical_formula_sum   'K12 Li8 Ti2 Si2 P12'
_cell_volume   844.70673331
_cell_formula_units_Z   2
loop_
 _symmetry_equiv_pos_site_id
 _symmetry_equiv_pos_as_xyz
  1  'x, y, z'
loop_
 _atom_site_type_symbol
 _atom_site_label
 _atom_site_symmetry_multiplicity
 _atom_site_fract_x
 _atom_site_fract_y
 _atom_site_fract_z
 _atom_site_occupancy
  K  K0  1  0.106478  0.449411  0.671609  1
  K  K1  1  0.719666  0.717464  0.679412  1
  K  K2  1  0.217464  0.219666  0.820588  1
  K  K3  1  0.780334  0.782536  0.179412  1
  K  K4  1  0.949411  0.606478  0.828391  1
  K  K5  1  0.550589  0.893522  0.328391  1
  K  K6  1  0.393522  0.050589  0.171609  1
  K  K7  1  0.057779  0.395618  0.170125  1
  K  K8  1  0.895618  0.557779  0.329875  1
  K  K9  1  0.442221  0.104382  0.670125  1
  K  K10  1  0.604382  0.942222  0.829875  1
  K  K11  1  0.282536  0.280334  0.320588  1
  Li  Li12  1  0.916506  0.083494  0.000000  1
  Li  Li13  1  0.583494  0.416506  0.500000  1
  Li  Li14  1  0.081026  0.918974  0.000000  1
  Li  Li15  1  0.418974  0.581026  0.500000  1
  Li  Li16  1  0.752299  0.247701  0.000000  1
  Li  Li17  1  0.747701  0.252299  0.500000  1
  Li  Li18  1  0.249775  0.750225  0.000000  1
  Li  Li19  1  0.250225  0.749775  0.500000  1
  Ti  Ti20  1  0.916632  0.083368  0.500000  1
  Ti  Ti21  1  0.583368  0.416632  0.000000  1
  Si  Si22  1  0.085266  0.914734  0.500000  1
  Si  Si23  1  0.414734  0.585266  0.000000  1
  P  P24  1  0.883789  0.565183  0.090076  1
  P  P25  1  0.434817  0.116211  0.909924  1
  P  P26  1  0.616211  0.934817  0.590076  1
  P  P27  1  0.937932  0.625589  0.588308  1
  P  P28  1  0.125589  0.437932  0.911692  1
  P  P29  1  0.562068  0.874411  0.088308  1
  P  P30  1  0.374411  0.062068  0.411692  1
  P  P31  1  0.217479  0.210459  0.585184  1
  P  P32  1  0.710459  0.717479  0.914816  1
  P  P33  1  0.282521  0.289541  0.085184  1
  P  P34  1  0.065183  0.383789  0.409924  1
  P  P35  1  0.789541  0.782521  0.414816  1
