# generated using pymatgen
data_Ta3Nb3V4Si6B
_symmetry_space_group_name_H-M   'P 1'
_cell_length_a   7.46357300
_cell_length_b   7.46357341
_cell_length_c   5.03405300
_cell_angle_alpha   90.00000000
_cell_angle_beta   90.00000000
_cell_angle_gamma   120.00000264
_symmetry_Int_Tables_number   1
_chemical_formula_structural   Ta3Nb3V4Si6B
_chemical_formula_sum   'Ta3 Nb3 V4 Si6 B1'
_cell_volume   242.85217490
_cell_formula_units_Z   1
loop_
 _symmetry_equiv_pos_site_id
 _symmetry_equiv_pos_as_xyz
  1  'x, y, z'
loop_
 _atom_site_type_symbol
 _atom_site_label
 _atom_site_symmetry_multiplicity
 _atom_site_fract_x
 _atom_site_fract_y
 _atom_site_fract_z
 _atom_site_occupancy
  Ta  Ta0  1  0.000000  0.245517  0.754221  1
  Ta  Ta1  1  0.754483  0.754483  0.754221  1
  Ta  Ta2  1  0.245517  0.000000  0.754221  1
  Nb  Nb3  1  0.000000  0.753565  0.245655  1
  Nb  Nb4  1  0.246435  0.246435  0.245655  1
  Nb  Nb5  1  0.753565  0.000000  0.245655  1
  V  V6  1  0.333333  0.666667  0.500879  1
  V  V7  1  0.666667  0.333333  0.500879  1
  V  V8  1  0.666667  0.333333  0.999179  1
  V  V9  1  0.333333  0.666667  0.999179  1
  Si  Si10  1  0.000000  0.404190  0.247303  1
  Si  Si11  1  0.595810  0.595810  0.247303  1
  Si  Si12  1  0.404190  0.000000  0.247303  1
  Si  Si13  1  0.000000  0.595540  0.752760  1
  Si  Si14  1  0.404460  0.404460  0.752760  1
  Si  Si15  1  0.595540  0.000000  0.752760  1
  B  B16  1  0.000000  0.000000  0.500067  1
