# generated using pymatgen
data_Zr4Ti3CrP4
_symmetry_space_group_name_H-M   'P 1'
_cell_length_a   3.54785100
_cell_length_b   6.72051803
_cell_length_c   8.07907601
_cell_angle_alpha   90.00917737
_cell_angle_beta   90.00000000
_cell_angle_gamma   90.00000000
_symmetry_Int_Tables_number   1
_chemical_formula_structural   Zr4Ti3CrP4
_chemical_formula_sum   'Zr4 Ti3 Cr1 P4'
_cell_volume   192.63261133
_cell_formula_units_Z   1
loop_
 _symmetry_equiv_pos_site_id
 _symmetry_equiv_pos_as_xyz
  1  'x, y, z'
loop_
 _atom_site_type_symbol
 _atom_site_label
 _atom_site_symmetry_multiplicity
 _atom_site_fract_x
 _atom_site_fract_y
 _atom_site_fract_z
 _atom_site_occupancy
  Zr  Zr0  1  0.250000  0.534480  0.167802  1
  Zr  Zr1  1  0.750000  0.456870  0.833975  1
  Zr  Zr2  1  0.750000  0.966502  0.671980  1
  Zr  Zr3  1  0.250000  0.037690  0.327049  1
  Ti  Ti4  1  0.250000  0.633891  0.561930  1
  Ti  Ti5  1  0.750000  0.361879  0.440057  1
  Ti  Ti6  1  0.750000  0.873799  0.056796  1
  Cr  Cr7  1  0.250000  0.133309  0.941994  1
  P  P8  1  0.250000  0.765284  0.862378  1
  P  P9  1  0.750000  0.237148  0.131091  1
  P  P10  1  0.750000  0.738146  0.362071  1
  P  P11  1  0.250000  0.261004  0.642879  1
