# generated using pymatgen
data_Ca3Al12Ir2OsRh
_symmetry_space_group_name_H-M   'P 1'
_cell_length_a   8.87223512
_cell_length_b   8.87350066
_cell_length_c   9.61420601
_cell_angle_alpha   89.99999983
_cell_angle_beta   90.08939490
_cell_angle_gamma   120.00472824
_symmetry_Int_Tables_number   1
_chemical_formula_structural   Ca3Al12Ir2OsRh
_chemical_formula_sum   'Ca6 Al24 Ir4 Os2 Rh2'
_cell_volume   655.46677893
_cell_formula_units_Z   2
loop_
 _symmetry_equiv_pos_site_id
 _symmetry_equiv_pos_as_xyz
  1  'x, y, z'
loop_
 _atom_site_type_symbol
 _atom_site_label
 _atom_site_symmetry_multiplicity
 _atom_site_fract_x
 _atom_site_fract_y
 _atom_site_fract_z
 _atom_site_occupancy
  Ca  Ca0  1  0.191560  0.384728  0.250787  1
  Ca  Ca1  1  0.808440  0.615272  0.749213  1
  Ca  Ca2  1  0.615786  0.807894  0.250440  1
  Ca  Ca3  1  0.384214  0.192106  0.749560  1
  Ca  Ca4  1  0.191560  0.806834  0.250787  1
  Ca  Ca5  1  0.808440  0.193166  0.749213  1
  Al  Al6  1  0.333571  0.666785  0.004661  1
  Al  Al7  1  0.666429  0.333215  0.995339  1
  Al  Al8  1  0.666568  0.333284  0.504996  1
  Al  Al9  1  0.333432  0.666716  0.495004  1
  Al  Al10  1  0.161610  0.323943  0.577250  1
  Al  Al11  1  0.838390  0.676057  0.422750  1
  Al  Al12  1  0.676648  0.838324  0.577607  1
  Al  Al13  1  0.839213  0.676217  0.078091  1
  Al  Al14  1  0.323352  0.161676  0.422393  1
  Al  Al15  1  0.160787  0.323783  0.921909  1
  Al  Al16  1  0.161610  0.837668  0.577250  1
  Al  Al17  1  0.323287  0.161642  0.079468  1
  Al  Al18  1  0.838390  0.162332  0.422750  1
  Al  Al19  1  0.676713  0.838358  0.920532  1
  Al  Al20  1  0.839213  0.162995  0.078091  1
  Al  Al21  1  0.160787  0.837005  0.921909  1
  Al  Al22  1  0.562446  0.124660  0.249829  1
  Al  Al23  1  0.437554  0.875340  0.750171  1
  Al  Al24  1  0.875698  0.437849  0.249708  1
  Al  Al25  1  0.124302  0.562151  0.750292  1
  Al  Al26  1  0.562446  0.437786  0.249829  1
  Al  Al27  1  0.437554  0.562214  0.750171  1
  Al  Al28  1  0.000201  0.000100  0.250110  1
  Al  Al29  1  0.999799  0.999900  0.749890  1
  Ir  Ir30  1  0.000000  0.500000  0.000000  1
  Ir  Ir31  1  0.500000  0.000000  0.500000  1
  Ir  Ir32  1  0.000000  0.500000  0.500000  1
  Ir  Ir33  1  0.500000  0.500000  0.500000  1
  Os  Os34  1  0.000000  0.000000  0.000000  1
  Os  Os35  1  0.000000  0.000000  0.500000  1
  Rh  Rh36  1  0.500000  0.000000  0.000000  1
  Rh  Rh37  1  0.500000  0.500000  0.000000  1
