# generated using pymatgen
data_TbEr(SiPd)2
_symmetry_space_group_name_H-M   'P 1'
_cell_length_a   4.33659400
_cell_length_b   7.49611700
_cell_length_c   13.89441100
_cell_angle_alpha   90.00000000
_cell_angle_beta   90.00000000
_cell_angle_gamma   90.00000000
_symmetry_Int_Tables_number   1
_chemical_formula_structural   TbEr(SiPd)2
_chemical_formula_sum   'Tb4 Er4 Si8 Pd8'
_cell_volume   451.67417741
_cell_formula_units_Z   4
loop_
 _symmetry_equiv_pos_site_id
 _symmetry_equiv_pos_as_xyz
  1  'x, y, z'
loop_
 _atom_site_type_symbol
 _atom_site_label
 _atom_site_symmetry_multiplicity
 _atom_site_fract_x
 _atom_site_fract_y
 _atom_site_fract_z
 _atom_site_occupancy
  Tb  Tb0  1  0.000000  0.299472  0.000000  1
  Tb  Tb1  1  0.500000  0.700528  0.500000  1
  Tb  Tb2  1  0.000000  0.290386  0.500000  1
  Tb  Tb3  1  0.500000  0.709614  0.000000  1
  Er  Er4  1  0.000000  0.210274  0.248934  1
  Er  Er5  1  0.500000  0.789726  0.251066  1
  Er  Er6  1  0.000000  0.210274  0.751066  1
  Er  Er7  1  0.500000  0.789726  0.748934  1
  Si  Si8  1  0.000000  0.909437  0.594285  1
  Si  Si9  1  0.500000  0.090563  0.905715  1
  Si  Si10  1  0.000000  0.909437  0.405715  1
  Si  Si11  1  0.500000  0.090563  0.094285  1
  Si  Si12  1  0.000000  0.591698  0.145063  1
  Si  Si13  1  0.500000  0.408302  0.354937  1
  Si  Si14  1  0.000000  0.591698  0.854937  1
  Si  Si15  1  0.500000  0.408302  0.645063  1
  Pd  Pd16  1  0.500000  0.075650  0.609700  1
  Pd  Pd17  1  0.000000  0.924350  0.890300  1
  Pd  Pd18  1  0.500000  0.075650  0.390300  1
  Pd  Pd19  1  0.000000  0.924350  0.109700  1
  Pd  Pd20  1  0.500000  0.419569  0.157679  1
  Pd  Pd21  1  0.000000  0.580431  0.342321  1
  Pd  Pd22  1  0.500000  0.419569  0.842321  1
  Pd  Pd23  1  0.000000  0.580431  0.657679  1
