# generated using pymatgen
data_Sr3Tb4Pr(Si3Pd)4
_symmetry_space_group_name_H-M   'P 1'
_cell_length_a   8.29590200
_cell_length_b   8.29590210
_cell_length_c   8.48152000
_cell_angle_alpha   90.00000000
_cell_angle_beta   90.00000000
_cell_angle_gamma   119.99999958
_symmetry_Int_Tables_number   1
_chemical_formula_structural   Sr3Tb4Pr(Si3Pd)4
_chemical_formula_sum   'Sr3 Tb4 Pr1 Si12 Pd4'
_cell_volume   505.51210030
_cell_formula_units_Z   1
loop_
 _symmetry_equiv_pos_site_id
 _symmetry_equiv_pos_as_xyz
  1  'x, y, z'
loop_
 _atom_site_type_symbol
 _atom_site_label
 _atom_site_symmetry_multiplicity
 _atom_site_fract_x
 _atom_site_fract_y
 _atom_site_fract_z
 _atom_site_occupancy
  Sr  Sr0  1  0.500599  0.499401  0.250000  1
  Sr  Sr1  1  0.998803  0.499401  0.250000  1
  Sr  Sr2  1  0.500599  0.001197  0.250000  1
  Tb  Tb3  1  0.499650  0.500350  0.750000  1
  Tb  Tb4  1  0.000699  0.500350  0.750000  1
  Tb  Tb5  1  0.499650  0.999301  0.750000  1
  Tb  Tb6  1  0.000000  0.000000  0.750000  1
  Pr  Pr7  1  0.000000  0.000000  0.250000  1
  Si  Si8  1  0.835567  0.164433  0.984314  1
  Si  Si9  1  0.164364  0.835636  0.983833  1
  Si  Si10  1  0.328866  0.164433  0.984314  1
  Si  Si11  1  0.164364  0.835636  0.516167  1
  Si  Si12  1  0.671271  0.835636  0.983833  1
  Si  Si13  1  0.835567  0.164433  0.515686  1
  Si  Si14  1  0.835567  0.671134  0.984314  1
  Si  Si15  1  0.671271  0.835636  0.516167  1
  Si  Si16  1  0.164364  0.328729  0.983833  1
  Si  Si17  1  0.328866  0.164433  0.515686  1
  Si  Si18  1  0.164364  0.328729  0.516167  1
  Si  Si19  1  0.835567  0.671134  0.515686  1
  Pd  Pd20  1  0.666667  0.333333  0.974742  1
  Pd  Pd21  1  0.333333  0.666667  0.978654  1
  Pd  Pd22  1  0.333333  0.666667  0.521346  1
  Pd  Pd23  1  0.666667  0.333333  0.525258  1
