# generated using pymatgen
data_La6Tb3Nd(Sn3Cl)2
_symmetry_space_group_name_H-M   'P 1'
_cell_length_a   9.52124100
_cell_length_b   9.52124111
_cell_length_c   6.78354600
_cell_angle_alpha   90.00000000
_cell_angle_beta   90.00000000
_cell_angle_gamma   119.99999614
_symmetry_Int_Tables_number   1
_chemical_formula_structural   La6Tb3Nd(Sn3Cl)2
_chemical_formula_sum   'La6 Tb3 Nd1 Sn6 Cl2'
_cell_volume   532.56735801
_cell_formula_units_Z   1
loop_
 _symmetry_equiv_pos_site_id
 _symmetry_equiv_pos_as_xyz
  1  'x, y, z'
loop_
 _atom_site_type_symbol
 _atom_site_label
 _atom_site_symmetry_multiplicity
 _atom_site_fract_x
 _atom_site_fract_y
 _atom_site_fract_z
 _atom_site_occupancy
  La  La0  1  0.738207  0.000159  0.749634  1
  La  La1  1  0.738207  0.738048  0.250366  1
  La  La2  1  0.999841  0.261793  0.250366  1
  La  La3  1  0.999841  0.738048  0.749634  1
  La  La4  1  0.261952  0.261793  0.749634  1
  La  La5  1  0.261952  0.000159  0.250366  1
  Tb  Tb6  1  0.666667  0.333333  0.000000  1
  Tb  Tb7  1  0.333333  0.666667  0.500000  1
  Tb  Tb8  1  0.666667  0.333333  0.500000  1
  Nd  Nd9  1  0.333333  0.666667  0.000000  1
  Sn  Sn10  1  0.610441  0.608627  0.748736  1
  Sn  Sn11  1  0.998186  0.608627  0.251264  1
  Sn  Sn12  1  0.610441  0.001814  0.251264  1
  Sn  Sn13  1  0.391373  0.001814  0.748736  1
  Sn  Sn14  1  0.998186  0.389559  0.748736  1
  Sn  Sn15  1  0.391373  0.389559  0.251264  1
  Cl  Cl16  1  0.000000  0.000000  0.500000  1
  Cl  Cl17  1  0.000000  0.000000  0.000000  1
