# generated using pymatgen
data_ErTm4Lu7Co5Bi
_symmetry_space_group_name_H-M   'P 1'
_cell_length_a   8.13190545
_cell_length_b   8.12724105
_cell_length_c   8.13190560
_cell_angle_alpha   111.05736078
_cell_angle_beta   110.91555413
_cell_angle_gamma   106.50356037
_symmetry_Int_Tables_number   1
_chemical_formula_structural   ErTm4Lu7Co5Bi
_chemical_formula_sum   'Er1 Tm4 Lu7 Co5 Bi1'
_cell_volume   412.77310683
_cell_formula_units_Z   1
loop_
 _symmetry_equiv_pos_site_id
 _symmetry_equiv_pos_as_xyz
  1  'x, y, z'
loop_
 _atom_site_type_symbol
 _atom_site_label
 _atom_site_symmetry_multiplicity
 _atom_site_fract_x
 _atom_site_fract_y
 _atom_site_fract_z
 _atom_site_occupancy
  Er  Er0  1  0.789137  0.983943  0.194806  1
  Tm  Tm1  1  0.286436  0.184670  0.470044  1
  Tm  Tm2  1  0.715643  0.816418  0.532832  1
  Tm  Tm3  1  0.283587  0.816418  0.100775  1
  Tm  Tm4  1  0.714627  0.184670  0.898235  1
  Lu  Lu5  1  0.620779  0.311983  0.309710  1
  Lu  Lu6  1  0.378196  0.687719  0.689558  1
  Lu  Lu7  1  0.002273  0.311983  0.691203  1
  Lu  Lu8  1  0.998160  0.687719  0.309523  1
  Lu  Lu9  1  0.210703  0.406150  0.195448  1
  Lu  Lu10  1  0.788885  0.592317  0.803433  1
  Lu  Lu11  1  0.211003  0.015046  0.804042  1
  Co  Co12  1  0.000493  0.375065  0.374571  1
  Co  Co13  1  0.999667  0.626342  0.626675  1
  Co  Co14  1  0.387586  0.887243  0.499657  1
  Co  Co15  1  0.612065  0.113672  0.501606  1
  Co  Co16  1  0.001152  0.999204  0.998053  1
  Bi  Bi17  1  0.499609  0.499436  0.999826  1
