# generated using pymatgen
data_Np4Ga4Ir3Pt
_symmetry_space_group_name_H-M   'P 1'
_cell_length_a   4.38023300
_cell_length_b   6.62378508
_cell_length_c   7.91458942
_cell_angle_alpha   89.95573817
_cell_angle_beta   90.00000000
_cell_angle_gamma   90.00000000
_symmetry_Int_Tables_number   1
_chemical_formula_structural   Np4Ga4Ir3Pt
_chemical_formula_sum   'Np4 Ga4 Ir3 Pt1'
_cell_volume   229.63162867
_cell_formula_units_Z   1
loop_
 _symmetry_equiv_pos_site_id
 _symmetry_equiv_pos_as_xyz
  1  'x, y, z'
loop_
 _atom_site_type_symbol
 _atom_site_label
 _atom_site_symmetry_multiplicity
 _atom_site_fract_x
 _atom_site_fract_y
 _atom_site_fract_z
 _atom_site_occupancy
  Np  Np0  1  0.250000  0.975732  0.305015  1
  Np  Np1  1  0.250000  0.478098  0.201817  1
  Np  Np2  1  0.750000  0.021055  0.688566  1
  Np  Np3  1  0.750000  0.534580  0.802328  1
  Ga  Ga4  1  0.250000  0.339702  0.571493  1
  Ga  Ga5  1  0.250000  0.837417  0.930549  1
  Ga  Ga6  1  0.750000  0.660502  0.428259  1
  Ga  Ga7  1  0.750000  0.158539  0.070284  1
  Ir  Ir8  1  0.250000  0.741662  0.605637  1
  Ir  Ir9  1  0.750000  0.756706  0.104960  1
  Ir  Ir10  1  0.750000  0.259229  0.394440  1
  Pt  Pt11  1  0.250000  0.236779  0.896652  1
