# generated using pymatgen
data_Ta19NbIr10
_symmetry_space_group_name_H-M   'P 1'
_cell_length_a   9.94229467
_cell_length_b   9.94229467
_cell_length_c   5.13446300
_cell_angle_alpha   90.00000000
_cell_angle_beta   90.00000000
_cell_angle_gamma   89.95785064
_symmetry_Int_Tables_number   1
_chemical_formula_structural   Ta19NbIr10
_chemical_formula_sum   'Ta19 Nb1 Ir10'
_cell_volume   507.53754257
_cell_formula_units_Z   1
loop_
 _symmetry_equiv_pos_site_id
 _symmetry_equiv_pos_as_xyz
  1  'x, y, z'
loop_
 _atom_site_type_symbol
 _atom_site_label
 _atom_site_symmetry_multiplicity
 _atom_site_fract_x
 _atom_site_fract_y
 _atom_site_fract_z
 _atom_site_occupancy
  Ta  Ta0  1  0.395312  0.395312  0.000000  1
  Ta  Ta1  1  0.895344  0.104797  0.500000  1
  Ta  Ta2  1  0.104797  0.895344  0.500000  1
  Ta  Ta3  1  0.129074  0.462631  0.000000  1
  Ta  Ta4  1  0.962635  0.370839  0.500000  1
  Ta  Ta5  1  0.037186  0.629222  0.500000  1
  Ta  Ta6  1  0.870254  0.537609  0.000000  1
  Ta  Ta7  1  0.370839  0.962635  0.500000  1
  Ta  Ta8  1  0.629222  0.037186  0.500000  1
  Ta  Ta9  1  0.462631  0.129074  0.000000  1
  Ta  Ta10  1  0.537609  0.870254  0.000000  1
  Ta  Ta11  1  0.179012  0.179012  0.251095  1
  Ta  Ta12  1  0.678851  0.320783  0.750826  1
  Ta  Ta13  1  0.320783  0.678851  0.750826  1
  Ta  Ta14  1  0.821377  0.821377  0.251252  1
  Ta  Ta15  1  0.320783  0.678851  0.249174  1
  Ta  Ta16  1  0.678851  0.320783  0.249174  1
  Ta  Ta17  1  0.179012  0.179012  0.748905  1
  Ta  Ta18  1  0.821377  0.821377  0.748748  1
  Nb  Nb19  1  0.605386  0.605386  0.000000  1
  Ir  Ir20  1  0.000047  0.000047  0.000000  1
  Ir  Ir21  1  0.499896  0.499896  0.500000  1
  Ir  Ir22  1  0.262425  0.930355  0.000000  1
  Ir  Ir23  1  0.430449  0.237472  0.500000  1
  Ir  Ir24  1  0.569407  0.762420  0.500000  1
  Ir  Ir25  1  0.737564  0.069627  0.000000  1
  Ir  Ir26  1  0.237472  0.430449  0.500000  1
  Ir  Ir27  1  0.762420  0.569407  0.500000  1
  Ir  Ir28  1  0.930355  0.262425  0.000000  1
  Ir  Ir29  1  0.069627  0.737564  0.000000  1
