# generated using pymatgen
data_Pr3CdPd3Au2
_symmetry_space_group_name_H-M   'P 1'
_cell_length_a   7.75564176
_cell_length_b   7.64333191
_cell_length_c   4.01119300
_cell_angle_alpha   90.00000000
_cell_angle_beta   90.00000000
_cell_angle_gamma   119.52212754
_symmetry_Int_Tables_number   1
_chemical_formula_structural   Pr3CdPd3Au2
_chemical_formula_sum   'Pr3 Cd1 Pd3 Au2'
_cell_volume   206.90732114
_cell_formula_units_Z   1
loop_
 _symmetry_equiv_pos_site_id
 _symmetry_equiv_pos_as_xyz
  1  'x, y, z'
loop_
 _atom_site_type_symbol
 _atom_site_label
 _atom_site_symmetry_multiplicity
 _atom_site_fract_x
 _atom_site_fract_y
 _atom_site_fract_z
 _atom_site_occupancy
  Pr  Pr0  1  0.410640  0.397104  0.500000  1
  Pr  Pr1  1  0.000000  0.623895  0.500000  1
  Pr  Pr2  1  0.589360  0.986464  0.500000  1
  Cd  Cd3  1  0.000000  0.256620  0.000000  1
  Pd  Pd4  1  0.676063  0.330558  0.000000  1
  Pd  Pd5  1  0.000000  0.008698  0.500000  1
  Pd  Pd6  1  0.323937  0.654496  0.000000  1
  Au  Au7  1  0.735274  0.738719  0.000000  1
  Au  Au8  1  0.264726  0.003446  0.000000  1
