# generated using pymatgen
data_ErPa2(GaRh)3
_symmetry_space_group_name_H-M   'P 1'
_cell_length_a   7.21580764
_cell_length_b   7.21580581
_cell_length_c   3.82764500
_cell_angle_alpha   90.00000000
_cell_angle_beta   90.00000000
_cell_angle_gamma   119.87584657
_symmetry_Int_Tables_number   1
_chemical_formula_structural   ErPa2(GaRh)3
_chemical_formula_sum   'Er1 Pa2 Ga3 Rh3'
_cell_volume   172.81205499
_cell_formula_units_Z   1
loop_
 _symmetry_equiv_pos_site_id
 _symmetry_equiv_pos_as_xyz
  1  'x, y, z'
loop_
 _atom_site_type_symbol
 _atom_site_label
 _atom_site_symmetry_multiplicity
 _atom_site_fract_x
 _atom_site_fract_y
 _atom_site_fract_z
 _atom_site_occupancy
  Er  Er0  1  0.407988  0.407988  0.500000  1
  Pa  Pa1  1  0.588233  0.002509  0.500000  1
  Pa  Pa2  1  0.002509  0.588233  0.500000  1
  Ga  Ga3  1  0.737205  0.737205  0.000000  1
  Ga  Ga4  1  0.248900  0.015219  0.000000  1
  Ga  Ga5  1  0.015219  0.248900  0.000000  1
  Rh  Rh6  1  0.689445  0.330153  0.000000  1
  Rh  Rh7  1  0.330153  0.689445  0.000000  1
  Rh  Rh8  1  0.980348  0.980348  0.500000  1
