# generated using pymatgen
data_Sm3Dy(OsO4)4
_symmetry_space_group_name_H-M   'P 1'
_cell_length_a   5.44601138
_cell_length_b   7.51442457
_cell_length_c   7.75344169
_cell_angle_alpha   79.29259122
_cell_angle_beta   93.84545819
_cell_angle_gamma   91.08659760
_symmetry_Int_Tables_number   1
_chemical_formula_structural   Sm3Dy(OsO4)4
_chemical_formula_sum   'Sm3 Dy1 Os4 O16'
_cell_volume   311.06572437
_cell_formula_units_Z   1
loop_
 _symmetry_equiv_pos_site_id
 _symmetry_equiv_pos_as_xyz
  1  'x, y, z'
loop_
 _atom_site_type_symbol
 _atom_site_label
 _atom_site_symmetry_multiplicity
 _atom_site_fract_x
 _atom_site_fract_y
 _atom_site_fract_z
 _atom_site_occupancy
  Sm  Sm0  1  0.735282  0.893197  0.380371  1
  Sm  Sm1  1  0.261831  0.108375  0.623813  1
  Sm  Sm2  1  0.805038  0.401636  0.326064  1
  Dy  Dy3  1  0.192241  0.600733  0.673437  1
  Os  Os4  1  0.754142  0.295228  0.837570  1
  Os  Os5  1  0.242902  0.708672  0.162318  1
  Os  Os6  1  0.283146  0.203898  0.163800  1
  Os  Os7  1  0.714155  0.797508  0.837196  1
  O  O8  1  0.943158  0.783864  0.032789  1
  O  O9  1  0.055487  0.207784  0.964745  1
  O  O10  1  0.366859  0.952317  0.167769  1
  O  O11  1  0.631158  0.050415  0.824941  1
  O  O12  1  0.168882  0.447864  0.174303  1
  O  O13  1  0.844208  0.551587  0.827285  1
  O  O14  1  0.591576  0.293497  0.058337  1
  O  O15  1  0.405794  0.702069  0.939616  1
  O  O16  1  0.947159  0.327962  0.615841  1
  O  O17  1  0.057455  0.675594  0.387171  1
  O  O18  1  0.507765  0.175156  0.388960  1
  O  O19  1  0.491960  0.816669  0.614938  1
  O  O20  1  0.545680  0.637054  0.295883  1
  O  O21  1  0.452499  0.372167  0.701290  1
  O  O22  1  0.027927  0.122549  0.336658  1
  O  O23  1  0.973697  0.874204  0.664907  1
