# generated using pymatgen
data_SrNd2Zr(GaO3)4
_symmetry_space_group_name_H-M   'P 1'
_cell_length_a   11.07071959
_cell_length_b   11.12273979
_cell_length_c   11.13239924
_cell_angle_alpha   109.52841259
_cell_angle_beta   109.33729538
_cell_angle_gamma   109.27373160
_symmetry_Int_Tables_number   1
_chemical_formula_structural   SrNd2Zr(GaO3)4
_chemical_formula_sum   'Sr4 Nd8 Zr4 Ga16 O48'
_cell_volume   1058.79986296
_cell_formula_units_Z   4
loop_
 _symmetry_equiv_pos_site_id
 _symmetry_equiv_pos_as_xyz
  1  'x, y, z'
loop_
 _atom_site_type_symbol
 _atom_site_label
 _atom_site_symmetry_multiplicity
 _atom_site_fract_x
 _atom_site_fract_y
 _atom_site_fract_z
 _atom_site_occupancy
  Sr  Sr0  1  0.622943  0.242108  0.374126  1
  Sr  Sr1  1  0.874707  0.121835  0.245301  1
  Sr  Sr2  1  0.125293  0.878165  0.754699  1
  Sr  Sr3  1  0.377057  0.757892  0.625874  1
  Nd  Nd4  1  0.249822  0.623092  0.877431  1
  Nd  Nd5  1  0.628847  0.370821  0.750716  1
  Nd  Nd6  1  0.126285  0.252538  0.881291  1
  Nd  Nd7  1  0.249558  0.122598  0.369050  1
  Nd  Nd8  1  0.873715  0.747462  0.118709  1
  Nd  Nd9  1  0.750442  0.877402  0.630950  1
  Nd  Nd10  1  0.371153  0.629179  0.249284  1
  Nd  Nd11  1  0.750178  0.376908  0.122569  1
  Zr  Zr12  1  0.000000  0.000000  0.500000  1
  Zr  Zr13  1  0.500000  0.000000  0.000000  1
  Zr  Zr14  1  0.000000  0.500000  0.500000  1
  Zr  Zr15  1  0.500000  0.500000  0.500000  1
  Ga  Ga16  1  0.881435  0.634371  0.761999  1
  Ga  Ga17  1  0.626870  0.748944  0.875860  1
  Ga  Ga18  1  0.870001  0.252553  0.630894  1
  Ga  Ga19  1  0.246142  0.869982  0.128708  1
  Ga  Ga20  1  0.254993  0.374901  0.633303  1
  Ga  Ga21  1  0.500000  0.500000  0.000000  1
  Ga  Ga22  1  0.000000  0.000000  0.000000  1
  Ga  Ga23  1  0.622697  0.871422  0.249168  1
  Ga  Ga24  1  0.377303  0.128578  0.750832  1
  Ga  Ga25  1  0.500000  0.000000  0.500000  1
  Ga  Ga26  1  0.753858  0.130018  0.871291  1
  Ga  Ga27  1  0.745007  0.625099  0.366697  1
  Ga  Ga28  1  0.129999  0.747447  0.369106  1
  Ga  Ga29  1  0.000000  0.500000  0.000000  1
  Ga  Ga30  1  0.373130  0.251056  0.124140  1
  Ga  Ga31  1  0.118565  0.365629  0.238001  1
  O  O32  1  0.297286  0.875842  0.984481  1
  O  O33  1  0.411944  0.293765  0.316477  1
  O  O34  1  0.687555  0.485876  0.608866  1
  O  O35  1  0.022985  0.617777  0.709281  1
  O  O36  1  0.478358  0.791943  0.883928  1
  O  O37  1  0.204745  0.518006  0.624592  1
  O  O38  1  0.885641  0.298733  0.487894  1
  O  O39  1  0.022200  0.402773  0.823394  1
  O  O40  1  0.676798  0.201288  0.589698  1
  O  O41  1  0.395115  0.015752  0.321693  1
  O  O42  1  0.616128  0.014887  0.201244  1
  O  O43  1  0.619137  0.595625  0.917365  1
  O  O44  1  0.087142  0.177375  0.198765  1
  O  O45  1  0.403587  0.377358  0.585958  1
  O  O46  1  0.299922  0.419208  0.825829  1
  O  O47  1  0.106891  0.183990  0.482430  1
  O  O48  1  0.881275  0.582210  0.906514  1
  O  O49  1  0.821375  0.896576  0.017600  1
  O  O50  1  0.915991  0.100450  0.624909  1
  O  O51  1  0.198903  0.674509  0.079904  1
  O  O52  1  0.583185  0.879718  0.403189  1
  O  O53  1  0.815028  0.907288  0.293093  1
  O  O54  1  0.525176  0.323439  0.902339  1
  O  O55  1  0.095244  0.916179  0.119592  1
  O  O56  1  0.904756  0.083821  0.880408  1
  O  O57  1  0.474824  0.676561  0.097661  1
  O  O58  1  0.184972  0.092712  0.706907  1
  O  O59  1  0.416815  0.120282  0.596811  1
  O  O60  1  0.801097  0.325491  0.920096  1
  O  O61  1  0.084009  0.899550  0.375091  1
  O  O62  1  0.178625  0.103424  0.982400  1
  O  O63  1  0.118725  0.417790  0.093486  1
  O  O64  1  0.893109  0.816010  0.517570  1
  O  O65  1  0.700078  0.580792  0.174171  1
  O  O66  1  0.596413  0.622642  0.414042  1
  O  O67  1  0.912858  0.822625  0.801235  1
  O  O68  1  0.380863  0.404375  0.082635  1
  O  O69  1  0.383872  0.985113  0.798756  1
  O  O70  1  0.604885  0.984248  0.678307  1
  O  O71  1  0.323202  0.798712  0.410302  1
  O  O72  1  0.977800  0.597227  0.176606  1
  O  O73  1  0.114359  0.701267  0.512106  1
  O  O74  1  0.795255  0.481994  0.375408  1
  O  O75  1  0.521642  0.208057  0.116072  1
  O  O76  1  0.977015  0.382223  0.290719  1
  O  O77  1  0.312445  0.514124  0.391134  1
  O  O78  1  0.588056  0.706235  0.683523  1
  O  O79  1  0.702714  0.124158  0.015519  1
