# generated using pymatgen
data_Ho8Sc12Si15Ru
_symmetry_space_group_name_H-M   'P 1'
_cell_length_a   7.05572327
_cell_length_b   7.42823283
_cell_length_c   13.91129800
_cell_angle_alpha   90.00000000
_cell_angle_beta   90.00000000
_cell_angle_gamma   90.18759301
_symmetry_Int_Tables_number   1
_chemical_formula_structural   Ho8Sc12Si15Ru
_chemical_formula_sum   'Ho8 Sc12 Si15 Ru1'
_cell_volume   729.10885606
_cell_formula_units_Z   1
loop_
 _symmetry_equiv_pos_site_id
 _symmetry_equiv_pos_as_xyz
  1  'x, y, z'
loop_
 _atom_site_type_symbol
 _atom_site_label
 _atom_site_symmetry_multiplicity
 _atom_site_fract_x
 _atom_site_fract_y
 _atom_site_fract_z
 _atom_site_occupancy
  Ho  Ho0  1  0.011021  0.179094  0.095758  1
  Ho  Ho1  1  0.991604  0.826820  0.904674  1
  Ho  Ho2  1  0.489237  0.677175  0.904471  1
  Ho  Ho3  1  0.991604  0.826820  0.595326  1
  Ho  Ho4  1  0.510908  0.322268  0.095905  1
  Ho  Ho5  1  0.011021  0.179094  0.404242  1
  Ho  Ho6  1  0.510908  0.322268  0.404095  1
  Ho  Ho7  1  0.489237  0.677175  0.595529  1
  Sc  Sc8  1  0.157807  0.502548  0.750000  1
  Sc  Sc9  1  0.837846  0.494769  0.250000  1
  Sc  Sc10  1  0.339049  0.005652  0.250000  1
  Sc  Sc11  1  0.670060  0.998292  0.750000  1
  Sc  Sc12  1  0.316726  0.171873  0.627955  1
  Sc  Sc13  1  0.671499  0.825455  0.374113  1
  Sc  Sc14  1  0.171006  0.677929  0.374193  1
  Sc  Sc15  1  0.671499  0.825455  0.125887  1
  Sc  Sc16  1  0.837791  0.319768  0.627664  1
  Sc  Sc17  1  0.316726  0.171873  0.872045  1
  Sc  Sc18  1  0.837791  0.319768  0.872336  1
  Sc  Sc19  1  0.171006  0.677929  0.125807  1
  Si  Si20  1  0.968482  0.885954  0.250000  1
  Si  Si21  1  0.468982  0.613199  0.250000  1
  Si  Si22  1  0.529599  0.389125  0.750000  1
  Si  Si23  1  0.286786  0.866197  0.750000  1
  Si  Si24  1  0.713393  0.130356  0.250000  1
  Si  Si25  1  0.213909  0.370011  0.250000  1
  Si  Si26  1  0.779970  0.628107  0.750000  1
  Si  Si27  1  0.160551  0.468447  0.537412  1
  Si  Si28  1  0.843003  0.535467  0.461644  1
  Si  Si29  1  0.343518  0.965993  0.460352  1
  Si  Si30  1  0.843003  0.535467  0.038356  1
  Si  Si31  1  0.656747  0.034595  0.538712  1
  Si  Si32  1  0.160551  0.468447  0.962588  1
  Si  Si33  1  0.656747  0.034595  0.961288  1
  Si  Si34  1  0.343518  0.965993  0.039648  1
  Ru  Ru35  1  0.026893  0.106015  0.750000  1
