# generated using pymatgen
data_Tb2HoAl3Si2Ni
_symmetry_space_group_name_H-M   'P 1'
_cell_length_a   6.89371000
_cell_length_b   6.88745739
_cell_length_c   4.16643200
_cell_angle_alpha   90.00000000
_cell_angle_beta   90.00000000
_cell_angle_gamma   120.03003518
_symmetry_Int_Tables_number   1
_chemical_formula_structural   Tb2HoAl3Si2Ni
_chemical_formula_sum   'Tb2 Ho1 Al3 Si2 Ni1'
_cell_volume   171.26765206
_cell_formula_units_Z   1
loop_
 _symmetry_equiv_pos_site_id
 _symmetry_equiv_pos_as_xyz
  1  'x, y, z'
loop_
 _atom_site_type_symbol
 _atom_site_label
 _atom_site_symmetry_multiplicity
 _atom_site_fract_x
 _atom_site_fract_y
 _atom_site_fract_z
 _atom_site_occupancy
  Tb  Tb0  1  0.999583  0.405735  0.000000  1
  Tb  Tb1  1  0.593846  0.594264  0.000000  1
  Ho  Ho2  1  0.405257  0.000000  0.000000  1
  Al  Al3  1  0.766412  0.000000  0.499999  1
  Al  Al4  1  0.233254  0.232770  0.499999  1
  Al  Al5  1  0.000484  0.767230  0.499999  1
  Si  Si6  1  0.665052  0.331151  0.499999  1
  Si  Si7  1  0.333901  0.668850  0.499999  1
  Ni  Ni8  1  0.002214  0.000000  0.000000  1
