# generated using pymatgen
data_Ho5Lu3Re2(TcB12)2
_symmetry_space_group_name_H-M   'P 1'
_cell_length_a   3.64918300
_cell_length_b   9.10792787
_cell_length_c   11.48657302
_cell_angle_alpha   90.05621257
_cell_angle_beta   90.00000000
_cell_angle_gamma   90.00000000
_symmetry_Int_Tables_number   1
_chemical_formula_structural   Ho5Lu3Re2(TcB12)2
_chemical_formula_sum   'Ho5 Lu3 Re2 Tc2 B24'
_cell_volume   381.77324913
_cell_formula_units_Z   1
loop_
 _symmetry_equiv_pos_site_id
 _symmetry_equiv_pos_as_xyz
  1  'x, y, z'
loop_
 _atom_site_type_symbol
 _atom_site_label
 _atom_site_symmetry_multiplicity
 _atom_site_fract_x
 _atom_site_fract_y
 _atom_site_fract_z
 _atom_site_occupancy
  Ho  Ho0  1  0.000000  0.323664  0.414083  1
  Ho  Ho1  1  0.000000  0.676239  0.586227  1
  Ho  Ho2  1  0.000000  0.822854  0.085756  1
  Ho  Ho3  1  0.000000  0.177161  0.913797  1
  Ho  Ho4  1  0.000000  0.942612  0.370512  1
  Lu  Lu5  1  0.000000  0.057829  0.630588  1
  Lu  Lu6  1  0.000000  0.444005  0.130016  1
  Lu  Lu7  1  0.000000  0.555976  0.869664  1
  Re  Re8  1  0.000000  0.140103  0.179233  1
  Re  Re9  1  0.000000  0.860623  0.820168  1
  Tc  Tc10  1  0.000000  0.638265  0.319816  1
  Tc  Tc11  1  0.000000  0.360661  0.680249  1
  B  B12  1  0.500000  0.553091  0.432863  1
  B  B13  1  0.500000  0.446210  0.567353  1
  B  B14  1  0.500000  0.053747  0.066707  1
  B  B15  1  0.500000  0.946419  0.932813  1
  B  B16  1  0.500000  0.748883  0.418659  1
  B  B17  1  0.500000  0.249705  0.581591  1
  B  B18  1  0.500000  0.251252  0.081098  1
  B  B19  1  0.500000  0.749005  0.918660  1
  B  B20  1  0.500000  0.791740  0.264956  1
  B  B21  1  0.500000  0.207201  0.734729  1
  B  B22  1  0.500000  0.293817  0.234560  1
  B  B23  1  0.500000  0.706690  0.765276  1
  B  B24  1  0.500000  0.629844  0.184620  1
  B  B25  1  0.500000  0.369771  0.815124  1
  B  B26  1  0.500000  0.131204  0.314721  1
  B  B27  1  0.500000  0.869903  0.684907  1
  B  B28  1  0.500000  0.982119  0.211662  1
  B  B29  1  0.500000  0.018500  0.787561  1
  B  B30  1  0.500000  0.481597  0.287402  1
  B  B31  1  0.500000  0.518132  0.712462  1
  B  B32  1  0.500000  0.598227  0.027176  1
  B  B33  1  0.500000  0.401790  0.972631  1
  B  B34  1  0.500000  0.099831  0.473464  1
  B  B35  1  0.500000  0.901327  0.528891  1
