# generated using pymatgen
data_Ce2B2Ru5W
_symmetry_space_group_name_H-M   'P 1'
_cell_length_a   9.79800600
_cell_length_b   9.79800600
_cell_length_c   3.07232300
_cell_angle_alpha   90.00000000
_cell_angle_beta   90.00000000
_cell_angle_gamma   90.00000000
_symmetry_Int_Tables_number   1
_chemical_formula_structural   Ce2B2Ru5W
_chemical_formula_sum   'Ce4 B4 Ru10 W2'
_cell_volume   294.94583938
_cell_formula_units_Z   2
loop_
 _symmetry_equiv_pos_site_id
 _symmetry_equiv_pos_as_xyz
  1  'x, y, z'
loop_
 _atom_site_type_symbol
 _atom_site_label
 _atom_site_symmetry_multiplicity
 _atom_site_fract_x
 _atom_site_fract_y
 _atom_site_fract_z
 _atom_site_occupancy
  Ce  Ce0  1  0.822909  0.677091  0.000000  1
  Ce  Ce1  1  0.177091  0.322909  0.000000  1
  Ce  Ce2  1  0.322909  0.822909  0.000000  1
  Ce  Ce3  1  0.677091  0.177091  0.000000  1
  B  B4  1  0.620170  0.879830  0.000000  1
  B  B5  1  0.379830  0.120170  0.000000  1
  B  B6  1  0.120170  0.620170  0.000000  1
  B  B7  1  0.879830  0.379830  0.000000  1
  Ru  Ru8  1  0.570108  0.719729  0.500000  1
  Ru  Ru9  1  0.429892  0.280271  0.500000  1
  Ru  Ru10  1  0.070108  0.780271  0.500000  1
  Ru  Ru11  1  0.929892  0.219729  0.500000  1
  Ru  Ru12  1  0.280271  0.570108  0.500000  1
  Ru  Ru13  1  0.719729  0.429892  0.500000  1
  Ru  Ru14  1  0.219729  0.070108  0.500000  1
  Ru  Ru15  1  0.780271  0.929892  0.500000  1
  Ru  Ru16  1  0.500000  0.000000  0.500000  1
  Ru  Ru17  1  0.000000  0.500000  0.500000  1
  W  W18  1  0.500000  0.500000  0.000000  1
  W  W19  1  0.000000  0.000000  0.000000  1
