# generated using pymatgen
data_CeDyTc6Ni6P7
_symmetry_space_group_name_H-M   'P 1'
_cell_length_a   9.38447535
_cell_length_b   9.38375078
_cell_length_c   3.74410800
_cell_angle_alpha   90.00000000
_cell_angle_beta   90.00000000
_cell_angle_gamma   120.04244257
_symmetry_Int_Tables_number   1
_chemical_formula_structural   CeDyTc6Ni6P7
_chemical_formula_sum   'Ce1 Dy1 Tc6 Ni6 P7'
_cell_volume   285.41682077
_cell_formula_units_Z   1
loop_
 _symmetry_equiv_pos_site_id
 _symmetry_equiv_pos_as_xyz
  1  'x, y, z'
loop_
 _atom_site_type_symbol
 _atom_site_label
 _atom_site_symmetry_multiplicity
 _atom_site_fract_x
 _atom_site_fract_y
 _atom_site_fract_z
 _atom_site_occupancy
  Ce  Ce0  1  0.333313  0.666623  0.000000  1
  Dy  Dy1  1  0.666722  0.333370  0.500000  1
  Tc  Tc2  1  0.390606  0.436215  0.500000  1
  Tc  Tc3  1  0.879966  0.790103  0.500000  1
  Tc  Tc4  1  0.910095  0.120096  0.500000  1
  Tc  Tc5  1  0.045669  0.609348  0.500000  1
  Tc  Tc6  1  0.209903  0.089946  0.500000  1
  Tc  Tc7  1  0.563747  0.954324  0.500000  1
  Ni  Ni8  1  0.159101  0.275095  0.000000  1
  Ni  Ni9  1  0.115999  0.840911  0.000000  1
  Ni  Ni10  1  0.724988  0.884025  0.000000  1
  Ni  Ni11  1  0.934909  0.363218  0.000000  1
  Ni  Ni12  1  0.636770  0.571810  0.000000  1
  Ni  Ni13  1  0.428236  0.065025  0.000000  1
  P  P14  1  0.600559  0.715783  0.500000  1
  P  P15  1  0.115251  0.399423  0.500000  1
  P  P16  1  0.883333  0.588564  0.000000  1
  P  P17  1  0.284179  0.884781  0.500000  1
  P  P18  1  0.000015  0.999990  0.000000  1
  P  P19  1  0.705178  0.116583  0.000000  1
  P  P20  1  0.411464  0.294769  0.000000  1
