# generated using pymatgen
data_EuSiGePd2
_symmetry_space_group_name_H-M   'P 1'
_cell_length_a   5.94338933
_cell_length_b   5.94338891
_cell_length_c   5.94338769
_cell_angle_alpha   137.33967977
_cell_angle_beta   137.33967292
_cell_angle_gamma   61.91583074
_symmetry_Int_Tables_number   1
_chemical_formula_structural   EuSiGePd2
_chemical_formula_sum   'Eu1 Si1 Ge1 Pd2'
_cell_volume   95.28083196
_cell_formula_units_Z   1
loop_
 _symmetry_equiv_pos_site_id
 _symmetry_equiv_pos_as_xyz
  1  'x, y, z'
loop_
 _atom_site_type_symbol
 _atom_site_label
 _atom_site_symmetry_multiplicity
 _atom_site_fract_x
 _atom_site_fract_y
 _atom_site_fract_z
 _atom_site_occupancy
  Eu  Eu0  1  0.000727  0.000727  0.000000  1
  Si  Si1  1  0.627632  0.627632  0.000000  1
  Ge  Ge2  1  0.381128  0.381128  0.000000  1
  Pd  Pd3  1  0.245256  0.745256  0.500000  1
  Pd  Pd4  1  0.745256  0.245256  0.500000  1
