# generated using pymatgen
data_TbY3(NiB10)2
_symmetry_space_group_name_H-M   'P 1'
_cell_length_a   4.15205400
_cell_length_b   5.56216108
_cell_length_c   11.11530016
_cell_angle_alpha   89.98081693
_cell_angle_beta   90.00000000
_cell_angle_gamma   90.00000000
_symmetry_Int_Tables_number   1
_chemical_formula_structural   TbY3(NiB10)2
_chemical_formula_sum   'Tb1 Y3 Ni2 B20'
_cell_volume   256.70109741
_cell_formula_units_Z   1
loop_
 _symmetry_equiv_pos_site_id
 _symmetry_equiv_pos_as_xyz
  1  'x, y, z'
loop_
 _atom_site_type_symbol
 _atom_site_label
 _atom_site_symmetry_multiplicity
 _atom_site_fract_x
 _atom_site_fract_y
 _atom_site_fract_z
 _atom_site_occupancy
  Tb  Tb0  1  0.500000  0.685804  0.137584  1
  Y  Y1  1  0.500000  0.185832  0.362550  1
  Y  Y2  1  0.500000  0.814231  0.637494  1
  Y  Y3  1  0.500000  0.314156  0.862419  1
  Ni  Ni4  1  0.000000  0.999922  0.999971  1
  Ni  Ni5  1  0.000000  0.500078  0.500020  1
  B  B6  1  0.000000  0.374353  0.041075  1
  B  B7  1  0.000000  0.625714  0.958963  1
  B  B8  1  0.000000  0.125759  0.541059  1
  B  B9  1  0.000000  0.874331  0.458953  1
  B  B10  1  0.000000  0.341329  0.198402  1
  B  B11  1  0.000000  0.658850  0.801490  1
  B  B12  1  0.000000  0.158810  0.698475  1
  B  B13  1  0.000000  0.841210  0.301510  1
  B  B14  1  0.000000  0.029747  0.186565  1
  B  B15  1  0.000000  0.970225  0.813405  1
  B  B16  1  0.000000  0.470254  0.686546  1
  B  B17  1  0.000000  0.529928  0.313355  1
  B  B18  1  0.301492  0.201351  0.114599  1
  B  B19  1  0.698510  0.798309  0.885479  1
  B  B20  1  0.301490  0.798309  0.885479  1
  B  B21  1  0.698695  0.298467  0.614563  1
  B  B22  1  0.698508  0.201351  0.114599  1
  B  B23  1  0.301308  0.701607  0.385441  1
  B  B24  1  0.698692  0.701607  0.385441  1
  B  B25  1  0.301305  0.298467  0.614563  1
