# generated using pymatgen
data_Ce4TaSi3
_symmetry_space_group_name_H-M   'P 1'
_cell_length_a   5.59467970
_cell_length_b   8.44279825
_cell_length_c   8.44279784
_cell_angle_alpha   83.70708001
_cell_angle_beta   70.67355961
_cell_angle_gamma   70.67356286
_symmetry_Int_Tables_number   1
_chemical_formula_structural   Ce4TaSi3
_chemical_formula_sum   'Ce8 Ta2 Si6'
_cell_volume   355.11448372
_cell_formula_units_Z   2
loop_
 _symmetry_equiv_pos_site_id
 _symmetry_equiv_pos_as_xyz
  1  'x, y, z'
loop_
 _atom_site_type_symbol
 _atom_site_label
 _atom_site_symmetry_multiplicity
 _atom_site_fract_x
 _atom_site_fract_y
 _atom_site_fract_z
 _atom_site_occupancy
  Ce  Ce0  1  0.094340  0.134235  0.676884  1
  Ce  Ce1  1  0.905660  0.865765  0.323116  1
  Ce  Ce2  1  0.771393  0.322984  0.134298  1
  Ce  Ce3  1  0.405660  0.323116  0.865765  1
  Ce  Ce4  1  0.228607  0.677016  0.865702  1
  Ce  Ce5  1  0.594340  0.676884  0.134235  1
  Ce  Ce6  1  0.728607  0.865702  0.677016  1
  Ce  Ce7  1  0.271393  0.134298  0.322984  1
  Ta  Ta8  1  0.250000  0.499906  0.500094  1
  Ta  Ta9  1  0.750000  0.500094  0.499906  1
  Si  Si10  1  0.143389  0.500015  0.213256  1
  Si  Si11  1  0.856611  0.499985  0.786744  1
  Si  Si12  1  0.356611  0.786744  0.499985  1
  Si  Si13  1  0.643389  0.213256  0.500015  1
  Si  Si14  1  0.250000  0.000029  0.999971  1
  Si  Si15  1  0.750000  0.999971  0.000029  1
