# generated using pymatgen
data_Tb4YCo(P2Ru3)6
_symmetry_space_group_name_H-M   'P 1'
_cell_length_a   12.50592500
_cell_length_b   12.50592497
_cell_length_c   3.98044400
_cell_angle_alpha   90.00000000
_cell_angle_beta   90.00000000
_cell_angle_gamma   119.99999744
_symmetry_Int_Tables_number   1
_chemical_formula_structural   Tb4YCo(P2Ru3)6
_chemical_formula_sum   'Tb4 Y1 Co1 P12 Ru18'
_cell_volume   539.13037347
_cell_formula_units_Z   1
loop_
 _symmetry_equiv_pos_site_id
 _symmetry_equiv_pos_as_xyz
  1  'x, y, z'
loop_
 _atom_site_type_symbol
 _atom_site_label
 _atom_site_symmetry_multiplicity
 _atom_site_fract_x
 _atom_site_fract_y
 _atom_site_fract_z
 _atom_site_occupancy
  Tb  Tb0  1  0.666667  0.333333  0.000000  1
  Tb  Tb1  1  0.183959  0.000034  0.500000  1
  Tb  Tb2  1  0.999966  0.183925  0.500000  1
  Tb  Tb3  1  0.816075  0.816041  0.500000  1
  Y  Y4  1  0.333333  0.666667  0.000000  1
  Co  Co5  1  0.000000  0.000000  0.000000  1
  P  P6  1  0.374161  0.999983  0.000000  1
  P  P7  1  0.000017  0.374178  0.000000  1
  P  P8  1  0.625822  0.625839  0.000000  1
  P  P9  1  0.305184  0.475412  0.500000  1
  P  P10  1  0.524588  0.829772  0.500000  1
  P  P11  1  0.170228  0.694816  0.500000  1
  P  P12  1  0.829744  0.524623  0.500000  1
  P  P13  1  0.694879  0.170256  0.500000  1
  P  P14  1  0.475377  0.305121  0.500000  1
  P  P15  1  0.822526  0.999855  0.000000  1
  P  P16  1  0.000145  0.822672  0.000000  1
  P  P17  1  0.177328  0.177474  0.000000  1
  Ru  Ru18  1  0.190708  0.375328  0.000000  1
  Ru  Ru19  1  0.624672  0.815378  0.000000  1
  Ru  Ru20  1  0.184622  0.809292  0.000000  1
  Ru  Ru21  1  0.815543  0.624974  0.000000  1
  Ru  Ru22  1  0.809430  0.184457  0.000000  1
  Ru  Ru23  1  0.375026  0.190570  0.000000  1
  Ru  Ru24  1  0.556986  0.000083  0.000000  1
  Ru  Ru25  1  0.999917  0.556903  0.000000  1
  Ru  Ru26  1  0.443097  0.443014  0.000000  1
  Ru  Ru27  1  0.125964  0.492503  0.500000  1
  Ru  Ru28  1  0.507497  0.633460  0.500000  1
  Ru  Ru29  1  0.366540  0.874036  0.500000  1
  Ru  Ru30  1  0.633457  0.507756  0.500000  1
  Ru  Ru31  1  0.874298  0.366543  0.500000  1
  Ru  Ru32  1  0.492244  0.125702  0.500000  1
  Ru  Ru33  1  0.720839  0.999982  0.500000  1
  Ru  Ru34  1  0.000018  0.720857  0.500000  1
  Ru  Ru35  1  0.279143  0.279161  0.500000  1
