# generated using pymatgen
data_TbTh3Al14(Ga2Ir3)2
_symmetry_space_group_name_H-M   'P 1'
_cell_length_a   7.62748434
_cell_length_b   7.63122475
_cell_length_c   9.56289800
_cell_angle_alpha   90.00000000
_cell_angle_beta   90.00000000
_cell_angle_gamma   119.49653293
_symmetry_Int_Tables_number   1
_chemical_formula_structural   TbTh3Al14(Ga2Ir3)2
_chemical_formula_sum   'Tb1 Th3 Al14 Ga4 Ir6'
_cell_volume   484.48098411
_cell_formula_units_Z   1
loop_
 _symmetry_equiv_pos_site_id
 _symmetry_equiv_pos_as_xyz
  1  'x, y, z'
loop_
 _atom_site_type_symbol
 _atom_site_label
 _atom_site_symmetry_multiplicity
 _atom_site_fract_x
 _atom_site_fract_y
 _atom_site_fract_z
 _atom_site_occupancy
  Tb  Tb0  1  0.326261  0.004760  0.750000  1
  Th  Th1  1  0.995150  0.671082  0.250000  1
  Th  Th2  1  0.002749  0.326515  0.750000  1
  Th  Th3  1  0.670705  0.994863  0.250000  1
  Al  Al4  1  0.006020  0.335994  0.073010  1
  Al  Al5  1  0.999847  0.668228  0.923839  1
  Al  Al6  1  0.999847  0.668228  0.576161  1
  Al  Al7  1  0.335325  0.004553  0.432576  1
  Al  Al8  1  0.006020  0.335994  0.426990  1
  Al  Al9  1  0.659266  0.995816  0.575873  1
  Al  Al10  1  0.659266  0.995816  0.924127  1
  Al  Al11  1  0.335325  0.004553  0.067424  1
  Al  Al12  1  0.336907  0.333489  0.558523  1
  Al  Al13  1  0.663482  0.663499  0.455523  1
  Al  Al14  1  0.663482  0.663499  0.044477  1
  Al  Al15  1  0.336907  0.333489  0.941477  1
  Al  Al16  1  0.659423  0.450172  0.750000  1
  Al  Al17  1  0.452840  0.664962  0.750000  1
  Ga  Ga18  1  0.137584  0.134643  0.250000  1
  Ga  Ga19  1  0.865207  0.863112  0.750000  1
  Ga  Ga20  1  0.343440  0.544449  0.250000  1
  Ga  Ga21  1  0.544329  0.340162  0.250000  1
  Ir  Ir22  1  0.673625  0.329052  0.997883  1
  Ir  Ir23  1  0.327488  0.670912  0.997976  1
  Ir  Ir24  1  0.327488  0.670912  0.502024  1
  Ir  Ir25  1  0.673625  0.329052  0.502117  1
  Ir  Ir26  1  0.999196  0.001098  0.000333  1
  Ir  Ir27  1  0.999196  0.001098  0.499667  1
