# generated using pymatgen
data_NdErSiPd14
_symmetry_space_group_name_H-M   'P 1'
_cell_length_a   8.95248100
_cell_length_b   8.95248100
_cell_length_c   7.10623100
_cell_angle_alpha   90.00000000
_cell_angle_beta   90.00000000
_cell_angle_gamma   90.00000000
_symmetry_Int_Tables_number   1
_chemical_formula_structural   NdErSiPd14
_chemical_formula_sum   'Nd2 Er2 Si2 Pd28'
_cell_volume   569.54249943
_cell_formula_units_Z   2
loop_
 _symmetry_equiv_pos_site_id
 _symmetry_equiv_pos_as_xyz
  1  'x, y, z'
loop_
 _atom_site_type_symbol
 _atom_site_label
 _atom_site_symmetry_multiplicity
 _atom_site_fract_x
 _atom_site_fract_y
 _atom_site_fract_z
 _atom_site_occupancy
  Nd  Nd0  1  0.500000  0.000000  0.935613  1
  Nd  Nd1  1  0.000000  0.500000  0.064387  1
  Er  Er2  1  0.000000  0.000000  0.500000  1
  Er  Er3  1  0.500000  0.500000  0.500000  1
  Si  Si4  1  0.500000  0.000000  0.447917  1
  Si  Si5  1  0.000000  0.500000  0.552083  1
  Pd  Pd6  1  0.333910  0.833910  0.614202  1
  Pd  Pd7  1  0.333910  0.166090  0.614202  1
  Pd  Pd8  1  0.666090  0.833910  0.614202  1
  Pd  Pd9  1  0.666090  0.166090  0.614202  1
  Pd  Pd10  1  0.166090  0.666090  0.385798  1
  Pd  Pd11  1  0.166090  0.333910  0.385798  1
  Pd  Pd12  1  0.833910  0.666090  0.385798  1
  Pd  Pd13  1  0.833910  0.333910  0.385798  1
  Pd  Pd14  1  0.500000  0.768546  0.258891  1
  Pd  Pd15  1  0.500000  0.231454  0.258891  1
  Pd  Pd16  1  0.268546  0.000000  0.258891  1
  Pd  Pd17  1  0.731454  0.000000  0.258891  1
  Pd  Pd18  1  0.000000  0.731454  0.741109  1
  Pd  Pd19  1  0.000000  0.268546  0.741109  1
  Pd  Pd20  1  0.231454  0.500000  0.741109  1
  Pd  Pd21  1  0.768546  0.500000  0.741109  1
  Pd  Pd22  1  0.500000  0.349903  0.851768  1
  Pd  Pd23  1  0.500000  0.650097  0.851768  1
  Pd  Pd24  1  0.849903  0.000000  0.851768  1
  Pd  Pd25  1  0.150097  0.000000  0.851768  1
  Pd  Pd26  1  0.000000  0.150097  0.148232  1
  Pd  Pd27  1  0.000000  0.849903  0.148232  1
  Pd  Pd28  1  0.650097  0.500000  0.148232  1
  Pd  Pd29  1  0.349903  0.500000  0.148232  1
  Pd  Pd30  1  0.250000  0.750000  0.000000  1
  Pd  Pd31  1  0.250000  0.250000  0.000000  1
  Pd  Pd32  1  0.750000  0.750000  0.000000  1
  Pd  Pd33  1  0.750000  0.250000  0.000000  1
