# generated using pymatgen
data_Y4Sc3TiIr4
_symmetry_space_group_name_H-M   'P 1'
_cell_length_a   4.32014400
_cell_length_b   7.08047153
_cell_length_c   8.53923755
_cell_angle_alpha   91.26512807
_cell_angle_beta   90.00000000
_cell_angle_gamma   90.00000000
_symmetry_Int_Tables_number   1
_chemical_formula_structural   Y4Sc3TiIr4
_chemical_formula_sum   'Y4 Sc3 Ti1 Ir4'
_cell_volume   261.14013207
_cell_formula_units_Z   1
loop_
 _symmetry_equiv_pos_site_id
 _symmetry_equiv_pos_as_xyz
  1  'x, y, z'
loop_
 _atom_site_type_symbol
 _atom_site_label
 _atom_site_symmetry_multiplicity
 _atom_site_fract_x
 _atom_site_fract_y
 _atom_site_fract_z
 _atom_site_occupancy
  Y  Y0  1  0.250000  0.984845  0.328948  1
  Y  Y1  1  0.250000  0.485706  0.173480  1
  Y  Y2  1  0.750000  0.024733  0.679175  1
  Y  Y3  1  0.750000  0.512416  0.815841  1
  Sc  Sc4  1  0.250000  0.858872  0.933654  1
  Sc  Sc5  1  0.750000  0.639030  0.432393  1
  Sc  Sc6  1  0.750000  0.146146  0.069686  1
  Ti  Ti7  1  0.250000  0.361041  0.560591  1
  Ir  Ir8  1  0.250000  0.234760  0.884988  1
  Ir  Ir9  1  0.250000  0.721943  0.603694  1
  Ir  Ir10  1  0.750000  0.764305  0.104338  1
  Ir  Ir11  1  0.750000  0.266205  0.413213  1
