# generated using pymatgen
data_Y4Er8TlCo5
_symmetry_space_group_name_H-M   'P 1'
_cell_length_a   8.23896704
_cell_length_b   8.23896505
_cell_length_c   8.23896700
_cell_angle_alpha   110.89192412
_cell_angle_beta   110.59613873
_cell_angle_gamma   106.95467479
_symmetry_Int_Tables_number   1
_chemical_formula_structural   Y4Er8TlCo5
_chemical_formula_sum   'Y4 Er8 Tl1 Co5'
_cell_volume   429.90047297
_cell_formula_units_Z   1
loop_
 _symmetry_equiv_pos_site_id
 _symmetry_equiv_pos_as_xyz
  1  'x, y, z'
loop_
 _atom_site_type_symbol
 _atom_site_label
 _atom_site_symmetry_multiplicity
 _atom_site_fract_x
 _atom_site_fract_y
 _atom_site_fract_z
 _atom_site_occupancy
  Y  Y0  1  0.289453  0.187103  0.476550  1
  Y  Y1  1  0.710547  0.812897  0.523450  1
  Y  Y2  1  0.289447  0.812897  0.102350  1
  Y  Y3  1  0.710553  0.187103  0.897650  1
  Er  Er4  1  0.620623  0.313565  0.307058  1
  Er  Er5  1  0.379377  0.686435  0.692942  1
  Er  Er6  1  0.006507  0.313565  0.692941  1
  Er  Er7  1  0.993493  0.686435  0.307059  1
  Er  Er8  1  0.209791  0.401689  0.191897  1
  Er  Er9  1  0.790209  0.598311  0.808103  1
  Er  Er10  1  0.209793  0.017893  0.808100  1
  Er  Er11  1  0.790207  0.982107  0.191900  1
  Tl  Tl12  1  0.500000  0.500000  0.000000  1
  Co  Co13  1  0.000000  0.378405  0.378405  1
  Co  Co14  1  0.000000  0.621595  0.621595  1
  Co  Co15  1  0.387353  0.887354  0.500001  1
  Co  Co16  1  0.612647  0.112646  0.499999  1
  Co  Co17  1  0.000000  0.000000  0.000000  1
