# generated using pymatgen
data_MnNb12Cr3(Fe2N)4
_symmetry_space_group_name_H-M   'P 1'
_cell_length_a   8.04845768
_cell_length_b   8.02649750
_cell_length_c   8.02649700
_cell_angle_alpha   59.99999793
_cell_angle_beta   60.09021488
_cell_angle_gamma   60.09021401
_symmetry_Int_Tables_number   1
_chemical_formula_structural   MnNb12Cr3(Fe2N)4
_chemical_formula_sum   'Mn1 Nb12 Cr3 Fe8 N4'
_cell_volume   367.14755360
_cell_formula_units_Z   1
loop_
 _symmetry_equiv_pos_site_id
 _symmetry_equiv_pos_as_xyz
  1  'x, y, z'
loop_
 _atom_site_type_symbol
 _atom_site_label
 _atom_site_symmetry_multiplicity
 _atom_site_fract_x
 _atom_site_fract_y
 _atom_site_fract_z
 _atom_site_occupancy
  Mn  Mn0  1  0.125000  0.625000  0.625000  1
  Nb  Nb1  1  0.804665  0.804078  0.195628  1
  Nb  Nb2  1  0.196179  0.198114  0.802854  1
  Nb  Nb3  1  0.804665  0.195628  0.804078  1
  Nb  Nb4  1  0.196179  0.802854  0.198114  1
  Nb  Nb5  1  0.196179  0.802854  0.802854  1
  Nb  Nb6  1  0.804665  0.195628  0.195628  1
  Nb  Nb7  1  0.445335  0.445922  0.054372  1
  Nb  Nb8  1  0.053821  0.051886  0.447146  1
  Nb  Nb9  1  0.445335  0.054372  0.445922  1
  Nb  Nb10  1  0.053821  0.447146  0.051886  1
  Nb  Nb11  1  0.053821  0.447146  0.447146  1
  Nb  Nb12  1  0.445335  0.054372  0.054372  1
  Cr  Cr13  1  0.625000  0.125000  0.625000  1
  Cr  Cr14  1  0.625000  0.625000  0.125000  1
  Cr  Cr15  1  0.625000  0.625000  0.625000  1
  Fe  Fe16  1  0.727624  0.424126  0.424126  1
  Fe  Fe17  1  0.424633  0.725478  0.424945  1
  Fe  Fe18  1  0.424633  0.424945  0.725478  1
  Fe  Fe19  1  0.424633  0.424945  0.424945  1
  Fe  Fe20  1  0.522376  0.825874  0.825874  1
  Fe  Fe21  1  0.825367  0.524522  0.825055  1
  Fe  Fe22  1  0.825367  0.825055  0.524522  1
  Fe  Fe23  1  0.825367  0.825055  0.825055  1
  N  N24  1  0.625000  0.125000  0.125000  1
  N  N25  1  0.125000  0.625000  0.125000  1
  N  N26  1  0.125000  0.125000  0.625000  1
  N  N27  1  0.125000  0.125000  0.125000  1
