# generated using pymatgen
data_HoLu11Co5Sb
_symmetry_space_group_name_H-M   'P 1'
_cell_length_a   8.07769279
_cell_length_b   8.08361418
_cell_length_c   8.08361361
_cell_angle_alpha   111.11698931
_cell_angle_beta   110.95447787
_cell_angle_gamma   106.41361522
_symmetry_Int_Tables_number   1
_chemical_formula_structural   HoLu11Co5Sb
_chemical_formula_sum   'Ho1 Lu11 Co5 Sb1'
_cell_volume   405.31666105
_cell_formula_units_Z   1
loop_
 _symmetry_equiv_pos_site_id
 _symmetry_equiv_pos_as_xyz
  1  'x, y, z'
loop_
 _atom_site_type_symbol
 _atom_site_label
 _atom_site_symmetry_multiplicity
 _atom_site_fract_x
 _atom_site_fract_y
 _atom_site_fract_z
 _atom_site_occupancy
  Ho  Ho0  1  0.018149  0.212923  0.805227  1
  Lu  Lu1  1  0.814969  0.712822  0.528851  1
  Lu  Lu2  1  0.184103  0.285295  0.468525  1
  Lu  Lu3  1  0.184103  0.715577  0.898808  1
  Lu  Lu4  1  0.814969  0.286119  0.102147  1
  Lu  Lu5  1  0.686768  0.380974  0.692557  1
  Lu  Lu6  1  0.313328  0.620288  0.308146  1
  Lu  Lu7  1  0.686768  0.994211  0.305793  1
  Lu  Lu8  1  0.313328  0.005183  0.693042  1
  Lu  Lu9  1  0.592252  0.787102  0.805150  1
  Lu  Lu10  1  0.408674  0.212676  0.195998  1
  Lu  Lu11  1  0.982722  0.787413  0.195309  1
  Co  Co12  1  0.625511  0.999286  0.626225  1
  Co  Co13  1  0.373235  0.000432  0.372803  1
  Co  Co14  1  0.113464  0.613180  0.500284  1
  Co  Co15  1  0.886116  0.387293  0.498824  1
  Co  Co16  1  0.000311  0.998682  0.001629  1
  Sb  Sb17  1  0.501231  0.500549  0.000683  1
