# generated using pymatgen
data_Dy6HoLuC10
_symmetry_space_group_name_H-M   'P 1'
_cell_length_a   3.66551400
_cell_length_b   6.56744399
_cell_length_c   11.86242133
_cell_angle_alpha   89.82475516
_cell_angle_beta   90.00000000
_cell_angle_gamma   90.00000000
_symmetry_Int_Tables_number   1
_chemical_formula_structural   Dy6HoLuC10
_chemical_formula_sum   'Dy6 Ho1 Lu1 C10'
_cell_volume   285.56341947
_cell_formula_units_Z   1
loop_
 _symmetry_equiv_pos_site_id
 _symmetry_equiv_pos_as_xyz
  1  'x, y, z'
loop_
 _atom_site_type_symbol
 _atom_site_label
 _atom_site_symmetry_multiplicity
 _atom_site_fract_x
 _atom_site_fract_y
 _atom_site_fract_z
 _atom_site_occupancy
  Dy  Dy0  1  0.000000  0.750770  0.456888  1
  Dy  Dy1  1  0.000000  0.748572  0.955578  1
  Dy  Dy2  1  0.500000  0.108603  0.802513  1
  Dy  Dy3  1  0.500000  0.893834  0.197445  1
  Dy  Dy4  1  0.500000  0.604982  0.697572  1
  Dy  Dy5  1  0.500000  0.390720  0.304187  1
  Ho  Ho6  1  0.000000  0.236283  0.042084  1
  Lu  Lu7  1  0.000000  0.266741  0.542061  1
  C  C8  1  0.500000  0.508144  0.501759  1
  C  C9  1  0.500000  0.988215  0.000916  1
  C  C10  1  0.000000  0.363007  0.732865  1
  C  C11  1  0.000000  0.643985  0.261644  1
  C  C12  1  0.000000  0.857636  0.759709  1
  C  C13  1  0.000000  0.134734  0.237676  1
  C  C14  1  0.000000  0.384736  0.845113  1
  C  C15  1  0.000000  0.571333  0.156968  1
  C  C16  1  0.000000  0.116813  0.350271  1
  C  C17  1  0.000000  0.930892  0.654751  1
