# generated using pymatgen
data_Lu3Si3Tc
_symmetry_space_group_name_H-M   'P 1'
_cell_length_a   4.09028500
_cell_length_b   10.70880800
_cell_length_c   12.23082000
_cell_angle_alpha   90.00000000
_cell_angle_beta   90.00000000
_cell_angle_gamma   90.00000000
_symmetry_Int_Tables_number   1
_chemical_formula_structural   Lu3Si3Tc
_chemical_formula_sum   'Lu12 Si12 Tc4'
_cell_volume   535.73531611
_cell_formula_units_Z   4
loop_
 _symmetry_equiv_pos_site_id
 _symmetry_equiv_pos_as_xyz
  1  'x, y, z'
loop_
 _atom_site_type_symbol
 _atom_site_label
 _atom_site_symmetry_multiplicity
 _atom_site_fract_x
 _atom_site_fract_y
 _atom_site_fract_z
 _atom_site_occupancy
  Lu  Lu0  1  0.250000  0.878295  0.019966  1
  Lu  Lu1  1  0.250000  0.621705  0.519966  1
  Lu  Lu2  1  0.750000  0.121705  0.980034  1
  Lu  Lu3  1  0.750000  0.378295  0.480034  1
  Lu  Lu4  1  0.250000  0.922878  0.604894  1
  Lu  Lu5  1  0.250000  0.577122  0.104894  1
  Lu  Lu6  1  0.750000  0.077122  0.395106  1
  Lu  Lu7  1  0.750000  0.422878  0.895106  1
  Lu  Lu8  1  0.250000  0.664137  0.799116  1
  Lu  Lu9  1  0.250000  0.835863  0.299116  1
  Lu  Lu10  1  0.750000  0.335863  0.200884  1
  Lu  Lu11  1  0.750000  0.164137  0.700884  1
  Si  Si12  1  0.250000  0.013342  0.821538  1
  Si  Si13  1  0.250000  0.486658  0.321538  1
  Si  Si14  1  0.750000  0.986658  0.178462  1
  Si  Si15  1  0.750000  0.513342  0.678462  1
  Si  Si16  1  0.250000  0.251043  0.844387  1
  Si  Si17  1  0.250000  0.248957  0.344387  1
  Si  Si18  1  0.750000  0.748957  0.155613  1
  Si  Si19  1  0.750000  0.751043  0.655613  1
  Si  Si20  1  0.250000  0.196816  0.542469  1
  Si  Si21  1  0.250000  0.303184  0.042469  1
  Si  Si22  1  0.750000  0.803184  0.457531  1
  Si  Si23  1  0.750000  0.696816  0.957531  1
  Tc  Tc24  1  0.250000  0.388511  0.679215  1
  Tc  Tc25  1  0.250000  0.111489  0.179215  1
  Tc  Tc26  1  0.750000  0.611489  0.320785  1
  Tc  Tc27  1  0.750000  0.888511  0.820785  1
