# generated using pymatgen
data_LuCdP6Pd20Pb
_symmetry_space_group_name_H-M   'P 1'
_cell_length_a   8.65859728
_cell_length_b   8.65859666
_cell_length_c   8.65859700
_cell_angle_alpha   59.99999488
_cell_angle_beta   59.99999726
_cell_angle_gamma   59.99999359
_symmetry_Int_Tables_number   1
_chemical_formula_structural   LuCdP6Pd20Pb
_chemical_formula_sum   'Lu1 Cd1 P6 Pd20 Pb1'
_cell_volume   459.01569143
_cell_formula_units_Z   1
loop_
 _symmetry_equiv_pos_site_id
 _symmetry_equiv_pos_as_xyz
  1  'x, y, z'
loop_
 _atom_site_type_symbol
 _atom_site_label
 _atom_site_symmetry_multiplicity
 _atom_site_fract_x
 _atom_site_fract_y
 _atom_site_fract_z
 _atom_site_occupancy
  Lu  Lu0  1  0.000000  0.000000  0.000000  1
  Cd  Cd1  1  0.750000  0.750000  0.750000  1
  P  P2  1  0.734663  0.734663  0.265337  1
  P  P3  1  0.265337  0.265337  0.734663  1
  P  P4  1  0.265337  0.734663  0.734663  1
  P  P5  1  0.734663  0.265337  0.734663  1
  P  P6  1  0.265337  0.734663  0.265337  1
  P  P7  1  0.734663  0.265337  0.265337  1
  Pd  Pd8  1  0.617194  0.617194  0.617194  1
  Pd  Pd9  1  0.385103  0.844689  0.385103  1
  Pd  Pd10  1  0.658634  0.344034  0.998667  1
  Pd  Pd11  1  0.998667  0.344034  0.658634  1
  Pd  Pd12  1  0.658634  0.998667  0.998667  1
  Pd  Pd13  1  0.617194  0.617194  0.148419  1
  Pd  Pd14  1  0.998667  0.998667  0.658634  1
  Pd  Pd15  1  0.998667  0.344034  0.998667  1
  Pd  Pd16  1  0.658634  0.998667  0.344034  1
  Pd  Pd17  1  0.344034  0.998667  0.998667  1
  Pd  Pd18  1  0.998667  0.658634  0.998667  1
  Pd  Pd19  1  0.344034  0.998667  0.658634  1
  Pd  Pd20  1  0.998667  0.658634  0.344034  1
  Pd  Pd21  1  0.344034  0.658634  0.998667  1
  Pd  Pd22  1  0.148419  0.617194  0.617194  1
  Pd  Pd23  1  0.385103  0.385103  0.385103  1
  Pd  Pd24  1  0.844689  0.385103  0.385103  1
  Pd  Pd25  1  0.385103  0.385103  0.844689  1
  Pd  Pd26  1  0.617194  0.148419  0.617194  1
  Pd  Pd27  1  0.998667  0.998667  0.344034  1
  Pb  Pb28  1  0.250000  0.250000  0.250000  1
