# generated using pymatgen
data_TbDyFe11NiP7
_symmetry_space_group_name_H-M   'P 1'
_cell_length_a   3.64087900
_cell_length_b   8.97065716
_cell_length_c   8.99819712
_cell_angle_alpha   120.10018119
_cell_angle_beta   90.00000000
_cell_angle_gamma   90.00000000
_symmetry_Int_Tables_number   1
_chemical_formula_structural   TbDyFe11NiP7
_chemical_formula_sum   'Tb1 Dy1 Fe11 Ni1 P7'
_cell_volume   254.25958679
_cell_formula_units_Z   1
loop_
 _symmetry_equiv_pos_site_id
 _symmetry_equiv_pos_as_xyz
  1  'x, y, z'
loop_
 _atom_site_type_symbol
 _atom_site_label
 _atom_site_symmetry_multiplicity
 _atom_site_fract_x
 _atom_site_fract_y
 _atom_site_fract_z
 _atom_site_occupancy
  Tb  Tb0  1  0.500000  0.333753  0.665481  1
  Dy  Dy1  1  0.000000  0.666102  0.333742  1
  Fe  Fe2  1  0.000000  0.057004  0.425901  1
  Fe  Fe3  1  0.000000  0.573369  0.631107  1
  Fe  Fe4  1  0.000000  0.880383  0.728442  1
  Fe  Fe5  1  0.000000  0.273455  0.154859  1
  Fe  Fe6  1  0.000000  0.846305  0.120945  1
  Fe  Fe7  1  0.500000  0.949114  0.565753  1
  Fe  Fe8  1  0.500000  0.434510  0.387026  1
  Fe  Fe9  1  0.500000  0.613797  0.048151  1
  Fe  Fe10  1  0.500000  0.122748  0.900406  1
  Fe  Fe11  1  0.500000  0.096096  0.216072  1
  Fe  Fe12  1  0.500000  0.785662  0.882817  1
  Ni  Ni13  1  0.000000  0.368493  0.938137  1
  P  P14  1  0.000000  0.104064  0.694496  1
  P  P15  1  0.000000  0.298868  0.408709  1
  P  P16  1  0.000000  0.595575  0.888424  1
  P  P17  1  0.500000  0.711187  0.600660  1
  P  P18  1  0.500000  0.401732  0.118716  1
  P  P19  1  0.500000  0.887392  0.289084  1
  P  P20  1  0.000000  0.000392  0.001072  1
