# generated using pymatgen
data_CaCe(BIr)8
_symmetry_space_group_name_H-M   'P 1'
_cell_length_a   3.98685000
_cell_length_b   7.67453700
_cell_length_c   7.67453700
_cell_angle_alpha   90.00000000
_cell_angle_beta   90.00000000
_cell_angle_gamma   90.00000000
_symmetry_Int_Tables_number   1
_chemical_formula_structural   CaCe(BIr)8
_chemical_formula_sum   'Ca1 Ce1 B8 Ir8'
_cell_volume   234.81955714
_cell_formula_units_Z   1
loop_
 _symmetry_equiv_pos_site_id
 _symmetry_equiv_pos_as_xyz
  1  'x, y, z'
loop_
 _atom_site_type_symbol
 _atom_site_label
 _atom_site_symmetry_multiplicity
 _atom_site_fract_x
 _atom_site_fract_y
 _atom_site_fract_z
 _atom_site_occupancy
  Ca  Ca0  1  0.250000  0.250000  0.250000  1
  Ce  Ce1  1  0.750000  0.750000  0.750000  1
  B  B2  1  0.357171  0.907328  0.031225  1
  B  B3  1  0.357171  0.592672  0.468775  1
  B  B4  1  0.862275  0.525761  0.092562  1
  B  B5  1  0.862275  0.974239  0.407438  1
  B  B6  1  0.637725  0.092562  0.974239  1
  B  B7  1  0.637725  0.407438  0.525761  1
  B  B8  1  0.142829  0.468775  0.907328  1
  B  B9  1  0.142829  0.031225  0.592672  1
  Ir  Ir10  1  0.137650  0.410463  0.638740  1
  Ir  Ir11  1  0.137650  0.089537  0.861260  1
  Ir  Ir12  1  0.642682  0.140550  0.593905  1
  Ir  Ir13  1  0.642682  0.359450  0.906095  1
  Ir  Ir14  1  0.857318  0.593905  0.359450  1
  Ir  Ir15  1  0.857318  0.906095  0.140550  1
  Ir  Ir16  1  0.362350  0.861260  0.410463  1
  Ir  Ir17  1  0.362350  0.638740  0.089537  1
