# generated using pymatgen
data_Dy5Si4Tc3(PIr2)8
_symmetry_space_group_name_H-M   'P 1'
_cell_length_a   12.75463094
_cell_length_b   12.74692325
_cell_length_c   3.95303400
_cell_angle_alpha   90.00000000
_cell_angle_beta   90.00000000
_cell_angle_gamma   120.06393429
_symmetry_Int_Tables_number   1
_chemical_formula_structural   Dy5Si4Tc3(PIr2)8
_chemical_formula_sum   'Dy5 Si4 Tc3 P8 Ir16'
_cell_volume   556.22985633
_cell_formula_units_Z   1
loop_
 _symmetry_equiv_pos_site_id
 _symmetry_equiv_pos_as_xyz
  1  'x, y, z'
loop_
 _atom_site_type_symbol
 _atom_site_label
 _atom_site_symmetry_multiplicity
 _atom_site_fract_x
 _atom_site_fract_y
 _atom_site_fract_z
 _atom_site_occupancy
  Dy  Dy0  1  0.333709  0.666368  0.500000  1
  Dy  Dy1  1  0.666711  0.333816  0.500000  1
  Dy  Dy2  1  0.000387  0.812539  0.000000  1
  Dy  Dy3  1  0.186491  0.186690  0.000000  1
  Dy  Dy4  1  0.811429  0.999392  0.000000  1
  Si  Si5  1  0.000405  0.634651  0.500000  1
  Si  Si6  1  0.365461  0.366452  0.500000  1
  Si  Si7  1  0.633580  0.999381  0.500000  1
  Si  Si8  1  0.518578  0.683526  0.000000  1
  Tc  Tc9  1  0.000116  0.448293  0.500000  1
  Tc  Tc10  1  0.552413  0.553024  0.500000  1
  Tc  Tc11  1  0.448257  0.001812  0.500000  1
  P  P12  1  0.315538  0.832576  0.000000  1
  P  P13  1  0.167480  0.481679  0.000000  1
  P  P14  1  0.482162  0.167969  0.000000  1
  P  P15  1  0.685706  0.518287  0.000000  1
  P  P16  1  0.831937  0.314793  0.000000  1
  P  P17  1  0.998521  0.177296  0.500000  1
  P  P18  1  0.821976  0.822087  0.500000  1
  P  P19  1  0.177938  0.999810  0.500000  1
  Ir  Ir20  1  0.509931  0.871093  0.000000  1
  Ir  Ir21  1  0.131804  0.640818  0.000000  1
  Ir  Ir22  1  0.355571  0.485031  0.000000  1
  Ir  Ir23  1  0.491156  0.359167  0.000000  1
  Ir  Ir24  1  0.869157  0.509266  0.000000  1
  Ir  Ir25  1  0.640712  0.132695  0.000000  1
  Ir  Ir26  1  0.998537  0.282319  0.000000  1
  Ir  Ir27  1  0.721660  0.718552  0.000000  1
  Ir  Ir28  1  0.282651  0.000105  0.000000  1
  Ir  Ir29  1  0.626417  0.804675  0.500000  1
  Ir  Ir30  1  0.198077  0.821942  0.500000  1
  Ir  Ir31  1  0.176010  0.374056  0.500000  1
  Ir  Ir32  1  0.374869  0.178496  0.500000  1
  Ir  Ir33  1  0.803008  0.623347  0.500000  1
  Ir  Ir34  1  0.821050  0.197509  0.500000  1
  Ir  Ir35  1  0.000595  0.000486  0.500000  1
