# generated using pymatgen
data_Tb3Hf2Pb3S
_symmetry_space_group_name_H-M   'P 1'
_cell_length_a   9.03030000
_cell_length_b   9.03029932
_cell_length_c   6.28978100
_cell_angle_alpha   90.00000000
_cell_angle_beta   90.00000000
_cell_angle_gamma   119.99999515
_symmetry_Int_Tables_number   1
_chemical_formula_structural   Tb3Hf2Pb3S
_chemical_formula_sum   'Tb6 Hf4 Pb6 S2'
_cell_volume   444.19176378
_cell_formula_units_Z   2
loop_
 _symmetry_equiv_pos_site_id
 _symmetry_equiv_pos_as_xyz
  1  'x, y, z'
loop_
 _atom_site_type_symbol
 _atom_site_label
 _atom_site_symmetry_multiplicity
 _atom_site_fract_x
 _atom_site_fract_y
 _atom_site_fract_z
 _atom_site_occupancy
  Tb  Tb0  1  0.000000  0.248894  0.250000  1
  Tb  Tb1  1  0.751106  0.000000  0.750000  1
  Tb  Tb2  1  0.248894  0.248894  0.750000  1
  Tb  Tb3  1  0.000000  0.751106  0.750000  1
  Tb  Tb4  1  0.751106  0.751106  0.250000  1
  Tb  Tb5  1  0.248894  0.000000  0.250000  1
  Hf  Hf6  1  0.666667  0.333333  0.000000  1
  Hf  Hf7  1  0.333333  0.666667  0.500000  1
  Hf  Hf8  1  0.333333  0.666667  0.000000  1
  Hf  Hf9  1  0.666667  0.333333  0.500000  1
  Pb  Pb10  1  0.600864  0.600864  0.750000  1
  Pb  Pb11  1  0.399136  0.000000  0.750000  1
  Pb  Pb12  1  0.000000  0.600864  0.250000  1
  Pb  Pb13  1  0.399136  0.399136  0.250000  1
  Pb  Pb14  1  0.000000  0.399136  0.750000  1
  Pb  Pb15  1  0.600864  0.000000  0.250000  1
  S  S16  1  0.000000  0.000000  0.000000  1
  S  S17  1  0.000000  0.000000  0.500000  1
