# generated using pymatgen
data_Tm4B12OsRu
_symmetry_space_group_name_H-M   'P 1'
_cell_length_a   3.61865700
_cell_length_b   9.07509737
_cell_length_c   11.44617424
_cell_angle_alpha   89.90131634
_cell_angle_beta   90.00000000
_cell_angle_gamma   90.00000000
_symmetry_Int_Tables_number   1
_chemical_formula_structural   Tm4B12OsRu
_chemical_formula_sum   'Tm8 B24 Os2 Ru2'
_cell_volume   375.88796567
_cell_formula_units_Z   2
loop_
 _symmetry_equiv_pos_site_id
 _symmetry_equiv_pos_as_xyz
  1  'x, y, z'
loop_
 _atom_site_type_symbol
 _atom_site_label
 _atom_site_symmetry_multiplicity
 _atom_site_fract_x
 _atom_site_fract_y
 _atom_site_fract_z
 _atom_site_occupancy
  Tm  Tm0  1  0.000000  0.321966  0.414322  1
  Tm  Tm1  1  0.000000  0.678034  0.585678  1
  Tm  Tm2  1  0.000000  0.821854  0.086118  1
  Tm  Tm3  1  0.000000  0.178146  0.913882  1
  Tm  Tm4  1  0.000000  0.944206  0.372701  1
  Tm  Tm5  1  0.000000  0.055794  0.627299  1
  Tm  Tm6  1  0.000000  0.443504  0.126992  1
  Tm  Tm7  1  0.000000  0.556496  0.873008  1
  B  B8  1  0.500000  0.553661  0.433559  1
  B  B9  1  0.500000  0.446339  0.566441  1
  B  B10  1  0.500000  0.053747  0.066301  1
  B  B11  1  0.500000  0.946253  0.933699  1
  B  B12  1  0.500000  0.748783  0.420183  1
  B  B13  1  0.500000  0.251217  0.579817  1
  B  B14  1  0.500000  0.248419  0.079550  1
  B  B15  1  0.500000  0.751581  0.920450  1
  B  B16  1  0.500000  0.792071  0.265779  1
  B  B17  1  0.500000  0.207929  0.734221  1
  B  B18  1  0.500000  0.291727  0.234084  1
  B  B19  1  0.500000  0.708273  0.765916  1
  B  B20  1  0.500000  0.631576  0.184689  1
  B  B21  1  0.500000  0.368424  0.815311  1
  B  B22  1  0.500000  0.131825  0.315399  1
  B  B23  1  0.500000  0.868175  0.684601  1
  B  B24  1  0.500000  0.982605  0.212890  1
  B  B25  1  0.500000  0.017395  0.787110  1
  B  B26  1  0.500000  0.482219  0.286945  1
  B  B27  1  0.500000  0.517781  0.713055  1
  B  B28  1  0.500000  0.606864  0.029551  1
  B  B29  1  0.500000  0.393136  0.970449  1
  B  B30  1  0.500000  0.106698  0.470495  1
  B  B31  1  0.500000  0.893302  0.529505  1
  Os  Os32  1  0.000000  0.637283  0.321374  1
  Os  Os33  1  0.000000  0.362717  0.678626  1
  Ru  Ru34  1  0.000000  0.137411  0.178918  1
  Ru  Ru35  1  0.000000  0.862589  0.821082  1
