# generated using pymatgen
data_Ac3PrIN2Cl5
_symmetry_space_group_name_H-M   'P 1'
_cell_length_a   8.91446727
_cell_length_b   8.60604112
_cell_length_c   8.60604161
_cell_angle_alpha   136.34515276
_cell_angle_beta   131.80986738
_cell_angle_gamma   66.43817752
_symmetry_Int_Tables_number   1
_chemical_formula_structural   Ac3PrIN2Cl5
_chemical_formula_sum   'Ac3 Pr1 I1 N2 Cl5'
_cell_volume   335.30918193
_cell_formula_units_Z   1
loop_
 _symmetry_equiv_pos_site_id
 _symmetry_equiv_pos_as_xyz
  1  'x, y, z'
loop_
 _atom_site_type_symbol
 _atom_site_label
 _atom_site_symmetry_multiplicity
 _atom_site_fract_x
 _atom_site_fract_y
 _atom_site_fract_z
 _atom_site_occupancy
  Ac  Ac0  1  0.079671  0.902781  0.176890  1
  Ac  Ac1  1  0.892375  0.090414  0.801961  1
  Ac  Ac2  1  0.270943  0.593518  0.677425  1
  Pr  Pr3  1  0.759327  0.419341  0.339985  1
  I  I4  1  0.398677  0.203649  0.195029  1
  N  N5  1  0.999075  0.750290  0.746709  1
  N  N6  1  0.999075  0.252366  0.248784  1
  Cl  Cl7  1  0.631260  0.804129  0.827130  1
  Cl  Cl8  1  0.494727  0.244479  0.754049  1
  Cl  Cl9  1  0.494727  0.740679  0.250248  1
  Cl  Cl10  1  0.003221  0.695717  0.307503  1
  Cl  Cl11  1  0.976922  0.302636  0.674285  1
