# generated using pymatgen
data_CrRh(OF8)2
_symmetry_space_group_name_H-M   'P 1'
_cell_length_a   5.49784308
_cell_length_b   5.80386929
_cell_length_c   10.48942948
_cell_angle_alpha   89.48362529
_cell_angle_beta   92.65513656
_cell_angle_gamma   89.88909618
_symmetry_Int_Tables_number   1
_chemical_formula_structural   CrRh(OF8)2
_chemical_formula_sum   'Cr1 Rh1 O2 F16'
_cell_volume   334.33088840
_cell_formula_units_Z   1
loop_
 _symmetry_equiv_pos_site_id
 _symmetry_equiv_pos_as_xyz
  1  'x, y, z'
loop_
 _atom_site_type_symbol
 _atom_site_label
 _atom_site_symmetry_multiplicity
 _atom_site_fract_x
 _atom_site_fract_y
 _atom_site_fract_z
 _atom_site_occupancy
  Cr  Cr0  1  0.000000  0.000000  0.500000  1
  Rh  Rh1  1  0.000000  0.000000  0.000000  1
  O  O2  1  0.540999  0.559723  0.750443  1
  O  O3  1  0.459001  0.440277  0.249557  1
  F  F4  1  0.730192  0.049480  0.099589  1
  F  F5  1  0.269808  0.950520  0.900411  1
  F  F6  1  0.719387  0.969062  0.412957  1
  F  F7  1  0.280613  0.030938  0.587043  1
  F  F8  1  0.389423  0.467721  0.843261  1
  F  F9  1  0.610577  0.532279  0.156739  1
  F  F10  1  0.408894  0.531599  0.632973  1
  F  F11  1  0.591106  0.468401  0.367027  1
  F  F12  1  0.855834  0.728220  0.936158  1
  F  F13  1  0.144166  0.271780  0.063842  1
  F  F14  1  0.889759  0.826537  0.624070  1
  F  F15  1  0.110241  0.173463  0.375930  1
  F  F16  1  0.848368  0.169644  0.865372  1
  F  F17  1  0.151632  0.830356  0.134628  1
  F  F18  1  0.887779  0.249173  0.573764  1
  F  F19  1  0.112221  0.750827  0.426236  1
