# generated using pymatgen
data_Y11ThTcRh3
_symmetry_space_group_name_H-M   'P 1'
_cell_length_a   6.40037159
_cell_length_b   7.27499172
_cell_length_c   9.45119800
_cell_angle_alpha   90.00000000
_cell_angle_beta   90.00000000
_cell_angle_gamma   89.41520709
_symmetry_Int_Tables_number   1
_chemical_formula_structural   Y11ThTcRh3
_chemical_formula_sum   'Y11 Th1 Tc1 Rh3'
_cell_volume   440.04990571
_cell_formula_units_Z   1
loop_
 _symmetry_equiv_pos_site_id
 _symmetry_equiv_pos_as_xyz
  1  'x, y, z'
loop_
 _atom_site_type_symbol
 _atom_site_label
 _atom_site_symmetry_multiplicity
 _atom_site_fract_x
 _atom_site_fract_y
 _atom_site_fract_z
 _atom_site_occupancy
  Y  Y0  1  0.357951  0.959650  0.750000  1
  Y  Y1  1  0.135118  0.462933  0.750000  1
  Y  Y2  1  0.873633  0.532349  0.250000  1
  Y  Y3  1  0.169989  0.176086  0.063660  1
  Y  Y4  1  0.827112  0.823062  0.935788  1
  Y  Y5  1  0.669170  0.326738  0.937714  1
  Y  Y6  1  0.827112  0.823062  0.564212  1
  Y  Y7  1  0.329520  0.677102  0.066616  1
  Y  Y8  1  0.169989  0.176086  0.436340  1
  Y  Y9  1  0.329520  0.677102  0.433384  1
  Y  Y10  1  0.669170  0.326738  0.562286  1
  Th  Th11  1  0.642385  0.053062  0.250000  1
  Tc  Tc12  1  0.465656  0.369240  0.250000  1
  Rh  Rh13  1  0.549313  0.617596  0.750000  1
  Rh  Rh14  1  0.950014  0.115821  0.750000  1
  Rh  Rh15  1  0.034348  0.883377  0.250000  1
