# generated using pymatgen
data_Pr2Dy14Cd4IrPd2Pt
_symmetry_space_group_name_H-M   'P 1'
_cell_length_a   9.73904339
_cell_length_b   9.71445631
_cell_length_c   9.69542000
_cell_angle_alpha   60.06480824
_cell_angle_beta   60.14806815
_cell_angle_gamma   59.97799278
_symmetry_Int_Tables_number   1
_chemical_formula_structural   Pr2Dy14Cd4IrPd2Pt
_chemical_formula_sum   'Pr2 Dy14 Cd4 Ir1 Pd2 Pt1'
_cell_volume   649.54655538
_cell_formula_units_Z   1
loop_
 _symmetry_equiv_pos_site_id
 _symmetry_equiv_pos_as_xyz
  1  'x, y, z'
loop_
 _atom_site_type_symbol
 _atom_site_label
 _atom_site_symmetry_multiplicity
 _atom_site_fract_x
 _atom_site_fract_y
 _atom_site_fract_z
 _atom_site_occupancy
  Pr  Pr0  1  0.570223  0.567754  0.931011  1
  Pr  Pr1  1  0.932956  0.932670  0.567187  1
  Dy  Dy2  1  0.354494  0.350438  0.344857  1
  Dy  Dy3  1  0.354494  0.350438  0.950211  1
  Dy  Dy4  1  0.356644  0.942924  0.350216  1
  Dy  Dy5  1  0.936329  0.356516  0.353578  1
  Dy  Dy6  1  0.807400  0.188971  0.188129  1
  Dy  Dy7  1  0.190567  0.809688  0.811106  1
  Dy  Dy8  1  0.190567  0.809688  0.188641  1
  Dy  Dy9  1  0.807400  0.188971  0.815499  1
  Dy  Dy10  1  0.192178  0.189446  0.809188  1
  Dy  Dy11  1  0.808768  0.814053  0.188589  1
  Dy  Dy12  1  0.940193  0.561183  0.560968  1
  Dy  Dy13  1  0.563375  0.939728  0.938897  1
  Dy  Dy14  1  0.563375  0.939728  0.557997  1
  Dy  Dy15  1  0.940193  0.561183  0.937656  1
  Cd  Cd16  1  0.581488  0.582217  0.578810  1
  Cd  Cd17  1  0.581488  0.582217  0.257483  1
  Cd  Cd18  1  0.576333  0.256142  0.583762  1
  Cd  Cd19  1  0.257483  0.576562  0.582977  1
  Ir  Ir20  1  0.571415  0.137916  0.145335  1
  Pd  Pd21  1  0.142524  0.145592  0.143186  1
  Pd  Pd22  1  0.142524  0.145592  0.568697  1
  Pt  Pt23  1  0.137587  0.570377  0.146018  1
