# generated using pymatgen
data_YHo2In3Ga2Pd
_symmetry_space_group_name_H-M   'P 1'
_cell_length_a   7.24568402
_cell_length_b   7.24483102
_cell_length_c   4.43220600
_cell_angle_alpha   90.00000000
_cell_angle_beta   90.00000000
_cell_angle_gamma   119.99609692
_symmetry_Int_Tables_number   1
_chemical_formula_structural   YHo2In3Ga2Pd
_chemical_formula_sum   'Y1 Ho2 In3 Ga2 Pd1'
_cell_volume   201.50011540
_cell_formula_units_Z   1
loop_
 _symmetry_equiv_pos_site_id
 _symmetry_equiv_pos_as_xyz
  1  'x, y, z'
loop_
 _atom_site_type_symbol
 _atom_site_label
 _atom_site_symmetry_multiplicity
 _atom_site_fract_x
 _atom_site_fract_y
 _atom_site_fract_z
 _atom_site_occupancy
  Y  Y0  1  0.000000  0.587433  0.000000  1
  Ho  Ho1  1  0.411923  0.411829  0.000000  1
  Ho  Ho2  1  0.588077  0.999906  0.000000  1
  In  In3  1  0.750235  0.750438  0.500000  1
  In  In4  1  0.000000  0.249358  0.500000  1
  In  In5  1  0.249765  0.000203  0.500000  1
  Ga  Ga6  1  0.334018  0.666798  0.500000  1
  Ga  Ga7  1  0.665982  0.332779  0.500000  1
  Pd  Pd8  1  0.000000  0.001256  0.000000  1
