# generated using pymatgen
data_Hf16Nb4Si15As
_symmetry_space_group_name_H-M   'P 1'
_cell_length_a   6.78078280
_cell_length_b   6.94227169
_cell_length_c   13.39613278
_cell_angle_alpha   89.96662995
_cell_angle_beta   89.58088533
_cell_angle_gamma   90.04918391
_symmetry_Int_Tables_number   1
_chemical_formula_structural   Hf16Nb4Si15As
_chemical_formula_sum   'Hf16 Nb4 Si15 As1'
_cell_volume   630.59283068
_cell_formula_units_Z   1
loop_
 _symmetry_equiv_pos_site_id
 _symmetry_equiv_pos_as_xyz
  1  'x, y, z'
loop_
 _atom_site_type_symbol
 _atom_site_label
 _atom_site_symmetry_multiplicity
 _atom_site_fract_x
 _atom_site_fract_y
 _atom_site_fract_z
 _atom_site_occupancy
  Hf  Hf0  1  0.336133  0.675575  0.875849  1
  Hf  Hf1  1  0.836338  0.825685  0.875455  1
  Hf  Hf2  1  0.659518  0.329051  0.374742  1
  Hf  Hf3  1  0.000234  0.675558  0.094112  1
  Hf  Hf4  1  0.489274  0.820351  0.402706  1
  Hf  Hf5  1  0.500564  0.175530  0.905388  1
  Hf  Hf6  1  0.503316  0.179956  0.597484  1
  Hf  Hf7  1  0.999822  0.324356  0.905632  1
  Hf  Hf8  1  0.164212  0.174573  0.124191  1
  Hf  Hf9  1  0.160787  0.172550  0.376563  1
  Hf  Hf10  1  0.997103  0.674086  0.405067  1
  Hf  Hf11  1  0.664305  0.324820  0.124121  1
  Hf  Hf12  1  0.499331  0.825048  0.094223  1
  Hf  Hf13  1  0.006271  0.324863  0.595880  1
  Hf  Hf14  1  0.339033  0.672293  0.624701  1
  Hf  Hf15  1  0.841499  0.826370  0.624218  1
  Nb  Nb16  1  0.664919  0.501695  0.749915  1
  Nb  Nb17  1  0.165348  0.998576  0.749338  1
  Nb  Nb18  1  0.334860  0.498421  0.250351  1
  Nb  Nb19  1  0.834424  0.001703  0.248754  1
  Si  Si20  1  0.676383  0.531593  0.538378  1
  Si  Si21  1  0.171187  0.970020  0.961350  1
  Si  Si22  1  0.297550  0.359345  0.751456  1
  Si  Si23  1  0.829491  0.030098  0.038417  1
  Si  Si24  1  0.329558  0.469613  0.038463  1
  Si  Si25  1  0.460115  0.104863  0.249933  1
  Si  Si26  1  0.702393  0.641695  0.248897  1
  Si  Si27  1  0.961663  0.394994  0.250138  1
  Si  Si28  1  0.798540  0.141467  0.750508  1
  Si  Si29  1  0.670893  0.530367  0.961244  1
  Si  Si30  1  0.188592  0.968464  0.539292  1
  Si  Si31  1  0.038895  0.604599  0.750562  1
  Si  Si32  1  0.323917  0.467172  0.462304  1
  Si  Si33  1  0.540126  0.895006  0.749645  1
  Si  Si34  1  0.200575  0.858261  0.249051  1
  As  As35  1  0.812833  0.031383  0.461667  1
