# generated using pymatgen
data_Yb5ThIr3
_symmetry_space_group_name_H-M   'P 1'
_cell_length_a   7.56312383
_cell_length_b   7.78904344
_cell_length_c   4.28480600
_cell_angle_alpha   90.00000000
_cell_angle_beta   90.00000000
_cell_angle_gamma   120.99314094
_symmetry_Int_Tables_number   1
_chemical_formula_structural   Yb5ThIr3
_chemical_formula_sum   'Yb5 Th1 Ir3'
_cell_volume   216.37811390
_cell_formula_units_Z   1
loop_
 _symmetry_equiv_pos_site_id
 _symmetry_equiv_pos_as_xyz
  1  'x, y, z'
loop_
 _atom_site_type_symbol
 _atom_site_label
 _atom_site_symmetry_multiplicity
 _atom_site_fract_x
 _atom_site_fract_y
 _atom_site_fract_z
 _atom_site_occupancy
  Yb  Yb0  1  0.588098  0.587445  0.500000  1
  Yb  Yb1  1  0.411902  0.999347  0.500000  1
  Yb  Yb2  1  0.000000  0.762612  0.000000  1
  Yb  Yb3  1  0.268788  0.254430  0.000000  1
  Yb  Yb4  1  0.731212  0.985642  0.000000  1
  Th  Th5  1  0.000000  0.411281  0.500000  1
  Ir  Ir6  1  0.300248  0.638731  0.000000  1
  Ir  Ir7  1  0.699752  0.338482  0.000000  1
  Ir  Ir8  1  0.000000  0.022028  0.500000  1
