# generated using pymatgen
data_CaV4Co5O16
_symmetry_space_group_name_H-M   'P 1'
_cell_length_a   8.80812926
_cell_length_b   5.38983994
_cell_length_c   9.10751080
_cell_angle_alpha   61.36959972
_cell_angle_beta   90.07770708
_cell_angle_gamma   90.39300264
_symmetry_Int_Tables_number   1
_chemical_formula_structural   CaV4Co5O16
_chemical_formula_sum   'Ca1 V4 Co5 O16'
_cell_volume   379.49700865
_cell_formula_units_Z   1
loop_
 _symmetry_equiv_pos_site_id
 _symmetry_equiv_pos_as_xyz
  1  'x, y, z'
loop_
 _atom_site_type_symbol
 _atom_site_label
 _atom_site_symmetry_multiplicity
 _atom_site_fract_x
 _atom_site_fract_y
 _atom_site_fract_z
 _atom_site_occupancy
  Ca  Ca0  1  0.000000  0.500000  0.500000  1
  V  V1  1  0.309059  0.853086  0.188118  1
  V  V2  1  0.787623  0.146907  0.295748  1
  V  V3  1  0.690941  0.146914  0.811882  1
  V  V4  1  0.212377  0.853093  0.704252  1
  Co  Co5  1  0.136476  0.474962  0.104164  1
  Co  Co6  1  0.626905  0.500347  0.390496  1
  Co  Co7  1  0.863524  0.525038  0.895836  1
  Co  Co8  1  0.373095  0.499653  0.609504  1
  Co  Co9  1  0.500000  0.500000  0.000000  1
  O  O10  1  0.073626  0.692481  0.863557  1
  O  O11  1  0.571631  0.303598  0.635189  1
  O  O12  1  0.926374  0.307519  0.136443  1
  O  O13  1  0.428369  0.696402  0.364811  1
  O  O14  1  0.218061  0.216305  0.639433  1
  O  O15  1  0.699901  0.778332  0.885699  1
  O  O16  1  0.781939  0.783695  0.360567  1
  O  O17  1  0.300099  0.221668  0.114301  1
  O  O18  1  0.158038  0.809022  0.537815  1
  O  O19  1  0.622801  0.217006  0.963868  1
  O  O20  1  0.133520  0.671144  0.242261  1
  O  O21  1  0.615166  0.334241  0.234687  1
  O  O22  1  0.866480  0.328856  0.757739  1
  O  O23  1  0.384834  0.665759  0.765313  1
  O  O24  1  0.377199  0.782994  0.036132  1
  O  O25  1  0.841962  0.190978  0.462185  1
