# generated using pymatgen
data_Dy4Y12Cd4OsPt3
_symmetry_space_group_name_H-M   'P 1'
_cell_length_a   9.72892003
_cell_length_b   9.72892079
_cell_length_c   9.72892061
_cell_angle_alpha   59.65240395
_cell_angle_beta   59.65240639
_cell_angle_gamma   59.65240423
_symmetry_Int_Tables_number   1
_chemical_formula_structural   Dy4Y12Cd4OsPt3
_chemical_formula_sum   'Dy4 Y12 Cd4 Os1 Pt3'
_cell_volume   646.00418695
_cell_formula_units_Z   1
loop_
 _symmetry_equiv_pos_site_id
 _symmetry_equiv_pos_as_xyz
  1  'x, y, z'
loop_
 _atom_site_type_symbol
 _atom_site_label
 _atom_site_symmetry_multiplicity
 _atom_site_fract_x
 _atom_site_fract_y
 _atom_site_fract_z
 _atom_site_occupancy
  Dy  Dy0  1  0.351753  0.351753  0.351753  1
  Dy  Dy1  1  0.349623  0.349623  0.948295  1
  Dy  Dy2  1  0.349623  0.948295  0.349623  1
  Dy  Dy3  1  0.948295  0.349623  0.349623  1
  Y  Y4  1  0.814656  0.189148  0.189148  1
  Y  Y5  1  0.189370  0.809545  0.809545  1
  Y  Y6  1  0.189148  0.814656  0.189148  1
  Y  Y7  1  0.809545  0.189370  0.809545  1
  Y  Y8  1  0.189148  0.189148  0.814656  1
  Y  Y9  1  0.809545  0.809545  0.189370  1
  Y  Y10  1  0.935748  0.564925  0.564925  1
  Y  Y11  1  0.558790  0.937563  0.937563  1
  Y  Y12  1  0.564925  0.935748  0.564925  1
  Y  Y13  1  0.937563  0.558790  0.937563  1
  Y  Y14  1  0.564925  0.564925  0.935748  1
  Y  Y15  1  0.937563  0.937563  0.558790  1
  Cd  Cd16  1  0.580534  0.580534  0.580534  1
  Cd  Cd17  1  0.581157  0.581157  0.254689  1
  Cd  Cd18  1  0.581157  0.254689  0.581157  1
  Cd  Cd19  1  0.254689  0.581157  0.581157  1
  Os  Os20  1  0.143573  0.143573  0.143573  1
  Pt  Pt21  1  0.143903  0.143903  0.570867  1
  Pt  Pt22  1  0.143903  0.570867  0.143903  1
  Pt  Pt23  1  0.570867  0.143903  0.143903  1
