# generated using pymatgen
data_Zr8Fe6CoSi14Ir
_symmetry_space_group_name_H-M   'P 1'
_cell_length_a   9.58124424
_cell_length_b   9.58984021
_cell_length_c   9.59772548
_cell_angle_alpha   94.13484249
_cell_angle_beta   94.08503069
_cell_angle_gamma   148.92375597
_symmetry_Int_Tables_number   1
_chemical_formula_structural   Zr8Fe6CoSi14Ir
_chemical_formula_sum   'Zr8 Fe6 Co1 Si14 Ir1'
_cell_volume   438.60456885
_cell_formula_units_Z   1
loop_
 _symmetry_equiv_pos_site_id
 _symmetry_equiv_pos_as_xyz
  1  'x, y, z'
loop_
 _atom_site_type_symbol
 _atom_site_label
 _atom_site_symmetry_multiplicity
 _atom_site_fract_x
 _atom_site_fract_y
 _atom_site_fract_z
 _atom_site_occupancy
  Zr  Zr0  1  0.138213  0.138220  0.276434  1
  Zr  Zr1  1  0.862291  0.862302  0.724610  1
  Zr  Zr2  1  0.861511  0.137038  0.000770  1
  Zr  Zr3  1  0.139264  0.863728  0.000772  1
  Zr  Zr4  1  0.499321  0.302504  0.804093  1
  Zr  Zr5  1  0.500834  0.697203  0.197095  1
  Zr  Zr6  1  0.696248  0.499872  0.197059  1
  Zr  Zr7  1  0.304756  0.501568  0.804058  1
  Fe  Fe8  1  0.104292  0.604301  0.208602  1
  Fe  Fe9  1  0.103982  0.898736  0.500957  1
  Fe  Fe10  1  0.396974  0.602204  0.500943  1
  Fe  Fe11  1  0.600051  0.396984  0.497214  1
  Fe  Fe12  1  0.897144  0.100205  0.497214  1
  Fe  Fe13  1  0.898572  0.398591  0.797081  1
  Co  Co14  1  0.600867  0.100878  0.201724  1
  Si  Si15  1  0.522757  0.114108  0.587767  1
  Si  Si16  1  0.494681  0.904352  0.406505  1
  Si  Si17  1  0.911818  0.502155  0.406516  1
  Si  Si18  1  0.065020  0.473664  0.587775  1
  Si  Si19  1  0.750360  0.750138  0.000567  1
  Si  Si20  1  0.250202  0.250410  0.000557  1
  Si  Si21  1  0.289855  0.289864  0.579746  1
  Si  Si22  1  0.710402  0.710404  0.420769  1
  Si  Si23  1  0.726890  0.306133  0.005485  1
  Si  Si24  1  0.278594  0.699363  0.005476  1
  Si  Si25  1  0.998610  0.301615  0.299443  1
  Si  Si26  1  0.984607  0.687848  0.698881  1
  Si  Si27  1  0.714278  0.011016  0.698867  1
  Si  Si28  1  0.300840  0.997821  0.299441  1
  Ir  Ir29  1  0.396769  0.896775  0.793583  1
