# generated using pymatgen
data_Pr8Y9Tm3Ga16
_symmetry_space_group_name_H-M   'P 1'
_cell_length_a   7.71177100
_cell_length_b   8.01203742
_cell_length_c   15.25725500
_cell_angle_alpha   90.00000000
_cell_angle_beta   90.00000000
_cell_angle_gamma   90.01845013
_symmetry_Int_Tables_number   1
_chemical_formula_structural   Pr8Y9Tm3Ga16
_chemical_formula_sum   'Pr8 Y9 Tm3 Ga16'
_cell_volume   942.69993211
_cell_formula_units_Z   1
loop_
 _symmetry_equiv_pos_site_id
 _symmetry_equiv_pos_as_xyz
  1  'x, y, z'
loop_
 _atom_site_type_symbol
 _atom_site_label
 _atom_site_symmetry_multiplicity
 _atom_site_fract_x
 _atom_site_fract_y
 _atom_site_fract_z
 _atom_site_occupancy
  Pr  Pr0  1  0.023590  0.179192  0.404223  1
  Pr  Pr1  1  0.523577  0.320878  0.404311  1
  Pr  Pr2  1  0.476901  0.679729  0.904891  1
  Pr  Pr3  1  0.476901  0.679729  0.595109  1
  Pr  Pr4  1  0.976093  0.821483  0.595273  1
  Pr  Pr5  1  0.976093  0.821483  0.904727  1
  Pr  Pr6  1  0.523577  0.320878  0.095689  1
  Pr  Pr7  1  0.023590  0.179192  0.095777  1
  Y  Y8  1  0.321794  0.176574  0.621855  1
  Y  Y9  1  0.678525  0.822889  0.377853  1
  Y  Y10  1  0.178560  0.677200  0.377716  1
  Y  Y11  1  0.820988  0.322173  0.878325  1
  Y  Y12  1  0.820988  0.322173  0.621675  1
  Y  Y13  1  0.321794  0.176574  0.878145  1
  Y  Y14  1  0.178560  0.677200  0.122284  1
  Y  Y15  1  0.678525  0.822889  0.122147  1
  Y  Y16  1  0.154522  0.512965  0.750000  1
  Tm  Tm17  1  0.654766  0.987796  0.750000  1
  Tm  Tm18  1  0.845641  0.487692  0.250000  1
  Tm  Tm19  1  0.345555  0.012395  0.250000  1
  Ga  Ga20  1  0.271178  0.879789  0.750000  1
  Ga  Ga21  1  0.474829  0.609540  0.250000  1
  Ga  Ga22  1  0.024997  0.109411  0.750000  1
  Ga  Ga23  1  0.526606  0.388968  0.750000  1
  Ga  Ga24  1  0.149344  0.470417  0.540957  1
  Ga  Ga25  1  0.974702  0.890376  0.250000  1
  Ga  Ga26  1  0.729230  0.121778  0.250000  1
  Ga  Ga27  1  0.850636  0.529292  0.041513  1
  Ga  Ga28  1  0.350646  0.970600  0.041546  1
  Ga  Ga29  1  0.149344  0.470417  0.959043  1
  Ga  Ga30  1  0.649242  0.029116  0.541363  1
  Ga  Ga31  1  0.350646  0.970600  0.458454  1
  Ga  Ga32  1  0.850636  0.529292  0.458487  1
  Ga  Ga33  1  0.768809  0.621999  0.750000  1
  Ga  Ga34  1  0.229374  0.378207  0.250000  1
  Ga  Ga35  1  0.649242  0.029116  0.958637  1
