# generated using pymatgen
data_La3ZnCd3Pd2
_symmetry_space_group_name_H-M   'P 1'
_cell_length_a   7.84623900
_cell_length_b   7.84623899
_cell_length_c   4.13822400
_cell_angle_alpha   90.00000000
_cell_angle_beta   90.00000000
_cell_angle_gamma   120.00000425
_symmetry_Int_Tables_number   1
_chemical_formula_structural   La3ZnCd3Pd2
_chemical_formula_sum   'La3 Zn1 Cd3 Pd2'
_cell_volume   220.63157911
_cell_formula_units_Z   1
loop_
 _symmetry_equiv_pos_site_id
 _symmetry_equiv_pos_as_xyz
  1  'x, y, z'
loop_
 _atom_site_type_symbol
 _atom_site_label
 _atom_site_symmetry_multiplicity
 _atom_site_fract_x
 _atom_site_fract_y
 _atom_site_fract_z
 _atom_site_occupancy
  La  La0  1  0.411532  0.411532  0.500000  1
  La  La1  1  0.588468  0.000000  0.500000  1
  La  La2  1  0.000000  0.588468  0.500000  1
  Zn  Zn3  1  0.000000  0.000000  0.500000  1
  Cd  Cd4  1  0.751741  0.751741  0.000000  1
  Cd  Cd5  1  0.248259  0.000000  0.000000  1
  Cd  Cd6  1  0.000000  0.248259  0.000000  1
  Pd  Pd7  1  0.666667  0.333333  0.000000  1
  Pd  Pd8  1  0.333333  0.666667  0.000000  1
