# generated using pymatgen
data_LaEu2TaO7
_symmetry_space_group_name_H-M   'P 1'
_cell_length_a   6.64738664
_cell_length_b   6.64738648
_cell_length_c   7.76854600
_cell_angle_alpha   90.00000000
_cell_angle_beta   90.00000000
_cell_angle_gamma   111.29922933
_symmetry_Int_Tables_number   1
_chemical_formula_structural   LaEu2TaO7
_chemical_formula_sum   'La2 Eu4 Ta2 O14'
_cell_volume   319.82756724
_cell_formula_units_Z   2
loop_
 _symmetry_equiv_pos_site_id
 _symmetry_equiv_pos_as_xyz
  1  'x, y, z'
loop_
 _atom_site_type_symbol
 _atom_site_label
 _atom_site_symmetry_multiplicity
 _atom_site_fract_x
 _atom_site_fract_y
 _atom_site_fract_z
 _atom_site_occupancy
  La  La0  1  0.000000  0.000000  0.000000  1
  La  La1  1  0.000000  0.000000  0.500000  1
  Eu  Eu2  1  0.481132  0.946065  0.750000  1
  Eu  Eu3  1  0.518868  0.053935  0.250000  1
  Eu  Eu4  1  0.946065  0.481132  0.750000  1
  Eu  Eu5  1  0.053935  0.518868  0.250000  1
  Ta  Ta6  1  0.500000  0.500000  0.000000  1
  Ta  Ta7  1  0.500000  0.500000  0.500000  1
  O  O8  1  0.842832  0.113996  0.750000  1
  O  O9  1  0.157168  0.886004  0.250000  1
  O  O10  1  0.113996  0.842832  0.750000  1
  O  O11  1  0.886004  0.157168  0.250000  1
  O  O12  1  0.434679  0.182532  0.968862  1
  O  O13  1  0.565321  0.817468  0.468862  1
  O  O14  1  0.182532  0.434679  0.531138  1
  O  O15  1  0.817468  0.565321  0.031138  1
  O  O16  1  0.437734  0.437734  0.250000  1
  O  O17  1  0.562266  0.562266  0.750000  1
  O  O18  1  0.182532  0.434679  0.968862  1
  O  O19  1  0.817468  0.565321  0.468862  1
  O  O20  1  0.434679  0.182532  0.531138  1
  O  O21  1  0.565321  0.817468  0.031138  1
