# generated using pymatgen
data_Nd19TmSi15Te
_symmetry_space_group_name_H-M   'P 1'
_cell_length_a   7.83119196
_cell_length_b   7.92151866
_cell_length_c   15.20668900
_cell_angle_alpha   89.56162238
_cell_angle_beta   85.05708002
_cell_angle_gamma   89.76186399
_symmetry_Int_Tables_number   1
_chemical_formula_structural   Nd19TmSi15Te
_chemical_formula_sum   'Nd19 Tm1 Si15 Te1'
_cell_volume   939.80436414
_cell_formula_units_Z   1
loop_
 _symmetry_equiv_pos_site_id
 _symmetry_equiv_pos_as_xyz
  1  'x, y, z'
loop_
 _atom_site_type_symbol
 _atom_site_label
 _atom_site_symmetry_multiplicity
 _atom_site_fract_x
 _atom_site_fract_y
 _atom_site_fract_z
 _atom_site_occupancy
  Nd  Nd0  1  0.871388  0.326840  0.624549  1
  Nd  Nd1  1  0.465853  0.689918  0.895323  1
  Nd  Nd2  1  0.965736  0.811926  0.896643  1
  Nd  Nd3  1  0.177666  0.678375  0.119494  1
  Nd  Nd4  1  0.678506  0.817718  0.120492  1
  Nd  Nd5  1  0.322053  0.179458  0.879846  1
  Nd  Nd6  1  0.147321  0.664260  0.383418  1
  Nd  Nd7  1  0.035292  0.187302  0.102197  1
  Nd  Nd8  1  0.363319  0.167552  0.616652  1
  Nd  Nd9  1  0.833256  0.492449  0.245776  1
  Nd  Nd10  1  0.330135  0.004304  0.251300  1
  Nd  Nd11  1  0.479973  0.311015  0.394358  1
  Nd  Nd12  1  0.823577  0.321589  0.878889  1
  Nd  Nd13  1  0.010358  0.825248  0.604347  1
  Nd  Nd14  1  0.498528  0.688954  0.606998  1
  Nd  Nd15  1  0.992487  0.171866  0.395761  1
  Nd  Nd16  1  0.632504  0.847965  0.381700  1
  Nd  Nd17  1  0.667494  0.994156  0.745409  1
  Nd  Nd18  1  0.534974  0.309584  0.102663  1
  Tm  Tm19  1  0.171977  0.509921  0.746713  1
  Si  Si20  1  0.452105  0.600871  0.249412  1
  Si  Si21  1  0.220820  0.375564  0.247712  1
  Si  Si22  1  0.544994  0.400134  0.752453  1
  Si  Si23  1  0.637650  0.025020  0.957414  1
  Si  Si24  1  0.049059  0.104052  0.753591  1
  Si  Si25  1  0.780711  0.622477  0.752489  1
  Si  Si26  1  0.722405  0.122933  0.246514  1
  Si  Si27  1  0.286343  0.970217  0.455733  1
  Si  Si28  1  0.951998  0.894693  0.248442  1
  Si  Si29  1  0.366306  0.973031  0.042242  1
  Si  Si30  1  0.713897  0.031520  0.543341  1
  Si  Si31  1  0.137451  0.476526  0.954608  1
  Si  Si32  1  0.212353  0.477976  0.551318  1
  Si  Si33  1  0.865853  0.524051  0.041219  1
  Si  Si34  1  0.273740  0.874979  0.752615  1
  Te  Te35  1  0.781914  0.525557  0.458367  1
