# generated using pymatgen
data_Sr3Yb7
_symmetry_space_group_name_H-M   'P 1'
_cell_length_a   15.75071686
_cell_length_b   15.75071651
_cell_length_c   6.23815000
_cell_angle_alpha   90.00000000
_cell_angle_beta   90.00000000
_cell_angle_gamma   164.15578090
_symmetry_Int_Tables_number   1
_chemical_formula_structural   Sr3Yb7
_chemical_formula_sum   'Sr3 Yb7'
_cell_volume   422.52784119
_cell_formula_units_Z   1
loop_
 _symmetry_equiv_pos_site_id
 _symmetry_equiv_pos_as_xyz
  1  'x, y, z'
loop_
 _atom_site_type_symbol
 _atom_site_label
 _atom_site_symmetry_multiplicity
 _atom_site_fract_x
 _atom_site_fract_y
 _atom_site_fract_z
 _atom_site_occupancy
  Sr  Sr0  1  0.000000  0.000000  0.000000  1
  Sr  Sr1  1  0.801918  0.198083  0.000000  1
  Sr  Sr2  1  0.198083  0.801918  0.000000  1
  Yb  Yb3  1  0.599152  0.400849  0.000000  1
  Yb  Yb4  1  0.400849  0.599152  0.000000  1
  Yb  Yb5  1  0.901224  0.098776  0.499999  1
  Yb  Yb6  1  0.699081  0.300919  0.499999  1
  Yb  Yb7  1  0.500000  0.500000  0.499999  1
  Yb  Yb8  1  0.300919  0.699081  0.499999  1
  Yb  Yb9  1  0.098776  0.901224  0.499999  1
