# generated using pymatgen
data_Lu16In3AgPt3Rh
_symmetry_space_group_name_H-M   'P 1'
_cell_length_a   9.44588248
_cell_length_b   9.45052921
_cell_length_c   9.45052902
_cell_angle_alpha   60.15746380
_cell_angle_beta   60.27221539
_cell_angle_gamma   60.27221185
_symmetry_Int_Tables_number   1
_chemical_formula_structural   Lu16In3AgPt3Rh
_chemical_formula_sum   'Lu16 In3 Ag1 Pt3 Rh1'
_cell_volume   599.69838235
_cell_formula_units_Z   1
loop_
 _symmetry_equiv_pos_site_id
 _symmetry_equiv_pos_as_xyz
  1  'x, y, z'
loop_
 _atom_site_type_symbol
 _atom_site_label
 _atom_site_symmetry_multiplicity
 _atom_site_fract_x
 _atom_site_fract_y
 _atom_site_fract_z
 _atom_site_occupancy
  Lu  Lu0  1  0.600723  0.598587  0.598587  1
  Lu  Lu1  1  0.607518  0.602861  0.189606  1
  Lu  Lu2  1  0.607518  0.189606  0.602861  1
  Lu  Lu3  1  0.183962  0.606901  0.606901  1
  Lu  Lu4  1  0.057785  0.440491  0.440491  1
  Lu  Lu5  1  0.442141  0.059977  0.059977  1
  Lu  Lu6  1  0.441667  0.059094  0.440968  1
  Lu  Lu7  1  0.058233  0.440592  0.064052  1
  Lu  Lu8  1  0.441667  0.440968  0.059094  1
  Lu  Lu9  1  0.058233  0.064052  0.440592  1
  Lu  Lu10  1  0.180836  0.814172  0.814172  1
  Lu  Lu11  1  0.810971  0.187856  0.187856  1
  Lu  Lu12  1  0.814992  0.181088  0.813336  1
  Lu  Lu13  1  0.189583  0.809374  0.187854  1
  Lu  Lu14  1  0.814992  0.813336  0.181088  1
  Lu  Lu15  1  0.189583  0.187854  0.809374  1
  In  In16  1  0.833440  0.834289  0.500834  1
  In  In17  1  0.833440  0.500834  0.834289  1
  In  In18  1  0.500852  0.833832  0.833832  1
  Ag  Ag19  1  0.835123  0.835672  0.835672  1
  Pt  Pt20  1  0.393471  0.395048  0.395048  1
  Pt  Pt21  1  0.390563  0.391399  0.820677  1
  Pt  Pt22  1  0.390563  0.820677  0.391399  1
  Rh  Rh23  1  0.822144  0.391440  0.391440  1
