# generated using pymatgen
data_Ca9Pr3(SiIr)8
_symmetry_space_group_name_H-M   'P 1'
_cell_length_a   5.84911665
_cell_length_b   7.78603604
_cell_length_c   13.26731200
_cell_angle_alpha   90.00000000
_cell_angle_beta   90.00000000
_cell_angle_gamma   90.21980029
_symmetry_Int_Tables_number   1
_chemical_formula_structural   Ca9Pr3(SiIr)8
_chemical_formula_sum   'Ca9 Pr3 Si8 Ir8'
_cell_volume   604.20795523
_cell_formula_units_Z   1
loop_
 _symmetry_equiv_pos_site_id
 _symmetry_equiv_pos_as_xyz
  1  'x, y, z'
loop_
 _atom_site_type_symbol
 _atom_site_label
 _atom_site_symmetry_multiplicity
 _atom_site_fract_x
 _atom_site_fract_y
 _atom_site_fract_z
 _atom_site_occupancy
  Ca  Ca0  1  0.630786  0.235827  0.250000  1
  Ca  Ca1  1  0.125254  0.382449  0.100399  1
  Ca  Ca2  1  0.871841  0.612442  0.901248  1
  Ca  Ca3  1  0.871841  0.612442  0.598752  1
  Ca  Ca4  1  0.867558  0.892168  0.399360  1
  Ca  Ca5  1  0.125254  0.382449  0.399601  1
  Ca  Ca6  1  0.131456  0.111584  0.600640  1
  Ca  Ca7  1  0.131456  0.111584  0.899360  1
  Ca  Ca8  1  0.867558  0.892168  0.100640  1
  Pr  Pr9  1  0.368441  0.765229  0.750000  1
  Pr  Pr10  1  0.367005  0.731664  0.250000  1
  Pr  Pr11  1  0.632878  0.266308  0.750000  1
  Si  Si12  1  0.158833  0.084497  0.250000  1
  Si  Si13  1  0.849839  0.910174  0.750000  1
  Si  Si14  1  0.846550  0.582481  0.250000  1
  Si  Si15  1  0.152233  0.411180  0.750000  1
  Si  Si16  1  0.581154  0.251552  0.000181  1
  Si  Si17  1  0.420037  0.751312  0.998939  1
  Si  Si18  1  0.420037  0.751312  0.501061  1
  Si  Si19  1  0.581154  0.251552  0.499819  1
  Ir  Ir20  1  0.364196  0.023364  0.090818  1
  Ir  Ir21  1  0.638823  0.978252  0.909579  1
  Ir  Ir22  1  0.638823  0.978252  0.590421  1
  Ir  Ir23  1  0.634160  0.526039  0.408917  1
  Ir  Ir24  1  0.364196  0.023364  0.409182  1
  Ir  Ir25  1  0.362239  0.477158  0.589512  1
  Ir  Ir26  1  0.362239  0.477158  0.910488  1
  Ir  Ir27  1  0.634160  0.526039  0.091083  1
