# generated using pymatgen
data_NbTlS2O9
_symmetry_space_group_name_H-M   'P 1'
_cell_length_a   17.32243100
_cell_length_b   8.71444900
_cell_length_c   5.22696300
_cell_angle_alpha   90.00000000
_cell_angle_beta   90.00000000
_cell_angle_gamma   90.00000000
_symmetry_Int_Tables_number   1
_chemical_formula_structural   NbTlS2O9
_chemical_formula_sum   'Nb4 Tl4 S8 O36'
_cell_volume   789.03850740
_cell_formula_units_Z   4
loop_
 _symmetry_equiv_pos_site_id
 _symmetry_equiv_pos_as_xyz
  1  'x, y, z'
loop_
 _atom_site_type_symbol
 _atom_site_label
 _atom_site_symmetry_multiplicity
 _atom_site_fract_x
 _atom_site_fract_y
 _atom_site_fract_z
 _atom_site_occupancy
  Nb  Nb0  1  0.313271  0.063317  0.250002  1
  Nb  Nb1  1  0.813271  0.436682  0.250002  1
  Nb  Nb2  1  0.186729  0.563317  0.750001  1
  Nb  Nb3  1  0.686729  0.936683  0.750001  1
  Tl  Tl4  1  0.066848  0.164016  0.250002  1
  Tl  Tl5  1  0.566848  0.335984  0.250002  1
  Tl  Tl6  1  0.433152  0.664016  0.750001  1
  Tl  Tl7  1  0.933152  0.835983  0.750001  1
  S  S8  1  0.803539  0.035455  0.250002  1
  S  S9  1  0.303540  0.464546  0.250002  1
  S  S10  1  0.064066  0.628032  0.250002  1
  S  S11  1  0.564066  0.871969  0.250002  1
  S  S12  1  0.435934  0.128032  0.750001  1
  S  S13  1  0.935934  0.371968  0.750001  1
  S  S14  1  0.696460  0.535454  0.750001  1
  S  S15  1  0.196461  0.964545  0.750001  1
  O  O16  1  0.274697  0.553178  0.018622  1
  O  O17  1  0.774696  0.946822  0.018622  1
  O  O18  1  0.118205  0.654328  0.022508  1
  O  O19  1  0.618205  0.845673  0.022508  1
  O  O20  1  0.535780  0.027964  0.250002  1
  O  O21  1  0.886946  0.034029  0.250002  1
  O  O22  1  0.765813  0.186303  0.250002  1
  O  O23  1  0.265813  0.313696  0.250002  1
  O  O24  1  0.386946  0.465972  0.250002  1
  O  O25  1  0.035780  0.472037  0.250002  1
  O  O26  1  0.844187  0.626086  0.250002  1
  O  O27  1  0.507688  0.748886  0.250002  1
  O  O28  1  0.007688  0.751114  0.250002  1
  O  O29  1  0.344187  0.873914  0.250002  1
  O  O30  1  0.118205  0.654328  0.477492  1
  O  O31  1  0.618205  0.845673  0.477492  1
  O  O32  1  0.274697  0.553178  0.481378  1
  O  O33  1  0.774696  0.946822  0.481378  1
  O  O34  1  0.225303  0.053177  0.518621  1
  O  O35  1  0.725303  0.446822  0.518621  1
  O  O36  1  0.381795  0.154329  0.522507  1
  O  O37  1  0.881795  0.345672  0.522507  1
  O  O38  1  0.655813  0.126086  0.750001  1
  O  O39  1  0.992312  0.248887  0.750001  1
  O  O40  1  0.492312  0.251113  0.750001  1
  O  O41  1  0.155813  0.373913  0.750001  1
  O  O42  1  0.964220  0.527965  0.750001  1
  O  O43  1  0.613054  0.534028  0.750001  1
  O  O44  1  0.734187  0.686303  0.750001  1
  O  O45  1  0.234187  0.813697  0.750001  1
  O  O46  1  0.113054  0.965973  0.750001  1
  O  O47  1  0.464220  0.972035  0.750001  1
  O  O48  1  0.381795  0.154329  0.977492  1
  O  O49  1  0.881795  0.345672  0.977492  1
  O  O50  1  0.225303  0.053177  0.981378  1
  O  O51  1  0.725303  0.446822  0.981378  1
