# generated using pymatgen
data_MnV11P7
_symmetry_space_group_name_H-M   'P 1'
_cell_length_a   9.22564522
_cell_length_b   9.26162665
_cell_length_c   3.24590600
_cell_angle_alpha   90.00000000
_cell_angle_beta   90.00000000
_cell_angle_gamma   120.04975201
_symmetry_Int_Tables_number   1
_chemical_formula_structural   MnV11P7
_chemical_formula_sum   'Mn1 V11 P7'
_cell_volume   240.06709914
_cell_formula_units_Z   1
loop_
 _symmetry_equiv_pos_site_id
 _symmetry_equiv_pos_as_xyz
  1  'x, y, z'
loop_
 _atom_site_type_symbol
 _atom_site_label
 _atom_site_symmetry_multiplicity
 _atom_site_fract_x
 _atom_site_fract_y
 _atom_site_fract_z
 _atom_site_occupancy
  Mn  Mn0  1  0.264165  0.250322  0.500000  1
  V  V1  1  0.203079  0.984545  0.000000  1
  V  V2  1  0.129368  0.614301  0.000000  1
  V  V3  1  0.005753  0.212800  0.000000  1
  V  V4  1  0.487359  0.868398  0.000000  1
  V  V5  1  0.382499  0.516576  0.000000  1
  V  V6  1  0.802272  0.807807  0.000000  1
  V  V7  1  0.620180  0.490843  0.500000  1
  V  V8  1  0.500266  0.131289  0.500000  1
  V  V9  1  0.984906  0.734403  0.500000  1
  V  V10  1  0.871779  0.373570  0.500000  1
  V  V11  1  0.751826  0.017764  0.500000  1
  P  P12  1  0.281774  0.834769  0.500000  1
  P  P13  1  0.164899  0.440888  0.500000  1
  P  P14  1  0.560177  0.719163  0.500000  1
  P  P15  1  0.447528  0.286389  0.000000  1
  P  P16  1  0.009526  0.007940  0.500000  1
  P  P17  1  0.825785  0.535968  0.000000  1
  P  P18  1  0.706858  0.172267  0.000000  1
