# generated using pymatgen
data_Ti10(GaBi)3
_symmetry_space_group_name_H-M   'P 1'
_cell_length_a   5.23172951
_cell_length_b   7.88460535
_cell_length_c   7.94012706
_cell_angle_alpha   83.72499574
_cell_angle_beta   70.76469502
_cell_angle_gamma   70.62385129
_symmetry_Int_Tables_number   1
_chemical_formula_structural   Ti10(GaBi)3
_chemical_formula_sum   'Ti10 Ga3 Bi3'
_cell_volume   291.73085976
_cell_formula_units_Z   1
loop_
 _symmetry_equiv_pos_site_id
 _symmetry_equiv_pos_as_xyz
  1  'x, y, z'
loop_
 _atom_site_type_symbol
 _atom_site_label
 _atom_site_symmetry_multiplicity
 _atom_site_fract_x
 _atom_site_fract_y
 _atom_site_fract_z
 _atom_site_occupancy
  Ti  Ti0  1  0.707370  0.874303  0.710957  1
  Ti  Ti1  1  0.282577  0.138942  0.295903  1
  Ti  Ti2  1  0.775299  0.289532  0.159870  1
  Ti  Ti3  1  0.210552  0.717684  0.861214  1
  Ti  Ti4  1  0.571764  0.717684  0.138786  1
  Ti  Ti5  1  0.435170  0.289532  0.840130  1
  Ti  Ti6  1  0.078480  0.138942  0.704097  1
  Ti  Ti7  1  0.918327  0.874303  0.289043  1
  Ti  Ti8  1  0.755119  0.476484  0.500000  1
  Ti  Ti9  1  0.268397  0.476484  0.500000  1
  Ga  Ga10  1  0.666610  0.166780  0.500000  1
  Ga  Ga11  1  0.246372  0.007257  0.000000  1
  Ga  Ga12  1  0.746372  0.007257  0.000000  1
  Bi  Bi13  1  0.164336  0.502137  0.169192  1
  Bi  Bi14  1  0.833528  0.502137  0.830808  1
  Bi  Bi15  1  0.339728  0.820543  0.500000  1
