# generated using pymatgen
data_Li4ScNi9As7
_symmetry_space_group_name_H-M   'P 1'
_cell_length_a   9.38405100
_cell_length_b   9.38404990
_cell_length_c   3.80094400
_cell_angle_alpha   90.00000000
_cell_angle_beta   90.00000000
_cell_angle_gamma   120.00000740
_symmetry_Int_Tables_number   1
_chemical_formula_structural   Li4ScNi9As7
_chemical_formula_sum   'Li4 Sc1 Ni9 As7'
_cell_volume   289.86964486
_cell_formula_units_Z   1
loop_
 _symmetry_equiv_pos_site_id
 _symmetry_equiv_pos_as_xyz
  1  'x, y, z'
loop_
 _atom_site_type_symbol
 _atom_site_label
 _atom_site_symmetry_multiplicity
 _atom_site_fract_x
 _atom_site_fract_y
 _atom_site_fract_z
 _atom_site_occupancy
  Li  Li0  1  0.768989  0.546356  0.500000  1
  Li  Li1  1  0.453644  0.222633  0.500000  1
  Li  Li2  1  0.777367  0.231011  0.500000  1
  Li  Li3  1  0.000000  0.000000  0.500000  1
  Sc  Sc4  1  0.333333  0.666667  0.000000  1
  Ni  Ni5  1  0.274951  0.375975  0.500000  1
  Ni  Ni6  1  0.624025  0.898975  0.500000  1
  Ni  Ni7  1  0.101025  0.725049  0.500000  1
  Ni  Ni8  1  0.494151  0.452047  0.000000  1
  Ni  Ni9  1  0.547953  0.042104  0.000000  1
  Ni  Ni10  1  0.957896  0.505849  0.000000  1
  Ni  Ni11  1  0.714339  0.761858  0.000000  1
  Ni  Ni12  1  0.238142  0.952481  0.000000  1
  Ni  Ni13  1  0.047519  0.285661  0.000000  1
  As  As14  1  0.961483  0.756778  0.000000  1
  As  As15  1  0.243222  0.204705  0.000000  1
  As  As16  1  0.795295  0.038517  0.000000  1
  As  As17  1  0.666667  0.333333  0.000000  1
  As  As18  1  0.538567  0.619907  0.500000  1
  As  As19  1  0.380093  0.918660  0.500000  1
  As  As20  1  0.081340  0.461433  0.500000  1
