# generated using pymatgen
data_Tb2Er2Al24Pt8Au
_symmetry_space_group_name_H-M   'P 1'
_cell_length_a   7.54582805
_cell_length_b   7.56417173
_cell_length_c   13.15997004
_cell_angle_alpha   84.54803646
_cell_angle_beta   79.02275811
_cell_angle_gamma   59.88993946
_symmetry_Int_Tables_number   1
_chemical_formula_structural   Tb2Er2Al24Pt8Au
_chemical_formula_sum   'Tb2 Er2 Al24 Pt8 Au1'
_cell_volume   637.89777682
_cell_formula_units_Z   1
loop_
 _symmetry_equiv_pos_site_id
 _symmetry_equiv_pos_as_xyz
  1  'x, y, z'
loop_
 _atom_site_type_symbol
 _atom_site_label
 _atom_site_symmetry_multiplicity
 _atom_site_fract_x
 _atom_site_fract_y
 _atom_site_fract_z
 _atom_site_occupancy
  Tb  Tb0  1  0.734227  0.498970  0.808728  1
  Tb  Tb1  1  0.266837  0.501124  0.191439  1
  Er  Er2  1  0.392803  0.169211  0.808483  1
  Er  Er3  1  0.605906  0.831864  0.192619  1
  Al  Al4  1  0.683040  0.834473  0.945575  1
  Al  Al5  1  0.315781  0.165723  0.055781  1
  Al  Al6  1  0.146922  0.838836  0.559884  1
  Al  Al7  1  0.854213  0.167242  0.436641  1
  Al  Al8  1  0.488029  0.159810  0.557567  1
  Al  Al9  1  0.520110  0.833536  0.439748  1
  Al  Al10  1  0.217761  0.164992  0.329411  1
  Al  Al11  1  0.777424  0.839344  0.672640  1
  Al  Al12  1  0.440578  0.506766  0.672737  1
  Al  Al13  1  0.562777  0.493722  0.329200  1
  Al  Al14  1  0.109328  0.154503  0.671540  1
  Al  Al15  1  0.889924  0.839900  0.330451  1
  Al  Al16  1  0.352960  0.498864  0.945232  1
  Al  Al17  1  0.647538  0.500687  0.055953  1
  Al  Al18  1  0.015463  0.167416  0.954122  1
  Al  Al19  1  0.983930  0.832717  0.047216  1
  Al  Al20  1  0.188055  0.499575  0.436539  1
  Al  Al21  1  0.807107  0.500123  0.557411  1
  Al  Al22  1  0.734299  0.163541  0.183713  1
  Al  Al23  1  0.266576  0.835842  0.816524  1
  Al  Al24  1  0.060931  0.633206  0.817864  1
  Al  Al25  1  0.938080  0.369039  0.185084  1
  Al  Al26  1  0.854165  0.041861  0.816070  1
  Al  Al27  1  0.144680  0.958520  0.184123  1
  Pt  Pt28  1  0.879030  0.508541  0.361519  1
  Pt  Pt29  1  0.657433  0.171211  0.999490  1
  Pt  Pt30  1  0.342796  0.828578  0.999737  1
  Pt  Pt31  1  0.537691  0.166359  0.361548  1
  Pt  Pt32  1  0.462303  0.833624  0.637835  1
  Pt  Pt33  1  0.779243  0.174874  0.636566  1
  Pt  Pt34  1  0.221192  0.824974  0.362724  1
  Pt  Pt35  1  0.999939  0.499940  0.000286  1
  Au  Au36  1  0.120932  0.490487  0.638006  1
