# generated using pymatgen
data_Li3(ZrS2)4
_symmetry_space_group_name_H-M   'P 1'
_cell_length_a   7.21099246
_cell_length_b   7.21099214
_cell_length_c   8.93880454
_cell_angle_alpha   52.81607203
_cell_angle_beta   52.81606804
_cell_angle_gamma   59.97586683
_symmetry_Int_Tables_number   1
_chemical_formula_structural   Li3(ZrS2)4
_chemical_formula_sum   'Li3 Zr4 S8'
_cell_volume   288.26505353
_cell_formula_units_Z   1
loop_
 _symmetry_equiv_pos_site_id
 _symmetry_equiv_pos_as_xyz
  1  'x, y, z'
loop_
 _atom_site_type_symbol
 _atom_site_label
 _atom_site_symmetry_multiplicity
 _atom_site_fract_x
 _atom_site_fract_y
 _atom_site_fract_z
 _atom_site_occupancy
  Li  Li0  1  0.000000  0.500000  0.500000  1
  Li  Li1  1  0.500000  0.000000  0.500000  1
  Li  Li2  1  0.500000  0.500000  0.500000  1
  Zr  Zr3  1  0.753004  0.246996  0.000000  1
  Zr  Zr4  1  0.246996  0.753004  0.000000  1
  Zr  Zr5  1  0.244750  0.244750  0.008678  1
  Zr  Zr6  1  0.755250  0.755250  0.991322  1
  S  S7  1  0.959059  0.466034  0.243460  1
  S  S8  1  0.466034  0.959059  0.243460  1
  S  S9  1  0.461602  0.461602  0.245890  1
  S  S10  1  0.958633  0.958633  0.248169  1
  S  S11  1  0.041367  0.041367  0.751831  1
  S  S12  1  0.538398  0.538398  0.754110  1
  S  S13  1  0.533966  0.040941  0.756540  1
  S  S14  1  0.040941  0.533966  0.756540  1
