# generated using pymatgen
data_Ac4Rh6O19
_symmetry_space_group_name_H-M   'P 1'
_cell_length_a   7.98208509
_cell_length_b   7.98208493
_cell_length_c   7.98208500
_cell_angle_alpha   109.47122081
_cell_angle_beta   109.47122042
_cell_angle_gamma   109.47122125
_symmetry_Int_Tables_number   1
_chemical_formula_structural   Ac4Rh6O19
_chemical_formula_sum   'Ac4 Rh6 O19'
_cell_volume   391.49584008
_cell_formula_units_Z   1
loop_
 _symmetry_equiv_pos_site_id
 _symmetry_equiv_pos_as_xyz
  1  'x, y, z'
loop_
 _atom_site_type_symbol
 _atom_site_label
 _atom_site_symmetry_multiplicity
 _atom_site_fract_x
 _atom_site_fract_y
 _atom_site_fract_z
 _atom_site_occupancy
  Ac  Ac0  1  0.000000  0.000000  0.328484  1
  Ac  Ac1  1  0.000000  0.328484  0.000000  1
  Ac  Ac2  1  0.671516  0.671516  0.671516  1
  Ac  Ac3  1  0.328484  0.000000  0.000000  1
  Rh  Rh4  1  0.339679  0.500000  0.839679  1
  Rh  Rh5  1  0.839679  0.339679  0.500000  1
  Rh  Rh6  1  0.500000  0.160321  0.660321  1
  Rh  Rh7  1  0.160321  0.660321  0.500000  1
  Rh  Rh8  1  0.500000  0.839679  0.339679  1
  Rh  Rh9  1  0.660321  0.500000  0.160321  1
  O  O10  1  0.352711  0.000000  0.352711  1
  O  O11  1  0.352711  0.352711  0.000000  1
  O  O12  1  0.000000  0.647289  0.647289  1
  O  O13  1  0.647289  0.647289  0.000000  1
  O  O14  1  0.000000  0.352711  0.352711  1
  O  O15  1  0.647289  0.000000  0.647289  1
  O  O16  1  0.000000  0.000000  0.000000  1
  O  O17  1  0.356865  0.318526  0.612015  1
  O  O18  1  0.038340  0.293489  0.681474  1
  O  O19  1  0.744850  0.387985  0.706511  1
  O  O20  1  0.387985  0.706511  0.744850  1
  O  O21  1  0.255150  0.961660  0.643135  1
  O  O22  1  0.612015  0.356865  0.318526  1
  O  O23  1  0.318526  0.612015  0.356865  1
  O  O24  1  0.681474  0.038340  0.293489  1
  O  O25  1  0.961660  0.643135  0.255150  1
  O  O26  1  0.706511  0.744850  0.387985  1
  O  O27  1  0.643135  0.255150  0.961660  1
  O  O28  1  0.293489  0.681474  0.038340  1
