# generated using pymatgen
data_Ta3NbSi2(PRh2)2
_symmetry_space_group_name_H-M   'P 1'
_cell_length_a   3.75581700
_cell_length_b   6.39756701
_cell_length_c   7.29213401
_cell_angle_alpha   90.00463635
_cell_angle_beta   90.00000000
_cell_angle_gamma   90.00000000
_symmetry_Int_Tables_number   1
_chemical_formula_structural   Ta3NbSi2(PRh2)2
_chemical_formula_sum   'Ta3 Nb1 Si2 P2 Rh4'
_cell_volume   175.21605830
_cell_formula_units_Z   1
loop_
 _symmetry_equiv_pos_site_id
 _symmetry_equiv_pos_as_xyz
  1  'x, y, z'
loop_
 _atom_site_type_symbol
 _atom_site_label
 _atom_site_symmetry_multiplicity
 _atom_site_fract_x
 _atom_site_fract_y
 _atom_site_fract_z
 _atom_site_occupancy
  Ta  Ta0  1  0.250000  0.525936  0.672155  1
  Ta  Ta1  1  0.750000  0.970745  0.167616  1
  Ta  Ta2  1  0.750000  0.471000  0.332338  1
  Nb  Nb3  1  0.250000  0.025763  0.828908  1
  Si  Si4  1  0.250000  0.766120  0.374060  1
  Si  Si5  1  0.250000  0.265206  0.125837  1
  P  P6  1  0.750000  0.237474  0.626238  1
  P  P7  1  0.750000  0.737206  0.873802  1
  Rh  Rh8  1  0.250000  0.146594  0.439058  1
  Rh  Rh9  1  0.250000  0.645172  0.061090  1
  Rh  Rh10  1  0.750000  0.852253  0.563468  1
  Rh  Rh11  1  0.750000  0.356529  0.935430  1
