# generated using pymatgen
data_Cs2VZn2Fe(PO3)12
_symmetry_space_group_name_H-M   'P 1'
_cell_length_a   6.43974117
_cell_length_b   15.98059344
_cell_length_c   8.57664500
_cell_angle_alpha   80.03133690
_cell_angle_beta   103.81831740
_cell_angle_gamma   88.95732819
_symmetry_Int_Tables_number   1
_chemical_formula_structural   Cs2VZn2Fe(PO3)12
_chemical_formula_sum   'Cs2 V1 Zn2 Fe1 P12 O36'
_cell_volume   842.50769616
_cell_formula_units_Z   1
loop_
 _symmetry_equiv_pos_site_id
 _symmetry_equiv_pos_as_xyz
  1  'x, y, z'
loop_
 _atom_site_type_symbol
 _atom_site_label
 _atom_site_symmetry_multiplicity
 _atom_site_fract_x
 _atom_site_fract_y
 _atom_site_fract_z
 _atom_site_occupancy
  Cs  Cs0  1  0.071181  0.474251  0.487314  1
  Cs  Cs1  1  0.571753  0.974356  0.987920  1
  V  V2  1  0.891053  0.111620  0.667759  1
  Zn  Zn3  1  0.617317  0.388409  0.837772  1
  Zn  Zn4  1  0.117375  0.888463  0.337403  1
  Fe  Fe5  1  0.390513  0.611583  0.167062  1
  P  P6  1  0.896840  0.204579  0.981279  1
  P  P7  1  0.396429  0.704252  0.480060  1
  P  P8  1  0.008638  0.092583  0.315852  1
  P  P9  1  0.508075  0.592753  0.816040  1
  P  P10  1  0.599871  0.296038  0.516856  1
  P  P11  1  0.100769  0.795719  0.017474  1
  P  P12  1  0.488975  0.408428  0.182315  1
  P  P13  1  0.989678  0.907592  0.682374  1
  P  P14  1  0.143244  0.357659  0.923311  1
  P  P15  1  0.643300  0.857169  0.423334  1
  P  P16  1  0.356826  0.142239  0.571097  1
  P  P17  1  0.856840  0.642129  0.070925  1
  O  O18  1  0.925977  0.174750  0.175462  1
  O  O19  1  0.424656  0.674248  0.674398  1
  O  O20  1  0.575563  0.326331  0.324499  1
  O  O21  1  0.077542  0.825773  0.825004  1
  O  O22  1  0.692077  0.258070  0.918213  1
  O  O23  1  0.191761  0.757746  0.417830  1
  O  O24  1  0.871048  0.091982  0.436171  1
  O  O25  1  0.371716  0.592881  0.937073  1
  O  O26  1  0.800067  0.237109  0.577075  1
  O  O27  1  0.300661  0.736724  0.079903  1
  O  O28  1  0.639974  0.415336  0.073960  1
  O  O29  1  0.140141  0.915087  0.573513  1
  O  O30  1  0.296565  0.363044  0.816209  1
  O  O31  1  0.796676  0.862747  0.316251  1
  O  O32  1  0.570038  0.093195  0.640902  1
  O  O33  1  0.070767  0.593158  0.140239  1
  O  O34  1  0.205365  0.132948  0.681504  1
  O  O35  1  0.704360  0.632182  0.180779  1
  O  O36  1  0.935948  0.409910  0.856866  1
  O  O37  1  0.436315  0.909650  0.357329  1
  O  O38  1  0.919985  0.127609  0.903770  1
  O  O39  1  0.421642  0.627881  0.401053  1
  O  O40  1  0.020337  0.016717  0.238396  1
  O  O41  1  0.519381  0.516665  0.739167  1
  O  O42  1  0.580592  0.372111  0.592199  1
  O  O43  1  0.080642  0.872016  0.091993  1
  O  O44  1  0.453705  0.484848  0.258462  1
  O  O45  1  0.952437  0.983796  0.758500  1
  O  O46  1  0.105660  0.257847  0.978372  1
  O  O47  1  0.605387  0.757458  0.478013  1
  O  O48  1  0.249417  0.116370  0.398734  1
  O  O49  1  0.748940  0.616646  0.898333  1
  O  O50  1  0.389081  0.241650  0.518533  1
  O  O51  1  0.889486  0.741524  0.019155  1
  O  O52  1  0.255612  0.380279  0.100527  1
  O  O53  1  0.756403  0.879299  0.600863  1
