# generated using pymatgen
data_Tm12Co2Cu3Sn
_symmetry_space_group_name_H-M   'P 1'
_cell_length_a   8.24924097
_cell_length_b   8.24924105
_cell_length_c   8.24924066
_cell_angle_alpha   110.07294760
_cell_angle_beta   111.70815196
_cell_angle_gamma   106.67273795
_symmetry_Int_Tables_number   1
_chemical_formula_structural   Tm12Co2Cu3Sn
_chemical_formula_sum   'Tm12 Co2 Cu3 Sn1'
_cell_volume   431.27463901
_cell_formula_units_Z   1
loop_
 _symmetry_equiv_pos_site_id
 _symmetry_equiv_pos_as_xyz
  1  'x, y, z'
loop_
 _atom_site_type_symbol
 _atom_site_label
 _atom_site_symmetry_multiplicity
 _atom_site_fract_x
 _atom_site_fract_y
 _atom_site_fract_z
 _atom_site_occupancy
  Tm  Tm0  1  0.287965  0.180369  0.468334  1
  Tm  Tm1  1  0.712035  0.819631  0.531666  1
  Tm  Tm2  1  0.287965  0.819631  0.107596  1
  Tm  Tm3  1  0.712035  0.180369  0.892404  1
  Tm  Tm4  1  0.617177  0.311495  0.305683  1
  Tm  Tm5  1  0.382823  0.688505  0.694317  1
  Tm  Tm6  1  0.005811  0.311495  0.694317  1
  Tm  Tm7  1  0.994189  0.688505  0.305683  1
  Tm  Tm8  1  0.228027  0.423134  0.195108  1
  Tm  Tm9  1  0.771973  0.576866  0.804892  1
  Tm  Tm10  1  0.228027  0.032919  0.804892  1
  Tm  Tm11  1  0.771973  0.967081  0.195108  1
  Co  Co12  1  0.385650  0.885650  0.500000  1
  Co  Co13  1  0.614350  0.114350  0.500000  1
  Cu  Cu14  1  0.000000  0.362137  0.362137  1
  Cu  Cu15  1  0.000000  0.637863  0.637863  1
  Cu  Cu16  1  0.000000  0.000000  0.000000  1
  Sn  Sn17  1  0.500000  0.500000  0.000000  1
