# generated using pymatgen
data_Na2Sr(CoP)6
_symmetry_space_group_name_H-M   'P 1'
_cell_length_a   5.20591822
_cell_length_b   6.49880724
_cell_length_c   8.31243042
_cell_angle_alpha   66.24207606
_cell_angle_beta   71.75141246
_cell_angle_gamma   90.00001208
_symmetry_Int_Tables_number   1
_chemical_formula_structural   Na2Sr(CoP)6
_chemical_formula_sum   'Na2 Sr1 Co6 P6'
_cell_volume   241.86225040
_cell_formula_units_Z   1
loop_
 _symmetry_equiv_pos_site_id
 _symmetry_equiv_pos_as_xyz
  1  'x, y, z'
loop_
 _atom_site_type_symbol
 _atom_site_label
 _atom_site_symmetry_multiplicity
 _atom_site_fract_x
 _atom_site_fract_y
 _atom_site_fract_z
 _atom_site_occupancy
  Na  Na0  1  0.329438  0.657935  0.341123  1
  Na  Na1  1  0.670562  0.342065  0.658877  1
  Sr  Sr2  1  0.000000  0.000000  0.000000  1
  Co  Co3  1  0.417401  0.831414  0.665878  1
  Co  Co4  1  0.748915  0.500000  0.000000  1
  Co  Co5  1  0.083279  0.168586  0.334122  1
  Co  Co6  1  0.251085  0.500000  0.000000  1
  Co  Co7  1  0.582599  0.168586  0.334122  1
  Co  Co8  1  0.916721  0.831414  0.665878  1
  P  P9  1  0.117216  0.530454  0.765567  1
  P  P10  1  0.450386  0.196691  0.099228  1
  P  P11  1  0.784767  0.866108  0.430464  1
  P  P12  1  0.549614  0.803309  0.900772  1
  P  P13  1  0.882784  0.469546  0.234433  1
  P  P14  1  0.215233  0.133892  0.569536  1
