# generated using pymatgen
data_VTc6SnO24
_symmetry_space_group_name_H-M   'P 1'
_cell_length_a   10.53484957
_cell_length_b   10.53484842
_cell_length_c   10.53485000
_cell_angle_alpha   49.01622975
_cell_angle_beta   49.01623518
_cell_angle_gamma   49.01622859
_symmetry_Int_Tables_number   1
_chemical_formula_structural   VTc6SnO24
_chemical_formula_sum   'V1 Tc6 Sn1 O24'
_cell_volume   611.79179633
_cell_formula_units_Z   1
loop_
 _symmetry_equiv_pos_site_id
 _symmetry_equiv_pos_as_xyz
  1  'x, y, z'
loop_
 _atom_site_type_symbol
 _atom_site_label
 _atom_site_symmetry_multiplicity
 _atom_site_fract_x
 _atom_site_fract_y
 _atom_site_fract_z
 _atom_site_occupancy
  V  V0  1  0.500000  0.500000  0.500000  1
  Tc  Tc1  1  0.591581  0.908833  0.250597  1
  Tc  Tc2  1  0.250597  0.591581  0.908833  1
  Tc  Tc3  1  0.908833  0.250597  0.591581  1
  Tc  Tc4  1  0.749403  0.408419  0.091167  1
  Tc  Tc5  1  0.091167  0.749403  0.408419  1
  Tc  Tc6  1  0.408419  0.091167  0.749403  1
  Sn  Sn7  1  0.000000  0.000000  0.000000  1
  O  O8  1  0.817383  0.877079  0.179346  1
  O  O9  1  0.179346  0.817383  0.877079  1
  O  O10  1  0.877079  0.179346  0.817383  1
  O  O11  1  0.670770  0.398416  0.303848  1
  O  O12  1  0.303848  0.670770  0.398416  1
  O  O13  1  0.398416  0.303848  0.670770  1
  O  O14  1  0.182617  0.122921  0.820654  1
  O  O15  1  0.820654  0.182617  0.122921  1
  O  O16  1  0.122921  0.820654  0.182617  1
  O  O17  1  0.329230  0.601584  0.696152  1
  O  O18  1  0.696152  0.329230  0.601584  1
  O  O19  1  0.601584  0.696152  0.329230  1
  O  O20  1  0.436698  0.984710  0.423149  1
  O  O21  1  0.423149  0.436698  0.984710  1
  O  O22  1  0.984710  0.423149  0.436698  1
  O  O23  1  0.927657  0.476477  0.936741  1
  O  O24  1  0.936741  0.927657  0.476477  1
  O  O25  1  0.476477  0.936741  0.927657  1
  O  O26  1  0.563302  0.015290  0.576851  1
  O  O27  1  0.576851  0.563302  0.015290  1
  O  O28  1  0.015290  0.576851  0.563302  1
  O  O29  1  0.072343  0.523523  0.063259  1
  O  O30  1  0.063259  0.072343  0.523523  1
  O  O31  1  0.523523  0.063259  0.072343  1
