# generated using pymatgen
data_Ho8Lu2CuSiPb6
_symmetry_space_group_name_H-M   'P 1'
_cell_length_a   9.14840400
_cell_length_b   9.14840427
_cell_length_c   6.66671900
_cell_angle_alpha   90.00000000
_cell_angle_beta   90.00000000
_cell_angle_gamma   120.00000626
_symmetry_Int_Tables_number   1
_chemical_formula_structural   Ho8Lu2CuSiPb6
_chemical_formula_sum   'Ho8 Lu2 Cu1 Si1 Pb6'
_cell_volume   483.20724509
_cell_formula_units_Z   1
loop_
 _symmetry_equiv_pos_site_id
 _symmetry_equiv_pos_as_xyz
  1  'x, y, z'
loop_
 _atom_site_type_symbol
 _atom_site_label
 _atom_site_symmetry_multiplicity
 _atom_site_fract_x
 _atom_site_fract_y
 _atom_site_fract_z
 _atom_site_occupancy
  Ho  Ho0  1  0.249193  0.000000  0.742582  1
  Ho  Ho1  1  0.750807  0.000000  0.257418  1
  Ho  Ho2  1  0.000000  0.249193  0.742582  1
  Ho  Ho3  1  0.000000  0.750807  0.257418  1
  Ho  Ho4  1  0.750807  0.750807  0.742582  1
  Ho  Ho5  1  0.249193  0.249193  0.257418  1
  Ho  Ho6  1  0.333333  0.666667  0.500000  1
  Ho  Ho7  1  0.666667  0.333333  0.500000  1
  Lu  Lu8  1  0.666667  0.333333  0.000000  1
  Lu  Lu9  1  0.333333  0.666667  0.000000  1
  Cu  Cu10  1  0.000000  0.000000  0.000000  1
  Si  Si11  1  0.000000  0.000000  0.500000  1
  Pb  Pb12  1  0.605510  0.000000  0.751486  1
  Pb  Pb13  1  0.394490  0.000000  0.248514  1
  Pb  Pb14  1  0.000000  0.605510  0.751486  1
  Pb  Pb15  1  0.000000  0.394490  0.248514  1
  Pb  Pb16  1  0.394490  0.394490  0.751486  1
  Pb  Pb17  1  0.605510  0.605510  0.248514  1
