# generated using pymatgen
data_RbBa9(Bi2As)2
_symmetry_space_group_name_H-M   'P 1'
_cell_length_a   9.25197004
_cell_length_b   10.53701007
_cell_length_c   14.43316163
_cell_angle_alpha   90.13936788
_cell_angle_beta   90.41265618
_cell_angle_gamma   90.32497951
_symmetry_Int_Tables_number   1
_chemical_formula_structural   RbBa9(Bi2As)2
_chemical_formula_sum   'Rb2 Ba18 Bi8 As4'
_cell_volume   1406.99809542
_cell_formula_units_Z   2
loop_
 _symmetry_equiv_pos_site_id
 _symmetry_equiv_pos_as_xyz
  1  'x, y, z'
loop_
 _atom_site_type_symbol
 _atom_site_label
 _atom_site_symmetry_multiplicity
 _atom_site_fract_x
 _atom_site_fract_y
 _atom_site_fract_z
 _atom_site_occupancy
  Rb  Rb0  1  0.674015  0.535585  0.572688  1
  Rb  Rb1  1  0.325985  0.464415  0.427312  1
  Ba  Ba2  1  0.063610  0.740368  0.498081  1
  Ba  Ba3  1  0.936390  0.259632  0.501919  1
  Ba  Ba4  1  0.549139  0.249172  0.000215  1
  Ba  Ba5  1  0.450861  0.750828  0.999785  1
  Ba  Ba6  1  0.856675  0.745155  0.804569  1
  Ba  Ba7  1  0.143325  0.254845  0.195431  1
  Ba  Ba8  1  0.363747  0.253164  0.697102  1
  Ba  Ba9  1  0.636253  0.746836  0.302898  1
  Ba  Ba10  1  0.184383  0.469024  0.924495  1
  Ba  Ba11  1  0.314512  0.037412  0.422624  1
  Ba  Ba12  1  0.815617  0.530976  0.075505  1
  Ba  Ba13  1  0.685488  0.962588  0.577376  1
  Ba  Ba14  1  0.817061  0.968856  0.078301  1
  Ba  Ba15  1  0.182939  0.031144  0.921699  1
  Ba  Ba16  1  0.337248  0.748377  0.709450  1
  Ba  Ba17  1  0.662752  0.251623  0.290550  1
  Ba  Ba18  1  0.830466  0.254271  0.787600  1
  Ba  Ba19  1  0.169534  0.745729  0.212400  1
  Bi  Bi20  1  0.562560  0.507630  0.835842  1
  Bi  Bi21  1  0.437440  0.492370  0.164158  1
  Bi  Bi22  1  0.067035  0.493941  0.677573  1
  Bi  Bi23  1  0.436345  0.008227  0.170771  1
  Bi  Bi24  1  0.932965  0.506059  0.322427  1
  Bi  Bi25  1  0.563655  0.991773  0.829229  1
  Bi  Bi26  1  0.940573  0.993941  0.329919  1
  Bi  Bi27  1  0.059427  0.006059  0.670081  1
  As  As28  1  0.063165  0.751047  0.990474  1
  As  As29  1  0.936835  0.248953  0.009526  1
  As  As30  1  0.572843  0.231528  0.513083  1
  As  As31  1  0.427157  0.768472  0.486917  1
