# generated using pymatgen
data_Nd8Si12HgIr2Rh
_symmetry_space_group_name_H-M   'P 1'
_cell_length_a   8.29361300
_cell_length_b   8.29361278
_cell_length_c   8.55663600
_cell_angle_alpha   90.00000000
_cell_angle_beta   90.00000000
_cell_angle_gamma   120.00000488
_symmetry_Int_Tables_number   1
_chemical_formula_structural   Nd8Si12HgIr2Rh
_chemical_formula_sum   'Nd8 Si12 Hg1 Ir2 Rh1'
_cell_volume   509.70769322
_cell_formula_units_Z   1
loop_
 _symmetry_equiv_pos_site_id
 _symmetry_equiv_pos_as_xyz
  1  'x, y, z'
loop_
 _atom_site_type_symbol
 _atom_site_label
 _atom_site_symmetry_multiplicity
 _atom_site_fract_x
 _atom_site_fract_y
 _atom_site_fract_z
 _atom_site_occupancy
  Nd  Nd0  1  0.000000  0.000000  0.747861  1
  Nd  Nd1  1  0.000000  0.000000  0.252509  1
  Nd  Nd2  1  0.495851  0.504149  0.742940  1
  Nd  Nd3  1  0.495851  0.991702  0.742940  1
  Nd  Nd4  1  0.008298  0.504149  0.742940  1
  Nd  Nd5  1  0.497515  0.502485  0.256934  1
  Nd  Nd6  1  0.004971  0.502485  0.256934  1
  Nd  Nd7  1  0.497515  0.995029  0.256934  1
  Si  Si8  1  0.843453  0.156547  0.000197  1
  Si  Si9  1  0.843453  0.686904  0.000197  1
  Si  Si10  1  0.313096  0.156547  0.000197  1
  Si  Si11  1  0.832252  0.167748  0.500775  1
  Si  Si12  1  0.832252  0.664504  0.500775  1
  Si  Si13  1  0.335496  0.167748  0.500775  1
  Si  Si14  1  0.166508  0.833492  0.499288  1
  Si  Si15  1  0.666984  0.833492  0.499288  1
  Si  Si16  1  0.166508  0.333016  0.499288  1
  Si  Si17  1  0.169663  0.830337  0.000405  1
  Si  Si18  1  0.660674  0.830337  0.000405  1
  Si  Si19  1  0.169663  0.339326  0.000405  1
  Hg  Hg20  1  0.666667  0.333333  0.996344  1
  Ir  Ir21  1  0.666667  0.333333  0.502138  1
  Ir  Ir22  1  0.333333  0.666667  0.497720  1
  Rh  Rh23  1  0.333333  0.666667  0.001814  1
