# generated using pymatgen
data_Dy3Ho4Er(OsC2)4
_symmetry_space_group_name_H-M   'P 1'
_cell_length_a   5.11806200
_cell_length_b   6.43848697
_cell_length_c   9.75989002
_cell_angle_alpha   89.91792046
_cell_angle_beta   90.00000000
_cell_angle_gamma   90.00000000
_symmetry_Int_Tables_number   1
_chemical_formula_structural   Dy3Ho4Er(OsC2)4
_chemical_formula_sum   'Dy3 Ho4 Er1 Os4 C8'
_cell_volume   321.61318282
_cell_formula_units_Z   1
loop_
 _symmetry_equiv_pos_site_id
 _symmetry_equiv_pos_as_xyz
  1  'x, y, z'
loop_
 _atom_site_type_symbol
 _atom_site_label
 _atom_site_symmetry_multiplicity
 _atom_site_fract_x
 _atom_site_fract_y
 _atom_site_fract_z
 _atom_site_occupancy
  Dy  Dy0  1  0.750000  0.474144  0.781637  1
  Dy  Dy1  1  0.750000  0.973863  0.718571  1
  Dy  Dy2  1  0.250000  0.026135  0.281618  1
  Ho  Ho3  1  0.250000  0.683126  0.552447  1
  Ho  Ho4  1  0.750000  0.317417  0.447265  1
  Ho  Ho5  1  0.250000  0.182508  0.947583  1
  Ho  Ho6  1  0.250000  0.525965  0.218927  1
  Er  Er7  1  0.750000  0.817833  0.053099  1
  Os  Os8  1  0.250000  0.724894  0.865972  1
  Os  Os9  1  0.750000  0.275183  0.134206  1
  Os  Os10  1  0.750000  0.774695  0.365449  1
  Os  Os11  1  0.250000  0.225339  0.634064  1
  C  C12  1  0.250000  0.460947  0.758113  1
  C  C13  1  0.750000  0.539432  0.241136  1
  C  C14  1  0.750000  0.038930  0.257952  1
  C  C15  1  0.250000  0.960955  0.741905  1
  C  C16  1  0.250000  0.825412  0.054052  1
  C  C17  1  0.750000  0.172487  0.946488  1
  C  C18  1  0.750000  0.673218  0.553490  1
  C  C19  1  0.250000  0.327519  0.446026  1
