# generated using pymatgen
data_Ba4Th3UF24
_symmetry_space_group_name_H-M   'P 1'
_cell_length_a   7.69830211
_cell_length_b   8.97424284
_cell_length_c   9.08284518
_cell_angle_alpha   101.46719183
_cell_angle_beta   96.40800430
_cell_angle_gamma   114.95832868
_symmetry_Int_Tables_number   1
_chemical_formula_structural   Ba4Th3UF24
_chemical_formula_sum   'Ba4 Th3 U1 F24'
_cell_volume   543.88299202
_cell_formula_units_Z   1
loop_
 _symmetry_equiv_pos_site_id
 _symmetry_equiv_pos_as_xyz
  1  'x, y, z'
loop_
 _atom_site_type_symbol
 _atom_site_label
 _atom_site_symmetry_multiplicity
 _atom_site_fract_x
 _atom_site_fract_y
 _atom_site_fract_z
 _atom_site_occupancy
  Ba  Ba0  1  0.295263  0.757513  0.544400  1
  Ba  Ba1  1  0.292581  0.313446  0.763958  1
  Ba  Ba2  1  0.706819  0.242928  0.457247  1
  Ba  Ba3  1  0.709619  0.690023  0.237896  1
  Th  Th4  1  0.758533  0.213973  0.926974  1
  Th  Th5  1  0.182665  0.265317  0.279051  1
  Th  Th6  1  0.239383  0.782238  0.069316  1
  U  U7  1  0.819108  0.735270  0.720289  1
  F  F8  1  0.079427  0.960861  0.706409  1
  F  F9  1  0.413169  0.634762  0.011825  1
  F  F10  1  0.915898  0.038143  0.306973  1
  F  F11  1  0.236620  0.044530  0.146634  1
  F  F12  1  0.757842  0.952538  0.846356  1
  F  F13  1  0.086051  0.755417  0.273244  1
  F  F14  1  0.891871  0.615311  0.503949  1
  F  F15  1  0.133960  0.714482  0.799716  1
  F  F16  1  0.487558  0.617977  0.703316  1
  F  F17  1  0.323376  0.198463  0.478281  1
  F  F18  1  0.093765  0.239438  0.013196  1
  F  F19  1  0.303477  0.552660  0.288050  1
  F  F20  1  0.699164  0.453267  0.712433  1
  F  F21  1  0.584067  0.360463  0.988236  1
  F  F22  1  0.864592  0.278489  0.197812  1
  F  F23  1  0.514762  0.093644  0.703172  1
  F  F24  1  0.499199  0.998319  0.998765  1
  F  F25  1  0.903836  0.760964  0.979573  1
  F  F26  1  0.913380  0.245859  0.724354  1
  F  F27  1  0.483180  0.907560  0.294506  1
  F  F28  1  0.519666  0.383375  0.300293  1
  F  F29  1  0.997676  0.499312  0.000622  1
  F  F30  1  0.112371  0.393455  0.498344  1
  F  F31  1  0.681123  0.800003  0.524813  1
