# generated using pymatgen
data_Ho2Lu10Co5Sn
_symmetry_space_group_name_H-M   'P 1'
_cell_length_a   8.10515250
_cell_length_b   8.10515294
_cell_length_c   8.10515200
_cell_angle_alpha   106.65124458
_cell_angle_beta   111.01588777
_cell_angle_gamma   110.78289224
_symmetry_Int_Tables_number   1
_chemical_formula_structural   Ho2Lu10Co5Sn
_chemical_formula_sum   'Ho2 Lu10 Co5 Sn1'
_cell_volume   409.14284910
_cell_formula_units_Z   1
loop_
 _symmetry_equiv_pos_site_id
 _symmetry_equiv_pos_as_xyz
  1  'x, y, z'
loop_
 _atom_site_type_symbol
 _atom_site_label
 _atom_site_symmetry_multiplicity
 _atom_site_fract_x
 _atom_site_fract_y
 _atom_site_fract_z
 _atom_site_occupancy
  Ho  Ho0  1  0.474240  0.287715  0.186525  1
  Ho  Ho1  1  0.101190  0.287715  0.813475  1
  Lu  Lu2  1  0.898937  0.714004  0.184933  1
  Lu  Lu3  1  0.529070  0.714004  0.815067  1
  Lu  Lu4  1  0.306036  0.620691  0.314655  1
  Lu  Lu5  1  0.306036  0.991383  0.685345  1
  Lu  Lu6  1  0.693614  0.380168  0.686554  1
  Lu  Lu7  1  0.693614  0.007059  0.313446  1
  Lu  Lu8  1  0.193373  0.213156  0.406975  1
  Lu  Lu9  1  0.806180  0.786397  0.593025  1
  Lu  Lu10  1  0.193373  0.786397  0.980215  1
  Lu  Lu11  1  0.806180  0.213156  0.019785  1
  Co  Co12  1  0.501502  0.615042  0.113539  1
  Co  Co13  1  0.501502  0.387964  0.886461  1
  Co  Co14  1  0.372214  0.998833  0.373381  1
  Co  Co15  1  0.625451  0.998833  0.626619  1
  Co  Co16  1  0.996545  0.996545  0.000000  1
  Sn  Sn17  1  0.000944  0.500944  0.500000  1
