# generated using pymatgen
data_Li3V2FeRh6
_symmetry_space_group_name_H-M   'P 1'
_cell_length_a   4.16505200
_cell_length_b   5.94662100
_cell_length_c   12.50329000
_cell_angle_alpha   90.00004218
_cell_angle_beta   90.00087554
_cell_angle_gamma   90.00007981
_symmetry_Int_Tables_number   1
_chemical_formula_structural   Li3V2FeRh6
_chemical_formula_sum   'Li6 V4 Fe2 Rh12'
_cell_volume   309.68130777
_cell_formula_units_Z   2
loop_
 _symmetry_equiv_pos_site_id
 _symmetry_equiv_pos_as_xyz
  1  'x, y, z'
loop_
 _atom_site_type_symbol
 _atom_site_label
 _atom_site_symmetry_multiplicity
 _atom_site_fract_x
 _atom_site_fract_y
 _atom_site_fract_z
 _atom_site_occupancy
  Li  Li0  1  0.999962  0.999997  0.999325  1
  Li  Li1  1  0.499772  0.500004  0.166527  1
  Li  Li2  1  0.999784  0.999999  0.333569  1
  Li  Li3  1  0.499985  0.500000  0.500724  1
  Li  Li4  1  0.000206  0.999999  0.668442  1
  Li  Li5  1  0.500214  0.500000  0.831447  1
  V  V6  1  0.999997  0.499999  0.995780  1
  V  V7  1  0.499746  0.000001  0.165930  1
  V  V8  1  0.999744  0.499999  0.334125  1
  V  V9  1  0.499995  0.000000  0.504254  1
  Fe  Fe10  1  0.000265  0.500001  0.669018  1
  Fe  Fe11  1  0.500273  0.000000  0.830909  1
  Rh  Rh12  1  0.499981  0.250085  0.002067  1
  Rh  Rh13  1  0.499981  0.749913  0.002068  1
  Rh  Rh14  1  0.999809  0.249775  0.166981  1
  Rh  Rh15  1  0.999811  0.750225  0.166981  1
  Rh  Rh16  1  0.499812  0.250162  0.333046  1
  Rh  Rh17  1  0.499809  0.749838  0.333047  1
  Rh  Rh18  1  0.999980  0.249969  0.497971  1
  Rh  Rh19  1  0.999982  0.750029  0.497971  1
  Rh  Rh20  1  0.500222  0.249878  0.663139  1
  Rh  Rh21  1  0.500222  0.750123  0.663137  1
  Rh  Rh22  1  0.000221  0.250243  0.836772  1
  Rh  Rh23  1  0.000224  0.749760  0.836771  1
