# generated using pymatgen
data_YbCeU4(Cu3Sb4)2
_symmetry_space_group_name_H-M   'P 1'
_cell_length_a   8.30476975
_cell_length_b   8.32951763
_cell_length_c   8.29797400
_cell_angle_alpha   109.92907092
_cell_angle_beta   109.08030061
_cell_angle_gamma   109.35297371
_symmetry_Int_Tables_number   1
_chemical_formula_structural   YbCeU4(Cu3Sb4)2
_chemical_formula_sum   'Yb1 Ce1 U4 Cu6 Sb8'
_cell_volume   442.13379401
_cell_formula_units_Z   1
loop_
 _symmetry_equiv_pos_site_id
 _symmetry_equiv_pos_as_xyz
  1  'x, y, z'
loop_
 _atom_site_type_symbol
 _atom_site_label
 _atom_site_symmetry_multiplicity
 _atom_site_fract_x
 _atom_site_fract_y
 _atom_site_fract_z
 _atom_site_occupancy
  Yb  Yb0  1  0.624804  0.749364  0.374331  1
  Ce  Ce1  1  0.875494  0.249405  0.124248  1
  U  U2  1  0.247757  0.124080  0.871901  1
  U  U3  1  0.747674  0.376801  0.623317  1
  U  U4  1  0.130095  0.876018  0.255491  1
  U  U5  1  0.371199  0.625305  0.748680  1
  Cu  Cu6  1  0.375800  0.250883  0.625921  1
  Cu  Cu7  1  0.125510  0.750550  0.876238  1
  Cu  Cu8  1  0.256176  0.624402  0.372326  1
  Cu  Cu9  1  0.747475  0.874663  0.131256  1
  Cu  Cu10  1  0.627988  0.383965  0.251737  1
  Cu  Cu11  1  0.867864  0.115357  0.743382  1
  Sb  Sb12  1  0.666663  0.503239  0.000711  1
  Sb  Sb13  1  0.499206  0.998796  0.664213  1
  Sb  Sb14  1  0.004414  0.667394  0.501395  1
  Sb  Sb15  1  0.833600  0.832031  0.838764  1
  Sb  Sb16  1  0.499888  0.004003  0.166473  1
  Sb  Sb17  1  0.161660  0.494890  0.993778  1
  Sb  Sb18  1  0.999367  0.164125  0.501131  1
  Sb  Sb19  1  0.337368  0.334728  0.334706  1
