# generated using pymatgen
data_Tm3Pa(VB4)4
_symmetry_space_group_name_H-M   'P 1'
_cell_length_a   3.45681900
_cell_length_b   5.97358949
_cell_length_c   11.55967886
_cell_angle_alpha   89.88291324
_cell_angle_beta   90.00000000
_cell_angle_gamma   90.00000000
_symmetry_Int_Tables_number   1
_chemical_formula_structural   Tm3Pa(VB4)4
_chemical_formula_sum   'Tm3 Pa1 V4 B16'
_cell_volume   238.70245024
_cell_formula_units_Z   1
loop_
 _symmetry_equiv_pos_site_id
 _symmetry_equiv_pos_as_xyz
  1  'x, y, z'
loop_
 _atom_site_type_symbol
 _atom_site_label
 _atom_site_symmetry_multiplicity
 _atom_site_fract_x
 _atom_site_fract_y
 _atom_site_fract_z
 _atom_site_occupancy
  Tm  Tm0  1  0.500000  0.124671  0.650671  1
  Tm  Tm1  1  0.500000  0.876313  0.350812  1
  Tm  Tm2  1  0.500000  0.625931  0.847978  1
  Pa  Pa3  1  0.500000  0.374088  0.151288  1
  V  V4  1  0.500000  0.128236  0.917601  1
  V  V5  1  0.500000  0.871687  0.083815  1
  V  V6  1  0.500000  0.627846  0.582804  1
  V  V7  1  0.500000  0.373344  0.415958  1
  B  B8  1  0.000000  0.476673  0.693068  1
  B  B9  1  0.000000  0.524103  0.308712  1
  B  B10  1  0.000000  0.977269  0.806328  1
  B  B11  1  0.000000  0.024005  0.192221  1
  B  B12  1  0.000000  0.285517  0.813155  1
  B  B13  1  0.000000  0.715093  0.185636  1
  B  B14  1  0.000000  0.786989  0.686153  1
  B  B15  1  0.000000  0.213331  0.315071  1
  B  B16  1  0.000000  0.363995  0.966673  1
  B  B17  1  0.000000  0.634883  0.031998  1
  B  B18  1  0.000000  0.865555  0.532716  1
  B  B19  1  0.000000  0.134040  0.468018  1
  B  B20  1  0.000000  0.384549  0.547983  1
  B  B21  1  0.000000  0.615321  0.453366  1
  B  B22  1  0.000000  0.884514  0.951582  1
  B  B23  1  0.000000  0.112046  0.046391  1
