# generated using pymatgen
data_Dy4Al24Pt7Au2
_symmetry_space_group_name_H-M   'P 1'
_cell_length_a   7.57346610
_cell_length_b   7.58963163
_cell_length_c   13.16745808
_cell_angle_alpha   84.52653939
_cell_angle_beta   78.97947009
_cell_angle_gamma   59.92879768
_symmetry_Int_Tables_number   1
_chemical_formula_structural   Dy4Al24Pt7Au2
_chemical_formula_sum   'Dy4 Al24 Pt7 Au2'
_cell_volume   642.91293607
_cell_formula_units_Z   1
loop_
 _symmetry_equiv_pos_site_id
 _symmetry_equiv_pos_as_xyz
  1  'x, y, z'
loop_
 _atom_site_type_symbol
 _atom_site_label
 _atom_site_symmetry_multiplicity
 _atom_site_fract_x
 _atom_site_fract_y
 _atom_site_fract_z
 _atom_site_occupancy
  Dy  Dy0  1  0.392342  0.169482  0.809226  1
  Dy  Dy1  1  0.607658  0.830518  0.190774  1
  Dy  Dy2  1  0.733703  0.499012  0.810079  1
  Dy  Dy3  1  0.266297  0.500988  0.189921  1
  Al  Al4  1  0.683146  0.834350  0.945007  1
  Al  Al5  1  0.316854  0.165650  0.054993  1
  Al  Al6  1  0.145912  0.839051  0.562280  1
  Al  Al7  1  0.854088  0.160949  0.437720  1
  Al  Al8  1  0.487868  0.159524  0.559627  1
  Al  Al9  1  0.512132  0.840476  0.440373  1
  Al  Al10  1  0.222746  0.160519  0.326530  1
  Al  Al11  1  0.777254  0.839481  0.673470  1
  Al  Al12  1  0.440317  0.506611  0.673685  1
  Al  Al13  1  0.559683  0.493389  0.326315  1
  Al  Al14  1  0.109370  0.154660  0.672445  1
  Al  Al15  1  0.890630  0.845340  0.327555  1
  Al  Al16  1  0.352925  0.499109  0.944730  1
  Al  Al17  1  0.647075  0.500891  0.055270  1
  Al  Al18  1  0.015467  0.167264  0.953609  1
  Al  Al19  1  0.984533  0.832736  0.046391  1
  Al  Al20  1  0.195163  0.499320  0.437432  1
  Al  Al21  1  0.804837  0.500680  0.562568  1
  Al  Al22  1  0.732636  0.164703  0.183294  1
  Al  Al23  1  0.267364  0.835297  0.816706  1
  Al  Al24  1  0.060432  0.633660  0.817676  1
  Al  Al25  1  0.939568  0.366340  0.182324  1
  Al  Al26  1  0.854296  0.042260  0.816214  1
  Al  Al27  1  0.145704  0.957740  0.183786  1
  Pt  Pt28  1  0.657478  0.171624  0.999760  1
  Pt  Pt29  1  0.342522  0.828376  0.000240  1
  Pt  Pt30  1  0.537333  0.166789  0.362167  1
  Pt  Pt31  1  0.462667  0.833211  0.637833  1
  Pt  Pt32  1  0.779926  0.175160  0.636615  1
  Pt  Pt33  1  0.220074  0.824840  0.363385  1
  Pt  Pt34  1  0.000000  0.500000  0.000000  1
  Au  Au35  1  0.120203  0.490721  0.637901  1
  Au  Au36  1  0.879797  0.509279  0.362099  1
