# generated using pymatgen
data_SmMgIr4
_symmetry_space_group_name_H-M   'P 1'
_cell_length_a   5.32115800
_cell_length_b   5.32115750
_cell_length_c   8.63898300
_cell_angle_alpha   90.00000000
_cell_angle_beta   90.00000000
_cell_angle_gamma   119.99999070
_symmetry_Int_Tables_number   1
_chemical_formula_structural   SmMgIr4
_chemical_formula_sum   'Sm2 Mg2 Ir8'
_cell_volume   211.83882536
_cell_formula_units_Z   2
loop_
 _symmetry_equiv_pos_site_id
 _symmetry_equiv_pos_as_xyz
  1  'x, y, z'
loop_
 _atom_site_type_symbol
 _atom_site_label
 _atom_site_symmetry_multiplicity
 _atom_site_fract_x
 _atom_site_fract_y
 _atom_site_fract_z
 _atom_site_occupancy
  Sm  Sm0  1  0.333333  0.666667  0.069125  1
  Sm  Sm1  1  0.666667  0.333333  0.569125  1
  Mg  Mg2  1  0.666667  0.333333  0.935395  1
  Mg  Mg3  1  0.333333  0.666667  0.435395  1
  Ir  Ir4  1  0.000000  0.000000  0.995747  1
  Ir  Ir5  1  0.000000  0.000000  0.495747  1
  Ir  Ir6  1  0.829354  0.658708  0.249911  1
  Ir  Ir7  1  0.170646  0.829354  0.749911  1
  Ir  Ir8  1  0.658708  0.829354  0.749911  1
  Ir  Ir9  1  0.341292  0.170646  0.249911  1
  Ir  Ir10  1  0.829354  0.170646  0.249911  1
  Ir  Ir11  1  0.170646  0.341292  0.749911  1
