# generated using pymatgen
data_Dy10Sn6HC
_symmetry_space_group_name_H-M   'P 1'
_cell_length_a   8.94613200
_cell_length_b   8.94613287
_cell_length_c   6.54981000
_cell_angle_alpha   90.00000000
_cell_angle_beta   90.00000000
_cell_angle_gamma   120.00000419
_symmetry_Int_Tables_number   1
_chemical_formula_structural   Dy10Sn6HC
_chemical_formula_sum   'Dy10 Sn6 H1 C1'
_cell_volume   453.97293425
_cell_formula_units_Z   1
loop_
 _symmetry_equiv_pos_site_id
 _symmetry_equiv_pos_as_xyz
  1  'x, y, z'
loop_
 _atom_site_type_symbol
 _atom_site_label
 _atom_site_symmetry_multiplicity
 _atom_site_fract_x
 _atom_site_fract_y
 _atom_site_fract_z
 _atom_site_occupancy
  Dy  Dy0  1  0.333333  0.666667  0.500000  1
  Dy  Dy1  1  0.666667  0.333333  0.500000  1
  Dy  Dy2  1  0.666667  0.333333  0.000000  1
  Dy  Dy3  1  0.333333  0.666667  0.000000  1
  Dy  Dy4  1  0.225957  0.000000  0.771294  1
  Dy  Dy5  1  0.774043  0.000000  0.228706  1
  Dy  Dy6  1  0.000000  0.225957  0.771294  1
  Dy  Dy7  1  0.000000  0.774043  0.228706  1
  Dy  Dy8  1  0.774043  0.774043  0.771294  1
  Dy  Dy9  1  0.225957  0.225957  0.228706  1
  Sn  Sn10  1  0.600329  0.000000  0.749742  1
  Sn  Sn11  1  0.399671  0.000000  0.250258  1
  Sn  Sn12  1  0.000000  0.600329  0.749742  1
  Sn  Sn13  1  0.000000  0.399671  0.250258  1
  Sn  Sn14  1  0.399671  0.399671  0.749742  1
  Sn  Sn15  1  0.600329  0.600329  0.250258  1
  H  H16  1  0.000000  0.000000  0.500000  1
  C  C17  1  0.000000  0.000000  0.000000  1
