# generated using pymatgen
data_NdY3(WO6)2
_symmetry_space_group_name_H-M   'P 1'
_cell_length_a   5.46139800
_cell_length_b   7.78725459
_cell_length_c   11.57410361
_cell_angle_alpha   75.57537086
_cell_angle_beta   90.00000000
_cell_angle_gamma   90.00000000
_symmetry_Int_Tables_number   1
_chemical_formula_structural   NdY3(WO6)2
_chemical_formula_sum   'Nd2 Y6 W4 O24'
_cell_volume   476.72124333
_cell_formula_units_Z   2
loop_
 _symmetry_equiv_pos_site_id
 _symmetry_equiv_pos_as_xyz
  1  'x, y, z'
loop_
 _atom_site_type_symbol
 _atom_site_label
 _atom_site_symmetry_multiplicity
 _atom_site_fract_x
 _atom_site_fract_y
 _atom_site_fract_z
 _atom_site_occupancy
  Nd  Nd0  1  0.315082  0.500000  0.750000  1
  Nd  Nd1  1  0.684918  0.500000  0.250000  1
  Y  Y2  1  0.186862  0.796569  0.077119  1
  Y  Y3  1  0.258847  0.000000  0.750000  1
  Y  Y4  1  0.741153  0.000000  0.250000  1
  Y  Y5  1  0.186862  0.203431  0.422881  1
  Y  Y6  1  0.813138  0.203431  0.922881  1
  Y  Y7  1  0.813138  0.796569  0.577119  1
  W  W8  1  0.746128  0.726529  0.884695  1
  W  W9  1  0.253872  0.726529  0.384695  1
  W  W10  1  0.746128  0.273471  0.615305  1
  W  W11  1  0.253872  0.273471  0.115305  1
  O  O12  1  0.852745  0.359850  0.454372  1
  O  O13  1  0.468975  0.846641  0.930407  1
  O  O14  1  0.852745  0.640150  0.045628  1
  O  O15  1  0.013623  0.283584  0.729149  1
  O  O16  1  0.986377  0.283584  0.229149  1
  O  O17  1  0.147255  0.359850  0.954372  1
  O  O18  1  0.647653  0.493445  0.887689  1
  O  O19  1  0.531025  0.153359  0.069593  1
  O  O20  1  0.147255  0.640150  0.545628  1
  O  O21  1  0.013623  0.716416  0.770851  1
  O  O22  1  0.456044  0.206822  0.272055  1
  O  O23  1  0.042970  0.940292  0.395511  1
  O  O24  1  0.468975  0.153359  0.569593  1
  O  O25  1  0.986377  0.716416  0.270851  1
  O  O26  1  0.957030  0.059708  0.604489  1
  O  O27  1  0.543956  0.206822  0.772055  1
  O  O28  1  0.543956  0.793178  0.727945  1
  O  O29  1  0.042970  0.059708  0.104489  1
  O  O30  1  0.647653  0.506555  0.612311  1
  O  O31  1  0.352347  0.506555  0.112311  1
  O  O32  1  0.456044  0.793178  0.227945  1
  O  O33  1  0.352347  0.493445  0.387689  1
  O  O34  1  0.531025  0.846641  0.430407  1
  O  O35  1  0.957030  0.940292  0.895511  1
