# generated using pymatgen
data_Dy9Tm6Lu(Tl3Co)2
_symmetry_space_group_name_H-M   'P 1'
_cell_length_a   10.21519974
_cell_length_b   10.21520103
_cell_length_c   7.15197601
_cell_angle_alpha   90.01880069
_cell_angle_beta   89.98118819
_cell_angle_gamma   119.98165112
_symmetry_Int_Tables_number   1
_chemical_formula_structural   Dy9Tm6Lu(Tl3Co)2
_chemical_formula_sum   'Dy9 Tm6 Lu1 Tl6 Co2'
_cell_volume   646.44368856
_cell_formula_units_Z   1
loop_
 _symmetry_equiv_pos_site_id
 _symmetry_equiv_pos_as_xyz
  1  'x, y, z'
loop_
 _atom_site_type_symbol
 _atom_site_label
 _atom_site_symmetry_multiplicity
 _atom_site_fract_x
 _atom_site_fract_y
 _atom_site_fract_z
 _atom_site_occupancy
  Dy  Dy0  1  0.666621  0.333379  0.320703  1
  Dy  Dy1  1  0.462123  0.537877  0.211979  1
  Dy  Dy2  1  0.075417  0.538276  0.212357  1
  Dy  Dy3  1  0.461724  0.924583  0.212357  1
  Dy  Dy4  1  0.537451  0.462549  0.712891  1
  Dy  Dy5  1  0.925764  0.463108  0.713001  1
  Dy  Dy6  1  0.536892  0.074236  0.713001  1
  Dy  Dy7  1  0.000449  0.999551  0.228968  1
  Dy  Dy8  1  0.000165  0.999835  0.726730  1
  Tm  Tm9  1  0.642459  0.821087  0.511612  1
  Tm  Tm10  1  0.178913  0.357541  0.511612  1
  Tm  Tm11  1  0.821885  0.178115  0.010899  1
  Tm  Tm12  1  0.356202  0.178237  0.011064  1
  Tm  Tm13  1  0.821763  0.643798  0.011064  1
  Tm  Tm14  1  0.333147  0.666853  0.817229  1
  Lu  Lu15  1  0.179375  0.820625  0.512181  1
  Tl  Tl16  1  0.163460  0.836540  0.957011  1
  Tl  Tl17  1  0.672388  0.836318  0.957821  1
  Tl  Tl18  1  0.163682  0.327612  0.957821  1
  Tl  Tl19  1  0.837444  0.162556  0.459384  1
  Tl  Tl20  1  0.324507  0.161315  0.459852  1
  Tl  Tl21  1  0.838685  0.675493  0.459852  1
  Co  Co22  1  0.332855  0.667145  0.441826  1
  Co  Co23  1  0.666627  0.333373  0.943624  1
