# generated using pymatgen
data_TbDy19(FeSb2)4
_symmetry_space_group_name_H-M   'P 1'
_cell_length_a   7.88111224
_cell_length_b   8.80923200
_cell_length_c   12.20581537
_cell_angle_alpha   90.00000000
_cell_angle_beta   90.02811233
_cell_angle_gamma   90.00000000
_symmetry_Int_Tables_number   1
_chemical_formula_structural   TbDy19(FeSb2)4
_chemical_formula_sum   'Tb1 Dy19 Fe4 Sb8'
_cell_volume   847.40750147
_cell_formula_units_Z   1
loop_
 _symmetry_equiv_pos_site_id
 _symmetry_equiv_pos_as_xyz
  1  'x, y, z'
loop_
 _atom_site_type_symbol
 _atom_site_label
 _atom_site_symmetry_multiplicity
 _atom_site_fract_x
 _atom_site_fract_y
 _atom_site_fract_z
 _atom_site_occupancy
  Tb  Tb0  1  0.877003  0.750000  0.806340  1
  Dy  Dy1  1  0.154724  0.750000  0.203893  1
  Dy  Dy2  1  0.654836  0.250000  0.296087  1
  Dy  Dy3  1  0.845160  0.250000  0.796034  1
  Dy  Dy4  1  0.345312  0.750000  0.703875  1
  Dy  Dy5  1  0.450442  0.750000  0.995990  1
  Dy  Dy6  1  0.950470  0.250000  0.503947  1
  Dy  Dy7  1  0.549420  0.250000  0.004010  1
  Dy  Dy8  1  0.049627  0.750000  0.495938  1
  Dy  Dy9  1  0.622620  0.750000  0.306712  1
  Dy  Dy10  1  0.122627  0.250000  0.193352  1
  Dy  Dy11  1  0.377409  0.250000  0.693338  1
  Dy  Dy12  1  0.823469  0.965335  0.063715  1
  Dy  Dy13  1  0.323558  0.034970  0.436522  1
  Dy  Dy14  1  0.176734  0.464632  0.936595  1
  Dy  Dy15  1  0.676421  0.534866  0.563469  1
  Dy  Dy16  1  0.176734  0.035368  0.936595  1
  Dy  Dy17  1  0.676421  0.965134  0.563469  1
  Dy  Dy18  1  0.823469  0.534665  0.063715  1
  Dy  Dy19  1  0.323558  0.465030  0.436522  1
  Fe  Fe20  1  0.426914  0.750000  0.487955  1
  Fe  Fe21  1  0.927015  0.250000  0.012022  1
  Fe  Fe22  1  0.573055  0.250000  0.512047  1
  Fe  Fe23  1  0.073086  0.750000  0.988135  1
  Sb  Sb24  1  0.928625  0.993038  0.327773  1
  Sb  Sb25  1  0.428648  0.006920  0.172191  1
  Sb  Sb26  1  0.071748  0.492788  0.672064  1
  Sb  Sb27  1  0.570936  0.506597  0.827833  1
  Sb  Sb28  1  0.071748  0.007212  0.672064  1
  Sb  Sb29  1  0.570936  0.993403  0.827833  1
  Sb  Sb30  1  0.928625  0.506962  0.327773  1
  Sb  Sb31  1  0.428648  0.493080  0.172191  1
