# generated using pymatgen
data_Sc3Si3Os
_symmetry_space_group_name_H-M   'P 1'
_cell_length_a   4.00409400
_cell_length_b   10.32793300
_cell_length_c   11.69014900
_cell_angle_alpha   90.00000000
_cell_angle_beta   90.00000000
_cell_angle_gamma   90.00000000
_symmetry_Int_Tables_number   1
_chemical_formula_structural   Sc3Si3Os
_chemical_formula_sum   'Sc12 Si12 Os4'
_cell_volume   483.43459193
_cell_formula_units_Z   4
loop_
 _symmetry_equiv_pos_site_id
 _symmetry_equiv_pos_as_xyz
  1  'x, y, z'
loop_
 _atom_site_type_symbol
 _atom_site_label
 _atom_site_symmetry_multiplicity
 _atom_site_fract_x
 _atom_site_fract_y
 _atom_site_fract_z
 _atom_site_occupancy
  Sc  Sc0  1  0.250000  0.877679  0.018610  1
  Sc  Sc1  1  0.250000  0.622321  0.518610  1
  Sc  Sc2  1  0.750000  0.122321  0.981390  1
  Sc  Sc3  1  0.750000  0.377679  0.481390  1
  Sc  Sc4  1  0.250000  0.921031  0.605397  1
  Sc  Sc5  1  0.250000  0.578969  0.105397  1
  Sc  Sc6  1  0.750000  0.078969  0.394603  1
  Sc  Sc7  1  0.750000  0.421031  0.894603  1
  Sc  Sc8  1  0.250000  0.658032  0.798418  1
  Sc  Sc9  1  0.250000  0.841968  0.298418  1
  Sc  Sc10  1  0.750000  0.341968  0.201582  1
  Sc  Sc11  1  0.750000  0.158032  0.701582  1
  Si  Si12  1  0.250000  0.015311  0.821960  1
  Si  Si13  1  0.250000  0.484689  0.321960  1
  Si  Si14  1  0.750000  0.984689  0.178040  1
  Si  Si15  1  0.750000  0.515311  0.678040  1
  Si  Si16  1  0.250000  0.251055  0.842607  1
  Si  Si17  1  0.250000  0.248945  0.342607  1
  Si  Si18  1  0.750000  0.748945  0.157393  1
  Si  Si19  1  0.750000  0.751055  0.657393  1
  Si  Si20  1  0.250000  0.194453  0.545538  1
  Si  Si21  1  0.250000  0.305547  0.045538  1
  Si  Si22  1  0.750000  0.805547  0.454462  1
  Si  Si23  1  0.750000  0.694453  0.954462  1
  Os  Os24  1  0.250000  0.389623  0.676679  1
  Os  Os25  1  0.250000  0.110377  0.176679  1
  Os  Os26  1  0.750000  0.610377  0.323321  1
  Os  Os27  1  0.750000  0.889623  0.823321  1
