# generated using pymatgen
data_Sr4NdPa5O18
_symmetry_space_group_name_H-M   'P 1'
_cell_length_a   6.97242110
_cell_length_b   7.85143013
_cell_length_c   8.80644000
_cell_angle_alpha   101.28880439
_cell_angle_beta   98.12241371
_cell_angle_gamma   107.29992841
_symmetry_Int_Tables_number   1
_chemical_formula_structural   Sr4NdPa5O18
_chemical_formula_sum   'Sr4 Nd1 Pa5 O18'
_cell_volume   441.01487809
_cell_formula_units_Z   1
loop_
 _symmetry_equiv_pos_site_id
 _symmetry_equiv_pos_as_xyz
  1  'x, y, z'
loop_
 _atom_site_type_symbol
 _atom_site_label
 _atom_site_symmetry_multiplicity
 _atom_site_fract_x
 _atom_site_fract_y
 _atom_site_fract_z
 _atom_site_occupancy
  Sr  Sr0  1  0.597964  0.698307  0.195250  1
  Sr  Sr1  1  0.403285  0.302741  0.804149  1
  Sr  Sr2  1  0.202997  0.897168  0.414397  1
  Sr  Sr3  1  0.000551  0.502243  0.000576  1
  Nd  Nd4  1  0.805788  0.113410  0.582365  1
  Pa  Pa5  1  0.996984  0.997451  0.998928  1
  Pa  Pa6  1  0.789589  0.580223  0.586333  1
  Pa  Pa7  1  0.629890  0.199253  0.192828  1
  Pa  Pa8  1  0.371716  0.800199  0.804737  1
  Pa  Pa9  1  0.210623  0.423819  0.413821  1
  O  O10  1  0.820231  0.803566  0.482540  1
  O  O11  1  0.994491  0.238707  0.176907  1
  O  O12  1  0.664601  0.400656  0.071255  1
  O  O13  1  0.474942  0.997132  0.680567  1
  O  O14  1  0.860615  0.344836  0.429171  1
  O  O15  1  0.505485  0.394229  0.353184  1
  O  O16  1  0.251813  0.608544  0.277016  1
  O  O17  1  0.976731  0.825943  0.151032  1
  O  O18  1  0.660175  0.941238  0.997158  1
  O  O19  1  0.335368  0.058087  0.004284  1
  O  O20  1  0.009829  0.164154  0.837056  1
  O  O21  1  0.749892  0.382507  0.717522  1
  O  O22  1  0.494767  0.599848  0.650786  1
  O  O23  1  0.138809  0.655577  0.572694  1
  O  O24  1  0.555108  0.006575  0.325116  1
  O  O25  1  0.334935  0.599052  0.927714  1
  O  O26  1  0.000596  0.755968  0.822028  1
  O  O27  1  0.162225  0.208567  0.530586  1
