# generated using pymatgen
data_MgAs2F12
_symmetry_space_group_name_H-M   'P 1'
_cell_length_a   5.32715313
_cell_length_b   10.75941002
_cell_length_c   5.33325417
_cell_angle_alpha   57.14755507
_cell_angle_beta   56.83255655
_cell_angle_gamma   57.08053282
_symmetry_Int_Tables_number   1
_chemical_formula_structural   MgAs2F12
_chemical_formula_sum   'Mg1 As2 F12'
_cell_volume   201.29940217
_cell_formula_units_Z   1
loop_
 _symmetry_equiv_pos_site_id
 _symmetry_equiv_pos_as_xyz
  1  'x, y, z'
loop_
 _atom_site_type_symbol
 _atom_site_label
 _atom_site_symmetry_multiplicity
 _atom_site_fract_x
 _atom_site_fract_y
 _atom_site_fract_z
 _atom_site_occupancy
  Mg  Mg0  1  0.000000  0.500000  0.000000  1
  As  As1  1  0.491362  0.247398  0.511500  1
  As  As2  1  0.508638  0.752602  0.488500  1
  F  F3  1  0.139224  0.208972  0.716916  1
  F  F4  1  0.172507  0.680968  0.730796  1
  F  F5  1  0.373713  0.374221  0.157870  1
  F  F6  1  0.398127  0.850870  0.159771  1
  F  F7  1  0.718129  0.091757  0.374810  1
  F  F8  1  0.731087  0.572187  0.384699  1
  F  F9  1  0.268913  0.427813  0.615301  1
  F  F10  1  0.281871  0.908243  0.625190  1
  F  F11  1  0.601873  0.149130  0.840229  1
  F  F12  1  0.626287  0.625779  0.842130  1
  F  F13  1  0.827493  0.319032  0.269204  1
  F  F14  1  0.860776  0.791028  0.283084  1
