# generated using pymatgen
data_Ba6Gd(IrO6)2
_symmetry_space_group_name_H-M   'P 1'
_cell_length_a   9.24427734
_cell_length_b   9.24427795
_cell_length_c   7.42285400
_cell_angle_alpha   68.06565206
_cell_angle_beta   68.06565054
_cell_angle_gamma   36.87355848
_symmetry_Int_Tables_number   1
_chemical_formula_structural   Ba6Gd(IrO6)2
_chemical_formula_sum   'Ba6 Gd1 Ir2 O12'
_cell_volume   349.88281672
_cell_formula_units_Z   1
loop_
 _symmetry_equiv_pos_site_id
 _symmetry_equiv_pos_as_xyz
  1  'x, y, z'
loop_
 _atom_site_type_symbol
 _atom_site_label
 _atom_site_symmetry_multiplicity
 _atom_site_fract_x
 _atom_site_fract_y
 _atom_site_fract_z
 _atom_site_occupancy
  Ba  Ba0  1  0.216480  0.216480  0.706057  1
  Ba  Ba1  1  0.880524  0.880524  0.710853  1
  Ba  Ba2  1  0.549229  0.549229  0.703852  1
  Ba  Ba3  1  0.783520  0.783520  0.293943  1
  Ba  Ba4  1  0.450771  0.450771  0.296148  1
  Ba  Ba5  1  0.119476  0.119476  0.289147  1
  Gd  Gd6  1  0.000000  0.000000  0.000000  1
  Ir  Ir7  1  0.671025  0.671025  0.999462  1
  Ir  Ir8  1  0.328975  0.328975  0.000538  1
  O  O9  1  0.281582  0.281582  0.306391  1
  O  O10  1  0.942195  0.942195  0.335278  1
  O  O11  1  0.617546  0.617546  0.304458  1
  O  O12  1  0.718418  0.718418  0.693609  1
  O  O13  1  0.382454  0.382454  0.695542  1
  O  O14  1  0.057805  0.057805  0.664722  1
  O  O15  1  0.000000  0.500000  0.000000  1
  O  O16  1  0.642045  0.176979  0.001263  1
  O  O17  1  0.357955  0.823021  0.998737  1
  O  O18  1  0.500000  0.000000  0.000000  1
  O  O19  1  0.176979  0.642045  0.001263  1
  O  O20  1  0.823021  0.357955  0.998737  1
