# generated using pymatgen
data_Sc8Ta5Nb7Si15P
_symmetry_space_group_name_H-M   'P 1'
_cell_length_a   6.70252862
_cell_length_b   6.89480891
_cell_length_c   13.10396307
_cell_angle_alpha   90.08646291
_cell_angle_beta   90.16398093
_cell_angle_gamma   90.10561816
_symmetry_Int_Tables_number   1
_chemical_formula_structural   Sc8Ta5Nb7Si15P
_chemical_formula_sum   'Sc8 Ta5 Nb7 Si15 P1'
_cell_volume   605.56470880
_cell_formula_units_Z   1
loop_
 _symmetry_equiv_pos_site_id
 _symmetry_equiv_pos_as_xyz
  1  'x, y, z'
loop_
 _atom_site_type_symbol
 _atom_site_label
 _atom_site_symmetry_multiplicity
 _atom_site_fract_x
 _atom_site_fract_y
 _atom_site_fract_z
 _atom_site_occupancy
  Sc  Sc0  1  0.501319  0.676030  0.594320  1
  Sc  Sc1  1  0.001151  0.826070  0.904277  1
  Sc  Sc2  1  0.498845  0.325457  0.095141  1
  Sc  Sc3  1  0.997656  0.173214  0.404816  1
  Sc  Sc4  1  0.499933  0.322704  0.405330  1
  Sc  Sc5  1  0.999161  0.173797  0.095340  1
  Sc  Sc6  1  0.501496  0.674484  0.904697  1
  Sc  Sc7  1  0.999670  0.825842  0.595433  1
  Ta  Ta8  1  0.662503  0.170330  0.622939  1
  Ta  Ta9  1  0.838467  0.493310  0.749291  1
  Ta  Ta10  1  0.338587  0.004787  0.748973  1
  Ta  Ta11  1  0.161613  0.506452  0.250654  1
  Ta  Ta12  1  0.662716  0.995199  0.251654  1
  Nb  Nb13  1  0.163364  0.325984  0.874747  1
  Nb  Nb14  1  0.337133  0.826255  0.125363  1
  Nb  Nb15  1  0.835684  0.677076  0.376686  1
  Nb  Nb16  1  0.341236  0.827790  0.376891  1
  Nb  Nb17  1  0.836883  0.674680  0.125308  1
  Nb  Nb18  1  0.662345  0.173941  0.874471  1
  Nb  Nb19  1  0.161705  0.325966  0.624315  1
  Si  Si20  1  0.168572  0.532111  0.039742  1
  Si  Si21  1  0.331027  0.031811  0.959993  1
  Si  Si22  1  0.830173  0.467836  0.540227  1
  Si  Si23  1  0.324464  0.033200  0.540919  1
  Si  Si24  1  0.831800  0.468432  0.959893  1
  Si  Si25  1  0.668543  0.968687  0.040384  1
  Si  Si26  1  0.169353  0.532122  0.459689  1
  Si  Si27  1  0.459914  0.385470  0.749214  1
  Si  Si28  1  0.959412  0.112922  0.749643  1
  Si  Si29  1  0.540031  0.613381  0.250240  1
  Si  Si30  1  0.041659  0.885880  0.250638  1
  Si  Si31  1  0.705692  0.860410  0.749855  1
  Si  Si32  1  0.205834  0.638510  0.749900  1
  Si  Si33  1  0.294419  0.139749  0.250026  1
  Si  Si34  1  0.795670  0.362277  0.249966  1
  P  P35  1  0.671974  0.967832  0.459023  1
