# generated using pymatgen
data_Al11Cr2ReTc
_symmetry_space_group_name_H-M   'P 1'
_cell_length_a   5.13971118
_cell_length_b   5.18201440
_cell_length_c   9.04655734
_cell_angle_alpha   105.68341735
_cell_angle_beta   89.94404282
_cell_angle_gamma   100.50929695
_symmetry_Int_Tables_number   1
_chemical_formula_structural   Al11Cr2ReTc
_chemical_formula_sum   'Al11 Cr2 Re1 Tc1'
_cell_volume   227.78732307
_cell_formula_units_Z   1
loop_
 _symmetry_equiv_pos_site_id
 _symmetry_equiv_pos_as_xyz
  1  'x, y, z'
loop_
 _atom_site_type_symbol
 _atom_site_label
 _atom_site_symmetry_multiplicity
 _atom_site_fract_x
 _atom_site_fract_y
 _atom_site_fract_z
 _atom_site_occupancy
  Al  Al0  1  0.807526  0.263507  0.633118  1
  Al  Al1  1  0.189738  0.735582  0.368667  1
  Al  Al2  1  0.148588  0.462468  0.871550  1
  Al  Al3  1  0.855690  0.538995  0.126962  1
  Al  Al4  1  0.999418  0.999633  0.998725  1
  Al  Al5  1  0.503207  0.096563  0.872080  1
  Al  Al6  1  0.497063  0.906888  0.126624  1
  Al  Al7  1  0.574788  0.328395  0.378689  1
  Al  Al8  1  0.424360  0.669391  0.623116  1
  Al  Al9  1  0.944978  0.815460  0.674148  1
  Al  Al10  1  0.055085  0.183392  0.326305  1
  Cr  Cr11  1  0.289286  0.143919  0.597459  1
  Cr  Cr12  1  0.708241  0.853629  0.401827  1
  Re  Re13  1  0.342024  0.395387  0.135263  1
  Tc  Tc14  1  0.660009  0.606794  0.865467  1
