# generated using pymatgen
data_Er3Zr2Sn3N
_symmetry_space_group_name_H-M   'P 1'
_cell_length_a   8.70993200
_cell_length_b   8.70993254
_cell_length_c   6.09324000
_cell_angle_alpha   90.00000000
_cell_angle_beta   90.00000000
_cell_angle_gamma   119.99999795
_symmetry_Int_Tables_number   1
_chemical_formula_structural   Er3Zr2Sn3N
_chemical_formula_sum   'Er6 Zr4 Sn6 N2'
_cell_volume   400.32109946
_cell_formula_units_Z   2
loop_
 _symmetry_equiv_pos_site_id
 _symmetry_equiv_pos_as_xyz
  1  'x, y, z'
loop_
 _atom_site_type_symbol
 _atom_site_label
 _atom_site_symmetry_multiplicity
 _atom_site_fract_x
 _atom_site_fract_y
 _atom_site_fract_z
 _atom_site_occupancy
  Er  Er0  1  0.783106  0.783106  0.750000  1
  Er  Er1  1  0.216894  0.000000  0.750000  1
  Er  Er2  1  0.000000  0.216894  0.750000  1
  Er  Er3  1  0.216894  0.216894  0.250000  1
  Er  Er4  1  0.783106  0.000000  0.250000  1
  Er  Er5  1  0.000000  0.783106  0.250000  1
  Zr  Zr6  1  0.666667  0.333333  0.000000  1
  Zr  Zr7  1  0.333333  0.666667  0.000000  1
  Zr  Zr8  1  0.333333  0.666667  0.500000  1
  Zr  Zr9  1  0.666667  0.333333  0.500000  1
  Sn  Sn10  1  0.407995  0.407995  0.750000  1
  Sn  Sn11  1  0.592005  0.000000  0.750000  1
  Sn  Sn12  1  0.000000  0.592005  0.750000  1
  Sn  Sn13  1  0.592005  0.592005  0.250000  1
  Sn  Sn14  1  0.407995  0.000000  0.250000  1
  Sn  Sn15  1  0.000000  0.407995  0.250000  1
  N  N16  1  0.000000  0.000000  0.000000  1
  N  N17  1  0.000000  0.000000  0.500000  1
