# generated using pymatgen
data_Ho12Th4Mg4MnCo3
_symmetry_space_group_name_H-M   'P 1'
_cell_length_a   9.63906169
_cell_length_b   9.63906116
_cell_length_c   9.63906152
_cell_angle_alpha   59.51842645
_cell_angle_beta   59.51842544
_cell_angle_gamma   59.51842983
_symmetry_Int_Tables_number   1
_chemical_formula_structural   Ho12Th4Mg4MnCo3
_chemical_formula_sum   'Ho12 Th4 Mg4 Mn1 Co3'
_cell_volume   626.33552375
_cell_formula_units_Z   1
loop_
 _symmetry_equiv_pos_site_id
 _symmetry_equiv_pos_as_xyz
  1  'x, y, z'
loop_
 _atom_site_type_symbol
 _atom_site_label
 _atom_site_symmetry_multiplicity
 _atom_site_fract_x
 _atom_site_fract_y
 _atom_site_fract_z
 _atom_site_occupancy
  Ho  Ho0  1  0.813792  0.186161  0.186161  1
  Ho  Ho1  1  0.185615  0.813517  0.813517  1
  Ho  Ho2  1  0.186161  0.813792  0.186161  1
  Ho  Ho3  1  0.813517  0.185615  0.813517  1
  Ho  Ho4  1  0.186161  0.186161  0.813792  1
  Ho  Ho5  1  0.813517  0.813517  0.185615  1
  Ho  Ho6  1  0.935758  0.564429  0.564429  1
  Ho  Ho7  1  0.560539  0.936029  0.936029  1
  Ho  Ho8  1  0.564429  0.935758  0.564429  1
  Ho  Ho9  1  0.936029  0.560539  0.936029  1
  Ho  Ho10  1  0.564429  0.564429  0.935758  1
  Ho  Ho11  1  0.936029  0.936029  0.560539  1
  Th  Th12  1  0.344554  0.344554  0.344554  1
  Th  Th13  1  0.343311  0.343311  0.968195  1
  Th  Th14  1  0.343311  0.968195  0.343311  1
  Th  Th15  1  0.968195  0.343311  0.343311  1
  Mg  Mg16  1  0.579428  0.579428  0.579428  1
  Mg  Mg17  1  0.579223  0.579223  0.259388  1
  Mg  Mg18  1  0.579223  0.259388  0.579223  1
  Mg  Mg19  1  0.259388  0.579223  0.579223  1
  Mn  Mn20  1  0.146956  0.146956  0.146956  1
  Co  Co21  1  0.146014  0.146014  0.568407  1
  Co  Co22  1  0.146014  0.568407  0.146014  1
  Co  Co23  1  0.568407  0.146014  0.146014  1
