# generated using pymatgen
data_LiTb6Cd5C2
_symmetry_space_group_name_H-M   'P 1'
_cell_length_a   9.45101182
_cell_length_b   9.48084215
_cell_length_c   9.49806000
_cell_angle_alpha   120.26855104
_cell_angle_beta   89.63781791
_cell_angle_gamma   120.10549528
_symmetry_Int_Tables_number   1
_chemical_formula_structural   LiTb6Cd5C2
_chemical_formula_sum   'Li2 Tb12 Cd10 C4'
_cell_volume   600.27790404
_cell_formula_units_Z   2
loop_
 _symmetry_equiv_pos_site_id
 _symmetry_equiv_pos_as_xyz
  1  'x, y, z'
loop_
 _atom_site_type_symbol
 _atom_site_label
 _atom_site_symmetry_multiplicity
 _atom_site_fract_x
 _atom_site_fract_y
 _atom_site_fract_z
 _atom_site_occupancy
  Li  Li0  1  0.000025  0.999976  0.000182  1
  Li  Li1  1  0.499905  0.999913  0.999885  1
  Tb  Tb2  1  0.936619  0.373276  0.186625  1
  Tb  Tb3  1  0.933266  0.749089  0.184883  1
  Tb  Tb4  1  0.314068  0.749911  0.186865  1
  Tb  Tb5  1  0.684297  0.250738  0.435776  1
  Tb  Tb6  1  0.684903  0.869784  0.434889  1
  Tb  Tb7  1  0.064361  0.250103  0.436927  1
  Tb  Tb8  1  0.315200  0.130404  0.565209  1
  Tb  Tb9  1  0.315839  0.749075  0.564178  1
  Tb  Tb10  1  0.935841  0.749923  0.563040  1
  Tb  Tb11  1  0.685732  0.250100  0.813164  1
  Tb  Tb12  1  0.063250  0.626492  0.813231  1
  Tb  Tb13  1  0.066444  0.250738  0.814948  1
  Cd  Cd14  1  0.499917  0.500216  0.000070  1
  Cd  Cd15  1  0.708709  0.919075  0.116821  1
  Cd  Cd16  1  0.289756  0.081044  0.197866  1
  Cd  Cd17  1  0.284591  0.401849  0.201121  1
  Cd  Cd18  1  0.617239  0.401897  0.200751  1
  Cd  Cd19  1  0.500249  0.500104  0.500109  1
  Cd  Cd20  1  0.382621  0.598124  0.799281  1
  Cd  Cd21  1  0.715573  0.598183  0.798860  1
  Cd  Cd22  1  0.710331  0.919035  0.802218  1
  Cd  Cd23  1  0.291307  0.081035  0.883188  1
  C  C24  1  0.999963  0.500089  0.000163  1
  C  C25  1  0.000082  0.999864  0.499911  1
  C  C26  1  0.499794  0.999874  0.499950  1
  C  C27  1  0.000127  0.500101  0.499893  1
