# generated using pymatgen
data_PaAg(I2Cl)2
_symmetry_space_group_name_H-M   'P 1'
_cell_length_a   7.65917846
_cell_length_b   7.72285607
_cell_length_c   8.19833500
_cell_angle_alpha   90.16295830
_cell_angle_beta   118.33105626
_cell_angle_gamma   119.92051837
_symmetry_Int_Tables_number   1
_chemical_formula_structural   PaAg(I2Cl)2
_chemical_formula_sum   'Pa1 Ag1 I4 Cl2'
_cell_volume   351.24795490
_cell_formula_units_Z   1
loop_
 _symmetry_equiv_pos_site_id
 _symmetry_equiv_pos_as_xyz
  1  'x, y, z'
loop_
 _atom_site_type_symbol
 _atom_site_label
 _atom_site_symmetry_multiplicity
 _atom_site_fract_x
 _atom_site_fract_y
 _atom_site_fract_z
 _atom_site_occupancy
  Pa  Pa0  1  0.602035  0.291512  0.897984  1
  Ag  Ag1  1  0.210348  0.666648  0.783746  1
  I  I2  1  0.440807  0.013987  0.120579  1
  I  I3  1  0.137365  0.261888  0.679958  1
  I  I4  1  0.721152  0.527717  0.636590  1
  I  I5  1  0.424469  0.917067  0.599697  1
  Cl  Cl6  1  0.753969  0.616050  0.132133  1
  Cl  Cl7  1  0.008853  0.354632  0.097811  1
