# generated using pymatgen
data_DySc4Si12Ir19
_symmetry_space_group_name_H-M   'P 1'
_cell_length_a   12.75333600
_cell_length_b   12.75333654
_cell_length_c   3.94207100
_cell_angle_alpha   90.00000000
_cell_angle_beta   90.00000000
_cell_angle_gamma   120.00000380
_symmetry_Int_Tables_number   1
_chemical_formula_structural   DySc4Si12Ir19
_chemical_formula_sum   'Dy1 Sc4 Si12 Ir19'
_cell_volume   555.26804221
_cell_formula_units_Z   1
loop_
 _symmetry_equiv_pos_site_id
 _symmetry_equiv_pos_as_xyz
  1  'x, y, z'
loop_
 _atom_site_type_symbol
 _atom_site_label
 _atom_site_symmetry_multiplicity
 _atom_site_fract_x
 _atom_site_fract_y
 _atom_site_fract_z
 _atom_site_occupancy
  Dy  Dy0  1  0.333333  0.666667  0.000000  1
  Sc  Sc1  1  0.666667  0.333333  0.000000  1
  Sc  Sc2  1  0.815788  0.999913  0.500000  1
  Sc  Sc3  1  0.000087  0.815875  0.500000  1
  Sc  Sc4  1  0.184125  0.184212  0.500000  1
  Si  Si5  1  0.179373  0.001114  0.000000  1
  Si  Si6  1  0.998886  0.178259  0.000000  1
  Si  Si7  1  0.821741  0.820627  0.000000  1
  Si  Si8  1  0.167136  0.479843  0.500000  1
  Si  Si9  1  0.520157  0.687292  0.500000  1
  Si  Si10  1  0.312708  0.832864  0.500000  1
  Si  Si11  1  0.687733  0.517060  0.500000  1
  Si  Si12  1  0.829327  0.312267  0.500000  1
  Si  Si13  1  0.482940  0.170673  0.500000  1
  Si  Si14  1  0.634705  0.000328  0.000000  1
  Si  Si15  1  0.999672  0.634377  0.000000  1
  Si  Si16  1  0.365623  0.365295  0.000000  1
  Ir  Ir17  1  0.447180  0.999476  0.000000  1
  Ir  Ir18  1  0.000524  0.447705  0.000000  1
  Ir  Ir19  1  0.552295  0.552820  0.000000  1
  Ir  Ir20  1  0.360520  0.486450  0.500000  1
  Ir  Ir21  1  0.513550  0.874070  0.500000  1
  Ir  Ir22  1  0.125930  0.639480  0.500000  1
  Ir  Ir23  1  0.872344  0.511302  0.500000  1
  Ir  Ir24  1  0.638958  0.127656  0.500000  1
  Ir  Ir25  1  0.488698  0.361042  0.500000  1
  Ir  Ir26  1  0.181605  0.373164  0.000000  1
  Ir  Ir27  1  0.626836  0.808441  0.000000  1
  Ir  Ir28  1  0.191559  0.818395  0.000000  1
  Ir  Ir29  1  0.807184  0.624445  0.000000  1
  Ir  Ir30  1  0.817260  0.192816  0.000000  1
  Ir  Ir31  1  0.375555  0.182740  0.000000  1
  Ir  Ir32  1  0.281464  0.001244  0.500000  1
  Ir  Ir33  1  0.998756  0.280220  0.500000  1
  Ir  Ir34  1  0.719780  0.718536  0.500000  1
  Ir  Ir35  1  0.000000  0.000000  0.000000  1
