# generated using pymatgen
data_Sr4CaDy3(As7Ir8)2
_symmetry_space_group_name_H-M   'P 1'
_cell_length_a   4.10243300
_cell_length_b   13.29502568
_cell_length_c   13.71717381
_cell_angle_alpha   81.43002270
_cell_angle_beta   90.00000000
_cell_angle_gamma   90.00000000
_symmetry_Int_Tables_number   1
_chemical_formula_structural   Sr4CaDy3(As7Ir8)2
_chemical_formula_sum   'Sr4 Ca1 Dy3 As14 Ir16'
_cell_volume   739.80791552
_cell_formula_units_Z   1
loop_
 _symmetry_equiv_pos_site_id
 _symmetry_equiv_pos_as_xyz
  1  'x, y, z'
loop_
 _atom_site_type_symbol
 _atom_site_label
 _atom_site_symmetry_multiplicity
 _atom_site_fract_x
 _atom_site_fract_y
 _atom_site_fract_z
 _atom_site_occupancy
  Sr  Sr0  1  0.250000  0.105154  0.789880  1
  Sr  Sr1  1  0.750000  0.895110  0.209863  1
  Sr  Sr2  1  0.250000  0.285090  0.103218  1
  Sr  Sr3  1  0.750000  0.714950  0.896079  1
  Ca  Ca4  1  0.750000  0.789521  0.561507  1
  Dy  Dy5  1  0.250000  0.517017  0.291916  1
  Dy  Dy6  1  0.750000  0.482914  0.707302  1
  Dy  Dy7  1  0.250000  0.208174  0.440765  1
  As  As8  1  0.250000  0.056770  0.101970  1
  As  As9  1  0.750000  0.943176  0.897894  1
  As  As10  1  0.250000  0.315918  0.685617  1
  As  As11  1  0.750000  0.684919  0.313697  1
  As  As12  1  0.250000  0.608740  0.565553  1
  As  As13  1  0.750000  0.392130  0.434544  1
  As  As14  1  0.250000  0.842260  0.718267  1
  As  As15  1  0.750000  0.157335  0.281072  1
  As  As16  1  0.750000  0.256994  0.916174  1
  As  As17  1  0.250000  0.743667  0.083870  1
  As  As18  1  0.750000  0.095026  0.586062  1
  As  As19  1  0.250000  0.904846  0.414501  1
  As  As20  1  0.750000  0.468738  0.129879  1
  As  As21  1  0.250000  0.530164  0.871629  1
  Ir  Ir22  1  0.250000  0.987341  0.572588  1
  Ir  Ir23  1  0.750000  0.018291  0.426671  1
  Ir  Ir24  1  0.250000  0.658760  0.727458  1
  Ir  Ir25  1  0.750000  0.339372  0.274696  1
  Ir  Ir26  1  0.250000  0.549824  0.052058  1
  Ir  Ir27  1  0.750000  0.448809  0.949375  1
  Ir  Ir28  1  0.250000  0.060164  0.280849  1
  Ir  Ir29  1  0.750000  0.940096  0.719088  1
  Ir  Ir30  1  0.250000  0.426436  0.523865  1
  Ir  Ir31  1  0.750000  0.573844  0.475278  1
  Ir  Ir32  1  0.250000  0.920150  0.998681  1
  Ir  Ir33  1  0.750000  0.080151  0.001246  1
  Ir  Ir34  1  0.250000  0.721109  0.401357  1
  Ir  Ir35  1  0.750000  0.277390  0.595575  1
  Ir  Ir36  1  0.250000  0.348047  0.856059  1
  Ir  Ir37  1  0.750000  0.651605  0.143898  1
