# generated using pymatgen
data_PrHf4UF22
_symmetry_space_group_name_H-M   'P 1'
_cell_length_a   8.47419829
_cell_length_b   8.47419861
_cell_length_c   8.47419805
_cell_angle_alpha   125.17223131
_cell_angle_beta   106.72018260
_cell_angle_gamma   97.83182658
_symmetry_Int_Tables_number   1
_chemical_formula_structural   PrHf4UF22
_chemical_formula_sum   'Pr1 Hf4 U1 F22'
_cell_volume   439.53898059
_cell_formula_units_Z   1
loop_
 _symmetry_equiv_pos_site_id
 _symmetry_equiv_pos_as_xyz
  1  'x, y, z'
loop_
 _atom_site_type_symbol
 _atom_site_label
 _atom_site_symmetry_multiplicity
 _atom_site_fract_x
 _atom_site_fract_y
 _atom_site_fract_z
 _atom_site_occupancy
  Pr  Pr0  1  0.250000  0.750000  0.500000  1
  Hf  Hf1  1  0.680546  0.633126  0.313734  1
  Hf  Hf2  1  0.319392  0.366812  0.686266  1
  Hf  Hf3  1  0.180608  0.866874  0.047419  1
  Hf  Hf4  1  0.819454  0.133188  0.952581  1
  U  U5  1  0.750000  0.250000  0.500000  1
  F  F6  1  0.705841  0.890066  0.338336  1
  F  F7  1  0.294658  0.108527  0.659820  1
  F  F8  1  0.551730  0.367506  0.661664  1
  F  F9  1  0.948270  0.609934  0.815775  1
  F  F10  1  0.448707  0.634837  0.340180  1
  F  F11  1  0.051293  0.391473  0.186131  1
  F  F12  1  0.794159  0.132494  0.184225  1
  F  F13  1  0.205342  0.865163  0.813869  1
  F  F14  1  0.499873  0.499873  0.000000  1
  F  F15  1  0.000127  0.000127  0.000000  1
  F  F16  1  0.780251  0.870223  0.649985  1
  F  F17  1  0.220237  0.130266  0.350015  1
  F  F18  1  0.279763  0.629777  0.910028  1
  F  F19  1  0.719749  0.369734  0.089972  1
  F  F20  1  0.949243  0.737212  0.416597  1
  F  F21  1  0.051237  0.261578  0.584018  1
  F  F22  1  0.320616  0.532646  0.583403  1
  F  F23  1  0.179384  0.762788  0.212031  1
  F  F24  1  0.677560  0.467219  0.415982  1
  F  F25  1  0.822440  0.238422  0.789658  1
  F  F26  1  0.550757  0.967354  0.787969  1
  F  F27  1  0.448763  0.032781  0.210342  1
