# generated using pymatgen
data_Er4GeBi3Sb2Rh7
_symmetry_space_group_name_H-M   'P 1'
_cell_length_a   7.63514840
_cell_length_b   7.68210485
_cell_length_c   7.60487364
_cell_angle_alpha   107.59265351
_cell_angle_beta   110.24065726
_cell_angle_gamma   110.64338821
_symmetry_Int_Tables_number   1
_chemical_formula_structural   Er4GeBi3Sb2Rh7
_chemical_formula_sum   'Er4 Ge1 Bi3 Sb2 Rh7'
_cell_volume   342.89325084
_cell_formula_units_Z   1
loop_
 _symmetry_equiv_pos_site_id
 _symmetry_equiv_pos_as_xyz
  1  'x, y, z'
loop_
 _atom_site_type_symbol
 _atom_site_label
 _atom_site_symmetry_multiplicity
 _atom_site_fract_x
 _atom_site_fract_y
 _atom_site_fract_z
 _atom_site_occupancy
  Er  Er0  1  0.000000  0.983029  0.517360  1
  Er  Er1  1  0.000000  0.536743  0.988689  1
  Er  Er2  1  0.458135  0.983517  0.988363  1
  Er  Er3  1  0.541865  0.525381  0.530226  1
  Ge  Ge4  1  0.000000  0.652206  0.649796  1
  Bi  Bi5  1  0.000000  0.304601  0.302463  1
  Bi  Bi6  1  0.305625  0.320564  0.012608  1
  Bi  Bi7  1  0.694375  0.014939  0.706983  1
  Sb  Sb8  1  0.680451  0.692919  0.010656  1
  Sb  Sb9  1  0.319549  0.012468  0.330205  1
  Rh  Rh10  1  0.749066  0.258978  0.500626  1
  Rh  Rh11  1  0.754666  0.508524  0.254982  1
  Rh  Rh12  1  0.498276  0.262732  0.754369  1
  Rh  Rh13  1  0.250934  0.509913  0.751560  1
  Rh  Rh14  1  0.245334  0.753858  0.500316  1
  Rh  Rh15  1  0.501724  0.764456  0.256093  1
  Rh  Rh16  1  0.000000  0.915170  0.944702  1
