# generated using pymatgen
data_LiCrCoF6
_symmetry_space_group_name_H-M   'P 1'
_cell_length_a   4.70971600
_cell_length_b   4.70971600
_cell_length_c   9.27847600
_cell_angle_alpha   90.00000000
_cell_angle_beta   90.00000000
_cell_angle_gamma   90.00000000
_symmetry_Int_Tables_number   1
_chemical_formula_structural   LiCrCoF6
_chemical_formula_sum   'Li2 Cr2 Co2 F12'
_cell_volume   205.80981766
_cell_formula_units_Z   2
loop_
 _symmetry_equiv_pos_site_id
 _symmetry_equiv_pos_as_xyz
  1  'x, y, z'
loop_
 _atom_site_type_symbol
 _atom_site_label
 _atom_site_symmetry_multiplicity
 _atom_site_fract_x
 _atom_site_fract_y
 _atom_site_fract_z
 _atom_site_occupancy
  Li  Li0  1  0.500000  0.500000  0.832653  1
  Li  Li1  1  0.000000  0.000000  0.332653  1
  Cr  Cr2  1  0.500000  0.500000  0.166057  1
  Cr  Cr3  1  0.000000  0.000000  0.666057  1
  Co  Co4  1  0.500000  0.500000  0.501208  1
  Co  Co5  1  0.000000  0.000000  0.001208  1
  F  F6  1  0.193525  0.806475  0.506711  1
  F  F7  1  0.806475  0.193525  0.506711  1
  F  F8  1  0.693525  0.693525  0.006711  1
  F  F9  1  0.306475  0.306475  0.006711  1
  F  F10  1  0.192797  0.807203  0.824576  1
  F  F11  1  0.807203  0.192797  0.824576  1
  F  F12  1  0.692797  0.692797  0.324576  1
  F  F13  1  0.307203  0.307203  0.324576  1
  F  F14  1  0.793927  0.206073  0.166805  1
  F  F15  1  0.206073  0.793927  0.166805  1
  F  F16  1  0.293927  0.293927  0.666805  1
  F  F17  1  0.706073  0.706073  0.666805  1
