# generated using pymatgen
data_Sc8Ti2Re10Si15Ge
_symmetry_space_group_name_H-M   'P 1'
_cell_length_a   6.63519127
_cell_length_b   6.65482596
_cell_length_c   12.60478044
_cell_angle_alpha   90.33220443
_cell_angle_beta   90.04260340
_cell_angle_gamma   90.15078082
_symmetry_Int_Tables_number   1
_chemical_formula_structural   Sc8Ti2Re10Si15Ge
_chemical_formula_sum   'Sc8 Ti2 Re10 Si15 Ge1'
_cell_volume   556.56578583
_cell_formula_units_Z   1
loop_
 _symmetry_equiv_pos_site_id
 _symmetry_equiv_pos_as_xyz
  1  'x, y, z'
loop_
 _atom_site_type_symbol
 _atom_site_label
 _atom_site_symmetry_multiplicity
 _atom_site_fract_x
 _atom_site_fract_y
 _atom_site_fract_z
 _atom_site_occupancy
  Sc  Sc0  1  0.009765  0.656697  0.029543  1
  Sc  Sc1  1  0.990930  0.338518  0.533521  1
  Sc  Sc2  1  0.340415  0.994468  0.469814  1
  Sc  Sc3  1  0.155765  0.486075  0.782829  1
  Sc  Sc4  1  0.835348  0.504679  0.278852  1
  Sc  Sc5  1  0.489311  0.161987  0.216973  1
  Sc  Sc6  1  0.512148  0.843341  0.720680  1
  Sc  Sc7  1  0.654420  0.012687  0.967780  1
  Ti  Ti8  1  0.659032  0.658981  0.502205  1
  Ti  Ti9  1  0.161410  0.840829  0.246432  1
  Re  Re10  1  0.334436  0.337219  0.999624  1
  Re  Re11  1  0.001606  0.804553  0.637467  1
  Re  Re12  1  0.987841  0.177871  0.136284  1
  Re  Re13  1  0.817407  0.008077  0.365221  1
  Re  Re14  1  0.328969  0.498073  0.382468  1
  Re  Re15  1  0.695263  0.516148  0.888941  1
  Re  Re16  1  0.491610  0.321814  0.613705  1
  Re  Re17  1  0.496584  0.692747  0.115799  1
  Re  Re18  1  0.196853  0.983981  0.861194  1
  Re  Re19  1  0.836498  0.163055  0.750811  1
  Si  Si20  1  0.627335  0.296124  0.427725  1
  Si  Si21  1  0.383515  0.696137  0.926839  1
  Si  Si22  1  0.197533  0.118538  0.676124  1
  Si  Si23  1  0.298275  0.625052  0.573531  1
  Si  Si24  1  0.695342  0.380612  0.073271  1
  Si  Si25  1  0.795246  0.873329  0.177120  1
  Si  Si26  1  0.128392  0.204533  0.323051  1
  Si  Si27  1  0.979222  0.268903  0.941199  1
  Si  Si28  1  0.722841  0.025380  0.562166  1
  Si  Si29  1  0.217057  0.472204  0.188172  1
  Si  Si30  1  0.775129  0.519562  0.695976  1
  Si  Si31  1  0.480423  0.230975  0.809116  1
  Si  Si32  1  0.524902  0.788125  0.308994  1
  Si  Si33  1  0.272843  0.980652  0.054479  1
  Si  Si34  1  0.883895  0.804031  0.824130  1
  Ge  Ge35  1  0.022436  0.714041  0.437966  1
