# generated using pymatgen
data_Pr3Nd(Sn5Rh3)2
_symmetry_space_group_name_H-M   'P 1'
_cell_length_a   13.63471549
_cell_length_b   13.63471625
_cell_length_c   7.28797397
_cell_angle_alpha   89.98152529
_cell_angle_beta   90.01847412
_cell_angle_gamma   160.79175672
_symmetry_Int_Tables_number   1
_chemical_formula_structural   Pr3Nd(Sn5Rh3)2
_chemical_formula_sum   'Pr3 Nd1 Sn10 Rh6'
_cell_volume   445.75701805
_cell_formula_units_Z   1
loop_
 _symmetry_equiv_pos_site_id
 _symmetry_equiv_pos_as_xyz
  1  'x, y, z'
loop_
 _atom_site_type_symbol
 _atom_site_label
 _atom_site_symmetry_multiplicity
 _atom_site_fract_x
 _atom_site_fract_y
 _atom_site_fract_z
 _atom_site_occupancy
  Pr  Pr0  1  0.172426  0.827574  0.752918  1
  Pr  Pr1  1  0.827547  0.172453  0.253273  1
  Pr  Pr2  1  0.476092  0.523908  0.738556  1
  Nd  Nd3  1  0.524221  0.475779  0.238686  1
  Sn  Sn4  1  0.878793  0.121207  0.732746  1
  Sn  Sn5  1  0.121034  0.878966  0.233047  1
  Sn  Sn6  1  0.704125  0.295875  0.049183  1
  Sn  Sn7  1  0.295550  0.704450  0.549507  1
  Sn  Sn8  1  0.596372  0.403628  0.611411  1
  Sn  Sn9  1  0.403984  0.596016  0.112418  1
  Sn  Sn10  1  0.951883  0.048117  0.400817  1
  Sn  Sn11  1  0.048452  0.951548  0.901697  1
  Sn  Sn12  1  0.289661  0.710339  0.974217  1
  Sn  Sn13  1  0.710157  0.289843  0.473784  1
  Rh  Rh14  1  0.051608  0.948392  0.519431  1
  Rh  Rh15  1  0.948656  0.051344  0.020473  1
  Rh  Rh16  1  0.777078  0.222922  0.763636  1
  Rh  Rh17  1  0.222640  0.777360  0.263494  1
  Rh  Rh18  1  0.394513  0.605487  0.483260  1
  Rh  Rh19  1  0.605207  0.394793  0.983446  1
