# generated using pymatgen
data_Er4Cr4Fe13(CoP4)3
_symmetry_space_group_name_H-M   'P 1'
_cell_length_a   3.65035400
_cell_length_b   10.30745439
_cell_length_c   11.85059979
_cell_angle_alpha   89.92164932
_cell_angle_beta   90.00000000
_cell_angle_gamma   90.00000000
_symmetry_Int_Tables_number   1
_chemical_formula_structural   Er4Cr4Fe13(CoP4)3
_chemical_formula_sum   'Er4 Cr4 Fe13 Co3 P12'
_cell_volume   445.88856054
_cell_formula_units_Z   1
loop_
 _symmetry_equiv_pos_site_id
 _symmetry_equiv_pos_as_xyz
  1  'x, y, z'
loop_
 _atom_site_type_symbol
 _atom_site_label
 _atom_site_symmetry_multiplicity
 _atom_site_fract_x
 _atom_site_fract_y
 _atom_site_fract_z
 _atom_site_occupancy
  Er  Er0  1  0.250000  0.579788  0.705439  1
  Er  Er1  1  0.250000  0.920304  0.204894  1
  Er  Er2  1  0.750000  0.419148  0.294615  1
  Er  Er3  1  0.750000  0.080730  0.794334  1
  Cr  Cr4  1  0.250000  0.702683  0.988895  1
  Cr  Cr5  1  0.250000  0.796711  0.489366  1
  Cr  Cr6  1  0.750000  0.297621  0.011395  1
  Cr  Cr7  1  0.750000  0.202233  0.511236  1
  Fe  Fe8  1  0.750000  0.906790  0.011084  1
  Fe  Fe9  1  0.250000  0.218842  0.173963  1
  Fe  Fe10  1  0.250000  0.280671  0.673829  1
  Fe  Fe11  1  0.750000  0.781025  0.826005  1
  Fe  Fe12  1  0.750000  0.718193  0.325316  1
  Fe  Fe13  1  0.250000  0.874863  0.701767  1
  Fe  Fe14  1  0.250000  0.625311  0.201202  1
  Fe  Fe15  1  0.750000  0.124480  0.299235  1
  Fe  Fe16  1  0.750000  0.376011  0.799223  1
  Fe  Fe17  1  0.250000  0.463453  0.933299  1
  Fe  Fe18  1  0.250000  0.036071  0.433053  1
  Fe  Fe19  1  0.750000  0.537029  0.067700  1
  Fe  Fe20  1  0.750000  0.962642  0.567414  1
  Co  Co21  1  0.250000  0.405343  0.487125  1
  Co  Co22  1  0.250000  0.096384  0.987185  1
  Co  Co23  1  0.750000  0.593518  0.512545  1
  P  P24  1  0.250000  0.423299  0.113312  1
  P  P25  1  0.250000  0.076650  0.613056  1
  P  P26  1  0.750000  0.576513  0.887156  1
  P  P27  1  0.750000  0.922619  0.387116  1
  P  P28  1  0.250000  0.267285  0.866150  1
  P  P29  1  0.250000  0.232946  0.366467  1
  P  P30  1  0.750000  0.735643  0.131293  1
  P  P31  1  0.750000  0.765561  0.632989  1
  P  P32  1  0.250000  0.599230  0.392021  1
  P  P33  1  0.250000  0.902389  0.893747  1
  P  P34  1  0.750000  0.399719  0.608758  1
  P  P35  1  0.750000  0.098305  0.107815  1
