# generated using pymatgen
data_Cs2NpTe3
_symmetry_space_group_name_H-M   'P 1'
_cell_length_a   15.32692700
_cell_length_b   7.62394508
_cell_length_c   10.24086945
_cell_angle_alpha   72.02642233
_cell_angle_beta   90.00000000
_cell_angle_gamma   90.00000000
_symmetry_Int_Tables_number   1
_chemical_formula_structural   Cs2NpTe3
_chemical_formula_sum   'Cs8 Np4 Te12'
_cell_volume   1138.26406688
_cell_formula_units_Z   4
loop_
 _symmetry_equiv_pos_site_id
 _symmetry_equiv_pos_as_xyz
  1  'x, y, z'
loop_
 _atom_site_type_symbol
 _atom_site_label
 _atom_site_symmetry_multiplicity
 _atom_site_fract_x
 _atom_site_fract_y
 _atom_site_fract_z
 _atom_site_occupancy
  Cs  Cs0  1  0.955014  0.672529  0.660625  1
  Cs  Cs1  1  0.455014  0.827471  0.339375  1
  Cs  Cs2  1  0.044986  0.327471  0.339375  1
  Cs  Cs3  1  0.544986  0.172529  0.660625  1
  Cs  Cs4  1  0.870579  0.084624  0.897596  1
  Cs  Cs5  1  0.370579  0.415376  0.102404  1
  Cs  Cs6  1  0.129421  0.915376  0.102404  1
  Cs  Cs7  1  0.629421  0.584624  0.897596  1
  Np  Np8  1  0.750485  0.656506  0.295998  1
  Np  Np9  1  0.250485  0.843494  0.704002  1
  Np  Np10  1  0.249515  0.343494  0.704002  1
  Np  Np11  1  0.749515  0.156506  0.295998  1
  Te  Te12  1  0.906538  0.912673  0.282945  1
  Te  Te13  1  0.406538  0.587327  0.717055  1
  Te  Te14  1  0.093462  0.087327  0.717055  1
  Te  Te15  1  0.593462  0.412673  0.282945  1
  Te  Te16  1  0.818750  0.314447  0.516973  1
  Te  Te17  1  0.318750  0.185553  0.483027  1
  Te  Te18  1  0.181250  0.685553  0.483027  1
  Te  Te19  1  0.681250  0.814447  0.516973  1
  Te  Te20  1  0.841364  0.493806  0.088391  1
  Te  Te21  1  0.341364  0.006194  0.911609  1
  Te  Te22  1  0.158636  0.506194  0.911609  1
  Te  Te23  1  0.658636  0.993806  0.088391  1
