# generated using pymatgen
data_NaYb(BeB14)2
_symmetry_space_group_name_H-M   'P 1'
_cell_length_a   7.20275701
_cell_length_b   7.20275650
_cell_length_c   7.20275642
_cell_angle_alpha   133.38187443
_cell_angle_beta   110.18906485
_cell_angle_gamma   88.16755086
_symmetry_Int_Tables_number   1
_chemical_formula_structural   NaYb(BeB14)2
_chemical_formula_sum   'Na1 Yb1 Be2 B28'
_cell_volume   243.10745937
_cell_formula_units_Z   1
loop_
 _symmetry_equiv_pos_site_id
 _symmetry_equiv_pos_as_xyz
  1  'x, y, z'
loop_
 _atom_site_type_symbol
 _atom_site_label
 _atom_site_symmetry_multiplicity
 _atom_site_fract_x
 _atom_site_fract_y
 _atom_site_fract_z
 _atom_site_occupancy
  Na  Na0  1  0.603597  0.250000  0.353597  1
  Yb  Yb1  1  0.396492  0.750000  0.646492  1
  Be  Be2  1  0.999184  0.001186  0.500370  1
  Be  Be3  1  0.999184  0.498814  0.997998  1
  B  B4  1  0.633575  0.666169  0.967407  1
  B  B5  1  0.366795  0.333593  0.033201  1
  B  B6  1  0.199608  0.166407  0.033201  1
  B  B7  1  0.801238  0.833831  0.967407  1
  B  B8  1  0.793524  0.159238  0.634284  1
  B  B9  1  0.206824  0.841893  0.364933  1
  B  B10  1  0.023039  0.658107  0.364933  1
  B  B11  1  0.975046  0.340762  0.634284  1
  B  B12  1  0.923000  0.090851  0.832150  1
  B  B13  1  0.077592  0.909586  0.168006  1
  B  B14  1  0.758422  0.590414  0.168006  1
  B  B15  1  0.241297  0.409149  0.832150  1
  B  B16  1  0.396934  0.396398  0.676616  1
  B  B17  1  0.603383  0.279446  0.000444  1
  B  B18  1  0.220997  0.897060  0.000444  1
  B  B19  1  0.780217  0.779681  0.676616  1
  B  B20  1  0.603383  0.602940  0.323937  1
  B  B21  1  0.396934  0.720319  0.000535  1
  B  B22  1  0.780217  0.103602  0.000535  1
  B  B23  1  0.220997  0.220554  0.323937  1
  B  B24  1  0.035016  0.826212  0.700896  1
  B  B25  1  0.964521  0.664744  0.789782  1
  B  B26  1  0.625038  0.325261  0.789782  1
  B  B27  1  0.374684  0.165879  0.700896  1
  B  B28  1  0.964521  0.174739  0.299776  1
  B  B29  1  0.035016  0.334121  0.208805  1
  B  B30  1  0.374684  0.673788  0.208805  1
  B  B31  1  0.625038  0.835256  0.299776  1
