# generated using pymatgen
data_NdMn(InIr4)2
_symmetry_space_group_name_H-M   'P 1'
_cell_length_a   5.25025500
_cell_length_b   8.82205000
_cell_length_c   8.82205000
_cell_angle_alpha   90.00000000
_cell_angle_beta   90.00000000
_cell_angle_gamma   90.00000000
_symmetry_Int_Tables_number   1
_chemical_formula_structural   NdMn(InIr4)2
_chemical_formula_sum   'Nd2 Mn2 In4 Ir16'
_cell_volume   408.61981885
_cell_formula_units_Z   2
loop_
 _symmetry_equiv_pos_site_id
 _symmetry_equiv_pos_as_xyz
  1  'x, y, z'
loop_
 _atom_site_type_symbol
 _atom_site_label
 _atom_site_symmetry_multiplicity
 _atom_site_fract_x
 _atom_site_fract_y
 _atom_site_fract_z
 _atom_site_occupancy
  Nd  Nd0  1  0.000000  0.500000  0.500000  1
  Nd  Nd1  1  0.000000  0.000000  0.000000  1
  Mn  Mn2  1  0.500000  0.000000  0.500000  1
  Mn  Mn3  1  0.500000  0.500000  0.000000  1
  In  In4  1  0.000000  0.623899  0.123899  1
  In  In5  1  0.000000  0.376101  0.876101  1
  In  In6  1  0.000000  0.876101  0.623899  1
  In  In7  1  0.000000  0.123899  0.376101  1
  Ir  Ir8  1  0.756054  0.173965  0.673965  1
  Ir  Ir9  1  0.756054  0.826035  0.326035  1
  Ir  Ir10  1  0.756054  0.326035  0.173965  1
  Ir  Ir11  1  0.756054  0.673965  0.826035  1
  Ir  Ir12  1  0.243946  0.826035  0.326035  1
  Ir  Ir13  1  0.243946  0.173965  0.673965  1
  Ir  Ir14  1  0.243946  0.673965  0.826035  1
  Ir  Ir15  1  0.243946  0.326035  0.173965  1
  Ir  Ir16  1  0.500000  0.707266  0.563226  1
  Ir  Ir17  1  0.500000  0.292734  0.436774  1
  Ir  Ir18  1  0.500000  0.792734  0.063226  1
  Ir  Ir19  1  0.500000  0.207266  0.936774  1
  Ir  Ir20  1  0.500000  0.563226  0.292734  1
  Ir  Ir21  1  0.500000  0.436774  0.707266  1
  Ir  Ir22  1  0.500000  0.063226  0.207266  1
  Ir  Ir23  1  0.500000  0.936774  0.792734  1
