# generated using pymatgen
data_ErPa(SnRh)2
_symmetry_space_group_name_H-M   'P 1'
_cell_length_a   7.50356402
_cell_length_b   7.40741973
_cell_length_c   7.96514900
_cell_angle_alpha   90.00000000
_cell_angle_beta   90.00000000
_cell_angle_gamma   120.18298629
_symmetry_Int_Tables_number   1
_chemical_formula_structural   ErPa(SnRh)2
_chemical_formula_sum   'Er3 Pa3 Sn6 Rh6'
_cell_volume   382.69724303
_cell_formula_units_Z   3
loop_
 _symmetry_equiv_pos_site_id
 _symmetry_equiv_pos_as_xyz
  1  'x, y, z'
loop_
 _atom_site_type_symbol
 _atom_site_label
 _atom_site_symmetry_multiplicity
 _atom_site_fract_x
 _atom_site_fract_y
 _atom_site_fract_z
 _atom_site_occupancy
  Er  Er0  1  0.004821  0.411178  0.750000  1
  Er  Er1  1  0.593713  0.595202  0.750000  1
  Er  Er2  1  0.995712  0.402378  0.250000  1
  Pa  Pa3  1  0.414885  0.002274  0.750000  1
  Pa  Pa4  1  0.587794  0.586125  0.250000  1
  Pa  Pa5  1  0.414892  0.001315  0.250000  1
  Sn  Sn6  1  0.250502  0.263742  0.500268  1
  Sn  Sn7  1  0.993817  0.731901  0.501450  1
  Sn  Sn8  1  0.993817  0.731901  0.998550  1
  Sn  Sn9  1  0.755772  0.005326  0.503878  1
  Sn  Sn10  1  0.755772  0.005326  0.996122  1
  Sn  Sn11  1  0.250502  0.263742  0.999732  1
  Rh  Rh12  1  0.344964  0.688921  0.487319  1
  Rh  Rh13  1  0.641475  0.317202  0.496445  1
  Rh  Rh14  1  0.344964  0.688921  0.012681  1
  Rh  Rh15  1  0.016397  0.000337  0.750000  1
  Rh  Rh16  1  0.998722  0.987002  0.250000  1
  Rh  Rh17  1  0.641475  0.317202  0.003555  1
