# generated using pymatgen
data_DyAl7Cu3
_symmetry_space_group_name_H-M   'P 1'
_cell_length_a   8.18116399
_cell_length_b   8.18116415
_cell_length_c   8.18116580
_cell_angle_alpha   56.80663427
_cell_angle_beta   56.80663741
_cell_angle_gamma   56.80664043
_symmetry_Int_Tables_number   1
_chemical_formula_structural   DyAl7Cu3
_chemical_formula_sum   'Dy2 Al14 Cu6'
_cell_volume   358.65869457
_cell_formula_units_Z   2
loop_
 _symmetry_equiv_pos_site_id
 _symmetry_equiv_pos_as_xyz
  1  'x, y, z'
loop_
 _atom_site_type_symbol
 _atom_site_label
 _atom_site_symmetry_multiplicity
 _atom_site_fract_x
 _atom_site_fract_y
 _atom_site_fract_z
 _atom_site_occupancy
  Dy  Dy0  1  0.500000  0.500000  0.500000  1
  Dy  Dy1  1  0.000000  0.000000  0.000000  1
  Al  Al2  1  0.422589  0.648381  0.839396  1
  Al  Al3  1  0.839396  0.422589  0.648381  1
  Al  Al4  1  0.648381  0.839396  0.422589  1
  Al  Al5  1  0.077411  0.660604  0.851619  1
  Al  Al6  1  0.851619  0.077411  0.660604  1
  Al  Al7  1  0.660604  0.851619  0.077411  1
  Al  Al8  1  0.577411  0.351619  0.160604  1
  Al  Al9  1  0.160604  0.577411  0.351619  1
  Al  Al10  1  0.250000  0.250000  0.250000  1
  Al  Al11  1  0.750000  0.750000  0.750000  1
  Al  Al12  1  0.339396  0.148381  0.922589  1
  Al  Al13  1  0.148381  0.922589  0.339396  1
  Al  Al14  1  0.922589  0.339396  0.148381  1
  Al  Al15  1  0.351619  0.160604  0.577411  1
  Cu  Cu16  1  0.750000  0.074632  0.425368  1
  Cu  Cu17  1  0.425368  0.750000  0.074632  1
  Cu  Cu18  1  0.074632  0.425368  0.750000  1
  Cu  Cu19  1  0.250000  0.925368  0.574632  1
  Cu  Cu20  1  0.574632  0.250000  0.925368  1
  Cu  Cu21  1  0.925368  0.574632  0.250000  1
