# generated using pymatgen
data_HoEr9(Tl2Pt)4
_symmetry_space_group_name_H-M   'P 1'
_cell_length_a   3.59384600
_cell_length_b   8.14044315
_cell_length_c   18.19468600
_cell_angle_alpha   89.98884412
_cell_angle_beta   90.00000000
_cell_angle_gamma   90.00000000
_symmetry_Int_Tables_number   1
_chemical_formula_structural   HoEr9(Tl2Pt)4
_chemical_formula_sum   'Ho1 Er9 Tl8 Pt4'
_cell_volume   532.29460923
_cell_formula_units_Z   1
loop_
 _symmetry_equiv_pos_site_id
 _symmetry_equiv_pos_as_xyz
  1  'x, y, z'
loop_
 _atom_site_type_symbol
 _atom_site_label
 _atom_site_symmetry_multiplicity
 _atom_site_fract_x
 _atom_site_fract_y
 _atom_site_fract_z
 _atom_site_occupancy
  Ho  Ho0  1  0.000000  0.000000  0.000000  1
  Er  Er1  1  0.000000  0.114497  0.413760  1
  Er  Er2  1  0.000000  0.885503  0.586240  1
  Er  Er3  1  0.000000  0.384517  0.913365  1
  Er  Er4  1  0.000000  0.615483  0.086635  1
  Er  Er5  1  0.000000  0.243865  0.220087  1
  Er  Er6  1  0.000000  0.756135  0.779913  1
  Er  Er7  1  0.000000  0.256411  0.719602  1
  Er  Er8  1  0.000000  0.743589  0.280398  1
  Er  Er9  1  0.000000  0.500000  0.500000  1
  Tl  Tl10  1  0.500000  0.420630  0.353444  1
  Tl  Tl11  1  0.500000  0.579370  0.646556  1
  Tl  Tl12  1  0.500000  0.078874  0.852890  1
  Tl  Tl13  1  0.500000  0.921126  0.147110  1
  Tl  Tl14  1  0.500000  0.293645  0.064794  1
  Tl  Tl15  1  0.500000  0.706355  0.935206  1
  Tl  Tl16  1  0.500000  0.207672  0.564573  1
  Tl  Tl17  1  0.500000  0.792328  0.435427  1
  Pt  Pt18  1  0.500000  0.027249  0.303138  1
  Pt  Pt19  1  0.500000  0.972751  0.696862  1
  Pt  Pt20  1  0.500000  0.472659  0.802721  1
  Pt  Pt21  1  0.500000  0.527341  0.197279  1
