# generated using pymatgen
data_CeDy3Ti2(AlIr2)2
_symmetry_space_group_name_H-M   'P 1'
_cell_length_a   6.93564808
_cell_length_b   4.29057000
_cell_length_c   8.00622028
_cell_angle_alpha   90.00000000
_cell_angle_beta   91.03110087
_cell_angle_gamma   90.00000000
_symmetry_Int_Tables_number   1
_chemical_formula_structural   CeDy3Ti2(AlIr2)2
_chemical_formula_sum   'Ce1 Dy3 Ti2 Al2 Ir4'
_cell_volume   238.20959261
_cell_formula_units_Z   1
loop_
 _symmetry_equiv_pos_site_id
 _symmetry_equiv_pos_as_xyz
  1  'x, y, z'
loop_
 _atom_site_type_symbol
 _atom_site_label
 _atom_site_symmetry_multiplicity
 _atom_site_fract_x
 _atom_site_fract_y
 _atom_site_fract_z
 _atom_site_occupancy
  Ce  Ce0  1  0.535547  0.750000  0.683600  1
  Dy  Dy1  1  0.971335  0.250000  0.178377  1
  Dy  Dy2  1  0.470340  0.250000  0.318368  1
  Dy  Dy3  1  0.035626  0.750000  0.822074  1
  Ti  Ti4  1  0.127916  0.750000  0.438371  1
  Ti  Ti5  1  0.626198  0.750000  0.060896  1
  Al  Al6  1  0.866610  0.250000  0.561413  1
  Al  Al7  1  0.356055  0.250000  0.939687  1
  Ir  Ir8  1  0.728741  0.250000  0.885761  1
  Ir  Ir9  1  0.240394  0.250000  0.609132  1
  Ir  Ir10  1  0.270759  0.750000  0.123699  1
  Ir  Ir11  1  0.770479  0.750000  0.378618  1
