# generated using pymatgen
data_Ho2MgCo8TcP6
_symmetry_space_group_name_H-M   'P 1'
_cell_length_a   3.70113800
_cell_length_b   10.40577400
_cell_length_c   11.87916700
_cell_angle_alpha   90.00000000
_cell_angle_beta   90.00000000
_cell_angle_gamma   90.00000000
_symmetry_Int_Tables_number   1
_chemical_formula_structural   Ho2MgCo8TcP6
_chemical_formula_sum   'Ho4 Mg2 Co16 Tc2 P12'
_cell_volume   457.50480068
_cell_formula_units_Z   2
loop_
 _symmetry_equiv_pos_site_id
 _symmetry_equiv_pos_as_xyz
  1  'x, y, z'
loop_
 _atom_site_type_symbol
 _atom_site_label
 _atom_site_symmetry_multiplicity
 _atom_site_fract_x
 _atom_site_fract_y
 _atom_site_fract_z
 _atom_site_occupancy
  Ho  Ho0  1  0.250000  0.583784  0.704880  1
  Ho  Ho1  1  0.250000  0.916216  0.204880  1
  Ho  Ho2  1  0.750000  0.418945  0.296265  1
  Ho  Ho3  1  0.750000  0.081055  0.796265  1
  Mg  Mg4  1  0.750000  0.295524  0.010270  1
  Mg  Mg5  1  0.750000  0.204476  0.510270  1
  Co  Co6  1  0.250000  0.411072  0.486818  1
  Co  Co7  1  0.250000  0.088928  0.986818  1
  Co  Co8  1  0.750000  0.596134  0.510490  1
  Co  Co9  1  0.750000  0.903866  0.010490  1
  Co  Co10  1  0.250000  0.219336  0.173803  1
  Co  Co11  1  0.250000  0.280664  0.673803  1
  Co  Co12  1  0.750000  0.776674  0.822916  1
  Co  Co13  1  0.750000  0.723326  0.322916  1
  Co  Co14  1  0.250000  0.883514  0.702401  1
  Co  Co15  1  0.250000  0.616486  0.202401  1
  Co  Co16  1  0.750000  0.113401  0.299542  1
  Co  Co17  1  0.750000  0.386599  0.799542  1
  Co  Co18  1  0.250000  0.465161  0.934282  1
  Co  Co19  1  0.250000  0.034839  0.434282  1
  Co  Co20  1  0.750000  0.537371  0.069951  1
  Co  Co21  1  0.750000  0.962629  0.569951  1
  Tc  Tc22  1  0.250000  0.709111  0.990018  1
  Tc  Tc23  1  0.250000  0.790889  0.490018  1
  P  P24  1  0.250000  0.423150  0.118360  1
  P  P25  1  0.250000  0.076850  0.618360  1
  P  P26  1  0.750000  0.578908  0.887571  1
  P  P27  1  0.750000  0.921092  0.387571  1
  P  P28  1  0.250000  0.271486  0.857880  1
  P  P29  1  0.250000  0.228514  0.357880  1
  P  P30  1  0.750000  0.732304  0.133608  1
  P  P31  1  0.750000  0.767696  0.633608  1
  P  P32  1  0.250000  0.598416  0.391538  1
  P  P33  1  0.250000  0.901584  0.891538  1
  P  P34  1  0.750000  0.408654  0.609408  1
  P  P35  1  0.750000  0.091346  0.109408  1
