# generated using pymatgen
data_Mg5P12Ru5Rh14
_symmetry_space_group_name_H-M   'P 1'
_cell_length_a   12.56285336
_cell_length_b   12.57487263
_cell_length_c   3.87217200
_cell_angle_alpha   90.00000000
_cell_angle_beta   90.00000000
_cell_angle_gamma   119.96965333
_symmetry_Int_Tables_number   1
_chemical_formula_structural   Mg5P12Ru5Rh14
_chemical_formula_sum   'Mg5 P12 Ru5 Rh14'
_cell_volume   529.91947442
_cell_formula_units_Z   1
loop_
 _symmetry_equiv_pos_site_id
 _symmetry_equiv_pos_as_xyz
  1  'x, y, z'
loop_
 _atom_site_type_symbol
 _atom_site_label
 _atom_site_symmetry_multiplicity
 _atom_site_fract_x
 _atom_site_fract_y
 _atom_site_fract_z
 _atom_site_occupancy
  Mg  Mg0  1  0.666725  0.330248  0.000000  1
  Mg  Mg1  1  0.336254  0.669719  0.000000  1
  Mg  Mg2  1  0.821538  0.001724  0.500000  1
  Mg  Mg3  1  0.170805  0.174942  0.500000  1
  Mg  Mg4  1  0.999698  0.824027  0.500000  1
  P  P5  1  0.632645  0.999748  0.000000  1
  P  P6  1  0.366963  0.367287  0.000000  1
  P  P7  1  0.001013  0.632667  0.000000  1
  P  P8  1  0.687888  0.520091  0.500000  1
  P  P9  1  0.831914  0.308357  0.500000  1
  P  P10  1  0.317817  0.836948  0.500000  1
  P  P11  1  0.523165  0.691436  0.500000  1
  P  P12  1  0.174888  0.997348  0.000000  1
  P  P13  1  0.822242  0.819278  0.000000  1
  P  P14  1  0.994260  0.177755  0.000000  1
  P  P15  1  0.474537  0.164301  0.500000  1
  P  P16  1  0.167421  0.479711  0.500000  1
  Ru  Ru17  1  0.512982  0.871374  0.500000  1
  Ru  Ru18  1  0.721072  0.718640  0.500000  1
  Ru  Ru19  1  0.001991  0.282143  0.500000  1
  Ru  Ru20  1  0.814100  0.190840  0.000000  1
  Ru  Ru21  1  0.276494  0.998456  0.500000  1
  Rh  Rh22  1  0.630130  0.811469  0.000000  1
  Rh  Rh23  1  0.186051  0.372716  0.000000  1
  Rh  Rh24  1  0.368936  0.183121  0.000000  1
  Rh  Rh25  1  0.188007  0.815283  0.000000  1
  Rh  Rh26  1  0.812899  0.625709  0.000000  1
  Rh  Rh27  1  0.867866  0.504852  0.500000  1
  Rh  Rh28  1  0.492307  0.358124  0.500000  1
  Rh  Rh29  1  0.635816  0.133768  0.500000  1
  Rh  Rh30  1  0.135862  0.642393  0.500000  1
  Rh  Rh31  1  0.361764  0.495485  0.500000  1
  Rh  Rh32  1  0.997650  0.999964  0.000000  1
  Rh  Rh33  1  0.449257  0.000397  0.000000  1
  Rh  Rh34  1  0.550891  0.545895  0.000000  1
  Rh  Rh35  1  0.006154  0.453783  0.000000  1
