# generated using pymatgen
data_Ho10GaSi3Bi4
_symmetry_space_group_name_H-M   'P 1'
_cell_length_a   8.63058176
_cell_length_b   8.63058252
_cell_length_c   7.93331219
_cell_angle_alpha   89.82577788
_cell_angle_beta   89.82578561
_cell_angle_gamma   125.34287874
_symmetry_Int_Tables_number   1
_chemical_formula_structural   Ho10GaSi3Bi4
_chemical_formula_sum   'Ho10 Ga1 Si3 Bi4'
_cell_volume   482.01247101
_cell_formula_units_Z   1
loop_
 _symmetry_equiv_pos_site_id
 _symmetry_equiv_pos_as_xyz
  1  'x, y, z'
loop_
 _atom_site_type_symbol
 _atom_site_label
 _atom_site_symmetry_multiplicity
 _atom_site_fract_x
 _atom_site_fract_y
 _atom_site_fract_z
 _atom_site_occupancy
  Ho  Ho0  1  0.041507  0.286818  0.335929  1
  Ho  Ho1  1  0.956343  0.713385  0.665020  1
  Ho  Ho2  1  0.456566  0.210777  0.833295  1
  Ho  Ho3  1  0.789505  0.544427  0.165126  1
  Ho  Ho4  1  0.544427  0.789505  0.165126  1
  Ho  Ho5  1  0.210777  0.456566  0.833295  1
  Ho  Ho6  1  0.713385  0.956343  0.665020  1
  Ho  Ho7  1  0.286818  0.041507  0.335929  1
  Ho  Ho8  1  0.998973  0.998973  0.999127  1
  Ho  Ho9  1  0.501078  0.501078  0.501659  1
  Ga  Ga10  1  0.368061  0.368061  0.131576  1
  Si  Si11  1  0.631336  0.631336  0.869089  1
  Si  Si12  1  0.134336  0.134336  0.632803  1
  Si  Si13  1  0.866761  0.866761  0.366077  1
  Bi  Bi14  1  0.792014  0.206548  0.000010  1
  Bi  Bi15  1  0.206548  0.792014  0.000010  1
  Bi  Bi16  1  0.707991  0.293572  0.500456  1
  Bi  Bi17  1  0.293572  0.707991  0.500456  1
