# generated using pymatgen
data_Sc4Be4Al2IrRh9
_symmetry_space_group_name_H-M   'P 1'
_cell_length_a   9.47817871
_cell_length_b   9.47817871
_cell_length_c   3.10463700
_cell_angle_alpha   90.00000000
_cell_angle_beta   90.00000000
_cell_angle_gamma   89.81990669
_symmetry_Int_Tables_number   1
_chemical_formula_structural   Sc4Be4Al2IrRh9
_chemical_formula_sum   'Sc4 Be4 Al2 Ir1 Rh9'
_cell_volume   278.90639302
_cell_formula_units_Z   1
loop_
 _symmetry_equiv_pos_site_id
 _symmetry_equiv_pos_as_xyz
  1  'x, y, z'
loop_
 _atom_site_type_symbol
 _atom_site_label
 _atom_site_symmetry_multiplicity
 _atom_site_fract_x
 _atom_site_fract_y
 _atom_site_fract_z
 _atom_site_occupancy
  Sc  Sc0  1  0.675579  0.175579  0.000000  1
  Sc  Sc1  1  0.324421  0.824421  0.000000  1
  Sc  Sc2  1  0.174950  0.325050  0.000000  1
  Sc  Sc3  1  0.825050  0.674950  0.000000  1
  Be  Be4  1  0.124138  0.624138  0.000000  1
  Be  Be5  1  0.875862  0.375862  0.000000  1
  Be  Be6  1  0.624257  0.875743  0.000000  1
  Be  Be7  1  0.375743  0.124257  0.000000  1
  Al  Al8  1  0.000000  0.000000  0.000000  1
  Al  Al9  1  0.500000  0.500000  0.000000  1
  Ir  Ir10  1  0.000000  0.500000  0.500000  1
  Rh  Rh11  1  0.208856  0.067863  0.500000  1
  Rh  Rh12  1  0.791144  0.932137  0.500000  1
  Rh  Rh13  1  0.068625  0.791729  0.500000  1
  Rh  Rh14  1  0.708271  0.431375  0.500000  1
  Rh  Rh15  1  0.931375  0.208271  0.500000  1
  Rh  Rh16  1  0.291729  0.568625  0.500000  1
  Rh  Rh17  1  0.567863  0.708856  0.500000  1
  Rh  Rh18  1  0.432137  0.291144  0.500000  1
  Rh  Rh19  1  0.500000  0.000000  0.500000  1
