# generated using pymatgen
data_Tb3Sm5(P3Rh4)4
_symmetry_space_group_name_H-M   'P 1'
_cell_length_a   13.12118000
_cell_length_b   13.12118119
_cell_length_c   3.95359200
_cell_angle_alpha   90.00000000
_cell_angle_beta   90.00000000
_cell_angle_gamma   120.00000205
_symmetry_Int_Tables_number   1
_chemical_formula_structural   Tb3Sm5(P3Rh4)4
_chemical_formula_sum   'Tb3 Sm5 P12 Rh16'
_cell_volume   589.47894538
_cell_formula_units_Z   1
loop_
 _symmetry_equiv_pos_site_id
 _symmetry_equiv_pos_as_xyz
  1  'x, y, z'
loop_
 _atom_site_type_symbol
 _atom_site_label
 _atom_site_symmetry_multiplicity
 _atom_site_fract_x
 _atom_site_fract_y
 _atom_site_fract_z
 _atom_site_occupancy
  Tb  Tb0  1  0.556584  0.556584  0.000000  1
  Tb  Tb1  1  0.443416  0.000000  0.000000  1
  Tb  Tb2  1  0.000000  0.443416  0.000000  1
  Sm  Sm3  1  0.186265  0.186265  0.500000  1
  Sm  Sm4  1  0.813735  0.000000  0.500000  1
  Sm  Sm5  1  0.000000  0.813735  0.500000  1
  Sm  Sm6  1  0.333333  0.666667  0.000000  1
  Sm  Sm7  1  0.666667  0.333333  0.000000  1
  P  P8  1  0.822855  0.822855  0.000000  1
  P  P9  1  0.177145  0.000000  0.000000  1
  P  P10  1  0.000000  0.177145  0.000000  1
  P  P11  1  0.173452  0.480884  0.500000  1
  P  P12  1  0.519116  0.692568  0.500000  1
  P  P13  1  0.307432  0.826548  0.500000  1
  P  P14  1  0.692568  0.519116  0.500000  1
  P  P15  1  0.826548  0.307432  0.500000  1
  P  P16  1  0.480884  0.173452  0.500000  1
  P  P17  1  0.349712  0.349712  0.000000  1
  P  P18  1  0.650288  0.000000  0.000000  1
  P  P19  1  0.000000  0.650288  0.000000  1
  Rh  Rh20  1  0.725766  0.725766  0.500000  1
  Rh  Rh21  1  0.274234  0.000000  0.500000  1
  Rh  Rh22  1  0.000000  0.274234  0.500000  1
  Rh  Rh23  1  0.178747  0.371562  0.000000  1
  Rh  Rh24  1  0.628438  0.807185  0.000000  1
  Rh  Rh25  1  0.192815  0.821253  0.000000  1
  Rh  Rh26  1  0.807185  0.628438  0.000000  1
  Rh  Rh27  1  0.821253  0.192815  0.000000  1
  Rh  Rh28  1  0.371562  0.178747  0.000000  1
  Rh  Rh29  1  0.355492  0.484766  0.500000  1
  Rh  Rh30  1  0.515234  0.870727  0.500000  1
  Rh  Rh31  1  0.129273  0.644508  0.500000  1
  Rh  Rh32  1  0.870727  0.515234  0.500000  1
  Rh  Rh33  1  0.644508  0.129273  0.500000  1
  Rh  Rh34  1  0.484766  0.355492  0.500000  1
  Rh  Rh35  1  0.000000  0.000000  0.000000  1
