# generated using pymatgen
data_Ho18Tm2Ir7Ru5
_symmetry_space_group_name_H-M   'P 1'
_cell_length_a   10.78381507
_cell_length_b   10.78381396
_cell_length_c   6.38347003
_cell_angle_alpha   89.97555620
_cell_angle_beta   89.97555306
_cell_angle_gamma   90.12430907
_symmetry_Int_Tables_number   1
_chemical_formula_structural   Ho18Tm2Ir7Ru5
_chemical_formula_sum   'Ho18 Tm2 Ir7 Ru5'
_cell_volume   742.33603121
_cell_formula_units_Z   1
loop_
 _symmetry_equiv_pos_site_id
 _symmetry_equiv_pos_as_xyz
  1  'x, y, z'
loop_
 _atom_site_type_symbol
 _atom_site_label
 _atom_site_symmetry_multiplicity
 _atom_site_fract_x
 _atom_site_fract_y
 _atom_site_fract_z
 _atom_site_occupancy
  Ho  Ho0  1  0.293614  0.085943  0.377163  1
  Ho  Ho1  1  0.292718  0.913586  0.876931  1
  Ho  Ho2  1  0.707026  0.086433  0.877159  1
  Ho  Ho3  1  0.706990  0.913938  0.375642  1
  Ho  Ho4  1  0.585986  0.793084  0.876985  1
  Ho  Ho5  1  0.586838  0.207083  0.377079  1
  Ho  Ho6  1  0.413756  0.792765  0.376828  1
  Ho  Ho7  1  0.413789  0.206972  0.875864  1
  Ho  Ho8  1  0.206916  0.414014  0.623015  1
  Ho  Ho9  1  0.207235  0.586244  0.123172  1
  Ho  Ho10  1  0.792917  0.413162  0.122921  1
  Ho  Ho11  1  0.793028  0.586211  0.624136  1
  Ho  Ho12  1  0.914057  0.706386  0.122837  1
  Ho  Ho13  1  0.913567  0.292974  0.622841  1
  Ho  Ho14  1  0.086414  0.707282  0.623069  1
  Ho  Ho15  1  0.086062  0.293010  0.124358  1
  Ho  Ho16  1  0.999662  0.001068  0.499895  1
  Ho  Ho17  1  0.998932  0.000338  0.000105  1
  Tm  Tm18  1  0.500197  0.500337  0.000439  1
  Tm  Tm19  1  0.499663  0.499803  0.499561  1
  Ir  Ir20  1  0.846822  0.846619  0.749764  1
  Ir  Ir21  1  0.153381  0.153178  0.750236  1
  Ir  Ir22  1  0.153046  0.846954  0.250000  1
  Ir  Ir23  1  0.651183  0.348817  0.750000  1
  Ir  Ir24  1  0.652308  0.651790  0.249666  1
  Ir  Ir25  1  0.348210  0.347692  0.250334  1
  Ir  Ir26  1  0.348221  0.651779  0.750000  1
  Ru  Ru27  1  0.847695  0.152305  0.250000  1
  Ru  Ru28  1  0.500309  0.000334  0.122797  1
  Ru  Ru29  1  0.499895  0.000102  0.622781  1
  Ru  Ru30  1  0.999898  0.500105  0.877219  1
  Ru  Ru31  1  0.999666  0.499691  0.377203  1
