# generated using pymatgen
data_LiGa(CO3)2
_symmetry_space_group_name_H-M   'P 1'
_cell_length_a   4.63860874
_cell_length_b   5.71718346
_cell_length_c   8.04893346
_cell_angle_alpha   76.58137392
_cell_angle_beta   89.92980350
_cell_angle_gamma   114.07855907
_symmetry_Int_Tables_number   1
_chemical_formula_structural   LiGa(CO3)2
_chemical_formula_sum   'Li2 Ga2 C4 O12'
_cell_volume   188.45363841
_cell_formula_units_Z   2
loop_
 _symmetry_equiv_pos_site_id
 _symmetry_equiv_pos_as_xyz
  1  'x, y, z'
loop_
 _atom_site_type_symbol
 _atom_site_label
 _atom_site_symmetry_multiplicity
 _atom_site_fract_x
 _atom_site_fract_y
 _atom_site_fract_z
 _atom_site_occupancy
  Li  Li0  1  0.000025  0.999998  0.000009  1
  Li  Li1  1  0.499975  0.000002  0.499991  1
  Ga  Ga2  1  0.750000  0.500000  0.750000  1
  Ga  Ga3  1  0.250000  0.500000  0.250000  1
  C  C4  1  0.864956  0.729011  0.379134  1
  C  C5  1  0.364985  0.729008  0.879139  1
  C  C6  1  0.635044  0.270989  0.120866  1
  C  C7  1  0.135015  0.270992  0.620861  1
  O  O8  1  0.912490  0.267470  0.129582  1
  O  O9  1  0.412446  0.267448  0.629585  1
  O  O10  1  0.494176  0.732929  0.021964  1
  O  O11  1  0.994145  0.732935  0.521958  1
  O  O12  1  0.018238  0.731939  0.243259  1
  O  O13  1  0.518263  0.731926  0.743265  1
  O  O14  1  0.481761  0.268061  0.256741  1
  O  O15  1  0.981738  0.268074  0.756735  1
  O  O16  1  0.005824  0.267071  0.478037  1
  O  O17  1  0.505855  0.267065  0.978043  1
  O  O18  1  0.587511  0.732531  0.370419  1
  O  O19  1  0.087554  0.732553  0.870415  1
