# generated using pymatgen
data_LaPr4RuPtO12
_symmetry_space_group_name_H-M   'P 1'
_cell_length_a   7.17215019
_cell_length_b   7.17215038
_cell_length_c   7.65882116
_cell_angle_alpha   74.52645204
_cell_angle_beta   74.52645271
_cell_angle_gamma   50.70553011
_symmetry_Int_Tables_number   1
_chemical_formula_structural   LaPr4RuPtO12
_chemical_formula_sum   'La1 Pr4 Ru1 Pt1 O12'
_cell_volume   291.30224625
_cell_formula_units_Z   1
loop_
 _symmetry_equiv_pos_site_id
 _symmetry_equiv_pos_as_xyz
  1  'x, y, z'
loop_
 _atom_site_type_symbol
 _atom_site_label
 _atom_site_symmetry_multiplicity
 _atom_site_fract_x
 _atom_site_fract_y
 _atom_site_fract_z
 _atom_site_occupancy
  La  La0  1  0.001425  0.998575  0.500000  1
  Pr  Pr1  1  0.307726  0.299672  0.357559  1
  Pr  Pr2  1  0.700328  0.692274  0.642441  1
  Pr  Pr3  1  0.697365  0.692746  0.163638  1
  Pr  Pr4  1  0.307254  0.302635  0.836362  1
  Ru  Ru5  1  0.241205  0.758795  0.000000  1
  Pt  Pt6  1  0.750244  0.249756  0.000000  1
  O  O7  1  0.096797  0.598049  0.575359  1
  O  O8  1  0.003012  0.995972  0.171527  1
  O  O9  1  0.401951  0.903203  0.424641  1
  O  O10  1  0.493840  0.507015  0.173114  1
  O  O11  1  0.102791  0.581148  0.079296  1
  O  O12  1  0.907313  0.402656  0.422235  1
  O  O13  1  0.004028  0.996988  0.828473  1
  O  O14  1  0.597344  0.092686  0.577765  1
  O  O15  1  0.492985  0.506160  0.826886  1
  O  O16  1  0.572904  0.097362  0.081408  1
  O  O17  1  0.418852  0.897209  0.920704  1
  O  O18  1  0.902638  0.427096  0.918592  1
