# generated using pymatgen
data_CeEr(CoC2)2
_symmetry_space_group_name_H-M   'P 1'
_cell_length_a   3.69955201
_cell_length_b   3.67730211
_cell_length_c   7.34866312
_cell_angle_alpha   82.45048706
_cell_angle_beta   82.63344703
_cell_angle_gamma   90.07358875
_symmetry_Int_Tables_number   1
_chemical_formula_structural   CeEr(CoC2)2
_chemical_formula_sum   'Ce1 Er1 Co2 C4'
_cell_volume   98.27260337
_cell_formula_units_Z   1
loop_
 _symmetry_equiv_pos_site_id
 _symmetry_equiv_pos_as_xyz
  1  'x, y, z'
loop_
 _atom_site_type_symbol
 _atom_site_label
 _atom_site_symmetry_multiplicity
 _atom_site_fract_x
 _atom_site_fract_y
 _atom_site_fract_z
 _atom_site_occupancy
  Ce  Ce0  1  0.932289  0.066133  0.499565  1
  Er  Er1  1  0.065216  0.931002  0.001848  1
  Co  Co2  1  0.372319  0.512385  0.695177  1
  Co  Co3  1  0.509315  0.374364  0.191573  1
  C  C4  1  0.445374  0.593760  0.426986  1
  C  C5  1  0.592012  0.443190  0.929373  1
  C  C6  1  0.490117  0.856148  0.269926  1
  C  C7  1  0.860358  0.490017  0.779351  1
