# generated using pymatgen
data_EuGa2SiPbO7
_symmetry_space_group_name_H-M   'P 1'
_cell_length_a   5.37592173
_cell_length_b   8.16299724
_cell_length_c   8.02111500
_cell_angle_alpha   90.00000000
_cell_angle_beta   90.00000000
_cell_angle_gamma   89.95172790
_symmetry_Int_Tables_number   1
_chemical_formula_structural   EuGa2SiPbO7
_chemical_formula_sum   'Eu2 Ga4 Si2 Pb2 O14'
_cell_volume   351.99555209
_cell_formula_units_Z   2
loop_
 _symmetry_equiv_pos_site_id
 _symmetry_equiv_pos_as_xyz
  1  'x, y, z'
loop_
 _atom_site_type_symbol
 _atom_site_label
 _atom_site_symmetry_multiplicity
 _atom_site_fract_x
 _atom_site_fract_y
 _atom_site_fract_z
 _atom_site_occupancy
  Eu  Eu0  1  0.504154  0.158050  0.657504  1
  Eu  Eu1  1  0.495846  0.341950  0.157504  1
  Ga  Ga2  1  0.000775  0.495212  0.501564  1
  Ga  Ga3  1  0.999225  0.004788  0.001564  1
  Ga  Ga4  1  0.975436  0.637685  0.140746  1
  Ga  Ga5  1  0.024564  0.862315  0.640746  1
  Si  Si6  1  0.956266  0.348367  0.859108  1
  Si  Si7  1  0.043734  0.151633  0.359108  1
  Pb  Pb8  1  0.512595  0.812529  0.336787  1
  Pb  Pb9  1  0.487405  0.687471  0.836787  1
  O  O10  1  0.157341  0.017059  0.492456  1
  O  O11  1  0.842659  0.482941  0.992456  1
  O  O12  1  0.196000  0.323987  0.412275  1
  O  O13  1  0.804000  0.176013  0.912275  1
  O  O14  1  0.190795  0.668822  0.580385  1
  O  O15  1  0.809205  0.831178  0.080385  1
  O  O16  1  0.793327  0.570756  0.332276  1
  O  O17  1  0.206673  0.929244  0.832276  1
  O  O18  1  0.827603  0.394056  0.676122  1
  O  O19  1  0.172397  0.105944  0.176122  1
  O  O20  1  0.311772  0.625429  0.150794  1
  O  O21  1  0.688228  0.874571  0.650794  1
  O  O22  1  0.255441  0.331652  0.859985  1
  O  O23  1  0.744559  0.168348  0.359985  1
