# generated using pymatgen
data_Nd7Er(SiBr6)2
_symmetry_space_group_name_H-M   'P 1'
_cell_length_a   4.17450000
_cell_length_b   13.64359393
_cell_length_c   14.46685004
_cell_angle_alpha   89.57139263
_cell_angle_beta   90.00000000
_cell_angle_gamma   90.00000000
_symmetry_Int_Tables_number   1
_chemical_formula_structural   Nd7Er(SiBr6)2
_chemical_formula_sum   'Nd7 Er1 Si2 Br12'
_cell_volume   823.93903537
_cell_formula_units_Z   1
loop_
 _symmetry_equiv_pos_site_id
 _symmetry_equiv_pos_as_xyz
  1  'x, y, z'
loop_
 _atom_site_type_symbol
 _atom_site_label
 _atom_site_symmetry_multiplicity
 _atom_site_fract_x
 _atom_site_fract_y
 _atom_site_fract_z
 _atom_site_occupancy
  Nd  Nd0  1  0.500000  0.120616  0.338747  1
  Nd  Nd1  1  0.500000  0.880367  0.660111  1
  Nd  Nd2  1  0.500000  0.617108  0.159528  1
  Nd  Nd3  1  0.500000  0.380409  0.842046  1
  Nd  Nd4  1  0.000000  0.120413  0.579222  1
  Nd  Nd5  1  0.000000  0.879914  0.420040  1
  Nd  Nd6  1  0.000000  0.617251  0.922131  1
  Er  Er7  1  0.000000  0.383752  0.077117  1
  Si  Si8  1  0.500000  0.000450  0.499257  1
  Si  Si9  1  0.500000  0.495972  0.002617  1
  Br  Br10  1  0.500000  0.254438  0.158111  1
  Br  Br11  1  0.500000  0.755197  0.838085  1
  Br  Br12  1  0.500000  0.742683  0.337163  1
  Br  Br13  1  0.500000  0.256512  0.663332  1
  Br  Br14  1  0.000000  0.256507  0.410776  1
  Br  Br15  1  0.000000  0.743887  0.588614  1
  Br  Br16  1  0.000000  0.754655  0.088229  1
  Br  Br17  1  0.000000  0.246689  0.920046  1
  Br  Br18  1  0.000000  0.002865  0.242236  1
  Br  Br19  1  0.000000  0.998335  0.756805  1
  Br  Br20  1  0.000000  0.493506  0.251646  1
  Br  Br21  1  0.000000  0.498472  0.744140  1
