# generated using pymatgen
data_SmMg2UNi8
_symmetry_space_group_name_H-M   'P 1'
_cell_length_a   4.95709800
_cell_length_b   4.95709768
_cell_length_c   8.59210109
_cell_angle_alpha   73.23371592
_cell_angle_beta   90.00000000
_cell_angle_gamma   120.00000213
_symmetry_Int_Tables_number   1
_chemical_formula_structural   SmMg2UNi8
_chemical_formula_sum   'Sm1 Mg2 U1 Ni8'
_cell_volume   172.40409546
_cell_formula_units_Z   1
loop_
 _symmetry_equiv_pos_site_id
 _symmetry_equiv_pos_as_xyz
  1  'x, y, z'
loop_
 _atom_site_type_symbol
 _atom_site_label
 _atom_site_symmetry_multiplicity
 _atom_site_fract_x
 _atom_site_fract_y
 _atom_site_fract_z
 _atom_site_occupancy
  Sm  Sm0  1  0.000405  0.000810  0.998784  1
  Mg  Mg1  1  0.876150  0.752302  0.371548  1
  Mg  Mg2  1  0.375127  0.750253  0.874620  1
  U  U3  1  0.500819  0.001637  0.497544  1
  Ni  Ni4  1  0.435066  0.367048  0.197886  1
  Ni  Ni5  1  0.936387  0.383190  0.680424  1
  Ni  Ni6  1  0.435066  0.870132  0.197886  1
  Ni  Ni7  1  0.936387  0.872773  0.680424  1
  Ni  Ni8  1  0.187721  0.375442  0.436837  1
  Ni  Ni9  1  0.688088  0.376176  0.935736  1
  Ni  Ni10  1  0.931982  0.367048  0.197886  1
  Ni  Ni11  1  0.446803  0.383190  0.680424  1
