# generated using pymatgen
data_Tb3NdEr2(RuI3)2
_symmetry_space_group_name_H-M   'P 1'
_cell_length_a   4.22976600
_cell_length_b   8.88430733
_cell_length_c   12.27452400
_cell_angle_alpha   86.00012898
_cell_angle_beta   90.00000000
_cell_angle_gamma   90.00000000
_symmetry_Int_Tables_number   1
_chemical_formula_structural   Tb3NdEr2(RuI3)2
_chemical_formula_sum   'Tb3 Nd1 Er2 Ru2 I6'
_cell_volume   460.13517381
_cell_formula_units_Z   1
loop_
 _symmetry_equiv_pos_site_id
 _symmetry_equiv_pos_as_xyz
  1  'x, y, z'
loop_
 _atom_site_type_symbol
 _atom_site_label
 _atom_site_symmetry_multiplicity
 _atom_site_fract_x
 _atom_site_fract_y
 _atom_site_fract_z
 _atom_site_occupancy
  Tb  Tb0  1  0.750000  0.098088  0.683459  1
  Tb  Tb1  1  0.250000  0.904358  0.317629  1
  Tb  Tb2  1  0.250000  0.263002  0.897877  1
  Nd  Nd3  1  0.750000  0.730455  0.101448  1
  Er  Er4  1  0.750000  0.129764  0.124813  1
  Er  Er5  1  0.250000  0.873596  0.873992  1
  Ru  Ru6  1  0.750000  0.054284  0.906793  1
  Ru  Ru7  1  0.250000  0.949426  0.092608  1
  I  I8  1  0.250000  0.353387  0.636617  1
  I  I9  1  0.750000  0.647440  0.366586  1
  I  I10  1  0.750000  0.145488  0.392467  1
  I  I11  1  0.250000  0.855452  0.608128  1
  I  I12  1  0.250000  0.421403  0.134661  1
  I  I13  1  0.750000  0.573858  0.862923  1
