# generated using pymatgen
data_Ce6TiMn2CrC12
_symmetry_space_group_name_H-M   'P 1'
_cell_length_a   8.28396500
_cell_length_b   8.28396327
_cell_length_c   5.10893500
_cell_angle_alpha   90.00000000
_cell_angle_beta   90.00000000
_cell_angle_gamma   119.99999494
_symmetry_Int_Tables_number   1
_chemical_formula_structural   Ce6TiMn2CrC12
_chemical_formula_sum   'Ce6 Ti1 Mn2 Cr1 C12'
_cell_volume   303.62494626
_cell_formula_units_Z   1
loop_
 _symmetry_equiv_pos_site_id
 _symmetry_equiv_pos_as_xyz
  1  'x, y, z'
loop_
 _atom_site_type_symbol
 _atom_site_label
 _atom_site_symmetry_multiplicity
 _atom_site_fract_x
 _atom_site_fract_y
 _atom_site_fract_z
 _atom_site_occupancy
  Ce  Ce0  1  0.621461  0.684798  0.750570  1
  Ce  Ce1  1  0.936665  0.621461  0.249430  1
  Ce  Ce2  1  0.684798  0.063335  0.249430  1
  Ce  Ce3  1  0.315202  0.936665  0.750570  1
  Ce  Ce4  1  0.063335  0.378539  0.750570  1
  Ce  Ce5  1  0.378539  0.315202  0.249430  1
  Ti  Ti6  1  0.000000  0.000000  0.000000  1
  Mn  Mn7  1  0.666667  0.333333  0.750779  1
  Mn  Mn8  1  0.333333  0.666667  0.249221  1
  Cr  Cr9  1  0.000000  0.000000  0.500000  1
  C  C10  1  0.960334  0.765124  0.745663  1
  C  C11  1  0.195210  0.960334  0.254337  1
  C  C12  1  0.765124  0.804790  0.254337  1
  C  C13  1  0.234876  0.195210  0.745663  1
  C  C14  1  0.804790  0.039666  0.745663  1
  C  C15  1  0.039666  0.234876  0.254337  1
  C  C16  1  0.860740  0.572557  0.745989  1
  C  C17  1  0.288181  0.860740  0.254011  1
  C  C18  1  0.572557  0.711819  0.254011  1
  C  C19  1  0.427443  0.288181  0.745989  1
  C  C20  1  0.139260  0.427443  0.254011  1
  C  C21  1  0.711819  0.139260  0.745989  1
