# generated using pymatgen
data_Rb2Ag(PSe3)2
_symmetry_space_group_name_H-M   'P 1'
_cell_length_a   13.12768200
_cell_length_b   6.88832301
_cell_length_c   10.10134908
_cell_angle_alpha   50.78256791
_cell_angle_beta   90.00000000
_cell_angle_gamma   90.00000000
_symmetry_Int_Tables_number   1
_chemical_formula_structural   Rb2Ag(PSe3)2
_chemical_formula_sum   'Rb4 Ag2 P4 Se12'
_cell_volume   707.69108873
_cell_formula_units_Z   2
loop_
 _symmetry_equiv_pos_site_id
 _symmetry_equiv_pos_as_xyz
  1  'x, y, z'
loop_
 _atom_site_type_symbol
 _atom_site_label
 _atom_site_symmetry_multiplicity
 _atom_site_fract_x
 _atom_site_fract_y
 _atom_site_fract_z
 _atom_site_occupancy
  Rb  Rb0  1  0.205564  0.165008  0.946464  1
  Rb  Rb1  1  0.705564  0.834992  0.553536  1
  Rb  Rb2  1  0.794436  0.834992  0.053536  1
  Rb  Rb3  1  0.294436  0.165008  0.446464  1
  Ag  Ag4  1  0.000000  0.000000  0.500000  1
  Ag  Ag5  1  0.500000  0.000000  0.000000  1
  P  P6  1  0.054665  0.625655  0.388456  1
  P  P7  1  0.554665  0.374345  0.111544  1
  P  P8  1  0.945335  0.374345  0.611544  1
  P  P9  1  0.445335  0.625655  0.888456  1
  Se  Se10  1  0.207058  0.622201  0.473699  1
  Se  Se11  1  0.707058  0.377799  0.026301  1
  Se  Se12  1  0.792942  0.377799  0.526301  1
  Se  Se13  1  0.292942  0.622201  0.973699  1
  Se  Se14  1  0.980952  0.998762  0.239309  1
  Se  Se15  1  0.480952  0.001238  0.260691  1
  Se  Se16  1  0.019048  0.001238  0.760691  1
  Se  Se17  1  0.519048  0.998762  0.739309  1
  Se  Se18  1  0.457335  0.478516  0.746359  1
  Se  Se19  1  0.957335  0.521484  0.753641  1
  Se  Se20  1  0.542665  0.521484  0.253641  1
  Se  Se21  1  0.042665  0.478516  0.246359  1
