# generated using pymatgen
data_Co2B2MoW
_symmetry_space_group_name_H-M   'P 1'
_cell_length_a   3.25801900
_cell_length_b   5.74351486
_cell_length_c   6.62589015
_cell_angle_alpha   89.90771912
_cell_angle_beta   90.00000000
_cell_angle_gamma   90.00000000
_symmetry_Int_Tables_number   1
_chemical_formula_structural   Co2B2MoW
_chemical_formula_sum   'Co4 B4 Mo2 W2'
_cell_volume   123.98667971
_cell_formula_units_Z   2
loop_
 _symmetry_equiv_pos_site_id
 _symmetry_equiv_pos_as_xyz
  1  'x, y, z'
loop_
 _atom_site_type_symbol
 _atom_site_label
 _atom_site_symmetry_multiplicity
 _atom_site_fract_x
 _atom_site_fract_y
 _atom_site_fract_z
 _atom_site_occupancy
  Co  Co0  1  0.750000  0.856896  0.557720  1
  Co  Co1  1  0.250000  0.143104  0.442280  1
  Co  Co2  1  0.750000  0.356888  0.942275  1
  Co  Co3  1  0.250000  0.643112  0.057725  1
  B  B4  1  0.250000  0.769717  0.375348  1
  B  B5  1  0.750000  0.230283  0.624652  1
  B  B6  1  0.250000  0.271564  0.126441  1
  B  B7  1  0.750000  0.728436  0.873559  1
  Mo  Mo8  1  0.250000  0.027736  0.825840  1
  Mo  Mo9  1  0.750000  0.972264  0.174160  1
  W  W10  1  0.250000  0.527369  0.674758  1
  W  W11  1  0.750000  0.472631  0.325242  1
