# generated using pymatgen
data_RbSm3CI6
_symmetry_space_group_name_H-M   'P 1'
_cell_length_a   9.46008637
_cell_length_b   9.51511549
_cell_length_c   10.06550800
_cell_angle_alpha   70.93434409
_cell_angle_beta   84.57430711
_cell_angle_gamma   89.20591105
_symmetry_Int_Tables_number   1
_chemical_formula_structural   RbSm3CI6
_chemical_formula_sum   'Rb2 Sm6 C2 I12'
_cell_volume   852.35785564
_cell_formula_units_Z   2
loop_
 _symmetry_equiv_pos_site_id
 _symmetry_equiv_pos_as_xyz
  1  'x, y, z'
loop_
 _atom_site_type_symbol
 _atom_site_label
 _atom_site_symmetry_multiplicity
 _atom_site_fract_x
 _atom_site_fract_y
 _atom_site_fract_z
 _atom_site_occupancy
  Rb  Rb0  1  0.464826  0.364265  0.327411  1
  Rb  Rb1  1  0.535175  0.635735  0.672589  1
  Sm  Sm2  1  0.918770  0.751393  0.004437  1
  Sm  Sm3  1  0.081230  0.248607  0.995562  1
  Sm  Sm4  1  0.749214  0.083225  0.001487  1
  Sm  Sm5  1  0.250785  0.916775  0.998514  1
  Sm  Sm6  1  0.973415  0.893044  0.314484  1
  Sm  Sm7  1  0.026584  0.106956  0.685517  1
  C  C8  1  0.006299  0.025022  0.925616  1
  C  C9  1  0.993700  0.974978  0.074384  1
  I  I10  1  0.077944  0.203252  0.327140  1
  I  I11  1  0.922056  0.796748  0.672860  1
  I  I12  1  0.208095  0.590122  0.000138  1
  I  I13  1  0.791906  0.409878  0.999862  1
  I  I14  1  0.406699  0.203523  0.001868  1
  I  I15  1  0.593300  0.796478  0.998131  1
  I  I16  1  0.660902  0.003903  0.330590  1
  I  I17  1  0.339098  0.996097  0.669410  1
  I  I18  1  0.283521  0.773503  0.326053  1
  I  I19  1  0.716479  0.226497  0.673947  1
  I  I20  1  0.848447  0.586736  0.330546  1
  I  I21  1  0.151552  0.413264  0.669454  1
