# generated using pymatgen
data_Th14Re2IrPt3
_symmetry_space_group_name_H-M   'P 1'
_cell_length_a   10.18050500
_cell_length_b   10.11366860
_cell_length_c   6.32519515
_cell_angle_alpha   89.70094197
_cell_angle_beta   90.00000000
_cell_angle_gamma   120.21885326
_symmetry_Int_Tables_number   1
_chemical_formula_structural   Th14Re2IrPt3
_chemical_formula_sum   'Th14 Re2 Ir1 Pt3'
_cell_volume   562.74635866
_cell_formula_units_Z   1
loop_
 _symmetry_equiv_pos_site_id
 _symmetry_equiv_pos_as_xyz
  1  'x, y, z'
loop_
 _atom_site_type_symbol
 _atom_site_label
 _atom_site_symmetry_multiplicity
 _atom_site_fract_x
 _atom_site_fract_y
 _atom_site_fract_z
 _atom_site_occupancy
  Th  Th0  1  0.666773  0.333545  0.579454  1
  Th  Th1  1  0.333505  0.667011  0.038700  1
  Th  Th2  1  0.876588  0.753176  0.753219  1
  Th  Th3  1  0.252584  0.123591  0.752919  1
  Th  Th4  1  0.871006  0.123591  0.752919  1
  Th  Th5  1  0.129050  0.258100  0.245234  1
  Th  Th6  1  0.740428  0.870688  0.251086  1
  Th  Th7  1  0.130258  0.870688  0.251086  1
  Th  Th8  1  0.456389  0.912780  0.545634  1
  Th  Th9  1  0.086154  0.543469  0.542008  1
  Th  Th10  1  0.457314  0.543469  0.542008  1
  Th  Th11  1  0.537855  0.075709  0.035390  1
  Th  Th12  1  0.921840  0.464029  0.034849  1
  Th  Th13  1  0.542191  0.464029  0.034849  1
  Re  Re14  1  0.628384  0.811686  0.802627  1
  Re  Re15  1  0.183304  0.811686  0.802627  1
  Ir  Ir16  1  0.184814  0.369626  0.803288  1
  Pt  Pt17  1  0.810378  0.620757  0.306995  1
  Pt  Pt18  1  0.379020  0.191186  0.306602  1
  Pt  Pt19  1  0.812164  0.191186  0.306602  1
