# generated using pymatgen
data_NaLiLuNi11As7
_symmetry_space_group_name_H-M   'P 1'
_cell_length_a   3.82696800
_cell_length_b   9.37307020
_cell_length_c   9.42724136
_cell_angle_alpha   120.25834273
_cell_angle_beta   90.00000000
_cell_angle_gamma   90.00000000
_symmetry_Int_Tables_number   1
_chemical_formula_structural   NaLiLuNi11As7
_chemical_formula_sum   'Na1 Li1 Lu1 Ni11 As7'
_cell_volume   292.08919536
_cell_formula_units_Z   1
loop_
 _symmetry_equiv_pos_site_id
 _symmetry_equiv_pos_as_xyz
  1  'x, y, z'
loop_
 _atom_site_type_symbol
 _atom_site_label
 _atom_site_symmetry_multiplicity
 _atom_site_fract_x
 _atom_site_fract_y
 _atom_site_fract_z
 _atom_site_occupancy
  Na  Na0  1  0.500000  0.331332  0.664042  1
  Li  Li1  1  0.500000  0.109550  0.895258  1
  Lu  Lu2  1  0.000000  0.671729  0.340181  1
  Ni  Ni3  1  0.000000  0.879040  0.722345  1
  Ni  Ni4  1  0.000000  0.285105  0.159876  1
  Ni  Ni5  1  0.000000  0.835812  0.124262  1
  Ni  Ni6  1  0.500000  0.948569  0.567795  1
  Ni  Ni7  1  0.500000  0.429006  0.379637  1
  Ni  Ni8  1  0.500000  0.619915  0.046246  1
  Ni  Ni9  1  0.000000  0.384629  0.952379  1
  Ni  Ni10  1  0.000000  0.049556  0.431058  1
  Ni  Ni11  1  0.000000  0.565506  0.616259  1
  Ni  Ni12  1  0.500000  0.093303  0.205118  1
  Ni  Ni13  1  0.500000  0.793571  0.891689  1
  As  As14  1  0.500000  0.708208  0.598278  1
  As  As15  1  0.500000  0.415840  0.119419  1
  As  As16  1  0.500000  0.886804  0.293428  1
  As  As17  1  0.000000  0.997673  0.004888  1
  As  As18  1  0.000000  0.120278  0.705000  1
  As  As19  1  0.000000  0.287344  0.408157  1
  As  As20  1  0.000000  0.587234  0.874683  1
