# generated using pymatgen
data_EuSc(SnPt)2
_symmetry_space_group_name_H-M   'P 1'
_cell_length_a   7.61036000
_cell_length_b   7.61035992
_cell_length_c   7.85619300
_cell_angle_alpha   90.00000000
_cell_angle_beta   90.00000000
_cell_angle_gamma   120.00000035
_symmetry_Int_Tables_number   1
_chemical_formula_structural   EuSc(SnPt)2
_chemical_formula_sum   'Eu3 Sc3 Sn6 Pt6'
_cell_volume   394.05166953
_cell_formula_units_Z   3
loop_
 _symmetry_equiv_pos_site_id
 _symmetry_equiv_pos_as_xyz
  1  'x, y, z'
loop_
 _atom_site_type_symbol
 _atom_site_label
 _atom_site_symmetry_multiplicity
 _atom_site_fract_x
 _atom_site_fract_y
 _atom_site_fract_z
 _atom_site_occupancy
  Eu  Eu0  1  0.407857  0.998563  0.750000  1
  Eu  Eu1  1  0.590706  0.592143  0.750000  1
  Eu  Eu2  1  0.001437  0.409294  0.750000  1
  Sc  Sc3  1  0.394542  0.003345  0.250000  1
  Sc  Sc4  1  0.608803  0.605458  0.250000  1
  Sc  Sc5  1  0.996655  0.391197  0.250000  1
  Sn  Sn6  1  0.265165  0.266824  0.014130  1
  Sn  Sn7  1  0.001659  0.734835  0.014130  1
  Sn  Sn8  1  0.001659  0.734835  0.485870  1
  Sn  Sn9  1  0.733176  0.998341  0.485870  1
  Sn  Sn10  1  0.265165  0.266824  0.485870  1
  Sn  Sn11  1  0.733176  0.998341  0.014130  1
  Pt  Pt12  1  0.000000  0.000000  0.750000  1
  Pt  Pt13  1  0.000000  0.000000  0.250000  1
  Pt  Pt14  1  0.666667  0.333333  0.041267  1
  Pt  Pt15  1  0.333333  0.666667  0.450936  1
  Pt  Pt16  1  0.333333  0.666667  0.049064  1
  Pt  Pt17  1  0.666667  0.333333  0.458733  1
