# generated using pymatgen
data_Hf2Zr4Ga3P
_symmetry_space_group_name_H-M   'P 1'
_cell_length_a   7.22854637
_cell_length_b   7.22854655
_cell_length_c   3.68566900
_cell_angle_alpha   90.00000000
_cell_angle_beta   90.00000000
_cell_angle_gamma   89.24791797
_symmetry_Int_Tables_number   1
_chemical_formula_structural   Hf2Zr4Ga3P
_chemical_formula_sum   'Hf2 Zr4 Ga3 P1'
_cell_volume   192.56655806
_cell_formula_units_Z   1
loop_
 _symmetry_equiv_pos_site_id
 _symmetry_equiv_pos_as_xyz
  1  'x, y, z'
loop_
 _atom_site_type_symbol
 _atom_site_label
 _atom_site_symmetry_multiplicity
 _atom_site_fract_x
 _atom_site_fract_y
 _atom_site_fract_z
 _atom_site_occupancy
  Hf  Hf0  1  0.996817  0.004386  0.000000  1
  Hf  Hf1  1  0.504386  0.496817  0.000000  1
  Zr  Zr2  1  0.684056  0.184056  0.500000  1
  Zr  Zr3  1  0.162784  0.323857  0.500000  1
  Zr  Zr4  1  0.823857  0.662784  0.500000  1
  Zr  Zr5  1  0.324454  0.824454  0.500000  1
  Ga  Ga6  1  0.375471  0.126148  0.000000  1
  Ga  Ga7  1  0.626148  0.875471  0.000000  1
  Ga  Ga8  1  0.127451  0.627451  0.000000  1
  P  P9  1  0.874575  0.374575  0.000000  1
