# generated using pymatgen
data_Sc6Al6Hg2GeAu3
_symmetry_space_group_name_H-M   'P 1'
_cell_length_a   6.91672000
_cell_length_b   6.91671893
_cell_length_c   8.29180100
_cell_angle_alpha   90.00000000
_cell_angle_beta   90.00000000
_cell_angle_gamma   120.00000510
_symmetry_Int_Tables_number   1
_chemical_formula_structural   Sc6Al6Hg2GeAu3
_chemical_formula_sum   'Sc6 Al6 Hg2 Ge1 Au3'
_cell_volume   343.54197123
_cell_formula_units_Z   1
loop_
 _symmetry_equiv_pos_site_id
 _symmetry_equiv_pos_as_xyz
  1  'x, y, z'
loop_
 _atom_site_type_symbol
 _atom_site_label
 _atom_site_symmetry_multiplicity
 _atom_site_fract_x
 _atom_site_fract_y
 _atom_site_fract_z
 _atom_site_occupancy
  Sc  Sc0  1  0.582185  0.000384  0.755753  1
  Sc  Sc1  1  0.999616  0.581801  0.755753  1
  Sc  Sc2  1  0.418199  0.417815  0.755753  1
  Sc  Sc3  1  0.000495  0.582301  0.243943  1
  Sc  Sc4  1  0.581806  0.999505  0.243943  1
  Sc  Sc5  1  0.417699  0.418194  0.243943  1
  Al  Al6  1  0.748726  0.758365  0.000172  1
  Al  Al7  1  0.241635  0.990361  0.000172  1
  Al  Al8  1  0.009639  0.251274  0.000172  1
  Al  Al9  1  0.759586  0.758996  0.500318  1
  Al  Al10  1  0.241004  0.000590  0.500318  1
  Al  Al11  1  0.999410  0.240414  0.500318  1
  Hg  Hg12  1  0.666667  0.333333  0.499161  1
  Hg  Hg13  1  0.333333  0.666667  0.500244  1
  Ge  Ge14  1  0.666667  0.333333  0.999988  1
  Au  Au15  1  0.000000  0.000000  0.753602  1
  Au  Au16  1  0.000000  0.000000  0.247022  1
  Au  Au17  1  0.333333  0.666667  0.999422  1
