# generated using pymatgen
data_Zr6Ti5Al11Pt6W
_symmetry_space_group_name_H-M   'P 1'
_cell_length_a   8.89573664
_cell_length_b   8.89692637
_cell_length_c   8.85455057
_cell_angle_alpha   59.84320924
_cell_angle_beta   59.84378902
_cell_angle_gamma   59.99723696
_symmetry_Int_Tables_number   1
_chemical_formula_structural   Zr6Ti5Al11Pt6W
_chemical_formula_sum   'Zr6 Ti5 Al11 Pt6 W1'
_cell_volume   494.34827572
_cell_formula_units_Z   1
loop_
 _symmetry_equiv_pos_site_id
 _symmetry_equiv_pos_as_xyz
  1  'x, y, z'
loop_
 _atom_site_type_symbol
 _atom_site_label
 _atom_site_symmetry_multiplicity
 _atom_site_fract_x
 _atom_site_fract_y
 _atom_site_fract_z
 _atom_site_occupancy
  Zr  Zr0  1  0.692376  0.692388  0.308056  1
  Zr  Zr1  1  0.307185  0.692380  0.308046  1
  Zr  Zr2  1  0.692379  0.307175  0.308047  1
  Zr  Zr3  1  0.309946  0.309945  0.690636  1
  Zr  Zr4  1  0.689447  0.309960  0.690639  1
  Zr  Zr5  1  0.309962  0.689460  0.690623  1
  Ti  Ti6  1  0.882955  0.882920  0.351194  1
  Ti  Ti7  1  0.876603  0.360643  0.886161  1
  Ti  Ti8  1  0.360646  0.876616  0.886131  1
  Ti  Ti9  1  0.876606  0.876626  0.886143  1
  Ti  Ti10  1  0.118378  0.118378  0.644882  1
  Al  Al11  1  0.119119  0.642662  0.119104  1
  Al  Al12  1  0.642654  0.119126  0.119100  1
  Al  Al13  1  0.119107  0.119139  0.119112  1
  Al  Al14  1  0.663726  0.663729  0.008812  1
  Al  Al15  1  0.665672  0.006658  0.661987  1
  Al  Al16  1  0.006661  0.665655  0.662016  1
  Al  Al17  1  0.665682  0.665664  0.662002  1
  Al  Al18  1  0.334304  0.334319  0.997055  1
  Al  Al19  1  0.334463  0.995263  0.335797  1
  Al  Al20  1  0.995292  0.334460  0.335783  1
  Al  Al21  1  0.334470  0.334462  0.335797  1
  Pt  Pt22  1  0.998644  0.998636  0.502507  1
  Pt  Pt23  1  0.500224  0.998641  0.502474  1
  Pt  Pt24  1  0.998651  0.500184  0.502520  1
  Pt  Pt25  1  0.500547  0.500548  0.998538  1
  Pt  Pt26  1  0.000347  0.500564  0.998549  1
  Pt  Pt27  1  0.500535  0.000362  0.998539  1
  W  W28  1  0.003419  0.003439  0.989755  1
