# generated using pymatgen
data_Na6Th2PaCl18
_symmetry_space_group_name_H-M   'P 1'
_cell_length_a   12.20249600
_cell_length_b   12.20249504
_cell_length_c   6.31873000
_cell_angle_alpha   90.00000000
_cell_angle_beta   90.00000000
_cell_angle_gamma   119.99999717
_symmetry_Int_Tables_number   1
_chemical_formula_structural   Na6Th2PaCl18
_chemical_formula_sum   'Na6 Th2 Pa1 Cl18'
_cell_volume   814.81263784
_cell_formula_units_Z   1
loop_
 _symmetry_equiv_pos_site_id
 _symmetry_equiv_pos_as_xyz
  1  'x, y, z'
loop_
 _atom_site_type_symbol
 _atom_site_label
 _atom_site_symmetry_multiplicity
 _atom_site_fract_x
 _atom_site_fract_y
 _atom_site_fract_z
 _atom_site_occupancy
  Na  Na0  1  0.661197  0.000000  0.000000  1
  Na  Na1  1  0.338803  0.000000  0.000000  1
  Na  Na2  1  0.000000  0.661197  0.000000  1
  Na  Na3  1  0.661197  0.661197  0.000000  1
  Na  Na4  1  0.338803  0.338803  0.000000  1
  Na  Na5  1  0.000000  0.338803  0.000000  1
  Th  Th6  1  0.666667  0.333333  0.503961  1
  Th  Th7  1  0.333333  0.666667  0.496039  1
  Pa  Pa8  1  0.000000  0.000000  0.000000  1
  Cl  Cl9  1  0.562032  0.124064  0.752348  1
  Cl  Cl10  1  0.771878  0.228122  0.263462  1
  Cl  Cl11  1  0.788090  0.894045  0.227555  1
  Cl  Cl12  1  0.437968  0.562032  0.247652  1
  Cl  Cl13  1  0.771878  0.543757  0.263462  1
  Cl  Cl14  1  0.105955  0.211910  0.227555  1
  Cl  Cl15  1  0.228122  0.771878  0.736538  1
  Cl  Cl16  1  0.562032  0.437968  0.752348  1
  Cl  Cl17  1  0.228122  0.456243  0.736538  1
  Cl  Cl18  1  0.124064  0.562032  0.247652  1
  Cl  Cl19  1  0.211910  0.105955  0.772445  1
  Cl  Cl20  1  0.105955  0.894045  0.227555  1
  Cl  Cl21  1  0.543757  0.771878  0.736538  1
  Cl  Cl22  1  0.437968  0.875936  0.247652  1
  Cl  Cl23  1  0.894045  0.105955  0.772445  1
  Cl  Cl24  1  0.875936  0.437968  0.752348  1
  Cl  Cl25  1  0.456243  0.228122  0.263462  1
  Cl  Cl26  1  0.894045  0.788090  0.772445  1
