# generated using pymatgen
data_TbHo2SbO7
_symmetry_space_group_name_H-M   'P 1'
_cell_length_a   6.46007700
_cell_length_b   6.46007764
_cell_length_c   7.51597500
_cell_angle_alpha   90.00000000
_cell_angle_beta   90.00000000
_cell_angle_gamma   109.33879760
_symmetry_Int_Tables_number   1
_chemical_formula_structural   TbHo2SbO7
_chemical_formula_sum   'Tb2 Ho4 Sb2 O14'
_cell_volume   295.96344446
_cell_formula_units_Z   2
loop_
 _symmetry_equiv_pos_site_id
 _symmetry_equiv_pos_as_xyz
  1  'x, y, z'
loop_
 _atom_site_type_symbol
 _atom_site_label
 _atom_site_symmetry_multiplicity
 _atom_site_fract_x
 _atom_site_fract_y
 _atom_site_fract_z
 _atom_site_occupancy
  Tb  Tb0  1  0.500000  0.500000  0.500000  1
  Tb  Tb1  1  0.500000  0.500000  0.000000  1
  Ho  Ho2  1  0.531455  0.000492  0.750000  1
  Ho  Ho3  1  0.000492  0.531455  0.250000  1
  Ho  Ho4  1  0.468545  0.999508  0.250000  1
  Ho  Ho5  1  0.999508  0.468545  0.750000  1
  Sb  Sb6  1  0.000000  0.000000  0.500000  1
  Sb  Sb7  1  0.000000  0.000000  0.000000  1
  O  O8  1  0.676718  0.927890  0.469995  1
  O  O9  1  0.927890  0.676718  0.530005  1
  O  O10  1  0.676718  0.927890  0.030005  1
  O  O11  1  0.927890  0.676718  0.969995  1
  O  O12  1  0.323282  0.072110  0.530005  1
  O  O13  1  0.072110  0.323282  0.469995  1
  O  O14  1  0.323282  0.072110  0.969995  1
  O  O15  1  0.072110  0.323282  0.030005  1
  O  O16  1  0.929462  0.070538  0.750000  1
  O  O17  1  0.070538  0.929462  0.250000  1
  O  O18  1  0.368300  0.631700  0.750000  1
  O  O19  1  0.631700  0.368300  0.250000  1
  O  O20  1  0.638453  0.361547  0.750000  1
  O  O21  1  0.361547  0.638453  0.250000  1
