# generated using pymatgen
data_GdHf2F11
_symmetry_space_group_name_H-M   'P 1'
_cell_length_a   8.32672072
_cell_length_b   8.32672018
_cell_length_c   8.32672095
_cell_angle_alpha   124.42954025
_cell_angle_beta   106.47089071
_cell_angle_gamma   98.68948975
_symmetry_Int_Tables_number   1
_chemical_formula_structural   GdHf2F11
_chemical_formula_sum   'Gd2 Hf4 F22'
_cell_volume   419.77709610
_cell_formula_units_Z   2
loop_
 _symmetry_equiv_pos_site_id
 _symmetry_equiv_pos_as_xyz
  1  'x, y, z'
loop_
 _atom_site_type_symbol
 _atom_site_label
 _atom_site_symmetry_multiplicity
 _atom_site_fract_x
 _atom_site_fract_y
 _atom_site_fract_z
 _atom_site_occupancy
  Gd  Gd0  1  0.750000  0.250000  0.500000  1
  Gd  Gd1  1  0.250000  0.750000  0.500000  1
  Hf  Hf2  1  0.681097  0.635701  0.316798  1
  Hf  Hf3  1  0.318903  0.364299  0.683202  1
  Hf  Hf4  1  0.181097  0.864299  0.045396  1
  Hf  Hf5  1  0.818903  0.135701  0.954604  1
  F  F6  1  0.706871  0.897309  0.342148  1
  F  F7  1  0.293129  0.102691  0.657852  1
  F  F8  1  0.555161  0.364722  0.657852  1
  F  F9  1  0.944839  0.602691  0.809560  1
  F  F10  1  0.444839  0.635278  0.342148  1
  F  F11  1  0.055161  0.397309  0.190440  1
  F  F12  1  0.793129  0.135278  0.190440  1
  F  F13  1  0.206871  0.864722  0.809560  1
  F  F14  1  0.500000  0.500000  0.000000  1
  F  F15  1  0.000000  0.000000  0.000000  1
  F  F16  1  0.781369  0.870606  0.651974  1
  F  F17  1  0.218631  0.129394  0.348026  1
  F  F18  1  0.281369  0.629394  0.910762  1
  F  F19  1  0.718631  0.370606  0.089238  1
  F  F20  1  0.954740  0.738446  0.418076  1
  F  F21  1  0.045260  0.261554  0.581924  1
  F  F22  1  0.320369  0.536665  0.581924  1
  F  F23  1  0.179631  0.761554  0.216295  1
  F  F24  1  0.679631  0.463335  0.418076  1
  F  F25  1  0.820369  0.238446  0.783705  1
  F  F26  1  0.545260  0.963335  0.783705  1
  F  F27  1  0.454740  0.036665  0.216295  1
