# generated using pymatgen
data_Er2Fe2SiGeC
_symmetry_space_group_name_H-M   'P 1'
_cell_length_a   3.92831508
_cell_length_b   5.62968875
_cell_length_c   5.69072214
_cell_angle_alpha   72.84273429
_cell_angle_beta   69.80900427
_cell_angle_gamma   69.58040165
_symmetry_Int_Tables_number   1
_chemical_formula_structural   Er2Fe2SiGeC
_chemical_formula_sum   'Er2 Fe2 Si1 Ge1 C1'
_cell_volume   108.49308393
_cell_formula_units_Z   1
loop_
 _symmetry_equiv_pos_site_id
 _symmetry_equiv_pos_as_xyz
  1  'x, y, z'
loop_
 _atom_site_type_symbol
 _atom_site_label
 _atom_site_symmetry_multiplicity
 _atom_site_fract_x
 _atom_site_fract_y
 _atom_site_fract_z
 _atom_site_occupancy
  Er  Er0  1  0.441864  0.827044  0.289229  1
  Er  Er1  1  0.558858  0.174027  0.708257  1
  Fe  Fe2  1  0.797214  0.304644  0.100928  1
  Fe  Fe3  1  0.196286  0.695418  0.912009  1
  Si  Si4  1  0.163958  0.387975  0.284110  1
  Ge  Ge5  1  0.843665  0.609343  0.703327  1
  C  C6  1  0.998156  0.001548  0.002140  1
