# generated using pymatgen
data_Ca2ThZrBi5
_symmetry_space_group_name_H-M   'P 1'
_cell_length_a   9.80149000
_cell_length_b   9.73400922
_cell_length_c   6.57040000
_cell_angle_alpha   90.00000000
_cell_angle_beta   90.00000000
_cell_angle_gamma   120.22959065
_symmetry_Int_Tables_number   1
_chemical_formula_structural   Ca2ThZrBi5
_chemical_formula_sum   'Ca4 Th2 Zr2 Bi10'
_cell_volume   541.62274773
_cell_formula_units_Z   2
loop_
 _symmetry_equiv_pos_site_id
 _symmetry_equiv_pos_as_xyz
  1  'x, y, z'
loop_
 _atom_site_type_symbol
 _atom_site_label
 _atom_site_symmetry_multiplicity
 _atom_site_fract_x
 _atom_site_fract_y
 _atom_site_fract_z
 _atom_site_occupancy
  Ca  Ca0  1  0.995158  0.613595  0.750000  1
  Ca  Ca1  1  0.004842  0.386405  0.250000  1
  Ca  Ca2  1  0.381563  0.386405  0.750000  1
  Ca  Ca3  1  0.618437  0.613595  0.250000  1
  Th  Th4  1  0.625879  0.000000  0.750000  1
  Th  Th5  1  0.374121  0.000000  0.250000  1
  Zr  Zr6  1  0.000000  0.000000  0.500000  1
  Zr  Zr7  1  0.000000  0.000000  0.000000  1
  Bi  Bi8  1  0.266122  0.000000  0.750000  1
  Bi  Bi9  1  0.733878  0.000000  0.250000  1
  Bi  Bi10  1  0.003585  0.265241  0.750000  1
  Bi  Bi11  1  0.996415  0.734759  0.250000  1
  Bi  Bi12  1  0.738344  0.734759  0.750000  1
  Bi  Bi13  1  0.261656  0.265241  0.250000  1
  Bi  Bi14  1  0.337494  0.674987  0.500000  1
  Bi  Bi15  1  0.662506  0.325013  0.500000  1
  Bi  Bi16  1  0.662506  0.325013  0.000000  1
  Bi  Bi17  1  0.337494  0.674987  0.000000  1
