# generated using pymatgen
data_Er2Cu5P4Pd3
_symmetry_space_group_name_H-M   'P 1'
_cell_length_a   7.45275791
_cell_length_b   7.27875880
_cell_length_c   3.83499300
_cell_angle_alpha   90.00000000
_cell_angle_beta   90.00000000
_cell_angle_gamma   89.39585219
_symmetry_Int_Tables_number   1
_chemical_formula_structural   Er2Cu5P4Pd3
_chemical_formula_sum   'Er2 Cu5 P4 Pd3'
_cell_volume   208.02463764
_cell_formula_units_Z   1
loop_
 _symmetry_equiv_pos_site_id
 _symmetry_equiv_pos_as_xyz
  1  'x, y, z'
loop_
 _atom_site_type_symbol
 _atom_site_label
 _atom_site_symmetry_multiplicity
 _atom_site_fract_x
 _atom_site_fract_y
 _atom_site_fract_z
 _atom_site_occupancy
  Er  Er0  1  0.500235  0.500906  0.000000  1
  Er  Er1  1  0.000996  0.002302  0.500000  1
  Cu  Cu2  1  0.912441  0.668882  0.000000  1
  Cu  Cu3  1  0.154432  0.584170  0.500000  1
  Cu  Cu4  1  0.839285  0.424270  0.500000  1
  Cu  Cu5  1  0.340737  0.079954  0.000000  1
  Cu  Cu6  1  0.668964  0.912032  0.000000  1
  P  P7  1  0.721580  0.720364  0.500000  1
  P  P8  1  0.283119  0.278141  0.500000  1
  P  P9  1  0.205390  0.777706  0.000000  1
  P  P10  1  0.785632  0.217254  0.000000  1
  Pd  Pd11  1  0.588272  0.174455  0.500000  1
  Pd  Pd12  1  0.411818  0.825016  0.500000  1
  Pd  Pd13  1  0.087098  0.334550  0.000000  1
