# generated using pymatgen
data_Y7CoNiSn23Os4
_symmetry_space_group_name_H-M   'P 1'
_cell_length_a   9.83929760
_cell_length_b   9.83203096
_cell_length_c   10.09152249
_cell_angle_alpha   90.09392381
_cell_angle_beta   89.76676365
_cell_angle_gamma   119.89261630
_symmetry_Int_Tables_number   1
_chemical_formula_structural   Y7CoNiSn23Os4
_chemical_formula_sum   'Y7 Co1 Ni1 Sn23 Os4'
_cell_volume   846.36936709
_cell_formula_units_Z   1
loop_
 _symmetry_equiv_pos_site_id
 _symmetry_equiv_pos_as_xyz
  1  'x, y, z'
loop_
 _atom_site_type_symbol
 _atom_site_label
 _atom_site_symmetry_multiplicity
 _atom_site_fract_x
 _atom_site_fract_y
 _atom_site_fract_z
 _atom_site_occupancy
  Y  Y0  1  0.992826  0.004055  0.985914  1
  Y  Y1  1  0.039190  0.517430  0.306448  1
  Y  Y2  1  0.483452  0.960334  0.306921  1
  Y  Y3  1  0.480860  0.520556  0.307484  1
  Y  Y4  1  0.965284  0.482828  0.696422  1
  Y  Y5  1  0.517165  0.034114  0.696391  1
  Y  Y6  1  0.518261  0.482433  0.695589  1
  Co  Co7  1  0.829465  0.659731  0.198941  1
  Ni  Ni8  1  0.340415  0.169851  0.199245  1
  Sn  Sn9  1  0.000270  0.999869  0.494822  1
  Sn  Sn10  1  0.113734  0.881372  0.270837  1
  Sn  Sn11  1  0.765830  0.876215  0.273927  1
  Sn  Sn12  1  0.122411  0.235453  0.274316  1
  Sn  Sn13  1  0.882418  0.117601  0.720197  1
  Sn  Sn14  1  0.236467  0.117943  0.721337  1
  Sn  Sn15  1  0.881699  0.762983  0.722212  1
  Sn  Sn16  1  0.347228  0.000747  0.004057  1
  Sn  Sn17  1  0.654152  0.649813  0.004961  1
  Sn  Sn18  1  0.998171  0.351989  0.000655  1
  Sn  Sn19  1  0.351080  0.348813  0.003241  1
  Sn  Sn20  1  0.996915  0.652790  0.005581  1
  Sn  Sn21  1  0.648652  0.001776  0.000728  1
  Sn  Sn22  1  0.782322  0.564142  0.452205  1
  Sn  Sn23  1  0.780140  0.220043  0.459812  1
  Sn  Sn24  1  0.437508  0.218631  0.453971  1
  Sn  Sn25  1  0.220597  0.440019  0.542456  1
  Sn  Sn26  1  0.220071  0.779828  0.541783  1
  Sn  Sn27  1  0.560412  0.779474  0.542008  1
  Sn  Sn28  1  0.669799  0.336753  0.182785  1
  Sn  Sn29  1  0.333349  0.666330  0.824215  1
  Sn  Sn30  1  0.666526  0.333271  0.880136  1
  Sn  Sn31  1  0.333102  0.666248  0.123342  1
  Os  Os32  1  0.167799  0.831203  0.801181  1
  Os  Os33  1  0.663294  0.831142  0.802250  1
  Os  Os34  1  0.168308  0.336275  0.801945  1
  Os  Os35  1  0.830831  0.167946  0.201684  1
