# generated using pymatgen
data_Yb2Tm3Ru2
_symmetry_space_group_name_H-M   'P 1'
_cell_length_a   6.37710694
_cell_length_b   7.20280646
_cell_length_c   8.45648938
_cell_angle_alpha   97.41074365
_cell_angle_beta   112.15132924
_cell_angle_gamma   90.00000335
_symmetry_Int_Tables_number   1
_chemical_formula_structural   Yb2Tm3Ru2
_chemical_formula_sum   'Yb4 Tm6 Ru4'
_cell_volume   356.25717115
_cell_formula_units_Z   2
loop_
 _symmetry_equiv_pos_site_id
 _symmetry_equiv_pos_as_xyz
  1  'x, y, z'
loop_
 _atom_site_type_symbol
 _atom_site_label
 _atom_site_symmetry_multiplicity
 _atom_site_fract_x
 _atom_site_fract_y
 _atom_site_fract_z
 _atom_site_occupancy
  Yb  Yb0  1  0.794622  0.078595  0.816208  1
  Yb  Yb1  1  0.978414  0.421405  0.183792  1
  Yb  Yb2  1  0.205378  0.921405  0.183792  1
  Yb  Yb3  1  0.021586  0.578595  0.816208  1
  Tm  Tm4  1  0.198389  0.184188  0.565751  1
  Tm  Tm5  1  0.632639  0.315812  0.434249  1
  Tm  Tm6  1  0.801611  0.815812  0.434249  1
  Tm  Tm7  1  0.367361  0.684188  0.565751  1
  Tm  Tm8  1  0.431590  0.250000  0.000000  1
  Tm  Tm9  1  0.568410  0.750000  0.000000  1
  Ru  Ru10  1  0.581539  0.424638  0.768091  1
  Ru  Ru11  1  0.813448  0.075362  0.231909  1
  Ru  Ru12  1  0.418461  0.575362  0.231909  1
  Ru  Ru13  1  0.186552  0.924638  0.768091  1
