# generated using pymatgen
data_Hf18Re5NiMo3Rh
_symmetry_space_group_name_H-M   'P 1'
_cell_length_a   8.68267890
_cell_length_b   8.68267805
_cell_length_c   8.47379500
_cell_angle_alpha   90.00000000
_cell_angle_beta   90.00000000
_cell_angle_gamma   120.07578289
_symmetry_Int_Tables_number   1
_chemical_formula_structural   Hf18Re5NiMo3Rh
_chemical_formula_sum   'Hf18 Re5 Ni1 Mo3 Rh1'
_cell_volume   552.82015995
_cell_formula_units_Z   1
loop_
 _symmetry_equiv_pos_site_id
 _symmetry_equiv_pos_as_xyz
  1  'x, y, z'
loop_
 _atom_site_type_symbol
 _atom_site_label
 _atom_site_symmetry_multiplicity
 _atom_site_fract_x
 _atom_site_fract_y
 _atom_site_fract_z
 _atom_site_occupancy
  Hf  Hf0  1  0.196824  0.803176  0.445958  1
  Hf  Hf1  1  0.197765  0.394525  0.447215  1
  Hf  Hf2  1  0.605475  0.802235  0.447215  1
  Hf  Hf3  1  0.800863  0.199137  0.558561  1
  Hf  Hf4  1  0.801232  0.602512  0.558037  1
  Hf  Hf5  1  0.397488  0.198768  0.558037  1
  Hf  Hf6  1  0.800863  0.199137  0.941439  1
  Hf  Hf7  1  0.801232  0.602512  0.941963  1
  Hf  Hf8  1  0.397488  0.198768  0.941963  1
  Hf  Hf9  1  0.196824  0.803176  0.054042  1
  Hf  Hf10  1  0.197765  0.394525  0.052785  1
  Hf  Hf11  1  0.605475  0.802235  0.052785  1
  Hf  Hf12  1  0.542680  0.457320  0.250000  1
  Hf  Hf13  1  0.541475  0.085482  0.250000  1
  Hf  Hf14  1  0.914518  0.458525  0.250000  1
  Hf  Hf15  1  0.458541  0.541459  0.750000  1
  Hf  Hf16  1  0.458090  0.917016  0.750000  1
  Hf  Hf17  1  0.082984  0.541910  0.750000  1
  Re  Re18  1  0.888268  0.775016  0.250000  1
  Re  Re19  1  0.224984  0.111732  0.250000  1
  Re  Re20  1  0.110959  0.889041  0.750000  1
  Re  Re21  1  0.111523  0.222538  0.750000  1
  Re  Re22  1  0.777462  0.888477  0.750000  1
  Ni  Ni23  1  0.666436  0.333564  0.750000  1
  Mo  Mo24  1  0.888931  0.111069  0.250000  1
  Mo  Mo25  1  0.000178  0.999822  0.498613  1
  Mo  Mo26  1  0.000178  0.999822  0.001387  1
  Rh  Rh27  1  0.333501  0.666499  0.250000  1
