# generated using pymatgen
data_CsNaSe2O7
_symmetry_space_group_name_H-M   'P 1'
_cell_length_a   6.22486458
_cell_length_b   8.03742138
_cell_length_c   8.55754278
_cell_angle_alpha   101.34108137
_cell_angle_beta   90.11303517
_cell_angle_gamma   94.18286831
_symmetry_Int_Tables_number   1
_chemical_formula_structural   CsNaSe2O7
_chemical_formula_sum   'Cs2 Na2 Se4 O14'
_cell_volume   418.61322230
_cell_formula_units_Z   2
loop_
 _symmetry_equiv_pos_site_id
 _symmetry_equiv_pos_as_xyz
  1  'x, y, z'
loop_
 _atom_site_type_symbol
 _atom_site_label
 _atom_site_symmetry_multiplicity
 _atom_site_fract_x
 _atom_site_fract_y
 _atom_site_fract_z
 _atom_site_occupancy
  Cs  Cs0  1  0.222330  0.775503  0.426446  1
  Cs  Cs1  1  0.777670  0.224497  0.573554  1
  Na  Na2  1  0.202879  0.634674  0.901036  1
  Na  Na3  1  0.797121  0.365326  0.098964  1
  Se  Se4  1  0.714889  0.723786  0.706474  1
  Se  Se5  1  0.719343  0.819416  0.089518  1
  Se  Se6  1  0.280657  0.180584  0.910482  1
  Se  Se7  1  0.285111  0.276214  0.293526  1
  O  O8  1  0.738015  0.882895  0.893146  1
  O  O9  1  0.526289  0.268834  0.900655  1
  O  O10  1  0.905123  0.681280  0.090579  1
  O  O11  1  0.518353  0.386951  0.292284  1
  O  O12  1  0.261985  0.117105  0.106854  1
  O  O13  1  0.473711  0.731166  0.099345  1
  O  O14  1  0.094877  0.318720  0.909421  1
  O  O15  1  0.481647  0.613049  0.707716  1
  O  O16  1  0.075494  0.391516  0.295456  1
  O  O17  1  0.271630  0.155453  0.428244  1
  O  O18  1  0.228808  0.994640  0.793526  1
  O  O19  1  0.728370  0.844547  0.571756  1
  O  O20  1  0.924506  0.608484  0.704544  1
  O  O21  1  0.771192  0.005360  0.206474  1
