# generated using pymatgen
data_Nd2Pa6TiSe17
_symmetry_space_group_name_H-M   'P 1'
_cell_length_a   8.24000821
_cell_length_b   8.24000846
_cell_length_c   10.91421900
_cell_angle_alpha   80.70200706
_cell_angle_beta   80.70201382
_cell_angle_gamma   65.32745837
_symmetry_Int_Tables_number   1
_chemical_formula_structural   Nd2Pa6TiSe17
_chemical_formula_sum   'Nd2 Pa6 Ti1 Se17'
_cell_volume   660.88078018
_cell_formula_units_Z   1
loop_
 _symmetry_equiv_pos_site_id
 _symmetry_equiv_pos_as_xyz
  1  'x, y, z'
loop_
 _atom_site_type_symbol
 _atom_site_label
 _atom_site_symmetry_multiplicity
 _atom_site_fract_x
 _atom_site_fract_y
 _atom_site_fract_z
 _atom_site_occupancy
  Nd  Nd0  1  0.814969  0.305003  0.294671  1
  Nd  Nd1  1  0.305003  0.814969  0.294671  1
  Pa  Pa2  1  0.179083  0.700382  0.704895  1
  Pa  Pa3  1  0.700382  0.179083  0.704895  1
  Pa  Pa4  1  0.200641  0.200641  0.541441  1
  Pa  Pa5  1  0.797781  0.797781  0.458084  1
  Pa  Pa6  1  0.683700  0.683700  0.984870  1
  Pa  Pa7  1  0.317538  0.317538  0.014581  1
  Ti  Ti8  1  0.000927  0.000927  0.999910  1
  Se  Se9  1  0.819199  0.434473  0.541861  1
  Se  Se10  1  0.434473  0.819199  0.541861  1
  Se  Se11  1  0.176003  0.563750  0.471033  1
  Se  Se12  1  0.563750  0.176003  0.471033  1
  Se  Se13  1  0.943586  0.328364  0.018411  1
  Se  Se14  1  0.328364  0.943586  0.018411  1
  Se  Se15  1  0.059375  0.674959  0.973764  1
  Se  Se16  1  0.674959  0.059375  0.973764  1
  Se  Se17  1  0.217216  0.217216  0.276182  1
  Se  Se18  1  0.785041  0.785041  0.725983  1
  Se  Se19  1  0.062676  0.062676  0.771391  1
  Se  Se20  1  0.935744  0.935744  0.228566  1
  Se  Se21  1  0.301963  0.301963  0.753457  1
  Se  Se22  1  0.702575  0.702575  0.242412  1
  Se  Se23  1  0.520468  0.520468  0.830050  1
  Se  Se24  1  0.478215  0.478215  0.155498  1
  Se  Se25  1  0.996374  0.996374  0.508307  1
