# generated using pymatgen
data_YbHo2Er(B4Os)4
_symmetry_space_group_name_H-M   'P 1'
_cell_length_a   3.55227200
_cell_length_b   5.96007328
_cell_length_c   11.51737998
_cell_angle_alpha   89.95733123
_cell_angle_beta   90.00000000
_cell_angle_gamma   90.00000000
_symmetry_Int_Tables_number   1
_chemical_formula_structural   YbHo2Er(B4Os)4
_chemical_formula_sum   'Yb1 Ho2 Er1 B16 Os4'
_cell_volume   243.84361406
_cell_formula_units_Z   1
loop_
 _symmetry_equiv_pos_site_id
 _symmetry_equiv_pos_as_xyz
  1  'x, y, z'
loop_
 _atom_site_type_symbol
 _atom_site_label
 _atom_site_symmetry_multiplicity
 _atom_site_fract_x
 _atom_site_fract_y
 _atom_site_fract_z
 _atom_site_occupancy
  Yb  Yb0  1  0.000000  0.370349  0.149147  1
  Ho  Ho1  1  0.000000  0.127843  0.650094  1
  Ho  Ho2  1  0.000000  0.871520  0.348696  1
  Er  Er3  1  0.000000  0.627833  0.851072  1
  B  B4  1  0.500000  0.475519  0.692116  1
  B  B5  1  0.500000  0.525186  0.308290  1
  B  B6  1  0.500000  0.974453  0.808732  1
  B  B7  1  0.500000  0.025046  0.190857  1
  B  B8  1  0.500000  0.289763  0.814811  1
  B  B9  1  0.500000  0.711030  0.185072  1
  B  B10  1  0.500000  0.789052  0.686399  1
  B  B11  1  0.500000  0.212217  0.313753  1
  B  B12  1  0.500000  0.363846  0.970038  1
  B  B13  1  0.500000  0.635798  0.030035  1
  B  B14  1  0.500000  0.863601  0.530296  1
  B  B15  1  0.500000  0.136121  0.470104  1
  B  B16  1  0.500000  0.387225  0.547246  1
  B  B17  1  0.500000  0.612130  0.452916  1
  B  B18  1  0.500000  0.887397  0.953575  1
  B  B19  1  0.500000  0.113978  0.047059  1
  Os  Os20  1  0.000000  0.140977  0.906539  1
  Os  Os21  1  0.000000  0.859538  0.091602  1
  Os  Os22  1  0.000000  0.641364  0.593547  1
  Os  Os23  1  0.000000  0.358216  0.408006  1
