# generated using pymatgen
data_Ca2Nd2ReRuC4
_symmetry_space_group_name_H-M   'P 1'
_cell_length_a   5.24935300
_cell_length_b   6.54383400
_cell_length_c   10.54967700
_cell_angle_alpha   90.00000000
_cell_angle_beta   90.00000000
_cell_angle_gamma   90.00000000
_symmetry_Int_Tables_number   1
_chemical_formula_structural   Ca2Nd2ReRuC4
_chemical_formula_sum   'Ca4 Nd4 Re2 Ru2 C8'
_cell_volume   362.39084311
_cell_formula_units_Z   2
loop_
 _symmetry_equiv_pos_site_id
 _symmetry_equiv_pos_as_xyz
  1  'x, y, z'
loop_
 _atom_site_type_symbol
 _atom_site_label
 _atom_site_symmetry_multiplicity
 _atom_site_fract_x
 _atom_site_fract_y
 _atom_site_fract_z
 _atom_site_occupancy
  Ca  Ca0  1  0.250000  0.464853  0.773430  1
  Ca  Ca1  1  0.750000  0.035147  0.273430  1
  Ca  Ca2  1  0.250000  0.963723  0.723761  1
  Ca  Ca3  1  0.750000  0.536277  0.223761  1
  Nd  Nd4  1  0.250000  0.807976  0.052050  1
  Nd  Nd5  1  0.750000  0.692024  0.552050  1
  Nd  Nd6  1  0.250000  0.301650  0.445159  1
  Nd  Nd7  1  0.750000  0.198350  0.945159  1
  Re  Re8  1  0.250000  0.772608  0.353239  1
  Re  Re9  1  0.750000  0.727392  0.853239  1
  Ru  Ru10  1  0.250000  0.272868  0.147714  1
  Ru  Ru11  1  0.750000  0.227132  0.647714  1
  C  C12  1  0.250000  0.696165  0.527338  1
  C  C13  1  0.750000  0.803835  0.027338  1
  C  C14  1  0.250000  0.195845  0.975912  1
  C  C15  1  0.750000  0.304155  0.475912  1
  C  C16  1  0.250000  0.033511  0.256870  1
  C  C17  1  0.750000  0.466489  0.756870  1
  C  C18  1  0.250000  0.534336  0.244528  1
  C  C19  1  0.750000  0.965664  0.744528  1
