# generated using pymatgen
data_YHo4Tm15(CoBi2)4
_symmetry_space_group_name_H-M   'P 1'
_cell_length_a   7.89496433
_cell_length_b   8.86289500
_cell_length_c   12.29857907
_cell_angle_alpha   90.00000000
_cell_angle_beta   90.05866063
_cell_angle_gamma   90.00000000
_symmetry_Int_Tables_number   1
_chemical_formula_structural   YHo4Tm15(CoBi2)4
_chemical_formula_sum   'Y1 Ho4 Tm15 Co4 Bi8'
_cell_volume   860.55867395
_cell_formula_units_Z   1
loop_
 _symmetry_equiv_pos_site_id
 _symmetry_equiv_pos_as_xyz
  1  'x, y, z'
loop_
 _atom_site_type_symbol
 _atom_site_label
 _atom_site_symmetry_multiplicity
 _atom_site_fract_x
 _atom_site_fract_y
 _atom_site_fract_z
 _atom_site_occupancy
  Y  Y0  1  0.155025  0.750000  0.201721  1
  Ho  Ho1  1  0.618947  0.750000  0.311795  1
  Ho  Ho2  1  0.118101  0.250000  0.188178  1
  Ho  Ho3  1  0.382027  0.250000  0.688056  1
  Ho  Ho4  1  0.881885  0.750000  0.811524  1
  Tm  Tm5  1  0.653697  0.250000  0.300852  1
  Tm  Tm6  1  0.845750  0.250000  0.800221  1
  Tm  Tm7  1  0.345789  0.750000  0.699683  1
  Tm  Tm8  1  0.445627  0.750000  0.997019  1
  Tm  Tm9  1  0.944160  0.250000  0.502899  1
  Tm  Tm10  1  0.555426  0.250000  0.002059  1
  Tm  Tm11  1  0.055045  0.750000  0.498186  1
  Tm  Tm12  1  0.826518  0.963052  0.062803  1
  Tm  Tm13  1  0.326964  0.037821  0.436695  1
  Tm  Tm14  1  0.173164  0.462250  0.936266  1
  Tm  Tm15  1  0.672912  0.537468  0.563553  1
  Tm  Tm16  1  0.173164  0.037750  0.936266  1
  Tm  Tm17  1  0.672912  0.962532  0.563553  1
  Tm  Tm18  1  0.826518  0.536948  0.062803  1
  Tm  Tm19  1  0.326964  0.462179  0.436695  1
  Co  Co20  1  0.433770  0.750000  0.492153  1
  Co  Co21  1  0.934046  0.250000  0.007525  1
  Co  Co22  1  0.565742  0.250000  0.507904  1
  Co  Co23  1  0.065488  0.750000  0.991023  1
  Bi  Bi24  1  0.930370  0.992206  0.328265  1
  Bi  Bi25  1  0.432511  0.009256  0.172107  1
  Bi  Bi26  1  0.068786  0.491195  0.672573  1
  Bi  Bi27  1  0.568513  0.508538  0.827339  1
  Bi  Bi28  1  0.068786  0.008805  0.672573  1
  Bi  Bi29  1  0.568513  0.991462  0.827339  1
  Bi  Bi30  1  0.930370  0.507794  0.328265  1
  Bi  Bi31  1  0.432511  0.490744  0.172107  1
