# generated using pymatgen
data_Gd3Dy(WF7)4
_symmetry_space_group_name_H-M   'P 1'
_cell_length_a   5.72733837
_cell_length_b   9.13147923
_cell_length_c   12.35943900
_cell_angle_alpha   62.64976988
_cell_angle_beta   89.97938194
_cell_angle_gamma   89.98768511
_symmetry_Int_Tables_number   1
_chemical_formula_structural   Gd3Dy(WF7)4
_chemical_formula_sum   'Gd3 Dy1 W4 F28'
_cell_volume   574.13062494
_cell_formula_units_Z   1
loop_
 _symmetry_equiv_pos_site_id
 _symmetry_equiv_pos_as_xyz
  1  'x, y, z'
loop_
 _atom_site_type_symbol
 _atom_site_label
 _atom_site_symmetry_multiplicity
 _atom_site_fract_x
 _atom_site_fract_y
 _atom_site_fract_z
 _atom_site_occupancy
  Gd  Gd0  1  0.260635  0.186065  0.734716  1
  Gd  Gd1  1  0.239949  0.187626  0.233453  1
  Gd  Gd2  1  0.738778  0.811636  0.265415  1
  Dy  Dy3  1  0.762625  0.812198  0.765868  1
  W  W4  1  0.754944  0.274311  0.956482  1
  W  W5  1  0.258029  0.728239  0.545209  1
  W  W6  1  0.243655  0.726803  0.041186  1
  W  W7  1  0.744663  0.271149  0.457446  1
  F  F8  1  0.448561  0.708200  0.917347  1
  F  F9  1  0.946200  0.290869  0.582223  1
  F  F10  1  0.541231  0.293698  0.078735  1
  F  F11  1  0.050165  0.709570  0.422479  1
  F  F12  1  0.451712  0.279571  0.551757  1
  F  F13  1  0.948916  0.720901  0.945709  1
  F  F14  1  0.550300  0.721209  0.449059  1
  F  F15  1  0.048483  0.280275  0.048341  1
  F  F16  1  0.757652  0.520441  0.858531  1
  F  F17  1  0.265441  0.483146  0.642239  1
  F  F18  1  0.234281  0.482216  0.139168  1
  F  F19  1  0.742874  0.516623  0.359187  1
  F  F20  1  0.759488  0.029311  0.052738  1
  F  F21  1  0.255996  0.972792  0.446837  1
  F  F22  1  0.243902  0.971659  0.945790  1
  F  F23  1  0.741087  0.026486  0.557086  1
  F  F24  1  0.978681  0.732017  0.649747  1
  F  F25  1  0.473693  0.268656  0.857430  1
  F  F26  1  0.022827  0.269766  0.352873  1
  F  F27  1  0.523665  0.729543  0.145139  1
  F  F28  1  0.042553  0.748342  0.166278  1
  F  F29  1  0.545251  0.249871  0.331610  1
  F  F30  1  0.963556  0.253943  0.832031  1
  F  F31  1  0.464847  0.749102  0.668991  1
  F  F32  1  0.423783  0.973623  0.232643  1
  F  F33  1  0.925053  0.025915  0.265315  1
  F  F34  1  0.574848  0.020176  0.768379  1
  F  F35  1  0.071677  0.974047  0.732558  1
