# generated using pymatgen
data_Cs4MnHgSe4
_symmetry_space_group_name_H-M   'P 1'
_cell_length_a   8.93703186
_cell_length_b   8.93703205
_cell_length_c   8.93703234
_cell_angle_alpha   133.75449261
_cell_angle_beta   129.17994263
_cell_angle_gamma   71.13571290
_symmetry_Int_Tables_number   1
_chemical_formula_structural   Cs4MnHgSe4
_chemical_formula_sum   'Cs4 Mn1 Hg1 Se4'
_cell_volume   391.35765744
_cell_formula_units_Z   1
loop_
 _symmetry_equiv_pos_site_id
 _symmetry_equiv_pos_as_xyz
  1  'x, y, z'
loop_
 _atom_site_type_symbol
 _atom_site_label
 _atom_site_symmetry_multiplicity
 _atom_site_fract_x
 _atom_site_fract_y
 _atom_site_fract_z
 _atom_site_occupancy
  Cs  Cs0  1  0.521827  0.856522  0.669730  1
  Cs  Cs1  1  0.478173  0.147903  0.334695  1
  Cs  Cs2  1  0.813207  0.643478  0.165305  1
  Cs  Cs3  1  0.186793  0.352097  0.830270  1
  Mn  Mn4  1  0.000000  0.750000  0.750000  1
  Hg  Hg5  1  0.000000  0.250000  0.250000  1
  Se  Se6  1  0.083687  0.881725  0.163717  1
  Se  Se7  1  0.718008  0.419970  0.336283  1
  Se  Se8  1  0.916313  0.080030  0.798037  1
  Se  Se9  1  0.281993  0.618275  0.701963  1
