# generated using pymatgen
data_Li4Nd3LuSi8
_symmetry_space_group_name_H-M   'P 1'
_cell_length_a   3.85108600
_cell_length_b   7.68383365
_cell_length_c   10.37332211
_cell_angle_alpha   90.16204280
_cell_angle_beta   90.00000000
_cell_angle_gamma   90.00000000
_symmetry_Int_Tables_number   1
_chemical_formula_structural   Li4Nd3LuSi8
_chemical_formula_sum   'Li4 Nd3 Lu1 Si8'
_cell_volume   306.95682764
_cell_formula_units_Z   1
loop_
 _symmetry_equiv_pos_site_id
 _symmetry_equiv_pos_as_xyz
  1  'x, y, z'
loop_
 _atom_site_type_symbol
 _atom_site_label
 _atom_site_symmetry_multiplicity
 _atom_site_fract_x
 _atom_site_fract_y
 _atom_site_fract_z
 _atom_site_occupancy
  Li  Li0  1  0.250000  0.988554  0.391582  1
  Li  Li1  1  0.250000  0.492884  0.109837  1
  Li  Li2  1  0.750000  0.008076  0.606309  1
  Li  Li3  1  0.750000  0.507773  0.890997  1
  Nd  Nd4  1  0.250000  0.142410  0.864950  1
  Nd  Nd5  1  0.250000  0.639195  0.634811  1
  Nd  Nd6  1  0.750000  0.859654  0.136967  1
  Lu  Lu7  1  0.750000  0.365613  0.364479  1
  Si  Si8  1  0.250000  0.232104  0.562287  1
  Si  Si9  1  0.250000  0.729092  0.929471  1
  Si  Si10  1  0.750000  0.764122  0.428666  1
  Si  Si11  1  0.750000  0.276218  0.077663  1
  Si  Si12  1  0.250000  0.650888  0.322330  1
  Si  Si13  1  0.250000  0.164922  0.185050  1
  Si  Si14  1  0.750000  0.339309  0.673170  1
  Si  Si15  1  0.750000  0.839185  0.821431  1
