# generated using pymatgen
data_BaCe2SbS8
_symmetry_space_group_name_H-M   'P 1'
_cell_length_a   6.93772434
_cell_length_b   6.93772506
_cell_length_c   7.36612226
_cell_angle_alpha   99.53651806
_cell_angle_beta   99.53651515
_cell_angle_gamma   107.14725909
_symmetry_Int_Tables_number   1
_chemical_formula_structural   BaCe2SbS8
_chemical_formula_sum   'Ba1 Ce2 Sb1 S8'
_cell_volume   325.33250586
_cell_formula_units_Z   1
loop_
 _symmetry_equiv_pos_site_id
 _symmetry_equiv_pos_as_xyz
  1  'x, y, z'
loop_
 _atom_site_type_symbol
 _atom_site_label
 _atom_site_symmetry_multiplicity
 _atom_site_fract_x
 _atom_site_fract_y
 _atom_site_fract_z
 _atom_site_occupancy
  Ba  Ba0  1  0.537439  0.537439  0.148604  1
  Ce  Ce1  1  0.923734  0.421096  0.689571  1
  Ce  Ce2  1  0.421096  0.923734  0.689571  1
  Sb  Sb3  1  0.999721  0.999721  0.003077  1
  S  S4  1  0.697332  0.023587  0.441030  1
  S  S5  1  0.023587  0.697332  0.441030  1
  S  S6  1  0.512406  0.210639  0.448155  1
  S  S7  1  0.210639  0.512406  0.448155  1
  S  S8  1  0.705563  0.705563  0.793747  1
  S  S9  1  0.193057  0.193057  0.798740  1
  S  S10  1  0.747950  0.230780  0.956813  1
  S  S11  1  0.230780  0.747950  0.956813  1
