# generated using pymatgen
data_Nd3Sm(WN3)4
_symmetry_space_group_name_H-M   'P 1'
_cell_length_a   7.41577361
_cell_length_b   7.41577267
_cell_length_c   6.36432108
_cell_angle_alpha   75.24845541
_cell_angle_beta   75.24846343
_cell_angle_gamma   83.43832657
_symmetry_Int_Tables_number   1
_chemical_formula_structural   Nd3Sm(WN3)4
_chemical_formula_sum   'Nd3 Sm1 W4 N12'
_cell_volume   326.84760587
_cell_formula_units_Z   1
loop_
 _symmetry_equiv_pos_site_id
 _symmetry_equiv_pos_as_xyz
  1  'x, y, z'
loop_
 _atom_site_type_symbol
 _atom_site_label
 _atom_site_symmetry_multiplicity
 _atom_site_fract_x
 _atom_site_fract_y
 _atom_site_fract_z
 _atom_site_occupancy
  Nd  Nd0  1  0.697395  0.302605  0.750000  1
  Nd  Nd1  1  0.090705  0.909295  0.750000  1
  Nd  Nd2  1  0.302984  0.697016  0.250000  1
  Sm  Sm3  1  0.907747  0.092253  0.250000  1
  W  W4  1  0.380252  0.201286  0.240986  1
  W  W5  1  0.620361  0.798315  0.757356  1
  W  W6  1  0.798714  0.619748  0.259014  1
  W  W7  1  0.201685  0.379639  0.742644  1
  N  N8  1  0.617826  0.114545  0.152865  1
  N  N9  1  0.361398  0.341807  0.468078  1
  N  N10  1  0.001865  0.223983  0.849638  1
  N  N11  1  0.383454  0.884067  0.849245  1
  N  N12  1  0.776017  0.998135  0.650362  1
  N  N13  1  0.115933  0.616546  0.650755  1
  N  N14  1  0.885455  0.382174  0.347135  1
  N  N15  1  0.636583  0.654916  0.533516  1
  N  N16  1  0.658193  0.638602  0.031922  1
  N  N17  1  0.345084  0.363417  0.966484  1
  N  N18  1  0.996319  0.777969  0.156426  1
  N  N19  1  0.222031  0.003681  0.343574  1
