# generated using pymatgen
data_Ba8YHo3(GaO5)4
_symmetry_space_group_name_H-M   'P 1'
_cell_length_a   6.12672201
_cell_length_b   7.84860447
_cell_length_c   12.72049013
_cell_angle_alpha   91.97373183
_cell_angle_beta   90.00010360
_cell_angle_gamma   90.00710490
_symmetry_Int_Tables_number   1
_chemical_formula_structural   Ba8YHo3(GaO5)4
_chemical_formula_sum   'Ba8 Y1 Ho3 Ga4 O20'
_cell_volume   611.31735754
_cell_formula_units_Z   1
loop_
 _symmetry_equiv_pos_site_id
 _symmetry_equiv_pos_as_xyz
  1  'x, y, z'
loop_
 _atom_site_type_symbol
 _atom_site_label
 _atom_site_symmetry_multiplicity
 _atom_site_fract_x
 _atom_site_fract_y
 _atom_site_fract_z
 _atom_site_occupancy
  Ba  Ba0  1  0.762578  0.482113  0.346687  1
  Ba  Ba1  1  0.737386  0.981718  0.846488  1
  Ba  Ba2  1  0.237462  0.518112  0.653273  1
  Ba  Ba3  1  0.262641  0.017810  0.153576  1
  Ba  Ba4  1  0.755656  0.993093  0.380938  1
  Ba  Ba5  1  0.744269  0.493372  0.880841  1
  Ba  Ba6  1  0.244391  0.006772  0.618881  1
  Ba  Ba7  1  0.255654  0.507124  0.119292  1
  Y  Y8  1  0.249654  0.232845  0.871459  1
  Ho  Ho9  1  0.749779  0.266639  0.628445  1
  Ho  Ho10  1  0.750239  0.766606  0.128849  1
  Ho  Ho11  1  0.250283  0.733425  0.371225  1
  Ga  Ga12  1  0.734806  0.741883  0.582005  1
  Ga  Ga13  1  0.765154  0.241985  0.082559  1
  Ga  Ga14  1  0.265234  0.258124  0.417929  1
  Ga  Ga15  1  0.234743  0.758298  0.918154  1
  O  O16  1  0.758886  0.971862  0.629289  1
  O  O17  1  0.741060  0.472206  0.129414  1
  O  O18  1  0.241139  0.027989  0.370678  1
  O  O19  1  0.259059  0.529193  0.870460  1
  O  O20  1  0.729058  0.066763  0.176196  1
  O  O21  1  0.770843  0.567059  0.675990  1
  O  O22  1  0.271075  0.931831  0.823488  1
  O  O23  1  0.229183  0.433080  0.323988  1
  O  O24  1  0.542223  0.744807  0.271397  1
  O  O25  1  0.955895  0.244834  0.771082  1
  O  O26  1  0.458095  0.255270  0.727761  1
  O  O27  1  0.042338  0.755141  0.228601  1
  O  O28  1  0.549778  0.222050  0.976802  1
  O  O29  1  0.951509  0.722235  0.476461  1
  O  O30  1  0.451542  0.777929  0.023621  1
  O  O31  1  0.048662  0.277737  0.523415  1
  O  O32  1  0.043628  0.228251  0.020753  1
  O  O33  1  0.456206  0.728302  0.519743  1
  O  O34  1  0.956060  0.771866  0.980265  1
  O  O35  1  0.543832  0.271677  0.479993  1
