# generated using pymatgen
data_Zr10Al2TlSb3
_symmetry_space_group_name_H-M   'P 1'
_cell_length_a   5.54638916
_cell_length_b   8.40517198
_cell_length_c   8.41559300
_cell_angle_alpha   83.75817959
_cell_angle_beta   70.75971214
_cell_angle_gamma   70.73492077
_symmetry_Int_Tables_number   1
_chemical_formula_structural   Zr10Al2TlSb3
_chemical_formula_sum   'Zr10 Al2 Tl1 Sb3'
_cell_volume   349.66593895
_cell_formula_units_Z   1
loop_
 _symmetry_equiv_pos_site_id
 _symmetry_equiv_pos_as_xyz
  1  'x, y, z'
loop_
 _atom_site_type_symbol
 _atom_site_label
 _atom_site_symmetry_multiplicity
 _atom_site_fract_x
 _atom_site_fract_y
 _atom_site_fract_z
 _atom_site_occupancy
  Zr  Zr0  1  0.248001  0.500000  0.501876  1
  Zr  Zr1  1  0.750123  0.500000  0.501876  1
  Zr  Zr2  1  0.077176  0.136817  0.708832  1
  Zr  Zr3  1  0.921772  0.864497  0.291958  1
  Zr  Zr4  1  0.786451  0.289757  0.137342  1
  Zr  Zr5  1  0.424232  0.290847  0.860687  1
  Zr  Zr6  1  0.215080  0.709153  0.860687  1
  Zr  Zr7  1  0.576207  0.710243  0.137342  1
  Zr  Zr8  1  0.713992  0.863183  0.708832  1
  Zr  Zr9  1  0.286270  0.135503  0.291958  1
  Al  Al10  1  0.250159  0.000000  0.999683  1
  Al  Al11  1  0.750159  0.000000  0.999683  1
  Tl  Tl12  1  0.164170  0.500000  0.171659  1
  Sb  Sb13  1  0.836032  0.500000  0.827934  1
  Sb  Sb14  1  0.336701  0.826773  0.499826  1
  Sb  Sb15  1  0.663473  0.173227  0.499826  1
