# generated using pymatgen
data_Lu12Zn2Ni3Rh
_symmetry_space_group_name_H-M   'P 1'
_cell_length_a   8.11351816
_cell_length_b   8.11374931
_cell_length_c   8.11351645
_cell_angle_alpha   112.44222084
_cell_angle_beta   110.05241721
_cell_angle_gamma   105.98287045
_symmetry_Int_Tables_number   1
_chemical_formula_structural   Lu12Zn2Ni3Rh
_chemical_formula_sum   'Lu12 Zn2 Ni3 Rh1'
_cell_volume   409.84820645
_cell_formula_units_Z   1
loop_
 _symmetry_equiv_pos_site_id
 _symmetry_equiv_pos_as_xyz
  1  'x, y, z'
loop_
 _atom_site_type_symbol
 _atom_site_label
 _atom_site_symmetry_multiplicity
 _atom_site_fract_x
 _atom_site_fract_y
 _atom_site_fract_z
 _atom_site_occupancy
  Lu  Lu0  1  0.438323  0.246832  0.191465  1
  Lu  Lu1  1  0.570115  0.763297  0.806860  1
  Lu  Lu2  1  0.043563  0.236703  0.806817  1
  Lu  Lu3  1  0.944633  0.753168  0.191489  1
  Lu  Lu4  1  0.181438  0.282665  0.464010  1
  Lu  Lu5  1  0.821755  0.721836  0.543673  1
  Lu  Lu6  1  0.181345  0.717335  0.898772  1
  Lu  Lu7  1  0.821838  0.278164  0.099918  1
  Lu  Lu8  1  0.324734  0.631193  0.306648  1
  Lu  Lu9  1  0.675456  0.368807  0.693543  1
  Lu  Lu10  1  0.324844  0.018310  0.693654  1
  Lu  Lu11  1  0.675344  0.981690  0.306534  1
  Zn  Zn12  1  0.496402  0.500000  0.996402  1
  Zn  Zn13  1  0.009720  0.000000  0.009720  1
  Ni  Ni14  1  0.653491  0.000000  0.653491  1
  Ni  Ni15  1  0.121863  0.621239  0.500598  1
  Ni  Ni16  1  0.879359  0.378761  0.500625  1
  Rh  Rh17  1  0.335779  0.000000  0.335779  1
