# generated using pymatgen
data_La18Nd2Si15Br
_symmetry_space_group_name_H-M   'P 1'
_cell_length_a   8.08795525
_cell_length_b   7.99424271
_cell_length_c   15.48944500
_cell_angle_alpha   89.49648828
_cell_angle_beta   89.22323439
_cell_angle_gamma   90.69333384
_symmetry_Int_Tables_number   1
_chemical_formula_structural   La18Nd2Si15Br
_chemical_formula_sum   'La18 Nd2 Si15 Br1'
_cell_volume   1001.29675363
_cell_formula_units_Z   1
loop_
 _symmetry_equiv_pos_site_id
 _symmetry_equiv_pos_as_xyz
  1  'x, y, z'
loop_
 _atom_site_type_symbol
 _atom_site_label
 _atom_site_symmetry_multiplicity
 _atom_site_fract_x
 _atom_site_fract_y
 _atom_site_fract_z
 _atom_site_occupancy
  La  La0  1  0.311062  0.313363  0.998441  1
  La  La1  1  0.185686  0.805036  0.250335  1
  La  La2  1  0.793092  0.190890  0.753957  1
  La  La3  1  0.685409  0.686628  0.495272  1
  La  La4  1  0.380637  0.003098  0.442999  1
  La  La5  1  0.499176  0.865860  0.700766  1
  La  La6  1  0.510938  0.121440  0.196776  1
  La  La7  1  0.872902  0.483821  0.298330  1
  La  La8  1  0.121532  0.521299  0.800815  1
  La  La9  1  0.635287  0.986354  0.954444  1
  La  La10  1  0.993141  0.384956  0.544978  1
  La  La11  1  0.996929  0.622607  0.052289  1
  La  La12  1  0.140610  0.992271  0.874155  1
  La  La13  1  0.517945  0.630839  0.125271  1
  La  La14  1  0.482049  0.366934  0.631356  1
  La  La15  1  0.638696  0.521464  0.877618  1
  La  La16  1  0.365039  0.477773  0.376670  1
  La  La17  1  0.871224  0.017999  0.376911  1
  Nd  Nd18  1  0.986552  0.126334  0.124019  1
  Nd  Nd19  1  0.010058  0.863342  0.620745  1
  Si  Si20  1  0.334912  0.703225  0.948619  1
  Si  Si21  1  0.659039  0.300634  0.453715  1
  Si  Si22  1  0.708211  0.334940  0.053179  1
  Si  Si23  1  0.298578  0.666720  0.553860  1
  Si  Si24  1  0.803013  0.834532  0.200888  1
  Si  Si25  1  0.165911  0.194706  0.295966  1
  Si  Si26  1  0.845567  0.804918  0.795960  1
  Si  Si27  1  0.289575  0.923769  0.057804  1
  Si  Si28  1  0.576105  0.788119  0.306826  1
  Si  Si29  1  0.452546  0.208311  0.825153  1
  Si  Si30  1  0.792505  0.579573  0.688376  1
  Si  Si31  1  0.209584  0.420313  0.190428  1
  Si  Si32  1  0.704212  0.073885  0.560900  1
  Si  Si33  1  0.927798  0.290220  0.942164  1
  Si  Si34  1  0.077537  0.713011  0.442919  1
  Br  Br35  1  0.156944  0.180820  0.687098  1
