# generated using pymatgen
data_Tb7Y(AlRu)8
_symmetry_space_group_name_H-M   'P 1'
_cell_length_a   4.07890900
_cell_length_b   7.03357007
_cell_length_c   16.01972070
_cell_angle_alpha   89.87818720
_cell_angle_beta   90.00000000
_cell_angle_gamma   90.00000000
_symmetry_Int_Tables_number   1
_chemical_formula_structural   Tb7Y(AlRu)8
_chemical_formula_sum   'Tb7 Y1 Al8 Ru8'
_cell_volume   459.59341032
_cell_formula_units_Z   1
loop_
 _symmetry_equiv_pos_site_id
 _symmetry_equiv_pos_as_xyz
  1  'x, y, z'
loop_
 _atom_site_type_symbol
 _atom_site_label
 _atom_site_symmetry_multiplicity
 _atom_site_fract_x
 _atom_site_fract_y
 _atom_site_fract_z
 _atom_site_occupancy
  Tb  Tb0  1  0.750000  0.964571  0.219276  1
  Tb  Tb1  1  0.250000  0.160548  0.563200  1
  Tb  Tb2  1  0.750000  0.842543  0.436808  1
  Tb  Tb3  1  0.750000  0.465344  0.280349  1
  Tb  Tb4  1  0.750000  0.339571  0.062877  1
  Tb  Tb5  1  0.250000  0.657248  0.937253  1
  Tb  Tb6  1  0.250000  0.034119  0.780533  1
  Y  Y7  1  0.250000  0.536093  0.719028  1
  Al  Al8  1  0.750000  0.501036  0.565647  1
  Al  Al9  1  0.750000  0.363734  0.848236  1
  Al  Al10  1  0.750000  0.999202  0.935033  1
  Al  Al11  1  0.750000  0.863532  0.650989  1
  Al  Al12  1  0.250000  0.501220  0.434771  1
  Al  Al13  1  0.250000  0.998933  0.065182  1
  Al  Al14  1  0.250000  0.635349  0.150800  1
  Al  Al15  1  0.250000  0.137405  0.349071  1
  Ru  Ru16  1  0.750000  0.746539  0.813250  1
  Ru  Ru17  1  0.250000  0.233539  0.936241  1
  Ru  Ru18  1  0.750000  0.267465  0.436348  1
  Ru  Ru19  1  0.250000  0.754695  0.312632  1
  Ru  Ru20  1  0.750000  0.764463  0.063549  1
  Ru  Ru21  1  0.750000  0.244601  0.688046  1
  Ru  Ru22  1  0.250000  0.252930  0.187811  1
  Ru  Ru23  1  0.250000  0.735321  0.563068  1
