# generated using pymatgen
data_K2LiScBi2
_symmetry_space_group_name_H-M   'P 1'
_cell_length_a   9.65549315
_cell_length_b   9.65549447
_cell_length_c   9.65549531
_cell_angle_alpha   136.28063105
_cell_angle_beta   136.73059530
_cell_angle_gamma   63.20032997
_symmetry_Int_Tables_number   1
_chemical_formula_structural   K2LiScBi2
_chemical_formula_sum   'K4 Li2 Sc2 Bi4'
_cell_volume   420.99347176
_cell_formula_units_Z   2
loop_
 _symmetry_equiv_pos_site_id
 _symmetry_equiv_pos_as_xyz
  1  'x, y, z'
loop_
 _atom_site_type_symbol
 _atom_site_label
 _atom_site_symmetry_multiplicity
 _atom_site_fract_x
 _atom_site_fract_y
 _atom_site_fract_z
 _atom_site_occupancy
  K  K0  1  0.103566  0.827725  0.275841  1
  K  K1  1  0.896434  0.172275  0.724159  1
  K  K2  1  0.448117  0.672275  0.775841  1
  K  K3  1  0.551883  0.327725  0.224159  1
  Li  Li4  1  0.500000  0.250000  0.750000  1
  Li  Li5  1  0.500000  0.750000  0.250000  1
  Sc  Sc6  1  0.000000  0.250000  0.250000  1
  Sc  Sc7  1  0.000000  0.750000  0.750000  1
  Bi  Bi8  1  0.664335  0.901627  0.762706  1
  Bi  Bi9  1  0.138921  0.401627  0.737294  1
  Bi  Bi10  1  0.861079  0.598373  0.262706  1
  Bi  Bi11  1  0.335665  0.098373  0.237294  1
