# generated using pymatgen
data_Zr6MnBr12
_symmetry_space_group_name_H-M   'P 1'
_cell_length_a   8.73882946
_cell_length_b   8.73883057
_cell_length_c   8.73882900
_cell_angle_alpha   106.83577515
_cell_angle_beta   106.83577736
_cell_angle_gamma   106.83577348
_symmetry_Int_Tables_number   1
_chemical_formula_structural   Zr6MnBr12
_chemical_formula_sum   'Zr6 Mn1 Br12'
_cell_volume   558.25446950
_cell_formula_units_Z   1
loop_
 _symmetry_equiv_pos_site_id
 _symmetry_equiv_pos_as_xyz
  1  'x, y, z'
loop_
 _atom_site_type_symbol
 _atom_site_label
 _atom_site_symmetry_multiplicity
 _atom_site_fract_x
 _atom_site_fract_y
 _atom_site_fract_z
 _atom_site_occupancy
  Zr  Zr0  1  0.968564  0.699041  0.898350  1
  Zr  Zr1  1  0.300959  0.101650  0.031436  1
  Zr  Zr2  1  0.101650  0.031436  0.300959  1
  Zr  Zr3  1  0.898350  0.968564  0.699041  1
  Zr  Zr4  1  0.699041  0.898350  0.968564  1
  Zr  Zr5  1  0.031436  0.300959  0.101650  1
  Mn  Mn6  1  0.000000  0.000000  0.000000  1
  Br  Br7  1  0.921563  0.314257  0.775686  1
  Br  Br8  1  0.685743  0.224314  0.078437  1
  Br  Br9  1  0.446847  0.142018  0.368779  1
  Br  Br10  1  0.857982  0.631221  0.553153  1
  Br  Br11  1  0.224314  0.078437  0.685743  1
  Br  Br12  1  0.631221  0.553153  0.857982  1
  Br  Br13  1  0.368779  0.446847  0.142018  1
  Br  Br14  1  0.775686  0.921563  0.314257  1
  Br  Br15  1  0.142018  0.368779  0.446847  1
  Br  Br16  1  0.553153  0.857982  0.631221  1
  Br  Br17  1  0.314257  0.775686  0.921563  1
  Br  Br18  1  0.078437  0.685743  0.224314  1
