# generated using pymatgen
data_Ti6Ga7Mo4P
_symmetry_space_group_name_H-M   'P 1'
_cell_length_a   7.77249400
_cell_length_b   7.77249328
_cell_length_c   5.32019800
_cell_angle_alpha   90.00000000
_cell_angle_beta   90.00000000
_cell_angle_gamma   119.99999456
_symmetry_Int_Tables_number   1
_chemical_formula_structural   Ti6Ga7Mo4P
_chemical_formula_sum   'Ti6 Ga7 Mo4 P1'
_cell_volume   278.34229371
_cell_formula_units_Z   1
loop_
 _symmetry_equiv_pos_site_id
 _symmetry_equiv_pos_as_xyz
  1  'x, y, z'
loop_
 _atom_site_type_symbol
 _atom_site_label
 _atom_site_symmetry_multiplicity
 _atom_site_fract_x
 _atom_site_fract_y
 _atom_site_fract_z
 _atom_site_occupancy
  Ti  Ti0  1  0.274620  0.000000  0.231625  1
  Ti  Ti1  1  0.274620  0.274620  0.768375  1
  Ti  Ti2  1  0.000000  0.725380  0.768375  1
  Ti  Ti3  1  0.000000  0.274620  0.231625  1
  Ti  Ti4  1  0.725380  0.725380  0.231625  1
  Ti  Ti5  1  0.725380  0.000000  0.768375  1
  Ga  Ga6  1  0.000000  0.000000  0.500000  1
  Ga  Ga7  1  0.610316  0.000000  0.265235  1
  Ga  Ga8  1  0.610316  0.610316  0.734765  1
  Ga  Ga9  1  0.000000  0.389684  0.734765  1
  Ga  Ga10  1  0.000000  0.610316  0.265235  1
  Ga  Ga11  1  0.389684  0.389684  0.265235  1
  Ga  Ga12  1  0.389684  0.000000  0.734765  1
  Mo  Mo13  1  0.333333  0.666667  0.000000  1
  Mo  Mo14  1  0.666667  0.333333  0.500000  1
  Mo  Mo15  1  0.666667  0.333333  0.000000  1
  Mo  Mo16  1  0.333333  0.666667  0.500000  1
  P  P17  1  0.000000  0.000000  0.000000  1
