# generated using pymatgen
data_Y2Tm4VFeB14
_symmetry_space_group_name_H-M   'P 1'
_cell_length_a   8.00921295
_cell_length_b   8.00921154
_cell_length_c   9.27415701
_cell_angle_alpha   89.89561653
_cell_angle_beta   90.10438233
_cell_angle_gamma   155.47099940
_symmetry_Int_Tables_number   1
_chemical_formula_structural   Y2Tm4VFeB14
_chemical_formula_sum   'Y2 Tm4 V1 Fe1 B14'
_cell_volume   246.98028229
_cell_formula_units_Z   1
loop_
 _symmetry_equiv_pos_site_id
 _symmetry_equiv_pos_as_xyz
  1  'x, y, z'
loop_
 _atom_site_type_symbol
 _atom_site_label
 _atom_site_symmetry_multiplicity
 _atom_site_fract_x
 _atom_site_fract_y
 _atom_site_fract_z
 _atom_site_occupancy
  Y  Y0  1  0.754803  0.245197  0.250107  1
  Y  Y1  1  0.894120  0.105880  0.935609  1
  Tm  Tm2  1  0.240638  0.759362  0.749893  1
  Tm  Tm3  1  0.894839  0.105161  0.562468  1
  Tm  Tm4  1  0.106073  0.893927  0.443113  1
  Tm  Tm5  1  0.105667  0.894333  0.057111  1
  V  V6  1  0.948230  0.051770  0.250587  1
  Fe  Fe7  1  0.054675  0.945325  0.749361  1
  B  B8  1  0.545188  0.454812  0.250462  1
  B  B9  1  0.461352  0.538648  0.748594  1
  B  B10  1  0.521913  0.478087  0.902393  1
  B  B11  1  0.480570  0.519430  0.093405  1
  B  B12  1  0.480448  0.519552  0.407655  1
  B  B13  1  0.521734  0.478266  0.596067  1
  B  B14  1  0.629605  0.370395  0.847209  1
  B  B15  1  0.367226  0.632774  0.149259  1
  B  B16  1  0.725834  0.274166  0.963819  1
  B  B17  1  0.270917  0.729083  0.030294  1
  B  B18  1  0.272012  0.727988  0.470810  1
  B  B19  1  0.727058  0.272942  0.536827  1
  B  B20  1  0.629662  0.370338  0.652536  1
  B  B21  1  0.367438  0.632562  0.352420  1
