# generated using pymatgen
data_Eu4CuNi5P8
_symmetry_space_group_name_H-M   'P 1'
_cell_length_a   7.83360272
_cell_length_b   7.83360291
_cell_length_c   7.84237032
_cell_angle_alpha   137.78824591
_cell_angle_beta   108.23223684
_cell_angle_gamma   86.86347786
_symmetry_Int_Tables_number   1
_chemical_formula_structural   Eu4CuNi5P8
_chemical_formula_sum   'Eu4 Cu1 Ni5 P8'
_cell_volume   295.05365182
_cell_formula_units_Z   1
loop_
 _symmetry_equiv_pos_site_id
 _symmetry_equiv_pos_as_xyz
  1  'x, y, z'
loop_
 _atom_site_type_symbol
 _atom_site_label
 _atom_site_symmetry_multiplicity
 _atom_site_fract_x
 _atom_site_fract_y
 _atom_site_fract_z
 _atom_site_occupancy
  Eu  Eu0  1  0.106328  0.886271  0.224163  1
  Eu  Eu1  1  0.894038  0.114634  0.778284  1
  Eu  Eu2  1  0.336351  0.615754  0.721716  1
  Eu  Eu3  1  0.662107  0.382165  0.275837  1
  Cu  Cu4  1  0.732960  0.982960  0.250000  1
  Ni  Ni5  1  0.501168  0.751168  0.250000  1
  Ni  Ni6  1  0.499138  0.249138  0.750000  1
  Ni  Ni7  1  0.267594  0.017594  0.750000  1
  Ni  Ni8  1  0.732247  0.482247  0.750000  1
  Ni  Ni9  1  0.266625  0.516625  0.250000  1
  P  P10  1  0.484848  0.125391  0.374048  1
  P  P11  1  0.507003  0.877128  0.626408  1
  P  P12  1  0.250719  0.380595  0.873592  1
  P  P13  1  0.751344  0.610800  0.125952  1
  P  P14  1  0.987762  0.367233  0.635856  1
  P  P15  1  0.019942  0.644754  0.376305  1
  P  P16  1  0.731377  0.851905  0.864144  1
  P  P17  1  0.268450  0.143637  0.123695  1
