# generated using pymatgen
data_Gd6AlCo2
_symmetry_space_group_name_H-M   'P 1'
_cell_length_a   8.36083875
_cell_length_b   8.36083897
_cell_length_c   8.36083900
_cell_angle_alpha   112.67795999
_cell_angle_beta   109.52145242
_cell_angle_gamma   106.27745621
_symmetry_Int_Tables_number   1
_chemical_formula_structural   Gd6AlCo2
_chemical_formula_sum   'Gd12 Al2 Co4'
_cell_volume   448.50935810
_cell_formula_units_Z   2
loop_
 _symmetry_equiv_pos_site_id
 _symmetry_equiv_pos_as_xyz
  1  'x, y, z'
loop_
 _atom_site_type_symbol
 _atom_site_label
 _atom_site_symmetry_multiplicity
 _atom_site_fract_x
 _atom_site_fract_y
 _atom_site_fract_z
 _atom_site_occupancy
  Gd  Gd0  1  0.039117  0.737079  0.302038  1
  Gd  Gd1  1  0.960883  0.262921  0.697962  1
  Gd  Gd2  1  0.564961  0.262921  0.302038  1
  Gd  Gd3  1  0.435039  0.737079  0.697962  1
  Gd  Gd4  1  0.674512  0.862074  0.187560  1
  Gd  Gd5  1  0.325488  0.513048  0.187560  1
  Gd  Gd6  1  0.325488  0.137926  0.812440  1
  Gd  Gd7  1  0.674512  0.486952  0.812440  1
  Gd  Gd8  1  0.181288  0.216713  0.398002  1
  Gd  Gd9  1  0.818712  0.216713  0.035425  1
  Gd  Gd10  1  0.181288  0.783287  0.964575  1
  Gd  Gd11  1  0.818712  0.783287  0.601998  1
  Al  Al12  1  0.000000  0.500000  0.500000  1
  Al  Al13  1  0.500000  0.000000  0.500000  1
  Co  Co14  1  0.668356  0.500000  0.168356  1
  Co  Co15  1  0.331644  0.500000  0.831644  1
  Co  Co16  1  0.885294  0.885294  0.000000  1
  Co  Co17  1  0.114706  0.114706  0.000000  1
