# generated using pymatgen
data_Ba4LuIn(FeO5)2
_symmetry_space_group_name_H-M   'P 1'
_cell_length_a   6.03764000
_cell_length_b   7.91456608
_cell_length_c   12.59753126
_cell_angle_alpha   91.85786905
_cell_angle_beta   90.00000000
_cell_angle_gamma   90.00000000
_symmetry_Int_Tables_number   1
_chemical_formula_structural   Ba4LuIn(FeO5)2
_chemical_formula_sum   'Ba8 Lu2 In2 Fe4 O20'
_cell_volume   601.66037614
_cell_formula_units_Z   2
loop_
 _symmetry_equiv_pos_site_id
 _symmetry_equiv_pos_as_xyz
  1  'x, y, z'
loop_
 _atom_site_type_symbol
 _atom_site_label
 _atom_site_symmetry_multiplicity
 _atom_site_fract_x
 _atom_site_fract_y
 _atom_site_fract_z
 _atom_site_occupancy
  Ba  Ba0  1  0.757501  0.491642  0.353401  1
  Ba  Ba1  1  0.742499  0.991642  0.853401  1
  Ba  Ba2  1  0.246311  0.509889  0.648067  1
  Ba  Ba3  1  0.253689  0.009889  0.148067  1
  Ba  Ba4  1  0.755929  0.992958  0.379652  1
  Ba  Ba5  1  0.744071  0.492958  0.879652  1
  Ba  Ba6  1  0.247430  0.006152  0.619615  1
  Ba  Ba7  1  0.252570  0.506152  0.119615  1
  Lu  Lu8  1  0.751797  0.263079  0.631793  1
  Lu  Lu9  1  0.748203  0.763079  0.131793  1
  In  In10  1  0.250121  0.735690  0.368358  1
  In  In11  1  0.249879  0.235690  0.868358  1
  Fe  Fe12  1  0.740213  0.743636  0.583180  1
  Fe  Fe13  1  0.759787  0.243636  0.083180  1
  Fe  Fe14  1  0.261694  0.257502  0.417089  1
  Fe  Fe15  1  0.238306  0.757502  0.917089  1
  O  O16  1  0.758456  0.973132  0.633255  1
  O  O17  1  0.741544  0.473132  0.133255  1
  O  O18  1  0.238797  0.030993  0.364121  1
  O  O19  1  0.261203  0.530993  0.864121  1
  O  O20  1  0.741117  0.054727  0.170856  1
  O  O21  1  0.758883  0.554727  0.670856  1
  O  O22  1  0.262739  0.940226  0.824899  1
  O  O23  1  0.237261  0.440226  0.324899  1
  O  O24  1  0.531827  0.747806  0.267644  1
  O  O25  1  0.968173  0.247806  0.767644  1
  O  O26  1  0.471646  0.251381  0.735388  1
  O  O27  1  0.028354  0.751381  0.235388  1
  O  O28  1  0.530110  0.226815  0.979218  1
  O  O29  1  0.969890  0.726815  0.479218  1
  O  O30  1  0.463698  0.774224  0.023013  1
  O  O31  1  0.036302  0.274224  0.523013  1
  O  O32  1  0.037772  0.231379  0.010768  1
  O  O33  1  0.462228  0.731379  0.510768  1
  O  O34  1  0.961672  0.768768  0.989683  1
  O  O35  1  0.538328  0.268768  0.489683  1
