# generated using pymatgen
data_Li4Sm3HoSi8
_symmetry_space_group_name_H-M   'P 1'
_cell_length_a   3.82763800
_cell_length_b   7.64748246
_cell_length_c   10.30701728
_cell_angle_alpha   89.90240137
_cell_angle_beta   90.00000000
_cell_angle_gamma   90.00000000
_symmetry_Int_Tables_number   1
_chemical_formula_structural   Li4Sm3HoSi8
_chemical_formula_sum   'Li4 Sm3 Ho1 Si8'
_cell_volume   301.70445364
_cell_formula_units_Z   1
loop_
 _symmetry_equiv_pos_site_id
 _symmetry_equiv_pos_as_xyz
  1  'x, y, z'
loop_
 _atom_site_type_symbol
 _atom_site_label
 _atom_site_symmetry_multiplicity
 _atom_site_fract_x
 _atom_site_fract_y
 _atom_site_fract_z
 _atom_site_occupancy
  Li  Li0  1  0.250000  0.993015  0.389748  1
  Li  Li1  1  0.750000  0.005719  0.609826  1
  Li  Li2  1  0.250000  0.493603  0.107766  1
  Li  Li3  1  0.750000  0.510226  0.890699  1
  Sm  Sm4  1  0.750000  0.862626  0.135942  1
  Sm  Sm5  1  0.250000  0.637391  0.636825  1
  Sm  Sm6  1  0.750000  0.360223  0.364330  1
  Ho  Ho7  1  0.250000  0.135832  0.864039  1
  Si  Si8  1  0.750000  0.270561  0.064790  1
  Si  Si9  1  0.250000  0.733045  0.931047  1
  Si  Si10  1  0.750000  0.770718  0.431241  1
  Si  Si11  1  0.250000  0.225102  0.572573  1
  Si  Si12  1  0.750000  0.843316  0.822005  1
  Si  Si13  1  0.250000  0.162135  0.175417  1
  Si  Si14  1  0.750000  0.335565  0.681934  1
  Si  Si15  1  0.250000  0.660928  0.321817  1
