# generated using pymatgen
data_ZnCoSnO4
_symmetry_space_group_name_H-M   'P 1'
_cell_length_a   6.21418988
_cell_length_b   6.21421896
_cell_length_c   8.74150969
_cell_angle_alpha   88.36323338
_cell_angle_beta   88.36419471
_cell_angle_gamma   89.95920417
_symmetry_Int_Tables_number   1
_chemical_formula_structural   ZnCoSnO4
_chemical_formula_sum   'Zn4 Co4 Sn4 O16'
_cell_volume   337.28983780
_cell_formula_units_Z   4
loop_
 _symmetry_equiv_pos_site_id
 _symmetry_equiv_pos_as_xyz
  1  'x, y, z'
loop_
 _atom_site_type_symbol
 _atom_site_label
 _atom_site_symmetry_multiplicity
 _atom_site_fract_x
 _atom_site_fract_y
 _atom_site_fract_z
 _atom_site_occupancy
  Zn  Zn0  1  0.234230  0.515670  0.374987  1
  Zn  Zn1  1  0.734355  0.015763  0.875012  1
  Zn  Zn2  1  0.765751  0.484231  0.625001  1
  Zn  Zn3  1  0.265646  0.984349  0.124997  1
  Co  Co4  1  0.499986  0.999906  0.500019  1
  Co  Co5  1  0.250110  0.750022  0.749980  1
  Co  Co6  1  0.999987  0.499999  0.000001  1
  Co  Co7  1  0.749992  0.249999  0.249993  1
  Sn  Sn8  1  0.749934  0.750011  0.249996  1
  Sn  Sn9  1  0.250014  0.250021  0.749966  1
  Sn  Sn10  1  0.999974  0.000000  0.500033  1
  Sn  Sn11  1  0.499998  0.500058  0.000022  1
  O  O12  1  0.023674  0.494071  0.758897  1
  O  O13  1  0.523585  0.994075  0.258907  1
  O  O14  1  0.755916  0.226322  0.491109  1
  O  O15  1  0.255926  0.726400  0.991089  1
  O  O16  1  0.244040  0.773597  0.508901  1
  O  O17  1  0.744049  0.273673  0.008896  1
  O  O18  1  0.976300  0.505941  0.241096  1
  O  O19  1  0.476441  0.005987  0.741090  1
  O  O20  1  0.989077  0.993526  0.257897  1
  O  O21  1  0.489159  0.493583  0.757885  1
  O  O22  1  0.756449  0.760826  0.492114  1
  O  O23  1  0.256468  0.260915  0.992105  1
  O  O24  1  0.243548  0.239033  0.507874  1
  O  O25  1  0.743531  0.739129  0.007903  1
  O  O26  1  0.010984  0.006447  0.742120  1
  O  O27  1  0.510874  0.506452  0.242110  1
