# generated using pymatgen
data_HoEr(PdO2)4
_symmetry_space_group_name_H-M   'P 1'
_cell_length_a   6.48454905
_cell_length_b   6.48454845
_cell_length_c   6.48454807
_cell_angle_alpha   126.86640263
_cell_angle_beta   126.86639910
_cell_angle_gamma   78.46876058
_symmetry_Int_Tables_number   1
_chemical_formula_structural   HoEr(PdO2)4
_chemical_formula_sum   'Ho1 Er1 Pd4 O8'
_cell_volume   168.98188638
_cell_formula_units_Z   1
loop_
 _symmetry_equiv_pos_site_id
 _symmetry_equiv_pos_as_xyz
  1  'x, y, z'
loop_
 _atom_site_type_symbol
 _atom_site_label
 _atom_site_symmetry_multiplicity
 _atom_site_fract_x
 _atom_site_fract_y
 _atom_site_fract_z
 _atom_site_occupancy
  Ho  Ho0  1  0.500000  0.500000  0.000000  1
  Er  Er1  1  0.250000  0.750000  0.500000  1
  Pd  Pd2  1  0.875289  0.125138  0.750342  1
  Pd  Pd3  1  0.874862  0.625204  0.750152  1
  Pd  Pd4  1  0.875052  0.124711  0.249848  1
  Pd  Pd5  1  0.374796  0.124948  0.249658  1
  O  O6  1  0.489810  0.462267  0.346196  1
  O  O7  1  0.211053  0.366233  0.470557  1
  O  O8  1  0.895677  0.740496  0.529443  1
  O  O9  1  0.116071  0.143615  0.653804  1
  O  O10  1  0.259504  0.788947  0.155180  1
  O  O11  1  0.537733  0.883929  0.027543  1
  O  O12  1  0.633767  0.104323  0.844820  1
  O  O13  1  0.856385  0.510190  0.972457  1
