# generated using pymatgen
data_La13Nd4Y3Pb16
_symmetry_space_group_name_H-M   'P 1'
_cell_length_a   8.59510700
_cell_length_b   8.73092907
_cell_length_c   16.64712900
_cell_angle_alpha   90.00698895
_cell_angle_beta   90.00125323
_cell_angle_gamma   89.99726989
_symmetry_Int_Tables_number   1
_chemical_formula_structural   La13Nd4Y3Pb16
_chemical_formula_sum   'La13 Nd4 Y3 Pb16'
_cell_volume   1249.25497903
_cell_formula_units_Z   1
loop_
 _symmetry_equiv_pos_site_id
 _symmetry_equiv_pos_as_xyz
  1  'x, y, z'
loop_
 _atom_site_type_symbol
 _atom_site_label
 _atom_site_symmetry_multiplicity
 _atom_site_fract_x
 _atom_site_fract_y
 _atom_site_fract_z
 _atom_site_occupancy
  La  La0  1  0.877055  0.658791  0.381862  1
  La  La1  1  0.375379  0.840365  0.381730  1
  La  La2  1  0.877021  0.659188  0.118220  1
  La  La3  1  0.623861  0.159070  0.880134  1
  La  La4  1  0.123724  0.340895  0.619123  1
  La  La5  1  0.469433  0.679218  0.600521  1
  La  La6  1  0.969169  0.820942  0.898847  1
  La  La7  1  0.530168  0.321971  0.100270  1
  La  La8  1  0.031033  0.179966  0.399984  1
  La  La9  1  0.530269  0.322249  0.399840  1
  La  La10  1  0.031403  0.179719  0.099748  1
  La  La11  1  0.469156  0.678677  0.899552  1
  La  La12  1  0.968813  0.821507  0.601205  1
  Nd  Nd13  1  0.624226  0.158759  0.620112  1
  Nd  Nd14  1  0.124176  0.341055  0.880570  1
  Nd  Nd15  1  0.374799  0.840445  0.118349  1
  Nd  Nd16  1  0.707043  0.998002  0.249908  1
  Y  Y17  1  0.791325  0.496650  0.750010  1
  Y  Y18  1  0.291124  0.002990  0.750048  1
  Y  Y19  1  0.209306  0.503946  0.249782  1
  Pb  Pb20  1  0.718139  0.969011  0.456804  1
  Pb  Pb21  1  0.219225  0.530658  0.045185  1
  Pb  Pb22  1  0.281317  0.031016  0.954390  1
  Pb  Pb23  1  0.780921  0.467936  0.546390  1
  Pb  Pb24  1  0.283315  0.030702  0.546405  1
  Pb  Pb25  1  0.783274  0.468720  0.953558  1
  Pb  Pb26  1  0.716819  0.967891  0.044229  1
  Pb  Pb27  1  0.218465  0.529995  0.454185  1
  Pb  Pb28  1  0.429275  0.374904  0.750077  1
  Pb  Pb29  1  0.929925  0.125531  0.749986  1
  Pb  Pb30  1  0.569246  0.622245  0.249643  1
  Pb  Pb31  1  0.074589  0.873608  0.249537  1
  Pb  Pb32  1  0.659558  0.847770  0.749812  1
  Pb  Pb33  1  0.159523  0.650995  0.750301  1
  Pb  Pb34  1  0.337482  0.152018  0.249714  1
  Pb  Pb35  1  0.840441  0.352596  0.249966  1
