# generated using pymatgen
data_TbPa3(Rh2Pb)2
_symmetry_space_group_name_H-M   'P 1'
_cell_length_a   7.80074064
_cell_length_b   7.80074035
_cell_length_c   3.62048100
_cell_angle_alpha   90.00000000
_cell_angle_beta   90.00000000
_cell_angle_gamma   87.59469120
_symmetry_Int_Tables_number   1
_chemical_formula_structural   TbPa3(Rh2Pb)2
_chemical_formula_sum   'Tb1 Pa3 Rh4 Pb2'
_cell_volume   220.11778204
_cell_formula_units_Z   1
loop_
 _symmetry_equiv_pos_site_id
 _symmetry_equiv_pos_as_xyz
  1  'x, y, z'
loop_
 _atom_site_type_symbol
 _atom_site_label
 _atom_site_symmetry_multiplicity
 _atom_site_fract_x
 _atom_site_fract_y
 _atom_site_fract_z
 _atom_site_occupancy
  Tb  Tb0  1  0.329003  0.829003  0.500000  1
  Pa  Pa1  1  0.667542  0.167542  0.500000  1
  Pa  Pa2  1  0.172260  0.330584  0.500000  1
  Pa  Pa3  1  0.830584  0.672260  0.500000  1
  Rh  Rh4  1  0.858952  0.358952  0.000000  1
  Rh  Rh5  1  0.376262  0.148755  0.000000  1
  Rh  Rh6  1  0.648755  0.876262  0.000000  1
  Rh  Rh7  1  0.111142  0.611142  0.000000  1
  Pb  Pb8  1  0.008941  0.996558  0.000000  1
  Pb  Pb9  1  0.496558  0.508941  0.000000  1
