# generated using pymatgen
data_Ca21MgGa11As3
_symmetry_space_group_name_H-M   'P 1'
_cell_length_a   11.15044738
_cell_length_b   11.27486027
_cell_length_c   11.29992445
_cell_angle_alpha   59.19881121
_cell_angle_beta   60.28860973
_cell_angle_gamma   60.51257894
_symmetry_Int_Tables_number   1
_chemical_formula_structural   Ca21MgGa11As3
_chemical_formula_sum   'Ca21 Mg1 Ga11 As3'
_cell_volume   1004.23238017
_cell_formula_units_Z   1
loop_
 _symmetry_equiv_pos_site_id
 _symmetry_equiv_pos_as_xyz
  1  'x, y, z'
loop_
 _atom_site_type_symbol
 _atom_site_label
 _atom_site_symmetry_multiplicity
 _atom_site_fract_x
 _atom_site_fract_y
 _atom_site_fract_z
 _atom_site_occupancy
  Ca  Ca0  1  0.999110  0.000890  0.999110  1
  Ca  Ca1  1  0.127700  0.128269  0.126997  1
  Ca  Ca2  1  0.382967  0.873003  0.871731  1
  Ca  Ca3  1  0.872333  0.384693  0.872491  1
  Ca  Ca4  1  0.871731  0.872300  0.382967  1
  Ca  Ca5  1  0.126997  0.617033  0.127700  1
  Ca  Ca6  1  0.129517  0.127509  0.615307  1
  Ca  Ca7  1  0.615307  0.127667  0.129517  1
  Ca  Ca8  1  0.872491  0.870483  0.872333  1
  Ca  Ca9  1  0.498043  0.824756  0.501784  1
  Ca  Ca10  1  0.826312  0.499038  0.500962  1
  Ca  Ca11  1  0.500820  0.822280  0.177720  1
  Ca  Ca12  1  0.175244  0.501957  0.824584  1
  Ca  Ca13  1  0.824584  0.498216  0.175244  1
  Ca  Ca14  1  0.498644  0.501356  0.825127  1
  Ca  Ca15  1  0.175702  0.824298  0.504482  1
  Ca  Ca16  1  0.500962  0.173688  0.826312  1
  Ca  Ca17  1  0.504482  0.495518  0.175702  1
  Ca  Ca18  1  0.825127  0.174873  0.498644  1
  Ca  Ca19  1  0.177720  0.499180  0.500820  1
  Ca  Ca20  1  0.501784  0.175416  0.498043  1
  Mg  Mg21  1  0.500996  0.499004  0.500996  1
  Ga  Ga22  1  0.784097  0.784154  0.215846  1
  Ga  Ga23  1  0.215846  0.215903  0.784097  1
  Ga  Ga24  1  0.783523  0.216477  0.783523  1
  Ga  Ga25  1  0.309841  0.310466  0.307392  1
  Ga  Ga26  1  0.927698  0.692608  0.689534  1
  Ga  Ga27  1  0.690349  0.929798  0.688413  1
  Ga  Ga28  1  0.689534  0.690160  0.927698  1
  Ga  Ga29  1  0.307392  0.072302  0.309840  1
  Ga  Ga30  1  0.308561  0.311587  0.070202  1
  Ga  Ga31  1  0.070202  0.309651  0.308561  1
  Ga  Ga32  1  0.688413  0.691439  0.690348  1
  As  As33  1  0.211826  0.788174  0.211826  1
  As  As34  1  0.209898  0.790102  0.794247  1
  As  As35  1  0.794247  0.205753  0.209898  1
