# generated using pymatgen
data_Nd16CdCo(NiHg)3
_symmetry_space_group_name_H-M   'P 1'
_cell_length_a   9.80011414
_cell_length_b   9.82037373
_cell_length_c   9.82037410
_cell_angle_alpha   59.99286193
_cell_angle_beta   59.97996832
_cell_angle_gamma   59.97996599
_symmetry_Int_Tables_number   1
_chemical_formula_structural   Nd16CdCo(NiHg)3
_chemical_formula_sum   'Nd16 Cd1 Co1 Ni3 Hg3'
_cell_volume   668.06265492
_cell_formula_units_Z   1
loop_
 _symmetry_equiv_pos_site_id
 _symmetry_equiv_pos_as_xyz
  1  'x, y, z'
loop_
 _atom_site_type_symbol
 _atom_site_label
 _atom_site_symmetry_multiplicity
 _atom_site_fract_x
 _atom_site_fract_y
 _atom_site_fract_z
 _atom_site_occupancy
  Nd  Nd0  1  0.597794  0.597654  0.597654  1
  Nd  Nd1  1  0.597448  0.597266  0.204891  1
  Nd  Nd2  1  0.597448  0.204891  0.597266  1
  Nd  Nd3  1  0.202136  0.598276  0.598276  1
  Nd  Nd4  1  0.064316  0.440131  0.440131  1
  Nd  Nd5  1  0.438583  0.059815  0.059815  1
  Nd  Nd6  1  0.438541  0.065256  0.439627  1
  Nd  Nd7  1  0.058657  0.440365  0.058729  1
  Nd  Nd8  1  0.438541  0.439627  0.065256  1
  Nd  Nd9  1  0.058657  0.058729  0.440365  1
  Nd  Nd10  1  0.188812  0.813156  0.813156  1
  Nd  Nd11  1  0.809190  0.188097  0.188097  1
  Nd  Nd12  1  0.811984  0.189444  0.812820  1
  Nd  Nd13  1  0.187520  0.810343  0.187164  1
  Nd  Nd14  1  0.811984  0.812820  0.189444  1
  Nd  Nd15  1  0.187520  0.187164  0.810343  1
  Cd  Cd16  1  0.513823  0.828596  0.828596  1
  Co  Co17  1  0.392264  0.392486  0.392486  1
  Ni  Ni18  1  0.392214  0.392439  0.823523  1
  Ni  Ni19  1  0.392214  0.823523  0.392439  1
  Ni  Ni20  1  0.823618  0.392392  0.392392  1
  Hg  Hg21  1  0.832237  0.833904  0.833904  1
  Hg  Hg22  1  0.832251  0.834208  0.499422  1
  Hg  Hg23  1  0.832251  0.499422  0.834208  1
