# generated using pymatgen
data_Tb2Er2SiTc7
_symmetry_space_group_name_H-M   'P 1'
_cell_length_a   5.32370600
_cell_length_b   5.32370545
_cell_length_c   8.89564400
_cell_angle_alpha   90.00000000
_cell_angle_beta   90.00000000
_cell_angle_gamma   120.00000343
_symmetry_Int_Tables_number   1
_chemical_formula_structural   Tb2Er2SiTc7
_chemical_formula_sum   'Tb2 Er2 Si1 Tc7'
_cell_volume   218.34140130
_cell_formula_units_Z   1
loop_
 _symmetry_equiv_pos_site_id
 _symmetry_equiv_pos_as_xyz
  1  'x, y, z'
loop_
 _atom_site_type_symbol
 _atom_site_label
 _atom_site_symmetry_multiplicity
 _atom_site_fract_x
 _atom_site_fract_y
 _atom_site_fract_z
 _atom_site_occupancy
  Tb  Tb0  1  0.333333  0.666667  0.434967  1
  Tb  Tb1  1  0.666667  0.333333  0.565033  1
  Er  Er2  1  0.666667  0.333333  0.935104  1
  Er  Er3  1  0.333333  0.666667  0.064896  1
  Si  Si4  1  0.000000  0.000000  0.500000  1
  Tc  Tc5  1  0.000000  0.000000  0.000000  1
  Tc  Tc6  1  0.830084  0.169916  0.252959  1
  Tc  Tc7  1  0.830084  0.660168  0.252959  1
  Tc  Tc8  1  0.339832  0.169916  0.252959  1
  Tc  Tc9  1  0.169916  0.830084  0.747041  1
  Tc  Tc10  1  0.169916  0.339832  0.747041  1
  Tc  Tc11  1  0.660168  0.830084  0.747041  1
