# generated using pymatgen
data_Dy6Er4Si5Te
_symmetry_space_group_name_H-M   'P 1'
_cell_length_a   8.49175400
_cell_length_b   8.51853627
_cell_length_c   6.35452300
_cell_angle_alpha   90.00000000
_cell_angle_beta   90.00000000
_cell_angle_gamma   119.89605173
_symmetry_Int_Tables_number   1
_chemical_formula_structural   Dy6Er4Si5Te
_chemical_formula_sum   'Dy6 Er4 Si5 Te1'
_cell_volume   398.50146210
_cell_formula_units_Z   1
loop_
 _symmetry_equiv_pos_site_id
 _symmetry_equiv_pos_as_xyz
  1  'x, y, z'
loop_
 _atom_site_type_symbol
 _atom_site_label
 _atom_site_symmetry_multiplicity
 _atom_site_fract_x
 _atom_site_fract_y
 _atom_site_fract_z
 _atom_site_occupancy
  Dy  Dy0  1  0.986731  0.745163  0.750000  1
  Dy  Dy1  1  0.999266  0.245162  0.250000  1
  Dy  Dy2  1  0.754104  0.754838  0.250000  1
  Dy  Dy3  1  0.764976  0.000000  0.750000  1
  Dy  Dy4  1  0.241569  0.254837  0.750000  1
  Dy  Dy5  1  0.242965  0.000000  0.250000  1
  Er  Er6  1  0.330430  0.654983  0.496328  1
  Er  Er7  1  0.675448  0.345017  0.003672  1
  Er  Er8  1  0.675448  0.345017  0.496328  1
  Er  Er9  1  0.330430  0.654983  0.003672  1
  Si  Si10  1  0.394145  0.391606  0.250000  1
  Si  Si11  1  0.002539  0.608394  0.250000  1
  Si  Si12  1  0.998981  0.395192  0.750000  1
  Si  Si13  1  0.603789  0.604808  0.750000  1
  Si  Si14  1  0.605721  0.000000  0.250000  1
  Te  Te15  1  0.393461  0.000000  0.750000  1
