# generated using pymatgen
data_Tb2ErSnRh3Pb2
_symmetry_space_group_name_H-M   'P 1'
_cell_length_a   7.78889400
_cell_length_b   7.79538433
_cell_length_c   3.74238500
_cell_angle_alpha   90.00000000
_cell_angle_beta   90.00000000
_cell_angle_gamma   119.97245359
_symmetry_Int_Tables_number   1
_chemical_formula_structural   Tb2ErSnRh3Pb2
_chemical_formula_sum   'Tb2 Er1 Sn1 Rh3 Pb2'
_cell_volume   196.83979483
_cell_formula_units_Z   1
loop_
 _symmetry_equiv_pos_site_id
 _symmetry_equiv_pos_as_xyz
  1  'x, y, z'
loop_
 _atom_site_type_symbol
 _atom_site_label
 _atom_site_symmetry_multiplicity
 _atom_site_fract_x
 _atom_site_fract_y
 _atom_site_fract_z
 _atom_site_occupancy
  Tb  Tb0  1  0.402047  0.396878  0.000000  1
  Tb  Tb1  1  0.005169  0.603122  0.000000  1
  Er  Er2  1  0.594928  0.000000  0.000000  1
  Sn  Sn3  1  0.268946  0.000000  0.500000  1
  Rh  Rh4  1  0.012178  0.000000  0.000000  1
  Rh  Rh5  1  0.656152  0.324367  0.500000  1
  Rh  Rh6  1  0.331784  0.675633  0.500000  1
  Pb  Pb7  1  0.730940  0.733085  0.500000  1
  Pb  Pb8  1  0.997855  0.266915  0.500000  1
