# generated using pymatgen
data_Li6Pr7NdAu20
_symmetry_space_group_name_H-M   'P 1'
_cell_length_a   8.70346415
_cell_length_b   8.70346639
_cell_length_c   10.21524600
_cell_angle_alpha   90.01056587
_cell_angle_beta   90.01056588
_cell_angle_gamma   108.68392731
_symmetry_Int_Tables_number   1
_chemical_formula_structural   Li6Pr7NdAu20
_chemical_formula_sum   'Li6 Pr7 Nd1 Au20'
_cell_volume   733.02844668
_cell_formula_units_Z   1
loop_
 _symmetry_equiv_pos_site_id
 _symmetry_equiv_pos_as_xyz
  1  'x, y, z'
loop_
 _atom_site_type_symbol
 _atom_site_label
 _atom_site_symmetry_multiplicity
 _atom_site_fract_x
 _atom_site_fract_y
 _atom_site_fract_z
 _atom_site_occupancy
  Li  Li0  1  0.510726  0.011788  0.249865  1
  Li  Li1  1  0.988212  0.489274  0.750135  1
  Li  Li2  1  0.000092  0.999908  0.000000  1
  Li  Li3  1  0.010948  0.510787  0.250153  1
  Li  Li4  1  0.489213  0.989052  0.749847  1
  Li  Li5  1  0.500226  0.499774  0.500000  1
  Pr  Pr6  1  0.198955  0.801045  0.500000  1
  Pr  Pr7  1  0.798213  0.798772  0.303090  1
  Pr  Pr8  1  0.298609  0.298536  0.196507  1
  Pr  Pr9  1  0.801016  0.198984  0.500000  1
  Pr  Pr10  1  0.301117  0.698883  0.000000  1
  Pr  Pr11  1  0.701464  0.701391  0.803493  1
  Pr  Pr12  1  0.201228  0.201787  0.696910  1
  Nd  Nd13  1  0.698965  0.301035  0.000000  1
  Au  Au14  1  0.157721  0.437074  0.473256  1
  Au  Au15  1  0.902565  0.902690  0.596855  1
  Au  Au16  1  0.562926  0.842279  0.526744  1
  Au  Au17  1  0.886659  0.167986  0.205461  1
  Au  Au18  1  0.387897  0.667586  0.294048  1
  Au  Au19  1  0.667694  0.386500  0.292968  1
  Au  Au20  1  0.402908  0.401926  0.903794  1
  Au  Au21  1  0.936648  0.655386  0.026403  1
  Au  Au22  1  0.332414  0.612103  0.705952  1
  Au  Au23  1  0.344614  0.063352  0.973597  1
  Au  Au24  1  0.598074  0.597092  0.096206  1
  Au  Au25  1  0.657031  0.937874  0.026551  1
  Au  Au26  1  0.097310  0.097435  0.403145  1
  Au  Au27  1  0.613500  0.332306  0.707032  1
  Au  Au28  1  0.112888  0.833040  0.794367  1
  Au  Au29  1  0.062126  0.342969  0.973449  1
  Au  Au30  1  0.842025  0.562959  0.526160  1
  Au  Au31  1  0.166960  0.887112  0.205633  1
  Au  Au32  1  0.437041  0.157975  0.473840  1
  Au  Au33  1  0.832014  0.113341  0.794539  1
