# generated using pymatgen
data_Ho9Er11(CoBi2)4
_symmetry_space_group_name_H-M   'P 1'
_cell_length_a   7.94159806
_cell_length_b   8.88267800
_cell_length_c   12.36779409
_cell_angle_alpha   90.00000000
_cell_angle_beta   90.01409809
_cell_angle_gamma   90.00000000
_symmetry_Int_Tables_number   1
_chemical_formula_structural   Ho9Er11(CoBi2)4
_chemical_formula_sum   'Ho9 Er11 Co4 Bi8'
_cell_volume   872.45704717
_cell_formula_units_Z   1
loop_
 _symmetry_equiv_pos_site_id
 _symmetry_equiv_pos_as_xyz
  1  'x, y, z'
loop_
 _atom_site_type_symbol
 _atom_site_label
 _atom_site_symmetry_multiplicity
 _atom_site_fract_x
 _atom_site_fract_y
 _atom_site_fract_z
 _atom_site_occupancy
  Ho  Ho0  1  0.153325  0.750000  0.199947  1
  Ho  Ho1  1  0.885380  0.750000  0.811207  1
  Ho  Ho2  1  0.114724  0.250000  0.188849  1
  Ho  Ho3  1  0.385230  0.250000  0.688840  1
  Ho  Ho4  1  0.614905  0.750000  0.311245  1
  Ho  Ho5  1  0.053328  0.750000  0.498191  1
  Ho  Ho6  1  0.946616  0.250000  0.501978  1
  Ho  Ho7  1  0.553315  0.250000  0.001877  1
  Ho  Ho8  1  0.446928  0.750000  0.997912  1
  Er  Er9  1  0.346885  0.750000  0.699514  1
  Er  Er10  1  0.653080  0.250000  0.300542  1
  Er  Er11  1  0.846791  0.250000  0.800204  1
  Er  Er12  1  0.674279  0.538460  0.563017  1
  Er  Er13  1  0.325704  0.461476  0.436956  1
  Er  Er14  1  0.174265  0.461728  0.936994  1
  Er  Er15  1  0.325704  0.038524  0.436956  1
  Er  Er16  1  0.825629  0.538485  0.062815  1
  Er  Er17  1  0.674279  0.961540  0.563017  1
  Er  Er18  1  0.825629  0.961515  0.062815  1
  Er  Er19  1  0.174265  0.038272  0.936994  1
  Co  Co20  1  0.066180  0.750000  0.991929  1
  Co  Co21  1  0.933680  0.250000  0.007851  1
  Co  Co22  1  0.566222  0.250000  0.507890  1
  Co  Co23  1  0.433632  0.750000  0.492145  1
  Bi  Bi24  1  0.571463  0.509773  0.826472  1
  Bi  Bi25  1  0.428869  0.489971  0.173462  1
  Bi  Bi26  1  0.071499  0.490163  0.673557  1
  Bi  Bi27  1  0.428869  0.010029  0.173462  1
  Bi  Bi28  1  0.928182  0.509494  0.326667  1
  Bi  Bi29  1  0.571463  0.990227  0.826472  1
  Bi  Bi30  1  0.928182  0.990506  0.326667  1
  Bi  Bi31  1  0.071499  0.009837  0.673557  1
