# generated using pymatgen
data_Y24Tc7Au
_symmetry_space_group_name_H-M   'P 1'
_cell_length_a   6.31649525
_cell_length_b   9.23051800
_cell_length_c   14.91050491
_cell_angle_alpha   90.00000000
_cell_angle_beta   90.06031831
_cell_angle_gamma   90.00000000
_symmetry_Int_Tables_number   1
_chemical_formula_structural   Y24Tc7Au
_chemical_formula_sum   'Y24 Tc7 Au1'
_cell_volume   869.34939620
_cell_formula_units_Z   1
loop_
 _symmetry_equiv_pos_site_id
 _symmetry_equiv_pos_as_xyz
  1  'x, y, z'
loop_
 _atom_site_type_symbol
 _atom_site_label
 _atom_site_symmetry_multiplicity
 _atom_site_fract_x
 _atom_site_fract_y
 _atom_site_fract_z
 _atom_site_occupancy
  Y  Y0  1  0.534894  0.750000  0.353359  1
  Y  Y1  1  0.031397  0.250000  0.148304  1
  Y  Y2  1  0.466945  0.250000  0.647810  1
  Y  Y3  1  0.962201  0.750000  0.857889  1
  Y  Y4  1  0.782356  0.750000  0.110032  1
  Y  Y5  1  0.288525  0.250000  0.386530  1
  Y  Y6  1  0.214605  0.250000  0.890317  1
  Y  Y7  1  0.703116  0.750000  0.608753  1
  Y  Y8  1  0.445073  0.939695  0.794544  1
  Y  Y9  1  0.930234  0.069680  0.707215  1
  Y  Y10  1  0.561598  0.435727  0.210376  1
  Y  Y11  1  0.062363  0.565101  0.289823  1
  Y  Y12  1  0.561598  0.064273  0.210376  1
  Y  Y13  1  0.062363  0.934899  0.289823  1
  Y  Y14  1  0.445073  0.560305  0.794544  1
  Y  Y15  1  0.930234  0.430320  0.707215  1
  Y  Y16  1  0.243124  0.945480  0.527384  1
  Y  Y17  1  0.741887  0.064994  0.968065  1
  Y  Y18  1  0.757841  0.436396  0.464805  1
  Y  Y19  1  0.258353  0.562542  0.036104  1
  Y  Y20  1  0.757841  0.063604  0.464805  1
  Y  Y21  1  0.258353  0.937458  0.036104  1
  Y  Y22  1  0.243124  0.554520  0.527384  1
  Y  Y23  1  0.741887  0.435006  0.968065  1
  Tc  Tc24  1  0.930277  0.750000  0.447117  1
  Tc  Tc25  1  0.424535  0.250000  0.058794  1
  Tc  Tc26  1  0.078500  0.250000  0.556940  1
  Tc  Tc27  1  0.570488  0.750000  0.941038  1
  Tc  Tc28  1  0.352419  0.750000  0.182614  1
  Tc  Tc29  1  0.854678  0.250000  0.318723  1
  Tc  Tc30  1  0.649485  0.250000  0.817729  1
  Au  Au31  1  0.154632  0.750000  0.677414  1
