# generated using pymatgen
data_Sc4Al2(FeCu)3
_symmetry_space_group_name_H-M   'P 1'
_cell_length_a   5.11530673
_cell_length_b   5.11530720
_cell_length_c   8.12239800
_cell_angle_alpha   90.00000000
_cell_angle_beta   90.00000000
_cell_angle_gamma   120.10109921
_symmetry_Int_Tables_number   1
_chemical_formula_structural   Sc4Al2(FeCu)3
_chemical_formula_sum   'Sc4 Al2 Fe3 Cu3'
_cell_volume   183.87172998
_cell_formula_units_Z   1
loop_
 _symmetry_equiv_pos_site_id
 _symmetry_equiv_pos_as_xyz
  1  'x, y, z'
loop_
 _atom_site_type_symbol
 _atom_site_label
 _atom_site_symmetry_multiplicity
 _atom_site_fract_x
 _atom_site_fract_y
 _atom_site_fract_z
 _atom_site_occupancy
  Sc  Sc0  1  0.666643  0.333357  0.068917  1
  Sc  Sc1  1  0.333345  0.666655  0.948088  1
  Sc  Sc2  1  0.333345  0.666655  0.551912  1
  Sc  Sc3  1  0.666643  0.333357  0.431083  1
  Al  Al4  1  0.999985  0.000015  0.494958  1
  Al  Al5  1  0.999985  0.000015  0.005042  1
  Fe  Fe6  1  0.175093  0.350338  0.250000  1
  Fe  Fe7  1  0.175163  0.824837  0.250000  1
  Fe  Fe8  1  0.649662  0.824907  0.250000  1
  Cu  Cu9  1  0.830336  0.660684  0.750000  1
  Cu  Cu10  1  0.830484  0.169516  0.750000  1
  Cu  Cu11  1  0.339316  0.169664  0.750000  1
