# generated using pymatgen
data_Tb4Er4Tc(B8Ru)3
_symmetry_space_group_name_H-M   'P 1'
_cell_length_a   3.66217900
_cell_length_b   9.13022568
_cell_length_c   11.52477200
_cell_angle_alpha   89.91217515
_cell_angle_beta   90.00000000
_cell_angle_gamma   90.00000000
_symmetry_Int_Tables_number   1
_chemical_formula_structural   Tb4Er4Tc(B8Ru)3
_chemical_formula_sum   'Tb4 Er4 Tc1 B24 Ru3'
_cell_volume   385.34782542
_cell_formula_units_Z   1
loop_
 _symmetry_equiv_pos_site_id
 _symmetry_equiv_pos_as_xyz
  1  'x, y, z'
loop_
 _atom_site_type_symbol
 _atom_site_label
 _atom_site_symmetry_multiplicity
 _atom_site_fract_x
 _atom_site_fract_y
 _atom_site_fract_z
 _atom_site_occupancy
  Tb  Tb0  1  0.000000  0.323800  0.413270  1
  Tb  Tb1  1  0.000000  0.677411  0.583606  1
  Tb  Tb2  1  0.000000  0.820183  0.087909  1
  Tb  Tb3  1  0.000000  0.177225  0.914975  1
  Er  Er4  1  0.000000  0.943079  0.372204  1
  Er  Er5  1  0.000000  0.057495  0.628412  1
  Er  Er6  1  0.000000  0.443833  0.128273  1
  Er  Er7  1  0.000000  0.556985  0.871227  1
  Tc  Tc8  1  0.000000  0.637812  0.320685  1
  B  B9  1  0.500000  0.553265  0.432674  1
  B  B10  1  0.500000  0.446145  0.567802  1
  B  B11  1  0.500000  0.053874  0.067611  1
  B  B12  1  0.500000  0.945725  0.932782  1
  B  B13  1  0.500000  0.748756  0.418869  1
  B  B14  1  0.500000  0.251642  0.581121  1
  B  B15  1  0.500000  0.248447  0.080788  1
  B  B16  1  0.500000  0.751232  0.919038  1
  B  B17  1  0.500000  0.791242  0.266200  1
  B  B18  1  0.500000  0.209391  0.733868  1
  B  B19  1  0.500000  0.290586  0.233095  1
  B  B20  1  0.500000  0.709807  0.766127  1
  B  B21  1  0.500000  0.630577  0.185465  1
  B  B22  1  0.500000  0.369103  0.814930  1
  B  B23  1  0.500000  0.130788  0.314376  1
  B  B24  1  0.500000  0.869770  0.685231  1
  B  B25  1  0.500000  0.983066  0.213012  1
  B  B26  1  0.500000  0.016854  0.787559  1
  B  B27  1  0.500000  0.482249  0.286981  1
  B  B28  1  0.500000  0.516728  0.712919  1
  B  B29  1  0.500000  0.605060  0.028451  1
  B  B30  1  0.500000  0.394282  0.970434  1
  B  B31  1  0.500000  0.106101  0.471073  1
  B  B32  1  0.500000  0.895627  0.529588  1
  Ru  Ru33  1  0.000000  0.361910  0.679850  1
  Ru  Ru34  1  0.000000  0.137681  0.178849  1
  Ru  Ru35  1  0.000000  0.862269  0.820744  1
