# generated using pymatgen
data_SrNdGa3O7
_symmetry_space_group_name_H-M   'P 1'
_cell_length_a   8.09660645
_cell_length_b   8.09660702
_cell_length_c   5.36820400
_cell_angle_alpha   90.00000000
_cell_angle_beta   90.00000000
_cell_angle_gamma   90.62631140
_symmetry_Int_Tables_number   1
_chemical_formula_structural   SrNdGa3O7
_chemical_formula_sum   'Sr2 Nd2 Ga6 O14'
_cell_volume   351.89180625
_cell_formula_units_Z   2
loop_
 _symmetry_equiv_pos_site_id
 _symmetry_equiv_pos_as_xyz
  1  'x, y, z'
loop_
 _atom_site_type_symbol
 _atom_site_label
 _atom_site_symmetry_multiplicity
 _atom_site_fract_x
 _atom_site_fract_y
 _atom_site_fract_z
 _atom_site_occupancy
  Sr  Sr0  1  0.161832  0.838168  0.489715  1
  Sr  Sr1  1  0.838168  0.161832  0.489715  1
  Nd  Nd2  1  0.661268  0.661268  0.514678  1
  Nd  Nd3  1  0.338732  0.338732  0.514678  1
  Ga  Ga4  1  0.358553  0.641447  0.034583  1
  Ga  Ga5  1  0.852965  0.852965  0.966220  1
  Ga  Ga6  1  0.641447  0.358553  0.034583  1
  Ga  Ga7  1  0.147035  0.147035  0.966220  1
  Ga  Ga8  1  0.500000  0.000000  0.996759  1
  Ga  Ga9  1  0.000000  0.500000  0.996759  1
  O  O10  1  0.000000  0.000000  0.820672  1
  O  O11  1  0.500000  0.500000  0.209942  1
  O  O12  1  0.372044  0.627956  0.695164  1
  O  O13  1  0.845988  0.845988  0.303614  1
  O  O14  1  0.627956  0.372044  0.695164  1
  O  O15  1  0.154012  0.154012  0.303614  1
  O  O16  1  0.417036  0.835436  0.202376  1
  O  O17  1  0.902724  0.657146  0.789605  1
  O  O18  1  0.582964  0.164564  0.202376  1
  O  O19  1  0.097276  0.342854  0.789605  1
  O  O20  1  0.342854  0.097276  0.789605  1
  O  O21  1  0.835436  0.417036  0.202376  1
  O  O22  1  0.657146  0.902724  0.789605  1
  O  O23  1  0.164564  0.582964  0.202376  1
