# generated using pymatgen
data_Th2MnCo5P4
_symmetry_space_group_name_H-M   'P 1'
_cell_length_a   3.82243600
_cell_length_b   10.65911600
_cell_length_c   12.43229200
_cell_angle_alpha   90.00000000
_cell_angle_beta   90.00000000
_cell_angle_gamma   90.00000000
_symmetry_Int_Tables_number   1
_chemical_formula_structural   Th2MnCo5P4
_chemical_formula_sum   'Th6 Mn3 Co15 P12'
_cell_volume   506.53867864
_cell_formula_units_Z   3
loop_
 _symmetry_equiv_pos_site_id
 _symmetry_equiv_pos_as_xyz
  1  'x, y, z'
loop_
 _atom_site_type_symbol
 _atom_site_label
 _atom_site_symmetry_multiplicity
 _atom_site_fract_x
 _atom_site_fract_y
 _atom_site_fract_z
 _atom_site_occupancy
  Th  Th0  1  0.000000  0.500000  0.521431  1
  Th  Th1  1  0.500000  0.000000  0.477627  1
  Th  Th2  1  0.500000  0.816745  0.207030  1
  Th  Th3  1  0.500000  0.183255  0.207030  1
  Th  Th4  1  0.000000  0.681551  0.794470  1
  Th  Th5  1  0.000000  0.318449  0.794470  1
  Mn  Mn6  1  0.500000  0.500000  0.147476  1
  Mn  Mn7  1  0.000000  0.000000  0.848330  1
  Mn  Mn8  1  0.000000  0.500000  0.988804  1
  Co  Co9  1  0.500000  0.500000  0.701684  1
  Co  Co10  1  0.000000  0.000000  0.297674  1
  Co  Co11  1  0.500000  0.000000  0.014689  1
  Co  Co12  1  0.500000  0.330162  0.995400  1
  Co  Co13  1  0.500000  0.669838  0.995400  1
  Co  Co14  1  0.000000  0.165200  0.003735  1
  Co  Co15  1  0.000000  0.834800  0.003735  1
  Co  Co16  1  0.500000  0.300752  0.428742  1
  Co  Co17  1  0.500000  0.699248  0.428742  1
  Co  Co18  1  0.000000  0.199469  0.571708  1
  Co  Co19  1  0.000000  0.800531  0.571708  1
  Co  Co20  1  0.500000  0.880070  0.712856  1
  Co  Co21  1  0.500000  0.119930  0.712856  1
  Co  Co22  1  0.000000  0.620202  0.287630  1
  Co  Co23  1  0.000000  0.379798  0.287630  1
  P  P24  1  0.500000  0.500000  0.887852  1
  P  P25  1  0.000000  0.000000  0.114124  1
  P  P26  1  0.500000  0.500000  0.339733  1
  P  P27  1  0.000000  0.000000  0.658772  1
  P  P28  1  0.500000  0.304427  0.612284  1
  P  P29  1  0.500000  0.695573  0.612284  1
  P  P30  1  0.000000  0.195310  0.388072  1
  P  P31  1  0.000000  0.804690  0.388072  1
  P  P32  1  0.500000  0.848388  0.896883  1
  P  P33  1  0.500000  0.151612  0.896883  1
  P  P34  1  0.000000  0.653887  0.102092  1
  P  P35  1  0.000000  0.346113  0.102092  1
