# generated using pymatgen
data_DyY2CoI3
_symmetry_space_group_name_H-M   'P 1'
_cell_length_a   4.12521900
_cell_length_b   8.87030881
_cell_length_c   12.20671208
_cell_angle_alpha   86.50987014
_cell_angle_beta   90.00000000
_cell_angle_gamma   90.00000000
_symmetry_Int_Tables_number   1
_chemical_formula_structural   DyY2CoI3
_chemical_formula_sum   'Dy2 Y4 Co2 I6'
_cell_volume   445.83916441
_cell_formula_units_Z   2
loop_
 _symmetry_equiv_pos_site_id
 _symmetry_equiv_pos_as_xyz
  1  'x, y, z'
loop_
 _atom_site_type_symbol
 _atom_site_label
 _atom_site_symmetry_multiplicity
 _atom_site_fract_x
 _atom_site_fract_y
 _atom_site_fract_z
 _atom_site_occupancy
  Dy  Dy0  1  0.750000  0.133003  0.124694  1
  Dy  Dy1  1  0.250000  0.866997  0.875306  1
  Y  Y2  1  0.750000  0.094301  0.686672  1
  Y  Y3  1  0.250000  0.905699  0.313328  1
  Y  Y4  1  0.250000  0.251460  0.900530  1
  Y  Y5  1  0.750000  0.748540  0.099470  1
  Co  Co6  1  0.750000  0.047679  0.910572  1
  Co  Co7  1  0.250000  0.952321  0.089428  1
  I  I8  1  0.250000  0.425245  0.133298  1
  I  I9  1  0.750000  0.574755  0.866702  1
  I  I10  1  0.250000  0.351819  0.639296  1
  I  I11  1  0.750000  0.648181  0.360704  1
  I  I12  1  0.750000  0.145882  0.392953  1
  I  I13  1  0.250000  0.854118  0.607047  1
