# generated using pymatgen
data_Th8Nb11Si16W
_symmetry_space_group_name_H-M   'P 1'
_cell_length_a   7.18667281
_cell_length_b   7.18684945
_cell_length_c   13.39998019
_cell_angle_alpha   89.89293958
_cell_angle_beta   89.92671796
_cell_angle_gamma   89.98269546
_symmetry_Int_Tables_number   1
_chemical_formula_structural   Th8Nb11Si16W
_chemical_formula_sum   'Th8 Nb11 Si16 W1'
_cell_volume   692.10094757
_cell_formula_units_Z   1
loop_
 _symmetry_equiv_pos_site_id
 _symmetry_equiv_pos_as_xyz
  1  'x, y, z'
loop_
 _atom_site_type_symbol
 _atom_site_label
 _atom_site_symmetry_multiplicity
 _atom_site_fract_x
 _atom_site_fract_y
 _atom_site_fract_z
 _atom_site_occupancy
  Th  Th0  1  0.999497  0.337764  0.219050  1
  Th  Th1  1  0.001776  0.662968  0.717047  1
  Th  Th2  1  0.161543  0.499503  0.467700  1
  Th  Th3  1  0.500173  0.837887  0.033131  1
  Th  Th4  1  0.837425  0.501498  0.967966  1
  Th  Th5  1  0.499112  0.161678  0.531161  1
  Th  Th6  1  0.337573  0.998977  0.781845  1
  Th  Th7  1  0.663129  0.000177  0.281779  1
  Nb  Nb8  1  0.167211  0.167122  0.000708  1
  Nb  Nb9  1  0.833383  0.832757  0.499175  1
  Nb  Nb10  1  0.331173  0.668341  0.250848  1
  Nb  Nb11  1  0.668018  0.332142  0.749662  1
  Nb  Nb12  1  0.839129  0.004443  0.874051  1
  Nb  Nb13  1  0.501924  0.661789  0.623514  1
  Nb  Nb14  1  0.339641  0.496252  0.875820  1
  Nb  Nb15  1  0.494656  0.337267  0.125012  1
  Nb  Nb16  1  0.661188  0.503832  0.375848  1
  Nb  Nb17  1  0.996792  0.161153  0.625596  1
  Nb  Nb18  1  0.002645  0.839529  0.125324  1
  Si  Si19  1  0.286185  0.037179  0.189169  1
  Si  Si20  1  0.712215  0.960491  0.685823  1
  Si  Si21  1  0.458090  0.788744  0.435556  1
  Si  Si22  1  0.211483  0.538950  0.063791  1
  Si  Si23  1  0.539328  0.211626  0.936606  1
  Si  Si24  1  0.787013  0.460814  0.563638  1
  Si  Si25  1  0.040091  0.288508  0.813595  1
  Si  Si26  1  0.964872  0.716569  0.313667  1
  Si  Si27  1  0.375476  0.295066  0.314645  1
  Si  Si28  1  0.624307  0.701637  0.812989  1
  Si  Si29  1  0.199996  0.877355  0.560702  1
  Si  Si30  1  0.124148  0.799060  0.936768  1
  Si  Si31  1  0.797980  0.124721  0.063763  1
  Si  Si32  1  0.879818  0.197976  0.436070  1
  Si  Si33  1  0.298745  0.375565  0.686260  1
  Si  Si34  1  0.701075  0.622759  0.186906  1
  W  W35  1  0.163191  0.997903  0.374815  1
