# generated using pymatgen
data_Nd2GdIn3O9
_symmetry_space_group_name_H-M   'P 1'
_cell_length_a   6.51173900
_cell_length_b   6.51174014
_cell_length_c   12.49860000
_cell_angle_alpha   90.00000000
_cell_angle_beta   90.00000000
_cell_angle_gamma   119.99998914
_symmetry_Int_Tables_number   1
_chemical_formula_structural   Nd2GdIn3O9
_chemical_formula_sum   'Nd4 Gd2 In6 O18'
_cell_volume   458.97189727
_cell_formula_units_Z   2
loop_
 _symmetry_equiv_pos_site_id
 _symmetry_equiv_pos_as_xyz
  1  'x, y, z'
loop_
 _atom_site_type_symbol
 _atom_site_label
 _atom_site_symmetry_multiplicity
 _atom_site_fract_x
 _atom_site_fract_y
 _atom_site_fract_z
 _atom_site_occupancy
  Nd  Nd0  1  0.666667  0.333333  0.961287  1
  Nd  Nd1  1  0.333333  0.666667  0.461287  1
  Nd  Nd2  1  0.666667  0.333333  0.461287  1
  Nd  Nd3  1  0.333333  0.666667  0.961287  1
  Gd  Gd4  1  0.000000  0.000000  0.997280  1
  Gd  Gd5  1  0.000000  0.000000  0.497280  1
  In  In6  1  0.668390  0.668390  0.726834  1
  In  In7  1  0.000000  0.331610  0.726834  1
  In  In8  1  0.331610  0.331610  0.226834  1
  In  In9  1  0.000000  0.668390  0.226834  1
  In  In10  1  0.331610  0.000000  0.726834  1
  In  In11  1  0.668390  0.000000  0.226834  1
  O  O12  1  0.698371  0.698371  0.896174  1
  O  O13  1  0.000000  0.301629  0.896174  1
  O  O14  1  0.301629  0.301629  0.396174  1
  O  O15  1  0.000000  0.698371  0.396174  1
  O  O16  1  0.301629  0.000000  0.896174  1
  O  O17  1  0.698371  0.000000  0.396174  1
  O  O18  1  0.645591  0.645591  0.558795  1
  O  O19  1  0.000000  0.354409  0.558795  1
  O  O20  1  0.354409  0.354409  0.058795  1
  O  O21  1  0.000000  0.645591  0.058795  1
  O  O22  1  0.354409  0.000000  0.558795  1
  O  O23  1  0.645591  0.000000  0.058795  1
  O  O24  1  0.000000  0.000000  0.696682  1
  O  O25  1  0.000000  0.000000  0.196682  1
  O  O26  1  0.666667  0.333333  0.751972  1
  O  O27  1  0.333333  0.666667  0.251972  1
  O  O28  1  0.666667  0.333333  0.251972  1
  O  O29  1  0.333333  0.666667  0.751972  1
