# generated using pymatgen
data_Er16Sc3Si16Mo
_symmetry_space_group_name_H-M   'P 1'
_cell_length_a   7.14288003
_cell_length_b   7.57439772
_cell_length_c   14.19925200
_cell_angle_alpha   90.00000000
_cell_angle_beta   90.00000000
_cell_angle_gamma   89.85317841
_symmetry_Int_Tables_number   1
_chemical_formula_structural   Er16Sc3Si16Mo
_chemical_formula_sum   'Er16 Sc3 Si16 Mo1'
_cell_volume   768.21981092
_cell_formula_units_Z   1
loop_
 _symmetry_equiv_pos_site_id
 _symmetry_equiv_pos_as_xyz
  1  'x, y, z'
loop_
 _atom_site_type_symbol
 _atom_site_label
 _atom_site_symmetry_multiplicity
 _atom_site_fract_x
 _atom_site_fract_y
 _atom_site_fract_z
 _atom_site_occupancy
  Er  Er0  1  0.987505  0.687986  0.600258  1
  Er  Er1  1  0.018254  0.316974  0.405778  1
  Er  Er2  1  0.519404  0.183872  0.404233  1
  Er  Er3  1  0.018254  0.316974  0.094222  1
  Er  Er4  1  0.479314  0.818903  0.596956  1
  Er  Er5  1  0.987505  0.687986  0.899742  1
  Er  Er6  1  0.479314  0.818903  0.903044  1
  Er  Er7  1  0.519404  0.183872  0.095767  1
  Er  Er8  1  0.322435  0.318604  0.628414  1
  Er  Er9  1  0.678475  0.677538  0.374160  1
  Er  Er10  1  0.179140  0.825931  0.375910  1
  Er  Er11  1  0.678475  0.677538  0.125840  1
  Er  Er12  1  0.819201  0.171101  0.629156  1
  Er  Er13  1  0.322435  0.318604  0.871586  1
  Er  Er14  1  0.819201  0.171101  0.870844  1
  Er  Er15  1  0.179140  0.825931  0.124090  1
  Sc  Sc16  1  0.847033  0.014148  0.250000  1
  Sc  Sc17  1  0.345054  0.485449  0.250000  1
  Sc  Sc18  1  0.653343  0.520803  0.750000  1
  Si  Si19  1  0.018770  0.404236  0.750000  1
  Si  Si20  1  0.983363  0.594475  0.250000  1
  Si  Si21  1  0.481460  0.906819  0.250000  1
  Si  Si22  1  0.506154  0.078325  0.750000  1
  Si  Si23  1  0.277034  0.647976  0.750000  1
  Si  Si24  1  0.722846  0.361740  0.250000  1
  Si  Si25  1  0.219962  0.138162  0.250000  1
  Si  Si26  1  0.785548  0.863663  0.750000  1
  Si  Si27  1  0.151526  0.026706  0.548308  1
  Si  Si28  1  0.846785  0.970220  0.462007  1
  Si  Si29  1  0.347229  0.530523  0.462500  1
  Si  Si30  1  0.846785  0.970220  0.037993  1
  Si  Si31  1  0.656769  0.469595  0.540242  1
  Si  Si32  1  0.151526  0.026706  0.951692  1
  Si  Si33  1  0.656769  0.469595  0.959758  1
  Si  Si34  1  0.347229  0.530523  0.037500  1
  Mo  Mo35  1  0.147364  0.988294  0.750000  1
