# generated using pymatgen
data_Tb5CeMnBr10
_symmetry_space_group_name_H-M   'P 1'
_cell_length_a   7.43384554
_cell_length_b   8.95918482
_cell_length_c   9.40987823
_cell_angle_alpha   108.22392662
_cell_angle_beta   97.03787540
_cell_angle_gamma   104.17426059
_symmetry_Int_Tables_number   1
_chemical_formula_structural   Tb5CeMnBr10
_chemical_formula_sum   'Tb5 Ce1 Mn1 Br10'
_cell_volume   563.50125119
_cell_formula_units_Z   1
loop_
 _symmetry_equiv_pos_site_id
 _symmetry_equiv_pos_as_xyz
  1  'x, y, z'
loop_
 _atom_site_type_symbol
 _atom_site_label
 _atom_site_symmetry_multiplicity
 _atom_site_fract_x
 _atom_site_fract_y
 _atom_site_fract_z
 _atom_site_occupancy
  Tb  Tb0  1  0.965500  0.275529  0.582929  1
  Tb  Tb1  1  0.876635  0.950843  0.749658  1
  Tb  Tb2  1  0.127342  0.048310  0.251443  1
  Tb  Tb3  1  0.362704  0.135097  0.679981  1
  Tb  Tb4  1  0.637475  0.864135  0.318529  1
  Ce  Ce5  1  0.031480  0.733581  0.420084  1
  Mn  Mn6  1  0.005124  0.970599  0.491278  1
  Br  Br7  1  0.459289  0.821898  0.585866  1
  Br  Br8  1  0.551263  0.185313  0.419698  1
  Br  Br9  1  0.907465  0.626647  0.679385  1
  Br  Br10  1  0.083021  0.375221  0.332230  1
  Br  Br11  1  0.250389  0.088986  0.957127  1
  Br  Br12  1  0.752372  0.921493  0.046690  1
  Br  Br13  1  0.337648  0.453558  0.769326  1
  Br  Br14  1  0.643277  0.542397  0.223968  1
  Br  Br15  1  0.789084  0.258975  0.842392  1
  Br  Br16  1  0.219931  0.747418  0.149416  1
