# generated using pymatgen
data_LiCr4InO8
_symmetry_space_group_name_H-M   'P 1'
_cell_length_a   6.07112554
_cell_length_b   6.07114089
_cell_length_c   6.07115900
_cell_angle_alpha   59.99989586
_cell_angle_beta   59.99981224
_cell_angle_gamma   59.99951364
_symmetry_Int_Tables_number   1
_chemical_formula_structural   LiCr4InO8
_chemical_formula_sum   'Li1 Cr4 In1 O8'
_cell_volume   158.23173110
_cell_formula_units_Z   1
loop_
 _symmetry_equiv_pos_site_id
 _symmetry_equiv_pos_as_xyz
  1  'x, y, z'
loop_
 _atom_site_type_symbol
 _atom_site_label
 _atom_site_symmetry_multiplicity
 _atom_site_fract_x
 _atom_site_fract_y
 _atom_site_fract_z
 _atom_site_occupancy
  Li  Li0  1  0.999998  0.999998  0.000002  1
  Cr  Cr1  1  0.371754  0.371753  0.371758  1
  Cr  Cr2  1  0.371754  0.371753  0.884736  1
  Cr  Cr3  1  0.371755  0.884735  0.371755  1
  Cr  Cr4  1  0.884735  0.371754  0.371756  1
  In  In5  1  0.750001  0.749999  0.750000  1
  O  O6  1  0.138310  0.138315  0.138310  1
  O  O7  1  0.138310  0.138315  0.585064  1
  O  O8  1  0.138309  0.585067  0.138311  1
  O  O9  1  0.585072  0.138315  0.138306  1
  O  O10  1  0.610658  0.610652  0.610657  1
  O  O11  1  0.610658  0.610652  0.168034  1
  O  O12  1  0.610656  0.168036  0.610654  1
  O  O13  1  0.168031  0.610655  0.610658  1
