# generated using pymatgen
data_Pr8Si12IrPdRh2
_symmetry_space_group_name_H-M   'P 1'
_cell_length_a   8.28784100
_cell_length_b   8.28782619
_cell_length_c   8.53784600
_cell_angle_alpha   89.99994886
_cell_angle_beta   90.00009537
_cell_angle_gamma   119.99974446
_symmetry_Int_Tables_number   1
_chemical_formula_structural   Pr8Si12IrPdRh2
_chemical_formula_sum   'Pr8 Si12 Ir1 Pd1 Rh2'
_cell_volume   507.88117069
_cell_formula_units_Z   1
loop_
 _symmetry_equiv_pos_site_id
 _symmetry_equiv_pos_as_xyz
  1  'x, y, z'
loop_
 _atom_site_type_symbol
 _atom_site_label
 _atom_site_symmetry_multiplicity
 _atom_site_fract_x
 _atom_site_fract_y
 _atom_site_fract_z
 _atom_site_occupancy
  Pr  Pr0  1  0.496769  0.503231  0.752695  1
  Pr  Pr1  1  0.499961  0.500039  0.247829  1
  Pr  Pr2  1  0.006461  0.503231  0.752695  1
  Pr  Pr3  1  0.000080  0.500040  0.247830  1
  Pr  Pr4  1  0.496769  0.993539  0.752696  1
  Pr  Pr5  1  0.499961  0.999921  0.247829  1
  Pr  Pr6  1  0.000002  0.000001  0.750112  1
  Pr  Pr7  1  0.000000  0.000000  0.249083  1
  Si  Si8  1  0.833144  0.166855  0.002073  1
  Si  Si9  1  0.166186  0.833814  0.997859  1
  Si  Si10  1  0.333711  0.166855  0.002073  1
  Si  Si11  1  0.167262  0.832737  0.502324  1
  Si  Si12  1  0.667628  0.833814  0.997859  1
  Si  Si13  1  0.835404  0.164595  0.497381  1
  Si  Si14  1  0.833144  0.666289  0.002073  1
  Si  Si15  1  0.665474  0.832737  0.502324  1
  Si  Si16  1  0.166187  0.332373  0.997859  1
  Si  Si17  1  0.329190  0.164596  0.497381  1
  Si  Si18  1  0.167263  0.334525  0.502324  1
  Si  Si19  1  0.835404  0.670809  0.497381  1
  Ir  Ir20  1  0.333334  0.666668  0.492680  1
  Pd  Pd21  1  0.666666  0.333332  0.507825  1
  Rh  Rh22  1  0.666665  0.333332  0.992433  1
  Rh  Rh23  1  0.333335  0.666668  0.007382  1
