# generated using pymatgen
data_Ti5Al6Ru12W
_symmetry_space_group_name_H-M   'P 1'
_cell_length_a   4.30688300
_cell_length_b   6.13306000
_cell_length_c   12.89568800
_cell_angle_alpha   90.00000000
_cell_angle_beta   89.99773625
_cell_angle_gamma   90.00000000
_symmetry_Int_Tables_number   1
_chemical_formula_structural   Ti5Al6Ru12W
_chemical_formula_sum   'Ti5 Al6 Ru12 W1'
_cell_volume   340.63149799
_cell_formula_units_Z   1
loop_
 _symmetry_equiv_pos_site_id
 _symmetry_equiv_pos_as_xyz
  1  'x, y, z'
loop_
 _atom_site_type_symbol
 _atom_site_label
 _atom_site_symmetry_multiplicity
 _atom_site_fract_x
 _atom_site_fract_y
 _atom_site_fract_z
 _atom_site_occupancy
  Ti  Ti0  1  0.499835  0.000000  0.168986  1
  Ti  Ti1  1  0.999834  0.499999  0.334771  1
  Ti  Ti2  1  0.500000  0.000000  0.500000  1
  Ti  Ti3  1  0.000167  0.499999  0.665229  1
  Ti  Ti4  1  0.500166  0.000000  0.831014  1
  Al  Al5  1  0.000000  0.000000  0.000000  1
  Al  Al6  1  0.499825  0.499999  0.168198  1
  Al  Al7  1  0.999819  0.000000  0.333737  1
  Al  Al8  1  0.500000  0.499999  0.500000  1
  Al  Al9  1  0.000182  0.000000  0.666263  1
  Al  Al10  1  0.500175  0.499999  0.831802  1
  Ru  Ru11  1  0.500000  0.252919  0.000000  1
  Ru  Ru12  1  0.500000  0.747080  0.000000  1
  Ru  Ru13  1  0.999840  0.249196  0.165188  1
  Ru  Ru14  1  0.999840  0.750804  0.165188  1
  Ru  Ru15  1  0.499839  0.251245  0.332822  1
  Ru  Ru16  1  0.499839  0.748756  0.332822  1
  Ru  Ru17  1  0.000000  0.248534  0.500000  1
  Ru  Ru18  1  0.000000  0.751466  0.500000  1
  Ru  Ru19  1  0.500159  0.251245  0.667178  1
  Ru  Ru20  1  0.500159  0.748756  0.667178  1
  Ru  Ru21  1  0.000161  0.249196  0.834812  1
  Ru  Ru22  1  0.000161  0.750804  0.834812  1
  W  W23  1  0.000000  0.499999  0.000000  1
