# generated using pymatgen
data_Tb16Dy3Er(CoBi2)4
_symmetry_space_group_name_H-M   'P 1'
_cell_length_a   8.05510242
_cell_length_b   8.87966064
_cell_length_c   12.44685744
_cell_angle_alpha   90.00970895
_cell_angle_beta   90.03661544
_cell_angle_gamma   90.02224421
_symmetry_Int_Tables_number   1
_chemical_formula_structural   Tb16Dy3Er(CoBi2)4
_chemical_formula_sum   'Tb16 Dy3 Er1 Co4 Bi8'
_cell_volume   890.28083159
_cell_formula_units_Z   1
loop_
 _symmetry_equiv_pos_site_id
 _symmetry_equiv_pos_as_xyz
  1  'x, y, z'
loop_
 _atom_site_type_symbol
 _atom_site_label
 _atom_site_symmetry_multiplicity
 _atom_site_fract_x
 _atom_site_fract_y
 _atom_site_fract_z
 _atom_site_occupancy
  Tb  Tb0  1  0.848174  0.749978  0.801666  1
  Tb  Tb1  1  0.151745  0.249975  0.198678  1
  Tb  Tb2  1  0.348602  0.250078  0.698158  1
  Tb  Tb3  1  0.651274  0.749884  0.301884  1
  Tb  Tb4  1  0.379334  0.749594  0.689306  1
  Tb  Tb5  1  0.619334  0.249981  0.310872  1
  Tb  Tb6  1  0.880473  0.249945  0.810149  1
  Tb  Tb7  1  0.120236  0.750319  0.190093  1
  Tb  Tb8  1  0.954653  0.750098  0.502404  1
  Tb  Tb9  1  0.048453  0.250166  0.497614  1
  Tb  Tb10  1  0.452623  0.249608  0.997761  1
  Tb  Tb11  1  0.545460  0.750133  0.002296  1
  Tb  Tb12  1  0.823006  0.034170  0.062930  1
  Tb  Tb13  1  0.676325  0.466333  0.562512  1
  Tb  Tb14  1  0.823194  0.466123  0.062702  1
  Tb  Tb15  1  0.177026  0.534315  0.937009  1
  Dy  Dy16  1  0.676060  0.033845  0.562902  1
  Dy  Dy17  1  0.323669  0.965459  0.436692  1
  Dy  Dy18  1  0.176014  0.965371  0.936838  1
  Er  Er19  1  0.325642  0.534605  0.436883  1
  Co  Co20  1  0.556886  0.749414  0.507421  1
  Co  Co21  1  0.440046  0.250366  0.492111  1
  Co  Co22  1  0.060132  0.249838  0.991911  1
  Co  Co23  1  0.941323  0.750227  0.008015  1
  Bi  Bi24  1  0.571239  0.492146  0.825777  1
  Bi  Bi25  1  0.428821  0.507762  0.174677  1
  Bi  Bi26  1  0.070866  0.507810  0.674265  1
  Bi  Bi27  1  0.428960  0.992189  0.174483  1
  Bi  Bi28  1  0.930150  0.492500  0.326145  1
  Bi  Bi29  1  0.570558  0.007663  0.825598  1
  Bi  Bi30  1  0.929315  0.007738  0.325913  1
  Bi  Bi31  1  0.070407  0.992365  0.674331  1
