# generated using pymatgen
data_PrY5(SnIr)6
_symmetry_space_group_name_H-M   'P 1'
_cell_length_a   7.51870414
_cell_length_b   7.49806056
_cell_length_c   8.01241400
_cell_angle_alpha   90.00000000
_cell_angle_beta   90.00000000
_cell_angle_gamma   119.90426022
_symmetry_Int_Tables_number   1
_chemical_formula_structural   PrY5(SnIr)6
_chemical_formula_sum   'Pr1 Y5 Sn6 Ir6'
_cell_volume   391.56523372
_cell_formula_units_Z   1
loop_
 _symmetry_equiv_pos_site_id
 _symmetry_equiv_pos_as_xyz
  1  'x, y, z'
loop_
 _atom_site_type_symbol
 _atom_site_label
 _atom_site_symmetry_multiplicity
 _atom_site_fract_x
 _atom_site_fract_y
 _atom_site_fract_z
 _atom_site_occupancy
  Pr  Pr0  1  0.999011  0.409930  0.250000  1
  Y  Y1  1  0.406052  0.001829  0.250000  1
  Y  Y2  1  0.595476  0.594255  0.750000  1
  Y  Y3  1  0.594280  0.594931  0.250000  1
  Y  Y4  1  0.000861  0.404855  0.750000  1
  Y  Y5  1  0.404228  0.997935  0.750000  1
  Sn  Sn6  1  0.259472  0.257394  0.501113  1
  Sn  Sn7  1  0.259472  0.257394  0.998887  1
  Sn  Sn8  1  0.740427  0.997589  0.998870  1
  Sn  Sn9  1  0.000113  0.743953  0.504006  1
  Sn  Sn10  1  0.740427  0.997589  0.501130  1
  Sn  Sn11  1  0.000113  0.743953  0.995994  1
  Ir  Ir12  1  0.664053  0.332253  0.505680  1
  Ir  Ir13  1  0.664053  0.332253  0.994320  1
  Ir  Ir14  1  0.335993  0.668312  0.996383  1
  Ir  Ir15  1  0.335993  0.668312  0.503617  1
  Ir  Ir16  1  0.000052  0.001281  0.750000  1
  Ir  Ir17  1  0.999922  0.995981  0.250000  1
