# generated using pymatgen
data_Yb5Pr13(ZrIr6)2
_symmetry_space_group_name_H-M   'P 1'
_cell_length_a   11.16532507
_cell_length_b   11.24531322
_cell_length_c   6.43031267
_cell_angle_alpha   89.91166966
_cell_angle_beta   90.18926243
_cell_angle_gamma   90.17378146
_symmetry_Int_Tables_number   1
_chemical_formula_structural   Yb5Pr13(ZrIr6)2
_chemical_formula_sum   'Yb5 Pr13 Zr2 Ir12'
_cell_volume   807.36541696
_cell_formula_units_Z   1
loop_
 _symmetry_equiv_pos_site_id
 _symmetry_equiv_pos_as_xyz
  1  'x, y, z'
loop_
 _atom_site_type_symbol
 _atom_site_label
 _atom_site_symmetry_multiplicity
 _atom_site_fract_x
 _atom_site_fract_y
 _atom_site_fract_z
 _atom_site_occupancy
  Yb  Yb0  1  0.289075  0.083904  0.378552  1
  Yb  Yb1  1  0.287206  0.916239  0.878869  1
  Yb  Yb2  1  0.710806  0.084997  0.879508  1
  Yb  Yb3  1  0.499939  0.499635  0.994059  1
  Yb  Yb4  1  0.499044  0.500808  0.495085  1
  Pr  Pr5  1  0.712665  0.915620  0.381432  1
  Pr  Pr6  1  0.582945  0.792493  0.879187  1
  Pr  Pr7  1  0.583727  0.209371  0.378065  1
  Pr  Pr8  1  0.409044  0.794149  0.378586  1
  Pr  Pr9  1  0.413700  0.206236  0.879113  1
  Pr  Pr10  1  0.212286  0.414085  0.620646  1
  Pr  Pr11  1  0.212828  0.584776  0.120208  1
  Pr  Pr12  1  0.788773  0.413776  0.120537  1
  Pr  Pr13  1  0.787412  0.585461  0.620225  1
  Pr  Pr14  1  0.912480  0.714884  0.123266  1
  Pr  Pr15  1  0.909079  0.283207  0.628077  1
  Pr  Pr16  1  0.089808  0.716319  0.624285  1
  Pr  Pr17  1  0.091006  0.283195  0.126751  1
  Zr  Zr18  1  0.004125  0.001514  0.495763  1
  Zr  Zr19  1  0.000201  0.000289  0.995929  1
  Ir  Ir20  1  0.865126  0.136408  0.250943  1
  Ir  Ir21  1  0.866483  0.862594  0.747119  1
  Ir  Ir22  1  0.135932  0.138258  0.751155  1
  Ir  Ir23  1  0.136491  0.862089  0.249523  1
  Ir  Ir24  1  0.653899  0.345201  0.748442  1
  Ir  Ir25  1  0.655285  0.656760  0.247862  1
  Ir  Ir26  1  0.345372  0.345368  0.246493  1
  Ir  Ir27  1  0.343873  0.653993  0.746215  1
  Ir  Ir28  1  0.500168  0.999977  0.120349  1
  Ir  Ir29  1  0.500689  0.999661  0.620684  1
  Ir  Ir30  1  0.000287  0.499630  0.886866  1
  Ir  Ir31  1  0.000247  0.499103  0.386203  1
