# generated using pymatgen
data_AlRhBr6
_symmetry_space_group_name_H-M   'P 1'
_cell_length_a   6.42537438
_cell_length_b   6.42537474
_cell_length_c   7.07695101
_cell_angle_alpha   81.34733065
_cell_angle_beta   81.34732634
_cell_angle_gamma   120.01589140
_symmetry_Int_Tables_number   1
_chemical_formula_structural   AlRhBr6
_chemical_formula_sum   'Al1 Rh1 Br6'
_cell_volume   241.26094717
_cell_formula_units_Z   1
loop_
 _symmetry_equiv_pos_site_id
 _symmetry_equiv_pos_as_xyz
  1  'x, y, z'
loop_
 _atom_site_type_symbol
 _atom_site_label
 _atom_site_symmetry_multiplicity
 _atom_site_fract_x
 _atom_site_fract_y
 _atom_site_fract_z
 _atom_site_occupancy
  Al  Al0  1  0.166746  0.833254  0.000000  1
  Rh  Rh1  1  0.833324  0.166676  0.000000  1
  Br  Br2  1  0.430670  0.074146  0.211686  1
  Br  Br3  1  0.925854  0.569330  0.788314  1
  Br  Br4  1  0.213683  0.214413  0.788034  1
  Br  Br5  1  0.785587  0.786317  0.211966  1
  Br  Br6  1  0.073303  0.429165  0.211697  1
  Br  Br7  1  0.570835  0.926697  0.788303  1
