# generated using pymatgen
data_CeY4Ho3(ReB6)4
_symmetry_space_group_name_H-M   'P 1'
_cell_length_a   3.69367500
_cell_length_b   9.18341637
_cell_length_c   11.56874500
_cell_angle_alpha   90.04951605
_cell_angle_beta   90.00000000
_cell_angle_gamma   90.00000000
_symmetry_Int_Tables_number   1
_chemical_formula_structural   CeY4Ho3(ReB6)4
_chemical_formula_sum   'Ce1 Y4 Ho3 Re4 B24'
_cell_volume   392.41810991
_cell_formula_units_Z   1
loop_
 _symmetry_equiv_pos_site_id
 _symmetry_equiv_pos_as_xyz
  1  'x, y, z'
loop_
 _atom_site_type_symbol
 _atom_site_label
 _atom_site_symmetry_multiplicity
 _atom_site_fract_x
 _atom_site_fract_y
 _atom_site_fract_z
 _atom_site_occupancy
  Ce  Ce0  1  0.000000  0.323378  0.414016  1
  Y  Y1  1  0.000000  0.677274  0.586788  1
  Y  Y2  1  0.000000  0.823213  0.085429  1
  Y  Y3  1  0.000000  0.176244  0.913928  1
  Y  Y4  1  0.000000  0.942747  0.370101  1
  Ho  Ho5  1  0.000000  0.056563  0.630638  1
  Ho  Ho6  1  0.000000  0.443269  0.129139  1
  Ho  Ho7  1  0.000000  0.557102  0.870312  1
  Re  Re8  1  0.000000  0.637601  0.320877  1
  Re  Re9  1  0.000000  0.361448  0.678886  1
  Re  Re10  1  0.000000  0.139561  0.179331  1
  Re  Re11  1  0.000000  0.861336  0.820759  1
  B  B12  1  0.500000  0.553808  0.432224  1
  B  B13  1  0.500000  0.446026  0.567967  1
  B  B14  1  0.500000  0.053419  0.066941  1
  B  B15  1  0.500000  0.946611  0.932769  1
  B  B16  1  0.500000  0.749291  0.418294  1
  B  B17  1  0.500000  0.250999  0.582689  1
  B  B18  1  0.500000  0.248976  0.081078  1
  B  B19  1  0.500000  0.750753  0.918299  1
  B  B20  1  0.500000  0.791681  0.265420  1
  B  B21  1  0.500000  0.208157  0.734942  1
  B  B22  1  0.500000  0.291370  0.233698  1
  B  B23  1  0.500000  0.707991  0.765727  1
  B  B24  1  0.500000  0.631247  0.185183  1
  B  B25  1  0.500000  0.369568  0.814519  1
  B  B26  1  0.500000  0.131083  0.313522  1
  B  B27  1  0.500000  0.869108  0.686032  1
  B  B28  1  0.500000  0.982658  0.211402  1
  B  B29  1  0.500000  0.017158  0.788101  1
  B  B30  1  0.500000  0.483742  0.287387  1
  B  B31  1  0.500000  0.517581  0.712906  1
  B  B32  1  0.500000  0.600770  0.027875  1
  B  B33  1  0.500000  0.399601  0.971613  1
  B  B34  1  0.500000  0.099972  0.472431  1
  B  B35  1  0.500000  0.898696  0.528775  1
