# generated using pymatgen
data_La3AlSiIr2
_symmetry_space_group_name_H-M   'P 1'
_cell_length_a   5.78982700
_cell_length_b   8.11189400
_cell_length_c   13.66380200
_cell_angle_alpha   90.00000000
_cell_angle_beta   90.00000000
_cell_angle_gamma   90.00000000
_symmetry_Int_Tables_number   1
_chemical_formula_structural   La3AlSiIr2
_chemical_formula_sum   'La12 Al4 Si4 Ir8'
_cell_volume   641.74044974
_cell_formula_units_Z   4
loop_
 _symmetry_equiv_pos_site_id
 _symmetry_equiv_pos_as_xyz
  1  'x, y, z'
loop_
 _atom_site_type_symbol
 _atom_site_label
 _atom_site_symmetry_multiplicity
 _atom_site_fract_x
 _atom_site_fract_y
 _atom_site_fract_z
 _atom_site_occupancy
  La  La0  1  0.638165  0.250344  0.250000  1
  La  La1  1  0.361835  0.749656  0.750000  1
  La  La2  1  0.361835  0.750344  0.250000  1
  La  La3  1  0.638165  0.249656  0.750000  1
  La  La4  1  0.144092  0.397067  0.101408  1
  La  La5  1  0.855908  0.602933  0.898592  1
  La  La6  1  0.855908  0.602933  0.601408  1
  La  La7  1  0.855908  0.897067  0.398592  1
  La  La8  1  0.144092  0.397067  0.398592  1
  La  La9  1  0.144092  0.102933  0.601408  1
  La  La10  1  0.144092  0.102933  0.898592  1
  La  La11  1  0.855908  0.897067  0.101408  1
  Al  Al12  1  0.611282  0.250000  0.000000  1
  Al  Al13  1  0.388718  0.750000  0.000000  1
  Al  Al14  1  0.388718  0.750000  0.500000  1
  Al  Al15  1  0.611282  0.250000  0.500000  1
  Si  Si16  1  0.152562  0.103491  0.250000  1
  Si  Si17  1  0.847438  0.896509  0.750000  1
  Si  Si18  1  0.847438  0.603491  0.250000  1
  Si  Si19  1  0.152562  0.396509  0.750000  1
  Ir  Ir20  1  0.362630  0.028712  0.093349  1
  Ir  Ir21  1  0.637370  0.971288  0.906651  1
  Ir  Ir22  1  0.637370  0.971288  0.593349  1
  Ir  Ir23  1  0.637370  0.528712  0.406651  1
  Ir  Ir24  1  0.362630  0.028712  0.406651  1
  Ir  Ir25  1  0.362630  0.471288  0.593349  1
  Ir  Ir26  1  0.362630  0.471288  0.906651  1
  Ir  Ir27  1  0.637370  0.528712  0.093349  1
