# generated using pymatgen
data_Sc3ZnGa2
_symmetry_space_group_name_H-M   'P 1'
_cell_length_a   4.74951056
_cell_length_b   4.74950971
_cell_length_c   5.80769373
_cell_angle_alpha   90.19257266
_cell_angle_beta   89.80742846
_cell_angle_gamma   120.14407143
_symmetry_Int_Tables_number   1
_chemical_formula_structural   Sc3ZnGa2
_chemical_formula_sum   'Sc3 Zn1 Ga2'
_cell_volume   113.29125446
_cell_formula_units_Z   1
loop_
 _symmetry_equiv_pos_site_id
 _symmetry_equiv_pos_as_xyz
  1  'x, y, z'
loop_
 _atom_site_type_symbol
 _atom_site_label
 _atom_site_symmetry_multiplicity
 _atom_site_fract_x
 _atom_site_fract_y
 _atom_site_fract_z
 _atom_site_occupancy
  Sc  Sc0  1  0.000000  0.000000  0.500000  1
  Sc  Sc1  1  0.666779  0.333221  0.175437  1
  Sc  Sc2  1  0.333221  0.666779  0.824563  1
  Zn  Zn3  1  0.000000  0.000000  0.000000  1
  Ga  Ga4  1  0.333263  0.666737  0.317434  1
  Ga  Ga5  1  0.666737  0.333263  0.682566  1
