# generated using pymatgen
data_Tb7Ho3IrRu3
_symmetry_space_group_name_H-M   'P 1'
_cell_length_a   6.38153322
_cell_length_b   7.30710289
_cell_length_c   8.51342718
_cell_angle_alpha   96.70817925
_cell_angle_beta   112.13855147
_cell_angle_gamma   90.06735480
_symmetry_Int_Tables_number   1
_chemical_formula_structural   Tb7Ho3IrRu3
_chemical_formula_sum   'Tb7 Ho3 Ir1 Ru3'
_cell_volume   364.75947081
_cell_formula_units_Z   1
loop_
 _symmetry_equiv_pos_site_id
 _symmetry_equiv_pos_as_xyz
  1  'x, y, z'
loop_
 _atom_site_type_symbol
 _atom_site_label
 _atom_site_symmetry_multiplicity
 _atom_site_fract_x
 _atom_site_fract_y
 _atom_site_fract_z
 _atom_site_occupancy
  Tb  Tb0  1  0.977997  0.917823  0.185339  1
  Tb  Tb1  1  0.791830  0.584976  0.812934  1
  Tb  Tb2  1  0.021815  0.085119  0.814010  1
  Tb  Tb3  1  0.209711  0.414111  0.185238  1
  Tb  Tb4  1  0.641273  0.815796  0.434749  1
  Tb  Tb5  1  0.207718  0.684610  0.566606  1
  Tb  Tb6  1  0.358294  0.185631  0.565862  1
  Ho  Ho7  1  0.792933  0.314091  0.435137  1
  Ho  Ho8  1  0.421615  0.750260  0.000227  1
  Ho  Ho9  1  0.578066  0.248766  0.999423  1
  Ir  Ir10  1  0.820704  0.574737  0.220820  1
  Ru  Ru11  1  0.604185  0.923395  0.780373  1
  Ru  Ru12  1  0.175219  0.424783  0.779049  1
  Ru  Ru13  1  0.398642  0.075902  0.220232  1
