# generated using pymatgen
data_Sm5Dy3Sc12Si15Au
_symmetry_space_group_name_H-M   'P 1'
_cell_length_a   7.17557505
_cell_length_b   7.42500202
_cell_length_c   14.14925456
_cell_angle_alpha   89.89059857
_cell_angle_beta   89.76568104
_cell_angle_gamma   90.22851061
_symmetry_Int_Tables_number   1
_chemical_formula_structural   Sm5Dy3Sc12Si15Au
_chemical_formula_sum   'Sm5 Dy3 Sc12 Si15 Au1'
_cell_volume   753.83961511
_cell_formula_units_Z   1
loop_
 _symmetry_equiv_pos_site_id
 _symmetry_equiv_pos_as_xyz
  1  'x, y, z'
loop_
 _atom_site_type_symbol
 _atom_site_label
 _atom_site_symmetry_multiplicity
 _atom_site_fract_x
 _atom_site_fract_y
 _atom_site_fract_z
 _atom_site_occupancy
  Sm  Sm0  1  0.011970  0.173883  0.097863  1
  Sm  Sm1  1  0.988187  0.827112  0.903153  1
  Sm  Sm2  1  0.487407  0.674489  0.903718  1
  Sm  Sm3  1  0.988496  0.829178  0.596580  1
  Sm  Sm4  1  0.511805  0.325878  0.096755  1
  Dy  Dy5  1  0.010645  0.175225  0.399182  1
  Dy  Dy6  1  0.510172  0.324212  0.400266  1
  Dy  Dy7  1  0.490850  0.676166  0.599050  1
  Sc  Sc8  1  0.162922  0.500034  0.750656  1
  Sc  Sc9  1  0.837481  0.499328  0.251576  1
  Sc  Sc10  1  0.337966  0.999182  0.250051  1
  Sc  Sc11  1  0.664163  0.998267  0.750696  1
  Sc  Sc12  1  0.339291  0.176931  0.625353  1
  Sc  Sc13  1  0.666256  0.823302  0.374070  1
  Sc  Sc14  1  0.169053  0.672356  0.373730  1
  Sc  Sc15  1  0.670547  0.824625  0.126104  1
  Sc  Sc16  1  0.827583  0.325957  0.624468  1
  Sc  Sc17  1  0.328881  0.174787  0.875480  1
  Sc  Sc18  1  0.830109  0.323166  0.875493  1
  Sc  Sc19  1  0.169271  0.675943  0.126018  1
  Si  Si20  1  0.036211  0.123424  0.750110  1
  Si  Si21  1  0.966042  0.880928  0.250676  1
  Si  Si22  1  0.466242  0.618066  0.249435  1
  Si  Si23  1  0.535821  0.382520  0.751513  1
  Si  Si24  1  0.287219  0.877644  0.749488  1
  Si  Si25  1  0.712147  0.124999  0.251056  1
  Si  Si26  1  0.213918  0.373881  0.250230  1
  Si  Si27  1  0.786236  0.623021  0.751082  1
  Si  Si28  1  0.834893  0.535036  0.458363  1
  Si  Si29  1  0.342633  0.963728  0.459663  1
  Si  Si30  1  0.846494  0.536817  0.039207  1
  Si  Si31  1  0.654158  0.037289  0.537012  1
  Si  Si32  1  0.152601  0.463232  0.961569  1
  Si  Si33  1  0.654220  0.036134  0.961060  1
  Si  Si34  1  0.345592  0.962973  0.039632  1
  Au  Au35  1  0.162517  0.460287  0.539641  1
