# generated using pymatgen
data_Cs2PrSm5(CBr6)2
_symmetry_space_group_name_H-M   'P 1'
_cell_length_a   8.99756406
_cell_length_b   9.03342442
_cell_length_c   9.68165335
_cell_angle_alpha   70.53351197
_cell_angle_beta   85.31246446
_cell_angle_gamma   89.27440931
_symmetry_Int_Tables_number   1
_chemical_formula_structural   Cs2PrSm5(CBr6)2
_chemical_formula_sum   'Cs2 Pr1 Sm5 C2 Br12'
_cell_volume   739.36013165
_cell_formula_units_Z   1
loop_
 _symmetry_equiv_pos_site_id
 _symmetry_equiv_pos_as_xyz
  1  'x, y, z'
loop_
 _atom_site_type_symbol
 _atom_site_label
 _atom_site_symmetry_multiplicity
 _atom_site_fract_x
 _atom_site_fract_y
 _atom_site_fract_z
 _atom_site_occupancy
  Cs  Cs0  1  0.469386  0.358978  0.331556  1
  Cs  Cs1  1  0.530118  0.641127  0.668104  1
  Pr  Pr2  1  0.914198  0.734834  0.004968  1
  Sm  Sm3  1  0.085814  0.260310  0.995519  1
  Sm  Sm4  1  0.740060  0.085616  0.000911  1
  Sm  Sm5  1  0.259499  0.913016  0.998962  1
  Sm  Sm6  1  0.975542  0.884583  0.324748  1
  Sm  Sm7  1  0.024621  0.117728  0.674885  1
  C  C8  1  0.006252  0.028821  0.922157  1
  C  C9  1  0.994774  0.974819  0.077195  1
  Br  Br10  1  0.079974  0.195679  0.325492  1
  Br  Br11  1  0.920860  0.808293  0.668300  1
  Br  Br12  1  0.214936  0.589980  0.000378  1
  Br  Br13  1  0.792583  0.404870  0.998898  1
  Br  Br14  1  0.404358  0.200755  0.002627  1
  Br  Br15  1  0.590518  0.800605  0.997547  1
  Br  Br16  1  0.668470  0.999710  0.324495  1
  Br  Br17  1  0.330580  0.001107  0.674449  1
  Br  Br18  1  0.281959  0.772009  0.322001  1
  Br  Br19  1  0.717063  0.226940  0.678607  1
  Br  Br20  1  0.848342  0.586984  0.333850  1
  Br  Br21  1  0.150089  0.413238  0.674351  1
