# generated using pymatgen
data_Tm10Ga2Bi3Sb
_symmetry_space_group_name_H-M   'P 1'
_cell_length_a   8.76378941
_cell_length_b   8.86035335
_cell_length_c   6.39874800
_cell_angle_alpha   90.00000000
_cell_angle_beta   90.00000000
_cell_angle_gamma   119.88628459
_symmetry_Int_Tables_number   1
_chemical_formula_structural   Tm10Ga2Bi3Sb
_chemical_formula_sum   'Tm10 Ga2 Bi3 Sb1'
_cell_volume   430.78951017
_cell_formula_units_Z   1
loop_
 _symmetry_equiv_pos_site_id
 _symmetry_equiv_pos_as_xyz
  1  'x, y, z'
loop_
 _atom_site_type_symbol
 _atom_site_label
 _atom_site_symmetry_multiplicity
 _atom_site_fract_x
 _atom_site_fract_y
 _atom_site_fract_z
 _atom_site_occupancy
  Tm  Tm0  1  0.344017  0.691164  0.998969  1
  Tm  Tm1  1  0.656036  0.306880  0.501594  1
  Tm  Tm2  1  0.656036  0.306880  0.998406  1
  Tm  Tm3  1  0.344017  0.691164  0.501031  1
  Tm  Tm4  1  0.245265  0.000139  0.250000  1
  Tm  Tm5  1  0.757325  0.003294  0.750000  1
  Tm  Tm6  1  0.982052  0.227645  0.250000  1
  Tm  Tm7  1  0.756548  0.775322  0.250000  1
  Tm  Tm8  1  0.240895  0.226671  0.750000  1
  Tm  Tm9  1  0.018272  0.770802  0.750000  1
  Ga  Ga10  1  0.601984  0.999285  0.250000  1
  Ga  Ga11  1  0.397229  0.000576  0.750000  1
  Bi  Bi12  1  0.991692  0.604989  0.250000  1
  Bi  Bi13  1  0.388387  0.395534  0.250000  1
  Bi  Bi14  1  0.612903  0.605290  0.750000  1
  Sb  Sb15  1  0.007343  0.394366  0.750000  1
