# generated using pymatgen
data_Er2Pa2Al24Pt7Rh2
_symmetry_space_group_name_H-M   'P 1'
_cell_length_a   7.54450003
_cell_length_b   7.54317290
_cell_length_c   13.10006043
_cell_angle_alpha   84.50891970
_cell_angle_beta   101.06562775
_cell_angle_gamma   119.88012262
_symmetry_Int_Tables_number   1
_chemical_formula_structural   Er2Pa2Al24Pt7Rh2
_chemical_formula_sum   'Er2 Pa2 Al24 Pt7 Rh2'
_cell_volume   634.39739178
_cell_formula_units_Z   1
loop_
 _symmetry_equiv_pos_site_id
 _symmetry_equiv_pos_as_xyz
  1  'x, y, z'
loop_
 _atom_site_type_symbol
 _atom_site_label
 _atom_site_symmetry_multiplicity
 _atom_site_fract_x
 _atom_site_fract_y
 _atom_site_fract_z
 _atom_site_occupancy
  Er  Er0  1  0.061508  0.667425  0.191144  1
  Er  Er1  1  0.937837  0.331881  0.808904  1
  Pa  Pa2  1  0.732721  0.998960  0.193646  1
  Pa  Pa3  1  0.267394  0.000836  0.806133  1
  Al  Al4  1  0.810633  0.869521  0.818710  1
  Al  Al5  1  0.189953  0.129824  0.181327  1
  Al  Al6  1  0.985855  0.668345  0.946320  1
  Al  Al7  1  0.021166  0.335207  0.053526  1
  Al  Al8  1  0.398308  0.664033  0.820295  1
  Al  Al9  1  0.598916  0.335037  0.181862  1
  Al  Al10  1  0.879758  0.662775  0.671269  1
  Al  Al11  1  0.120791  0.337220  0.328595  1
  Al  Al12  1  0.602013  0.460125  0.817686  1
  Al  Al13  1  0.397204  0.542614  0.180234  1
  Al  Al14  1  0.230492  0.343470  0.669468  1
  Al  Al15  1  0.769493  0.656411  0.330365  1
  Al  Al16  1  0.852749  0.334486  0.558829  1
  Al  Al17  1  0.186550  0.999521  0.558053  1
  Al  Al18  1  0.813948  0.000683  0.441980  1
  Al  Al19  1  0.346923  0.994928  0.054156  1
  Al  Al20  1  0.649658  0.998462  0.945942  1
  Al  Al21  1  0.559226  0.993083  0.670784  1
  Al  Al22  1  0.441036  0.006409  0.329758  1
  Al  Al23  1  0.519808  0.666513  0.561329  1
  Al  Al24  1  0.480329  0.333735  0.438584  1
  Al  Al25  1  0.683471  0.671025  0.044531  1
  Al  Al26  1  0.312807  0.332185  0.955172  1
  Al  Al27  1  0.147467  0.665369  0.441338  1
  Pt  Pt28  1  0.545528  0.323944  0.638231  1
  Pt  Pt29  1  0.454821  0.675845  0.361492  1
  Pt  Pt30  1  0.889309  0.008837  0.639717  1
  Pt  Pt31  1  0.110905  0.991059  0.360317  1
  Pt  Pt32  1  0.672138  0.327822  0.999955  1
  Pt  Pt33  1  0.204514  0.667561  0.640100  1
  Pt  Pt34  1  0.796197  0.332356  0.360191  1
  Rh  Rh35  1  0.328595  0.672409  0.000059  1
  Rh  Rh36  1  0.999980  0.000086  0.000001  1
