# generated using pymatgen
data_ScFe5(BO5)2
_symmetry_space_group_name_H-M   'P 1'
_cell_length_a   3.14829300
_cell_length_b   9.65503000
_cell_length_c   12.57655500
_cell_angle_alpha   90.00000000
_cell_angle_beta   90.00000000
_cell_angle_gamma   90.00000000
_symmetry_Int_Tables_number   1
_chemical_formula_structural   ScFe5(BO5)2
_chemical_formula_sum   'Sc2 Fe10 B4 O20'
_cell_volume   382.28782392
_cell_formula_units_Z   2
loop_
 _symmetry_equiv_pos_site_id
 _symmetry_equiv_pos_as_xyz
  1  'x, y, z'
loop_
 _atom_site_type_symbol
 _atom_site_label
 _atom_site_symmetry_multiplicity
 _atom_site_fract_x
 _atom_site_fract_y
 _atom_site_fract_z
 _atom_site_occupancy
  Sc  Sc0  1  0.500000  0.742171  0.384821  1
  Sc  Sc1  1  0.500000  0.757829  0.884821  1
  Fe  Fe2  1  0.500000  0.498261  0.000289  1
  Fe  Fe3  1  0.500000  0.001739  0.500289  1
  Fe  Fe4  1  0.000000  0.003443  0.723712  1
  Fe  Fe5  1  0.000000  0.000739  0.276123  1
  Fe  Fe6  1  0.000000  0.496557  0.223712  1
  Fe  Fe7  1  0.000000  0.499261  0.776123  1
  Fe  Fe8  1  0.000000  0.496972  0.500216  1
  Fe  Fe9  1  0.500000  0.256180  0.614525  1
  Fe  Fe10  1  0.500000  0.243820  0.114525  1
  Fe  Fe11  1  0.000000  0.003028  0.000216  1
  B  B12  1  0.500000  0.731218  0.637459  1
  B  B13  1  0.500000  0.768782  0.137459  1
  B  B14  1  0.500000  0.233837  0.862119  1
  B  B15  1  0.500000  0.266163  0.362119  1
  O  O16  1  0.500000  0.656979  0.542661  1
  O  O17  1  0.500000  0.376962  0.860928  1
  O  O18  1  0.000000  0.113241  0.140780  1
  O  O19  1  0.000000  0.119045  0.583521  1
  O  O20  1  0.500000  0.338132  0.265649  1
  O  O21  1  0.500000  0.624731  0.139136  1
  O  O22  1  0.000000  0.380955  0.083521  1
  O  O23  1  0.000000  0.604918  0.358889  1
  O  O24  1  0.000000  0.895082  0.858889  1
  O  O25  1  0.000000  0.614344  0.918247  1
  O  O26  1  0.000000  0.885656  0.418247  1
  O  O27  1  0.500000  0.842031  0.232811  1
  O  O28  1  0.500000  0.339836  0.458116  1
  O  O29  1  0.500000  0.657969  0.732811  1
  O  O30  1  0.500000  0.160164  0.958116  1
  O  O31  1  0.500000  0.843021  0.042661  1
  O  O32  1  0.000000  0.386759  0.640780  1
  O  O33  1  0.500000  0.123038  0.360928  1
  O  O34  1  0.500000  0.161868  0.765649  1
  O  O35  1  0.500000  0.875269  0.639136  1
