# generated using pymatgen
data_Tb3CdCu(HgAu)2
_symmetry_space_group_name_H-M   'P 1'
_cell_length_a   7.87909135
_cell_length_b   7.87909142
_cell_length_c   3.76665900
_cell_angle_alpha   90.00000000
_cell_angle_beta   90.00000000
_cell_angle_gamma   120.71495395
_symmetry_Int_Tables_number   1
_chemical_formula_structural   Tb3CdCu(HgAu)2
_chemical_formula_sum   'Tb3 Cd1 Cu1 Hg2 Au2'
_cell_volume   201.03195739
_cell_formula_units_Z   1
loop_
 _symmetry_equiv_pos_site_id
 _symmetry_equiv_pos_as_xyz
  1  'x, y, z'
loop_
 _atom_site_type_symbol
 _atom_site_label
 _atom_site_symmetry_multiplicity
 _atom_site_fract_x
 _atom_site_fract_y
 _atom_site_fract_z
 _atom_site_occupancy
  Tb  Tb0  1  0.595423  0.008576  0.000000  1
  Tb  Tb1  1  0.008576  0.595423  0.000000  1
  Tb  Tb2  1  0.393243  0.393243  0.000000  1
  Cd  Cd3  1  0.749525  0.749525  0.500000  1
  Cu  Cu4  1  0.997564  0.997564  0.000000  1
  Hg  Hg5  1  0.251909  0.993689  0.500000  1
  Hg  Hg6  1  0.993689  0.251909  0.500000  1
  Au  Au7  1  0.343075  0.666998  0.500000  1
  Au  Au8  1  0.666998  0.343075  0.500000  1
