# generated using pymatgen
data_RbNp(PO4)2
_symmetry_space_group_name_H-M   'P 1'
_cell_length_a   5.30710670
_cell_length_b   5.30710730
_cell_length_c   8.79966376
_cell_angle_alpha   87.10148349
_cell_angle_beta   87.10148336
_cell_angle_gamma   62.89769462
_symmetry_Int_Tables_number   1
_chemical_formula_structural   RbNp(PO4)2
_chemical_formula_sum   'Rb1 Np1 P2 O8'
_cell_volume   220.24313885
_cell_formula_units_Z   1
loop_
 _symmetry_equiv_pos_site_id
 _symmetry_equiv_pos_as_xyz
  1  'x, y, z'
loop_
 _atom_site_type_symbol
 _atom_site_label
 _atom_site_symmetry_multiplicity
 _atom_site_fract_x
 _atom_site_fract_y
 _atom_site_fract_z
 _atom_site_occupancy
  Rb  Rb0  1  0.000000  0.000000  0.000000  1
  Np  Np1  1  0.000000  0.000000  0.500000  1
  P  P2  1  0.642201  0.642201  0.708499  1
  P  P3  1  0.357799  0.357799  0.291501  1
  O  O4  1  0.314296  0.314296  0.130592  1
  O  O5  1  0.321101  0.774568  0.667801  1
  O  O6  1  0.678899  0.225432  0.332199  1
  O  O7  1  0.774568  0.321101  0.667801  1
  O  O8  1  0.225432  0.678899  0.332199  1
  O  O9  1  0.685704  0.685704  0.869408  1
  O  O10  1  0.220018  0.220018  0.412816  1
  O  O11  1  0.779982  0.779982  0.587184  1
