# generated using pymatgen
data_Lu3In2GaPd3
_symmetry_space_group_name_H-M   'P 1'
_cell_length_a   7.56337014
_cell_length_b   7.69364300
_cell_length_c   3.69794500
_cell_angle_alpha   90.00000000
_cell_angle_beta   90.00000000
_cell_angle_gamma   120.57142843
_symmetry_Int_Tables_number   1
_chemical_formula_structural   Lu3In2GaPd3
_chemical_formula_sum   'Lu3 In2 Ga1 Pd3'
_cell_volume   185.27159781
_cell_formula_units_Z   1
loop_
 _symmetry_equiv_pos_site_id
 _symmetry_equiv_pos_as_xyz
  1  'x, y, z'
loop_
 _atom_site_type_symbol
 _atom_site_label
 _atom_site_symmetry_multiplicity
 _atom_site_fract_x
 _atom_site_fract_y
 _atom_site_fract_z
 _atom_site_occupancy
  Lu  Lu0  1  0.000000  0.425788  0.500000  1
  Lu  Lu1  1  0.606101  0.597274  0.500000  1
  Lu  Lu2  1  0.393899  0.991174  0.500000  1
  In  In3  1  0.254122  0.264109  0.000000  1
  In  In4  1  0.745878  0.009987  0.000000  1
  Ga  Ga5  1  0.000000  0.731186  0.000000  1
  Pd  Pd6  1  0.331796  0.670938  0.000000  1
  Pd  Pd7  1  0.668204  0.339142  0.000000  1
  Pd  Pd8  1  0.000000  0.970402  0.500000  1
