# generated using pymatgen
data_Ti12FeTc6Ir5
_symmetry_space_group_name_H-M   'P 1'
_cell_length_a   4.37632200
_cell_length_b   6.18892200
_cell_length_c   13.14833100
_cell_angle_alpha   89.99994608
_cell_angle_beta   89.99984301
_cell_angle_gamma   89.99997765
_symmetry_Int_Tables_number   1
_chemical_formula_structural   Ti12FeTc6Ir5
_chemical_formula_sum   'Ti12 Fe1 Tc6 Ir5'
_cell_volume   356.11880450
_cell_formula_units_Z   1
loop_
 _symmetry_equiv_pos_site_id
 _symmetry_equiv_pos_as_xyz
  1  'x, y, z'
loop_
 _atom_site_type_symbol
 _atom_site_label
 _atom_site_symmetry_multiplicity
 _atom_site_fract_x
 _atom_site_fract_y
 _atom_site_fract_z
 _atom_site_occupancy
  Ti  Ti0  1  0.500001  0.257303  0.000000  1
  Ti  Ti1  1  0.499999  0.742698  0.000000  1
  Ti  Ti2  1  0.000048  0.252990  0.162329  1
  Ti  Ti3  1  0.000048  0.747008  0.162328  1
  Ti  Ti4  1  0.500051  0.249805  0.332256  1
  Ti  Ti5  1  0.500050  0.750194  0.332256  1
  Ti  Ti6  1  0.000000  0.249538  0.500000  1
  Ti  Ti7  1  0.000000  0.750461  0.500000  1
  Ti  Ti8  1  0.499949  0.249807  0.667744  1
  Ti  Ti9  1  0.499948  0.750196  0.667744  1
  Ti  Ti10  1  0.999952  0.252992  0.837671  1
  Ti  Ti11  1  0.999952  0.747010  0.837670  1
  Fe  Fe12  1  0.000000  0.500000  0.000000  1
  Tc  Tc13  1  0.000000  0.000000  0.000000  1
  Tc  Tc14  1  0.500048  0.500000  0.165799  1
  Tc  Tc15  1  0.000046  0.000000  0.332582  1
  Tc  Tc16  1  0.500000  0.500000  0.500000  1
  Tc  Tc17  1  0.999954  0.000000  0.667417  1
  Tc  Tc18  1  0.499952  0.500000  0.834200  1
  Ir  Ir19  1  0.500041  0.000000  0.165856  1
  Ir  Ir20  1  0.000038  0.500000  0.332802  1
  Ir  Ir21  1  0.500000  0.000000  0.500000  1
  Ir  Ir22  1  0.999961  0.500000  0.667199  1
  Ir  Ir23  1  0.499959  0.000000  0.834144  1
