# generated using pymatgen
data_Ta6Ga3IrN2
_symmetry_space_group_name_H-M   'P 1'
_cell_length_a   7.01033523
_cell_length_b   7.01197193
_cell_length_c   7.04968500
_cell_angle_alpha   90.00000000
_cell_angle_beta   90.00000000
_cell_angle_gamma   90.58526701
_symmetry_Int_Tables_number   1
_chemical_formula_structural   Ta6Ga3IrN2
_chemical_formula_sum   'Ta12 Ga6 Ir2 N4'
_cell_volume   346.51816733
_cell_formula_units_Z   2
loop_
 _symmetry_equiv_pos_site_id
 _symmetry_equiv_pos_as_xyz
  1  'x, y, z'
loop_
 _atom_site_type_symbol
 _atom_site_label
 _atom_site_symmetry_multiplicity
 _atom_site_fract_x
 _atom_site_fract_y
 _atom_site_fract_z
 _atom_site_occupancy
  Ta  Ta0  1  0.793791  0.956169  0.375477  1
  Ta  Ta1  1  0.706209  0.043831  0.875477  1
  Ta  Ta2  1  0.208794  0.453174  0.123135  1
  Ta  Ta3  1  0.291206  0.546826  0.623135  1
  Ta  Ta4  1  0.957401  0.380893  0.790259  1
  Ta  Ta5  1  0.047628  0.876607  0.708152  1
  Ta  Ta6  1  0.452372  0.123393  0.208152  1
  Ta  Ta7  1  0.542599  0.619107  0.290259  1
  Ta  Ta8  1  0.378309  0.793030  0.956451  1
  Ta  Ta9  1  0.876778  0.708036  0.046467  1
  Ta  Ta10  1  0.121691  0.206970  0.456451  1
  Ta  Ta11  1  0.623222  0.291964  0.546467  1
  Ga  Ga12  1  0.820376  0.319667  0.178393  1
  Ga  Ga13  1  0.679624  0.680333  0.678393  1
  Ga  Ga14  1  0.564373  0.428865  0.929693  1
  Ga  Ga15  1  0.426840  0.931515  0.568200  1
  Ga  Ga16  1  0.935627  0.571135  0.429693  1
  Ga  Ga17  1  0.073160  0.068485  0.068200  1
  Ir  Ir18  1  0.181221  0.822587  0.317837  1
  Ir  Ir19  1  0.318779  0.177413  0.817837  1
  N  N20  1  0.875548  0.122858  0.628291  1
  N  N21  1  0.624452  0.877142  0.128291  1
  N  N22  1  0.129819  0.627821  0.877647  1
  N  N23  1  0.370181  0.372179  0.377647  1
