# generated using pymatgen
data_Sc22Tc5Hg2Ir
_symmetry_space_group_name_H-M   'P 1'
_cell_length_a   9.69686557
_cell_length_b   9.69686596
_cell_length_c   9.53143600
_cell_angle_alpha   60.56275856
_cell_angle_beta   60.56275726
_cell_angle_gamma   58.87448416
_symmetry_Int_Tables_number   1
_chemical_formula_structural   Sc22Tc5Hg2Ir
_chemical_formula_sum   'Sc22 Tc5 Hg2 Ir1'
_cell_volume   633.36995279
_cell_formula_units_Z   1
loop_
 _symmetry_equiv_pos_site_id
 _symmetry_equiv_pos_as_xyz
  1  'x, y, z'
loop_
 _atom_site_type_symbol
 _atom_site_label
 _atom_site_symmetry_multiplicity
 _atom_site_fract_x
 _atom_site_fract_y
 _atom_site_fract_z
 _atom_site_occupancy
  Sc  Sc0  1  0.803307  0.803307  0.196693  1
  Sc  Sc1  1  0.194215  0.805785  0.194215  1
  Sc  Sc2  1  0.805785  0.194215  0.194215  1
  Sc  Sc3  1  0.196693  0.196693  0.803307  1
  Sc  Sc4  1  0.805785  0.194215  0.805785  1
  Sc  Sc5  1  0.194215  0.805785  0.805785  1
  Sc  Sc6  1  0.620406  0.620406  0.151854  1
  Sc  Sc7  1  0.607332  0.151854  0.620406  1
  Sc  Sc8  1  0.151854  0.607332  0.620406  1
  Sc  Sc9  1  0.620406  0.620406  0.607332  1
  Sc  Sc10  1  0.379594  0.379594  0.848146  1
  Sc  Sc11  1  0.392668  0.848146  0.379594  1
  Sc  Sc12  1  0.848146  0.392668  0.379594  1
  Sc  Sc13  1  0.379594  0.379594  0.392668  1
  Sc  Sc14  1  0.835810  0.835810  0.471039  1
  Sc  Sc15  1  0.857339  0.471039  0.835810  1
  Sc  Sc16  1  0.471039  0.857339  0.835810  1
  Sc  Sc17  1  0.835810  0.835810  0.857339  1
  Sc  Sc18  1  0.164190  0.164190  0.528961  1
  Sc  Sc19  1  0.142661  0.528961  0.164190  1
  Sc  Sc20  1  0.528961  0.142661  0.164190  1
  Sc  Sc21  1  0.164190  0.164190  0.142661  1
  Tc  Tc22  1  0.000000  0.000000  0.000000  1
  Tc  Tc23  1  0.500000  0.000000  0.500000  1
  Tc  Tc24  1  0.000000  0.500000  0.500000  1
  Tc  Tc25  1  0.000000  0.500000  0.000000  1
  Tc  Tc26  1  0.500000  0.000000  0.000000  1
  Hg  Hg27  1  0.000000  0.000000  0.500000  1
  Hg  Hg28  1  0.500000  0.500000  0.000000  1
  Ir  Ir29  1  0.500000  0.500000  0.500000  1
