# generated using pymatgen
data_Li4Tb3YSi8
_symmetry_space_group_name_H-M   'P 1'
_cell_length_a   3.80407900
_cell_length_b   7.59597049
_cell_length_c   10.21291655
_cell_angle_alpha   90.00523634
_cell_angle_beta   90.00000000
_cell_angle_gamma   90.00000000
_symmetry_Int_Tables_number   1
_chemical_formula_structural   Li4Tb3YSi8
_chemical_formula_sum   'Li4 Tb3 Y1 Si8'
_cell_volume   295.10908358
_cell_formula_units_Z   1
loop_
 _symmetry_equiv_pos_site_id
 _symmetry_equiv_pos_as_xyz
  1  'x, y, z'
loop_
 _atom_site_type_symbol
 _atom_site_label
 _atom_site_symmetry_multiplicity
 _atom_site_fract_x
 _atom_site_fract_y
 _atom_site_fract_z
 _atom_site_occupancy
  Li  Li0  1  0.250000  0.989123  0.391778  1
  Li  Li1  1  0.250000  0.490693  0.108241  1
  Li  Li2  1  0.750000  0.009837  0.608038  1
  Li  Li3  1  0.750000  0.509405  0.891552  1
  Tb  Tb4  1  0.250000  0.140058  0.864343  1
  Tb  Tb5  1  0.250000  0.639393  0.635713  1
  Tb  Tb6  1  0.750000  0.860628  0.136168  1
  Y  Y7  1  0.750000  0.360798  0.364124  1
  Si  Si8  1  0.250000  0.232136  0.567865  1
  Si  Si9  1  0.250000  0.731922  0.931354  1
  Si  Si10  1  0.750000  0.767423  0.431350  1
  Si  Si11  1  0.750000  0.268884  0.069492  1
  Si  Si12  1  0.250000  0.656599  0.320500  1
  Si  Si13  1  0.250000  0.157411  0.180151  1
  Si  Si14  1  0.750000  0.342789  0.678843  1
  Si  Si15  1  0.750000  0.842900  0.820485  1
