# generated using pymatgen
data_SrPrGa3O7
_symmetry_space_group_name_H-M   'P 1'
_cell_length_a   8.10674088
_cell_length_b   8.10674188
_cell_length_c   5.38198400
_cell_angle_alpha   90.00000000
_cell_angle_beta   90.00000000
_cell_angle_gamma   90.27602836
_symmetry_Int_Tables_number   1
_chemical_formula_structural   SrPrGa3O7
_chemical_formula_sum   'Sr2 Pr2 Ga6 O14'
_cell_volume   353.69587894
_cell_formula_units_Z   2
loop_
 _symmetry_equiv_pos_site_id
 _symmetry_equiv_pos_as_xyz
  1  'x, y, z'
loop_
 _atom_site_type_symbol
 _atom_site_label
 _atom_site_symmetry_multiplicity
 _atom_site_fract_x
 _atom_site_fract_y
 _atom_site_fract_z
 _atom_site_occupancy
  Sr  Sr0  1  0.161544  0.838456  0.489823  1
  Sr  Sr1  1  0.838456  0.161544  0.489823  1
  Pr  Pr2  1  0.661723  0.661723  0.512737  1
  Pr  Pr3  1  0.338277  0.338277  0.512737  1
  Ga  Ga4  1  0.357499  0.642501  0.034265  1
  Ga  Ga5  1  0.853879  0.853879  0.966043  1
  Ga  Ga6  1  0.642501  0.357499  0.034265  1
  Ga  Ga7  1  0.146121  0.146121  0.966043  1
  Ga  Ga8  1  0.500000  0.000000  0.998186  1
  Ga  Ga9  1  0.000000  0.500000  0.998186  1
  O  O10  1  0.000000  0.000000  0.820095  1
  O  O11  1  0.500000  0.500000  0.206293  1
  O  O12  1  0.370494  0.629506  0.695646  1
  O  O13  1  0.847701  0.847701  0.302647  1
  O  O14  1  0.629506  0.370494  0.695646  1
  O  O15  1  0.152299  0.152299  0.302647  1
  O  O16  1  0.417053  0.835561  0.202973  1
  O  O17  1  0.904302  0.657753  0.790758  1
  O  O18  1  0.582947  0.164439  0.202973  1
  O  O19  1  0.095698  0.342247  0.790758  1
  O  O20  1  0.342247  0.095698  0.790758  1
  O  O21  1  0.835561  0.417053  0.202973  1
  O  O22  1  0.657753  0.904302  0.790758  1
  O  O23  1  0.164439  0.582947  0.202973  1
