# generated using pymatgen
data_ErPa(CuRh)2
_symmetry_space_group_name_H-M   'P 1'
_cell_length_a   3.76171900
_cell_length_b   7.03992186
_cell_length_c   8.25373784
_cell_angle_alpha   92.58240170
_cell_angle_beta   90.00000000
_cell_angle_gamma   90.00000000
_symmetry_Int_Tables_number   1
_chemical_formula_structural   ErPa(CuRh)2
_chemical_formula_sum   'Er2 Pa2 Cu4 Rh4'
_cell_volume   218.35522609
_cell_formula_units_Z   2
loop_
 _symmetry_equiv_pos_site_id
 _symmetry_equiv_pos_as_xyz
  1  'x, y, z'
loop_
 _atom_site_type_symbol
 _atom_site_label
 _atom_site_symmetry_multiplicity
 _atom_site_fract_x
 _atom_site_fract_y
 _atom_site_fract_z
 _atom_site_occupancy
  Er  Er0  1  0.750000  0.939671  0.690362  1
  Er  Er1  1  0.250000  0.060329  0.309638  1
  Pa  Pa2  1  0.250000  0.552598  0.195802  1
  Pa  Pa3  1  0.750000  0.447402  0.804198  1
  Cu  Cu4  1  0.250000  0.623131  0.558750  1
  Cu  Cu5  1  0.750000  0.376869  0.441250  1
  Cu  Cu6  1  0.750000  0.896632  0.066179  1
  Cu  Cu7  1  0.250000  0.103368  0.933821  1
  Rh  Rh8  1  0.250000  0.716451  0.887161  1
  Rh  Rh9  1  0.750000  0.283549  0.112839  1
  Rh  Rh10  1  0.750000  0.750682  0.361420  1
  Rh  Rh11  1  0.250000  0.249318  0.638580  1
