# generated using pymatgen
data_Sm2Al3Pt4
_symmetry_space_group_name_H-M   'P 1'
_cell_length_a   8.26479069
_cell_length_b   8.26479031
_cell_length_c   7.67484400
_cell_angle_alpha   90.00000000
_cell_angle_beta   90.00000000
_cell_angle_gamma   140.26619634
_symmetry_Int_Tables_number   1
_chemical_formula_structural   Sm2Al3Pt4
_chemical_formula_sum   'Sm4 Al6 Pt8'
_cell_volume   335.10794524
_cell_formula_units_Z   2
loop_
 _symmetry_equiv_pos_site_id
 _symmetry_equiv_pos_as_xyz
  1  'x, y, z'
loop_
 _atom_site_type_symbol
 _atom_site_label
 _atom_site_symmetry_multiplicity
 _atom_site_fract_x
 _atom_site_fract_y
 _atom_site_fract_z
 _atom_site_occupancy
  Sm  Sm0  1  0.107871  0.892129  0.408254  1
  Sm  Sm1  1  0.892129  0.107871  0.591746  1
  Sm  Sm2  1  0.392129  0.607871  0.908254  1
  Sm  Sm3  1  0.607871  0.392129  0.091746  1
  Al  Al4  1  0.000000  0.000000  0.000000  1
  Al  Al5  1  0.500000  0.500000  0.500000  1
  Al  Al6  1  0.024662  0.475338  0.250000  1
  Al  Al7  1  0.475338  0.024662  0.750000  1
  Al  Al8  1  0.975338  0.524662  0.750000  1
  Al  Al9  1  0.524662  0.975338  0.250000  1
  Pt  Pt10  1  0.190676  0.309324  0.250000  1
  Pt  Pt11  1  0.309324  0.190676  0.750000  1
  Pt  Pt12  1  0.809324  0.690676  0.750000  1
  Pt  Pt13  1  0.690676  0.809324  0.250000  1
  Pt  Pt14  1  0.185814  0.814186  0.028099  1
  Pt  Pt15  1  0.814186  0.185814  0.971901  1
  Pt  Pt16  1  0.314186  0.685814  0.528099  1
  Pt  Pt17  1  0.685814  0.314186  0.471901  1
