# generated using pymatgen
data_Cs2Tb5Sm(CBr6)2
_symmetry_space_group_name_H-M   'P 1'
_cell_length_a   8.88243016
_cell_length_b   8.91479027
_cell_length_c   9.51700456
_cell_angle_alpha   70.94876947
_cell_angle_beta   84.95197684
_cell_angle_gamma   89.19962742
_symmetry_Int_Tables_number   1
_chemical_formula_structural   Cs2Tb5Sm(CBr6)2
_chemical_formula_sum   'Cs2 Tb5 Sm1 C2 Br12'
_cell_volume   709.47693517
_cell_formula_units_Z   1
loop_
 _symmetry_equiv_pos_site_id
 _symmetry_equiv_pos_as_xyz
  1  'x, y, z'
loop_
 _atom_site_type_symbol
 _atom_site_label
 _atom_site_symmetry_multiplicity
 _atom_site_fract_x
 _atom_site_fract_y
 _atom_site_fract_z
 _atom_site_occupancy
  Cs  Cs0  1  0.467129  0.365589  0.330187  1
  Cs  Cs1  1  0.532724  0.634506  0.669741  1
  Tb  Tb2  1  0.084779  0.257012  0.995224  1
  Tb  Tb3  1  0.743326  0.085444  0.001051  1
  Tb  Tb4  1  0.256557  0.913567  0.998978  1
  Tb  Tb5  1  0.973531  0.887128  0.323892  1
  Tb  Tb6  1  0.026661  0.113730  0.676050  1
  Sm  Sm7  1  0.914944  0.740614  0.004299  1
  C  C8  1  0.007065  0.028802  0.920998  1
  C  C9  1  0.994379  0.975376  0.078734  1
  Br  Br10  1  0.075027  0.196350  0.326761  1
  Br  Br11  1  0.925274  0.805131  0.669679  1
  Br  Br12  1  0.209192  0.591994  0.000730  1
  Br  Br13  1  0.795713  0.404280  0.998978  1
  Br  Br14  1  0.402062  0.199339  0.001548  1
  Br  Br15  1  0.593016  0.802233  0.998398  1
  Br  Br16  1  0.668217  0.001358  0.324360  1
  Br  Br17  1  0.331506  0.998814  0.675374  1
  Br  Br18  1  0.279336  0.776915  0.320975  1
  Br  Br19  1  0.720434  0.222844  0.679236  1
  Br  Br20  1  0.851619  0.589973  0.330274  1
  Br  Br21  1  0.147507  0.409003  0.674534  1
