# generated using pymatgen
data_Tm4Mg4Ir3Pt
_symmetry_space_group_name_H-M   'P 1'
_cell_length_a   4.08930500
_cell_length_b   7.00383691
_cell_length_c   8.53394524
_cell_angle_alpha   89.30317235
_cell_angle_beta   90.00000000
_cell_angle_gamma   90.00000000
_symmetry_Int_Tables_number   1
_chemical_formula_structural   Tm4Mg4Ir3Pt
_chemical_formula_sum   'Tm4 Mg4 Ir3 Pt1'
_cell_volume   244.40115866
_cell_formula_units_Z   1
loop_
 _symmetry_equiv_pos_site_id
 _symmetry_equiv_pos_as_xyz
  1  'x, y, z'
loop_
 _atom_site_type_symbol
 _atom_site_label
 _atom_site_symmetry_multiplicity
 _atom_site_fract_x
 _atom_site_fract_y
 _atom_site_fract_z
 _atom_site_occupancy
  Tm  Tm0  1  0.250000  0.033212  0.667370  1
  Tm  Tm1  1  0.250000  0.547827  0.825514  1
  Tm  Tm2  1  0.750000  0.960311  0.325917  1
  Tm  Tm3  1  0.750000  0.464075  0.178471  1
  Mg  Mg4  1  0.250000  0.136457  0.062859  1
  Mg  Mg5  1  0.250000  0.635690  0.439415  1
  Mg  Mg6  1  0.750000  0.863546  0.939690  1
  Mg  Mg7  1  0.750000  0.362995  0.559572  1
  Ir  Ir8  1  0.250000  0.248021  0.371068  1
  Ir  Ir9  1  0.250000  0.748281  0.126812  1
  Ir  Ir10  1  0.750000  0.749409  0.630768  1
  Pt  Pt11  1  0.750000  0.250175  0.872543  1
