# generated using pymatgen
data_LaTb5Co16(TcP6)2
_symmetry_space_group_name_H-M   'P 1'
_cell_length_a   3.74249900
_cell_length_b   10.59999800
_cell_length_c   12.31695800
_cell_angle_alpha   90.00000000
_cell_angle_beta   90.00000000
_cell_angle_gamma   90.00000000
_symmetry_Int_Tables_number   1
_chemical_formula_structural   LaTb5Co16(TcP6)2
_chemical_formula_sum   'La1 Tb5 Co16 Tc2 P12'
_cell_volume   488.61965959
_cell_formula_units_Z   1
loop_
 _symmetry_equiv_pos_site_id
 _symmetry_equiv_pos_as_xyz
  1  'x, y, z'
loop_
 _atom_site_type_symbol
 _atom_site_label
 _atom_site_symmetry_multiplicity
 _atom_site_fract_x
 _atom_site_fract_y
 _atom_site_fract_z
 _atom_site_occupancy
  La  La0  1  0.000000  0.500000  0.526285  1
  Tb  Tb1  1  0.500000  0.000000  0.476454  1
  Tb  Tb2  1  0.500000  0.817667  0.205392  1
  Tb  Tb3  1  0.500000  0.182333  0.205392  1
  Tb  Tb4  1  0.000000  0.683311  0.795564  1
  Tb  Tb5  1  0.000000  0.316689  0.795564  1
  Co  Co6  1  0.500000  0.500000  0.705258  1
  Co  Co7  1  0.000000  0.000000  0.296208  1
  Co  Co8  1  0.000000  0.500000  0.987416  1
  Co  Co9  1  0.500000  0.000000  0.012635  1
  Co  Co10  1  0.500000  0.331789  0.990319  1
  Co  Co11  1  0.500000  0.668211  0.990319  1
  Co  Co12  1  0.000000  0.167485  0.009491  1
  Co  Co13  1  0.000000  0.832515  0.009491  1
  Co  Co14  1  0.500000  0.293187  0.429944  1
  Co  Co15  1  0.500000  0.706813  0.429944  1
  Co  Co16  1  0.000000  0.200479  0.569896  1
  Co  Co17  1  0.000000  0.799521  0.569896  1
  Co  Co18  1  0.500000  0.880728  0.709388  1
  Co  Co19  1  0.500000  0.119272  0.709388  1
  Co  Co20  1  0.000000  0.620752  0.289719  1
  Co  Co21  1  0.000000  0.379248  0.289719  1
  Tc  Tc22  1  0.500000  0.500000  0.154038  1
  Tc  Tc23  1  0.000000  0.000000  0.843810  1
  P  P24  1  0.500000  0.500000  0.883103  1
  P  P25  1  0.000000  0.000000  0.117728  1
  P  P26  1  0.500000  0.500000  0.343243  1
  P  P27  1  0.000000  0.000000  0.652407  1
  P  P28  1  0.500000  0.304973  0.617483  1
  P  P29  1  0.500000  0.695027  0.617483  1
  P  P30  1  0.000000  0.188671  0.383979  1
  P  P31  1  0.000000  0.811329  0.383979  1
  P  P32  1  0.500000  0.847045  0.893603  1
  P  P33  1  0.500000  0.152955  0.893603  1
  P  P34  1  0.000000  0.653947  0.105930  1
  P  P35  1  0.000000  0.346053  0.105930  1
