# generated using pymatgen
data_Li2CaDySi4
_symmetry_space_group_name_H-M   'P 1'
_cell_length_a   3.79509100
_cell_length_b   7.79913838
_cell_length_c   10.41560300
_cell_angle_alpha   89.37848242
_cell_angle_beta   90.00000000
_cell_angle_gamma   90.00000000
_symmetry_Int_Tables_number   1
_chemical_formula_structural   Li2CaDySi4
_chemical_formula_sum   'Li4 Ca2 Dy2 Si8'
_cell_volume   308.26746124
_cell_formula_units_Z   2
loop_
 _symmetry_equiv_pos_site_id
 _symmetry_equiv_pos_as_xyz
  1  'x, y, z'
loop_
 _atom_site_type_symbol
 _atom_site_label
 _atom_site_symmetry_multiplicity
 _atom_site_fract_x
 _atom_site_fract_y
 _atom_site_fract_z
 _atom_site_occupancy
  Li  Li0  1  0.250000  0.997995  0.390040  1
  Li  Li1  1  0.750000  0.002005  0.609960  1
  Li  Li2  1  0.250000  0.491884  0.110724  1
  Li  Li3  1  0.750000  0.508116  0.889276  1
  Ca  Ca4  1  0.250000  0.635924  0.634817  1
  Ca  Ca5  1  0.750000  0.364076  0.365183  1
  Dy  Dy6  1  0.250000  0.129525  0.865684  1
  Dy  Dy7  1  0.750000  0.870475  0.134316  1
  Si  Si8  1  0.750000  0.261187  0.061624  1
  Si  Si9  1  0.250000  0.738813  0.938376  1
  Si  Si10  1  0.750000  0.772505  0.427193  1
  Si  Si11  1  0.250000  0.227495  0.572807  1
  Si  Si12  1  0.750000  0.843137  0.826659  1
  Si  Si13  1  0.250000  0.156863  0.173341  1
  Si  Si14  1  0.750000  0.332496  0.682348  1
  Si  Si15  1  0.250000  0.667504  0.317652  1
