# generated using pymatgen
data_Sc6TlTcNi
_symmetry_space_group_name_H-M   'P 1'
_cell_length_a   8.00433716
_cell_length_b   8.00433797
_cell_length_c   8.00433700
_cell_angle_alpha   103.88041215
_cell_angle_beta   110.97618790
_cell_angle_gamma   113.71102136
_symmetry_Int_Tables_number   1
_chemical_formula_structural   Sc6TlTcNi
_chemical_formula_sum   'Sc12 Tl2 Tc2 Ni2'
_cell_volume   391.74865567
_cell_formula_units_Z   2
loop_
 _symmetry_equiv_pos_site_id
 _symmetry_equiv_pos_as_xyz
  1  'x, y, z'
loop_
 _atom_site_type_symbol
 _atom_site_label
 _atom_site_symmetry_multiplicity
 _atom_site_fract_x
 _atom_site_fract_y
 _atom_site_fract_z
 _atom_site_occupancy
  Sc  Sc0  1  0.703537  0.256151  0.959686  1
  Sc  Sc1  1  0.296463  0.743849  0.040314  1
  Sc  Sc2  1  0.703537  0.743849  0.447387  1
  Sc  Sc3  1  0.296463  0.256151  0.552613  1
  Sc  Sc4  1  0.816968  0.149854  0.332885  1
  Sc  Sc5  1  0.816968  0.484082  0.667115  1
  Sc  Sc6  1  0.183032  0.850146  0.667115  1
  Sc  Sc7  1  0.183032  0.515918  0.332885  1
  Sc  Sc8  1  0.605274  0.789531  0.815742  1
  Sc  Sc9  1  0.973788  0.789531  0.184258  1
  Sc  Sc10  1  0.026212  0.210469  0.815742  1
  Sc  Sc11  1  0.394726  0.210469  0.184258  1
  Tl  Tl12  1  0.500000  0.500000  0.000000  1
  Tl  Tl13  1  0.500000  0.000000  0.500000  1
  Tc  Tc14  1  0.826231  0.500000  0.326231  1
  Tc  Tc15  1  0.173769  0.500000  0.673769  1
  Ni  Ni16  1  0.000000  0.123380  0.123380  1
  Ni  Ni17  1  0.000000  0.876620  0.876620  1
