# generated using pymatgen
data_La7PaAl6(GaRh4)2
_symmetry_space_group_name_H-M   'P 1'
_cell_length_a   4.24885600
_cell_length_b   7.30471528
_cell_length_c   16.24559361
_cell_angle_alpha   89.40548734
_cell_angle_beta   90.00000000
_cell_angle_gamma   90.00000000
_symmetry_Int_Tables_number   1
_chemical_formula_structural   La7PaAl6(GaRh4)2
_chemical_formula_sum   'La7 Pa1 Al6 Ga2 Rh8'
_cell_volume   504.18220186
_cell_formula_units_Z   1
loop_
 _symmetry_equiv_pos_site_id
 _symmetry_equiv_pos_as_xyz
  1  'x, y, z'
loop_
 _atom_site_type_symbol
 _atom_site_label
 _atom_site_symmetry_multiplicity
 _atom_site_fract_x
 _atom_site_fract_y
 _atom_site_fract_z
 _atom_site_occupancy
  La  La0  1  0.750000  0.474349  0.219910  1
  La  La1  1  0.750000  0.972342  0.280094  1
  La  La2  1  0.250000  0.028095  0.721562  1
  La  La3  1  0.250000  0.654019  0.559903  1
  La  La4  1  0.750000  0.338653  0.439581  1
  La  La5  1  0.750000  0.848545  0.059277  1
  La  La6  1  0.250000  0.167195  0.938485  1
  Pa  Pa7  1  0.250000  0.529658  0.780045  1
  Al  Al8  1  0.750000  0.349407  0.648692  1
  Al  Al9  1  0.750000  0.842811  0.850308  1
  Al  Al10  1  0.250000  0.507623  0.059792  1
  Al  Al11  1  0.750000  0.501039  0.939863  1
  Al  Al12  1  0.750000  0.992416  0.562372  1
  Al  Al13  1  0.250000  0.999912  0.439902  1
  Ga  Ga14  1  0.250000  0.645373  0.351574  1
  Ga  Ga15  1  0.250000  0.144921  0.147390  1
  Rh  Rh16  1  0.250000  0.761324  0.177185  1
  Rh  Rh17  1  0.750000  0.279315  0.813900  1
  Rh  Rh18  1  0.750000  0.707438  0.694179  1
  Rh  Rh19  1  0.250000  0.262171  0.322005  1
  Rh  Rh20  1  0.250000  0.710626  0.919691  1
  Rh  Rh21  1  0.750000  0.286868  0.070329  1
  Rh  Rh22  1  0.750000  0.785181  0.431547  1
  Rh  Rh23  1  0.250000  0.210718  0.572412  1
