# generated using pymatgen
data_Nd3Hg3PtAu2
_symmetry_space_group_name_H-M   'P 1'
_cell_length_a   8.05738600
_cell_length_b   8.05738517
_cell_length_c   3.87312700
_cell_angle_alpha   90.00000000
_cell_angle_beta   90.00000000
_cell_angle_gamma   120.00000343
_symmetry_Int_Tables_number   1
_chemical_formula_structural   Nd3Hg3PtAu2
_chemical_formula_sum   'Nd3 Hg3 Pt1 Au2'
_cell_volume   217.76127399
_cell_formula_units_Z   1
loop_
 _symmetry_equiv_pos_site_id
 _symmetry_equiv_pos_as_xyz
  1  'x, y, z'
loop_
 _atom_site_type_symbol
 _atom_site_label
 _atom_site_symmetry_multiplicity
 _atom_site_fract_x
 _atom_site_fract_y
 _atom_site_fract_z
 _atom_site_occupancy
  Nd  Nd0  1  0.590660  0.984491  0.000000  1
  Nd  Nd1  1  0.015509  0.606169  0.000000  1
  Nd  Nd2  1  0.393831  0.409340  0.000000  1
  Hg  Hg3  1  0.271196  0.002212  0.500000  1
  Hg  Hg4  1  0.997788  0.268984  0.500000  1
  Hg  Hg5  1  0.731016  0.728804  0.500000  1
  Pt  Pt6  1  0.333333  0.666667  0.500000  1
  Au  Au7  1  0.666667  0.333333  0.500000  1
  Au  Au8  1  0.000000  0.000000  0.000000  1
