# generated using pymatgen
data_Yb5(Eu2Pd3)2
_symmetry_space_group_name_H-M   'P 1'
_cell_length_a   7.74940374
_cell_length_b   7.74279090
_cell_length_c   7.71818981
_cell_angle_alpha   71.29971041
_cell_angle_beta   71.35532199
_cell_angle_gamma   71.18761050
_symmetry_Int_Tables_number   1
_chemical_formula_structural   Yb5(Eu2Pd3)2
_chemical_formula_sum   'Yb5 Eu4 Pd6'
_cell_volume   402.96081430
_cell_formula_units_Z   1
loop_
 _symmetry_equiv_pos_site_id
 _symmetry_equiv_pos_as_xyz
  1  'x, y, z'
loop_
 _atom_site_type_symbol
 _atom_site_label
 _atom_site_symmetry_multiplicity
 _atom_site_fract_x
 _atom_site_fract_y
 _atom_site_fract_z
 _atom_site_occupancy
  Yb  Yb0  1  0.500621  0.500232  0.499370  1
  Yb  Yb1  1  0.699183  0.698772  0.699384  1
  Yb  Yb2  1  0.300792  0.299619  0.300262  1
  Yb  Yb3  1  0.890363  0.175446  0.655035  1
  Yb  Yb4  1  0.654958  0.891572  0.175805  1
  Eu  Eu5  1  0.164687  0.659520  0.895714  1
  Eu  Eu6  1  0.102444  0.835511  0.343280  1
  Eu  Eu7  1  0.344770  0.102907  0.833724  1
  Eu  Eu8  1  0.834299  0.339618  0.102907  1
  Pd  Pd9  1  0.907158  0.540374  0.348377  1
  Pd  Pd10  1  0.350224  0.910861  0.536331  1
  Pd  Pd11  1  0.543651  0.346062  0.908078  1
  Pd  Pd12  1  0.087876  0.457360  0.651240  1
  Pd  Pd13  1  0.655329  0.088479  0.459358  1
  Pd  Pd14  1  0.463646  0.653666  0.091134  1
