# generated using pymatgen
data_Na3La(SnPt)4
_symmetry_space_group_name_H-M   'P 1'
_cell_length_a   4.56791400
_cell_length_b   7.58665431
_cell_length_c   7.91066987
_cell_angle_alpha   88.28476397
_cell_angle_beta   90.00000000
_cell_angle_gamma   90.00000000
_symmetry_Int_Tables_number   1
_chemical_formula_structural   Na3La(SnPt)4
_chemical_formula_sum   'Na3 La1 Sn4 Pt4'
_cell_volume   274.02288866
_cell_formula_units_Z   1
loop_
 _symmetry_equiv_pos_site_id
 _symmetry_equiv_pos_as_xyz
  1  'x, y, z'
loop_
 _atom_site_type_symbol
 _atom_site_label
 _atom_site_symmetry_multiplicity
 _atom_site_fract_x
 _atom_site_fract_y
 _atom_site_fract_z
 _atom_site_occupancy
  Na  Na0  1  0.750000  0.487143  0.811507  1
  Na  Na1  1  0.250000  0.015420  0.329771  1
  Na  Na2  1  0.750000  0.978239  0.674172  1
  La  La3  1  0.250000  0.524050  0.172607  1
  Sn  Sn4  1  0.250000  0.660129  0.581568  1
  Sn  Sn5  1  0.250000  0.156359  0.925940  1
  Sn  Sn6  1  0.750000  0.323362  0.432121  1
  Sn  Sn7  1  0.750000  0.857449  0.074414  1
  Pt  Pt8  1  0.250000  0.793789  0.892086  1
  Pt  Pt9  1  0.250000  0.295606  0.608790  1
  Pt  Pt10  1  0.750000  0.690613  0.386649  1
  Pt  Pt11  1  0.750000  0.217841  0.110374  1
