# generated using pymatgen
data_La7Yb3(CeRu2)2
_symmetry_space_group_name_H-M   'P 1'
_cell_length_a   6.59270431
_cell_length_b   7.41933827
_cell_length_c   9.99869775
_cell_angle_alpha   89.98266173
_cell_angle_beta   89.49155694
_cell_angle_gamma   87.29242201
_symmetry_Int_Tables_number   1
_chemical_formula_structural   La7Yb3(CeRu2)2
_chemical_formula_sum   'La7 Yb3 Ce2 Ru4'
_cell_volume   488.50611619
_cell_formula_units_Z   1
loop_
 _symmetry_equiv_pos_site_id
 _symmetry_equiv_pos_as_xyz
  1  'x, y, z'
loop_
 _atom_site_type_symbol
 _atom_site_label
 _atom_site_symmetry_multiplicity
 _atom_site_fract_x
 _atom_site_fract_y
 _atom_site_fract_z
 _atom_site_occupancy
  La  La0  1  0.672374  0.165745  0.073229  1
  La  La1  1  0.357914  0.552985  0.249658  1
  La  La2  1  0.837011  0.668123  0.070861  1
  La  La3  1  0.162793  0.329463  0.931545  1
  La  La4  1  0.327932  0.835497  0.932351  1
  La  La5  1  0.645521  0.447332  0.750514  1
  La  La6  1  0.322027  0.830660  0.567070  1
  Yb  Yb7  1  0.165811  0.325045  0.567131  1
  Yb  Yb8  1  0.831996  0.679479  0.431127  1
  Yb  Yb9  1  0.675968  0.170099  0.433439  1
  Ce  Ce10  1  0.834229  0.938658  0.750709  1
  Ce  Ce11  1  0.159776  0.061230  0.250179  1
  Ru  Ru12  1  0.987914  0.345359  0.246266  1
  Ru  Ru13  1  0.503356  0.108642  0.745054  1
  Ru  Ru14  1  0.495281  0.885983  0.250972  1
  Ru  Ru15  1  0.020097  0.655700  0.749894  1
