# generated using pymatgen
data_Sm2Ho7ErIn8(PdPt)2
_symmetry_space_group_name_H-M   'P 1'
_cell_length_a   3.61333600
_cell_length_b   8.18143100
_cell_length_c   18.32965900
_cell_angle_alpha   89.99876044
_cell_angle_beta   90.00000000
_cell_angle_gamma   90.00000000
_symmetry_Int_Tables_number   1
_chemical_formula_structural   Sm2Ho7ErIn8(PdPt)2
_chemical_formula_sum   'Sm2 Ho7 Er1 In8 Pd2 Pt2'
_cell_volume   541.86612974
_cell_formula_units_Z   1
loop_
 _symmetry_equiv_pos_site_id
 _symmetry_equiv_pos_as_xyz
  1  'x, y, z'
loop_
 _atom_site_type_symbol
 _atom_site_label
 _atom_site_symmetry_multiplicity
 _atom_site_fract_x
 _atom_site_fract_y
 _atom_site_fract_z
 _atom_site_occupancy
  Sm  Sm0  1  0.000000  0.500062  0.499991  1
  Sm  Sm1  1  0.000000  0.999957  0.000002  1
  Ho  Ho2  1  0.000000  0.735468  0.280922  1
  Ho  Ho3  1  0.000000  0.264396  0.719145  1
  Ho  Ho4  1  0.000000  0.756649  0.781844  1
  Ho  Ho5  1  0.000000  0.243362  0.218219  1
  Ho  Ho6  1  0.000000  0.619007  0.085194  1
  Ho  Ho7  1  0.000000  0.380937  0.914858  1
  Ho  Ho8  1  0.000000  0.880170  0.584140  1
  Er  Er9  1  0.000000  0.119744  0.415508  1
  In  In10  1  0.500000  0.702940  0.933257  1
  In  In11  1  0.500000  0.296950  0.066785  1
  In  In12  1  0.500000  0.798566  0.432257  1
  In  In13  1  0.500000  0.202018  0.567285  1
  In  In14  1  0.500000  0.582317  0.651188  1
  In  In15  1  0.500000  0.417069  0.348959  1
  In  In16  1  0.500000  0.920873  0.152375  1
  In  In17  1  0.500000  0.079175  0.847712  1
  Pd  Pd18  1  0.500000  0.976223  0.695560  1
  Pd  Pd19  1  0.500000  0.024169  0.304763  1
  Pt  Pt20  1  0.500000  0.523944  0.196137  1
  Pt  Pt21  1  0.500000  0.476001  0.803897  1
