# generated using pymatgen
data_Dy16MgCd3(RuPt)2
_symmetry_space_group_name_H-M   'P 1'
_cell_length_a   9.69283169
_cell_length_b   9.69283116
_cell_length_c   9.71167249
_cell_angle_alpha   59.56391601
_cell_angle_beta   59.56392091
_cell_angle_gamma   59.50613318
_symmetry_Int_Tables_number   1
_chemical_formula_structural   Dy16MgCd3(RuPt)2
_chemical_formula_sum   'Dy16 Mg1 Cd3 Ru2 Pt2'
_cell_volume   638.49926225
_cell_formula_units_Z   1
loop_
 _symmetry_equiv_pos_site_id
 _symmetry_equiv_pos_as_xyz
  1  'x, y, z'
loop_
 _atom_site_type_symbol
 _atom_site_label
 _atom_site_symmetry_multiplicity
 _atom_site_fract_x
 _atom_site_fract_y
 _atom_site_fract_z
 _atom_site_occupancy
  Dy  Dy0  1  0.348743  0.348743  0.354037  1
  Dy  Dy1  1  0.348825  0.348825  0.950886  1
  Dy  Dy2  1  0.344892  0.957457  0.348878  1
  Dy  Dy3  1  0.957457  0.344892  0.348878  1
  Dy  Dy4  1  0.814299  0.189251  0.189940  1
  Dy  Dy5  1  0.186306  0.816426  0.807340  1
  Dy  Dy6  1  0.189251  0.814299  0.189940  1
  Dy  Dy7  1  0.816426  0.186306  0.807340  1
  Dy  Dy8  1  0.188229  0.188229  0.810630  1
  Dy  Dy9  1  0.809953  0.809953  0.189976  1
  Dy  Dy10  1  0.937687  0.560253  0.567505  1
  Dy  Dy11  1  0.559393  0.936576  0.937880  1
  Dy  Dy12  1  0.560253  0.937687  0.567505  1
  Dy  Dy13  1  0.936576  0.559392  0.937880  1
  Dy  Dy14  1  0.564184  0.564184  0.938508  1
  Dy  Dy15  1  0.937659  0.937659  0.563101  1
  Mg  Mg16  1  0.575168  0.575168  0.575366  1
  Cd  Cd17  1  0.580910  0.580910  0.255651  1
  Cd  Cd18  1  0.581739  0.253849  0.581231  1
  Cd  Cd19  1  0.253849  0.581739  0.581231  1
  Ru  Ru20  1  0.143965  0.143965  0.138012  1
  Ru  Ru21  1  0.145094  0.145094  0.574456  1
  Pt  Pt22  1  0.145280  0.573863  0.141916  1
  Pt  Pt23  1  0.573863  0.145280  0.141916  1
