# generated using pymatgen
data_GePbF6
_symmetry_space_group_name_H-M   'P 1'
_cell_length_a   6.07530744
_cell_length_b   6.07530641
_cell_length_c   6.07530700
_cell_angle_alpha   60.00000223
_cell_angle_beta   60.00000787
_cell_angle_gamma   60.00000275
_symmetry_Int_Tables_number   1
_chemical_formula_structural   GePbF6
_chemical_formula_sum   'Ge1 Pb1 F6'
_cell_volume   158.55856996
_cell_formula_units_Z   1
loop_
 _symmetry_equiv_pos_site_id
 _symmetry_equiv_pos_as_xyz
  1  'x, y, z'
loop_
 _atom_site_type_symbol
 _atom_site_label
 _atom_site_symmetry_multiplicity
 _atom_site_fract_x
 _atom_site_fract_y
 _atom_site_fract_z
 _atom_site_occupancy
  Ge  Ge0  1  0.499999  0.499999  0.499999  1
  Pb  Pb1  1  0.000000  0.000000  0.000000  1
  F  F2  1  0.713420  0.286579  0.286579  1
  F  F3  1  0.286579  0.713420  0.286579  1
  F  F4  1  0.713421  0.713421  0.286578  1
  F  F5  1  0.286579  0.286579  0.713420  1
  F  F6  1  0.713421  0.286578  0.713421  1
  F  F7  1  0.286578  0.713421  0.713421  1
