# generated using pymatgen
data_Ce4MgPPt3Rh8
_symmetry_space_group_name_H-M   'P 1'
_cell_length_a   7.28319673
_cell_length_b   7.27108054
_cell_length_c   7.28319912
_cell_angle_alpha   107.84219748
_cell_angle_beta   109.29518387
_cell_angle_gamma   111.36354612
_symmetry_Int_Tables_number   1
_chemical_formula_structural   Ce4MgPPt3Rh8
_chemical_formula_sum   'Ce4 Mg1 P1 Pt3 Rh8'
_cell_volume   296.37473768
_cell_formula_units_Z   1
loop_
 _symmetry_equiv_pos_site_id
 _symmetry_equiv_pos_as_xyz
  1  'x, y, z'
loop_
 _atom_site_type_symbol
 _atom_site_label
 _atom_site_symmetry_multiplicity
 _atom_site_fract_x
 _atom_site_fract_y
 _atom_site_fract_z
 _atom_site_occupancy
  Ce  Ce0  1  0.006195  0.983282  0.496604  1
  Ce  Ce1  1  0.022460  0.518425  0.031764  1
  Ce  Ce2  1  0.486678  0.983282  0.977088  1
  Ce  Ce3  1  0.486659  0.518425  0.495964  1
  Mg  Mg4  1  0.750836  0.253032  0.502195  1
  P  P5  1  0.999980  0.999901  0.999920  1
  Pt  Pt6  1  0.743815  0.488148  0.252313  1
  Pt  Pt7  1  0.510815  0.257364  0.746548  1
  Pt  Pt8  1  0.235834  0.488148  0.744332  1
  Rh  Rh9  1  0.249033  0.751283  0.502249  1
  Rh  Rh10  1  0.508611  0.760367  0.251756  1
  Rh  Rh11  1  0.725941  0.724551  0.998610  1
  Rh  Rh12  1  0.281847  0.014305  0.271424  1
  Rh  Rh13  1  0.986566  0.252916  0.266350  1
  Rh  Rh14  1  0.274109  0.271531  0.997421  1
  Rh  Rh15  1  0.742882  0.014305  0.732458  1
  Rh  Rh16  1  0.987737  0.720737  0.733001  1
