# generated using pymatgen
data_Rb2Sn(PSe3)2
_symmetry_space_group_name_H-M   'P 1'
_cell_length_a   12.78307400
_cell_length_b   7.14844593
_cell_length_c   10.01557770
_cell_angle_alpha   53.27087062
_cell_angle_beta   90.00000000
_cell_angle_gamma   90.00000000
_symmetry_Int_Tables_number   1
_chemical_formula_structural   Rb2Sn(PSe3)2
_chemical_formula_sum   'Rb4 Sn2 P4 Se12'
_cell_volume   733.51861436
_cell_formula_units_Z   2
loop_
 _symmetry_equiv_pos_site_id
 _symmetry_equiv_pos_as_xyz
  1  'x, y, z'
loop_
 _atom_site_type_symbol
 _atom_site_label
 _atom_site_symmetry_multiplicity
 _atom_site_fract_x
 _atom_site_fract_y
 _atom_site_fract_z
 _atom_site_occupancy
  Rb  Rb0  1  0.175140  0.274140  0.982795  1
  Rb  Rb1  1  0.675140  0.725860  0.517205  1
  Rb  Rb2  1  0.824860  0.725860  0.017205  1
  Rb  Rb3  1  0.324860  0.274140  0.482795  1
  Sn  Sn4  1  0.000000  0.000000  0.500000  1
  Sn  Sn5  1  0.500000  0.000000  0.000000  1
  P  P6  1  0.039242  0.646876  0.377814  1
  P  P7  1  0.539242  0.353124  0.122186  1
  P  P8  1  0.960758  0.353124  0.622186  1
  P  P9  1  0.460758  0.646876  0.877814  1
  Se  Se10  1  0.176443  0.748422  0.455321  1
  Se  Se11  1  0.676443  0.251578  0.044679  1
  Se  Se12  1  0.823557  0.251578  0.544679  1
  Se  Se13  1  0.323557  0.748422  0.955321  1
  Se  Se14  1  0.922157  0.930737  0.245732  1
  Se  Se15  1  0.422157  0.069263  0.254268  1
  Se  Se16  1  0.077843  0.069263  0.754268  1
  Se  Se17  1  0.577843  0.930737  0.745732  1
  Se  Se18  1  0.419212  0.500136  0.744593  1
  Se  Se19  1  0.919212  0.499864  0.755407  1
  Se  Se20  1  0.580788  0.499864  0.255407  1
  Se  Se21  1  0.080788  0.500136  0.244593  1
