# generated using pymatgen
data_Tb4YHo7Co5Bi
_symmetry_space_group_name_H-M   'P 1'
_cell_length_a   8.34296902
_cell_length_b   8.34296984
_cell_length_c   8.32936989
_cell_angle_alpha   110.91821775
_cell_angle_beta   110.58634668
_cell_angle_gamma   107.00777754
_symmetry_Int_Tables_number   1
_chemical_formula_structural   Tb4YHo7Co5Bi
_chemical_formula_sum   'Tb4 Y1 Ho7 Co5 Bi1'
_cell_volume   445.28663195
_cell_formula_units_Z   1
loop_
 _symmetry_equiv_pos_site_id
 _symmetry_equiv_pos_as_xyz
  1  'x, y, z'
loop_
 _atom_site_type_symbol
 _atom_site_label
 _atom_site_symmetry_multiplicity
 _atom_site_fract_x
 _atom_site_fract_y
 _atom_site_fract_z
 _atom_site_occupancy
  Tb  Tb0  1  0.599273  0.794694  0.805522  1
  Tb  Tb1  1  0.399076  0.204550  0.193960  1
  Tb  Tb2  1  0.989411  0.794886  0.193960  1
  Tb  Tb3  1  0.010830  0.206249  0.805522  1
  Y  Y4  1  0.815876  0.709459  0.525334  1
  Ho  Ho5  1  0.182873  0.290795  0.473668  1
  Ho  Ho6  1  0.183038  0.708393  0.891432  1
  Ho  Ho7  1  0.817452  0.290996  0.108445  1
  Ho  Ho8  1  0.687612  0.377255  0.689862  1
  Ho  Ho9  1  0.311317  0.622184  0.309782  1
  Ho  Ho10  1  0.687597  0.998465  0.309782  1
  Ho  Ho11  1  0.312607  0.002250  0.689862  1
  Co  Co12  1  0.622677  0.999901  0.622578  1
  Co  Co13  1  0.377385  0.000206  0.377591  1
  Co  Co14  1  0.112740  0.610502  0.500767  1
  Co  Co15  1  0.890265  0.388027  0.500767  1
  Co  Co16  1  0.999655  0.001038  0.000694  1
  Bi  Bi17  1  0.500319  0.500152  0.000473  1
