# generated using pymatgen
data_Dy16Er4Ir11Rh
_symmetry_space_group_name_H-M   'P 1'
_cell_length_a   10.86820900
_cell_length_b   10.86820900
_cell_length_c   6.36197900
_cell_angle_alpha   90.00000000
_cell_angle_beta   90.00000000
_cell_angle_gamma   90.00000000
_symmetry_Int_Tables_number   1
_chemical_formula_structural   Dy16Er4Ir11Rh
_chemical_formula_sum   'Dy16 Er4 Ir11 Rh1'
_cell_volume   751.46402473
_cell_formula_units_Z   1
loop_
 _symmetry_equiv_pos_site_id
 _symmetry_equiv_pos_as_xyz
  1  'x, y, z'
loop_
 _atom_site_type_symbol
 _atom_site_label
 _atom_site_symmetry_multiplicity
 _atom_site_fract_x
 _atom_site_fract_y
 _atom_site_fract_z
 _atom_site_occupancy
  Dy  Dy0  1  0.290523  0.087838  0.378753  1
  Dy  Dy1  1  0.290384  0.912036  0.877286  1
  Dy  Dy2  1  0.709616  0.087964  0.877286  1
  Dy  Dy3  1  0.709477  0.912162  0.378753  1
  Dy  Dy4  1  0.587964  0.790384  0.877286  1
  Dy  Dy5  1  0.587838  0.209477  0.378753  1
  Dy  Dy6  1  0.412162  0.790523  0.378753  1
  Dy  Dy7  1  0.412036  0.209616  0.877286  1
  Dy  Dy8  1  0.209212  0.412173  0.622164  1
  Dy  Dy9  1  0.209250  0.587939  0.122175  1
  Dy  Dy10  1  0.790750  0.412061  0.122175  1
  Dy  Dy11  1  0.790788  0.587827  0.622164  1
  Dy  Dy12  1  0.912061  0.709250  0.122175  1
  Dy  Dy13  1  0.912173  0.290788  0.622164  1
  Dy  Dy14  1  0.087827  0.709212  0.622164  1
  Dy  Dy15  1  0.087939  0.290750  0.122175  1
  Er  Er16  1  0.000000  0.000000  0.500109  1
  Er  Er17  1  0.000000  0.000000  0.000008  1
  Er  Er18  1  0.500000  0.500000  0.000008  1
  Er  Er19  1  0.500000  0.500000  0.500109  1
  Ir  Ir20  1  0.846834  0.152644  0.249773  1
  Ir  Ir21  1  0.846925  0.847286  0.749869  1
  Ir  Ir22  1  0.153075  0.152714  0.749869  1
  Ir  Ir23  1  0.153166  0.847356  0.249773  1
  Ir  Ir24  1  0.652714  0.346925  0.749869  1
  Ir  Ir25  1  0.652644  0.653166  0.249773  1
  Ir  Ir26  1  0.347356  0.346834  0.249773  1
  Ir  Ir27  1  0.347286  0.653075  0.749869  1
  Ir  Ir28  1  0.500000  0.000000  0.621299  1
  Ir  Ir29  1  0.000000  0.500000  0.878774  1
  Ir  Ir30  1  0.000000  0.500000  0.378723  1
  Rh  Rh31  1  0.500000  0.000000  0.120894  1
