# generated using pymatgen
data_Hf8Ta12Si15Pd
_symmetry_space_group_name_H-M   'P 1'
_cell_length_a   6.67560346
_cell_length_b   6.82766508
_cell_length_c   13.13999304
_cell_angle_alpha   89.89505888
_cell_angle_beta   89.92772377
_cell_angle_gamma   90.06687803
_symmetry_Int_Tables_number   1
_chemical_formula_structural   Hf8Ta12Si15Pd
_chemical_formula_sum   'Hf8 Ta12 Si15 Pd1'
_cell_volume   598.90302228
_cell_formula_units_Z   1
loop_
 _symmetry_equiv_pos_site_id
 _symmetry_equiv_pos_as_xyz
  1  'x, y, z'
loop_
 _atom_site_type_symbol
 _atom_site_label
 _atom_site_symmetry_multiplicity
 _atom_site_fract_x
 _atom_site_fract_y
 _atom_site_fract_z
 _atom_site_occupancy
  Hf  Hf0  1  0.491120  0.666444  0.595615  1
  Hf  Hf1  1  0.996332  0.827257  0.906676  1
  Hf  Hf2  1  0.506417  0.327392  0.091794  1
  Hf  Hf3  1  0.007083  0.172674  0.405979  1
  Hf  Hf4  1  0.504808  0.332143  0.406222  1
  Hf  Hf5  1  0.004403  0.172353  0.091877  1
  Hf  Hf6  1  0.492892  0.673936  0.907252  1
  Hf  Hf7  1  0.003351  0.823156  0.595765  1
  Ta  Ta8  1  0.662148  0.178295  0.627072  1
  Ta  Ta9  1  0.159696  0.328557  0.876985  1
  Ta  Ta10  1  0.337339  0.827927  0.122832  1
  Ta  Ta11  1  0.843558  0.670072  0.373299  1
  Ta  Ta12  1  0.328352  0.829483  0.374328  1
  Ta  Ta13  1  0.837911  0.670391  0.123530  1
  Ta  Ta14  1  0.664020  0.173056  0.877452  1
  Ta  Ta15  1  0.163533  0.327455  0.624454  1
  Ta  Ta16  1  0.835646  0.496405  0.751061  1
  Ta  Ta17  1  0.336940  0.003594  0.752275  1
  Ta  Ta18  1  0.162588  0.503667  0.248464  1
  Ta  Ta19  1  0.661743  0.994325  0.244310  1
  Si  Si20  1  0.171734  0.535819  0.037925  1
  Si  Si21  1  0.327899  0.037350  0.961581  1
  Si  Si22  1  0.827688  0.465085  0.536974  1
  Si  Si23  1  0.332380  0.033754  0.539117  1
  Si  Si24  1  0.826624  0.465891  0.962085  1
  Si  Si25  1  0.672448  0.961741  0.037533  1
  Si  Si26  1  0.172535  0.535783  0.462642  1
  Si  Si27  1  0.458307  0.388398  0.751914  1
  Si  Si28  1  0.960961  0.110803  0.750336  1
  Si  Si29  1  0.540018  0.613425  0.250814  1
  Si  Si30  1  0.038549  0.891367  0.248255  1
  Si  Si31  1  0.701608  0.860105  0.749637  1
  Si  Si32  1  0.202102  0.639148  0.750962  1
  Si  Si33  1  0.299328  0.140962  0.250701  1
  Si  Si34  1  0.796397  0.356669  0.249375  1
  Pd  Pd35  1  0.671541  0.965119  0.462908  1
