# generated using pymatgen
data_Tb5Y2BeI12
_symmetry_space_group_name_H-M   'P 1'
_cell_length_a   9.71695095
_cell_length_b   9.71919330
_cell_length_c   9.70898872
_cell_angle_alpha   107.67702081
_cell_angle_beta   107.63766513
_cell_angle_gamma   107.67020965
_symmetry_Int_Tables_number   1
_chemical_formula_structural   Tb5Y2BeI12
_chemical_formula_sum   'Tb5 Y2 Be1 I12'
_cell_volume   749.41516423
_cell_formula_units_Z   1
loop_
 _symmetry_equiv_pos_site_id
 _symmetry_equiv_pos_as_xyz
  1  'x, y, z'
loop_
 _atom_site_type_symbol
 _atom_site_label
 _atom_site_symmetry_multiplicity
 _atom_site_fract_x
 _atom_site_fract_y
 _atom_site_fract_z
 _atom_site_occupancy
  Tb  Tb0  1  0.699822  0.971222  0.901418  1
  Tb  Tb1  1  0.971037  0.901299  0.699747  1
  Tb  Tb2  1  0.098420  0.299986  0.028495  1
  Tb  Tb3  1  0.300236  0.028560  0.098659  1
  Tb  Tb4  1  0.901359  0.699915  0.971264  1
  Y  Y5  1  0.500658  0.500754  0.500847  1
  Y  Y6  1  0.028682  0.098271  0.299783  1
  Be  Be7  1  0.000086  0.999998  0.999799  1
  I  I8  1  0.074387  0.228050  0.680488  1
  I  I9  1  0.387686  0.155951  0.468457  1
  I  I10  1  0.611642  0.844410  0.531328  1
  I  I11  1  0.228118  0.681218  0.074453  1
  I  I12  1  0.771890  0.318757  0.925672  1
  I  I13  1  0.681855  0.074698  0.228563  1
  I  I14  1  0.531866  0.612055  0.845089  1
  I  I15  1  0.844255  0.531456  0.611521  1
  I  I16  1  0.925759  0.772400  0.318820  1
  I  I17  1  0.318635  0.925461  0.771672  1
  I  I18  1  0.467955  0.387976  0.155661  1
  I  I19  1  0.155652  0.467564  0.388267  1
