# generated using pymatgen
data_Li2Ho16InAgRh4
_symmetry_space_group_name_H-M   'P 1'
_cell_length_a   9.57586380
_cell_length_b   9.58307318
_cell_length_c   9.61526200
_cell_angle_alpha   59.88882532
_cell_angle_beta   59.86380570
_cell_angle_gamma   59.70690369
_symmetry_Int_Tables_number   1
_chemical_formula_structural   Li2Ho16InAgRh4
_chemical_formula_sum   'Li2 Ho16 In1 Ag1 Rh4'
_cell_volume   621.36496194
_cell_formula_units_Z   1
loop_
 _symmetry_equiv_pos_site_id
 _symmetry_equiv_pos_as_xyz
  1  'x, y, z'
loop_
 _atom_site_type_symbol
 _atom_site_label
 _atom_site_symmetry_multiplicity
 _atom_site_fract_x
 _atom_site_fract_y
 _atom_site_fract_z
 _atom_site_occupancy
  Li  Li0  1  0.820544  0.823304  0.825947  1
  Li  Li1  1  0.820544  0.823304  0.530205  1
  Ho  Ho2  1  0.190609  0.178802  0.815295  1
  Ho  Ho3  1  0.600039  0.598960  0.199615  1
  Ho  Ho4  1  0.435877  0.064320  0.437333  1
  Ho  Ho5  1  0.441503  0.439780  0.059359  1
  Ho  Ho6  1  0.815480  0.184889  0.814853  1
  Ho  Ho7  1  0.189323  0.813583  0.183379  1
  Ho  Ho8  1  0.435877  0.064320  0.062470  1
  Ho  Ho9  1  0.189323  0.813583  0.813716  1
  Ho  Ho10  1  0.061854  0.437729  0.060908  1
  Ho  Ho11  1  0.813708  0.812694  0.186799  1
  Ho  Ho12  1  0.207461  0.596356  0.598091  1
  Ho  Ho13  1  0.061854  0.437729  0.439509  1
  Ho  Ho14  1  0.065489  0.066826  0.433842  1
  Ho  Ho15  1  0.815480  0.184889  0.184779  1
  Ho  Ho16  1  0.596667  0.208756  0.597288  1
  Ho  Ho17  1  0.600039  0.598960  0.601387  1
  In  In18  1  0.832540  0.508382  0.829540  1
  Ag  Ag19  1  0.500253  0.835998  0.831875  1
  Rh  Rh20  1  0.395684  0.822447  0.390935  1
  Rh  Rh21  1  0.393695  0.394437  0.389370  1
  Rh  Rh22  1  0.822465  0.395517  0.391010  1
  Rh  Rh23  1  0.393695  0.394437  0.822499  1
