# generated using pymatgen
data_Tb8Sc12Si15Se
_symmetry_space_group_name_H-M   'P 1'
_cell_length_a   7.17721946
_cell_length_b   7.37742352
_cell_length_c   14.00578241
_cell_angle_alpha   89.96846924
_cell_angle_beta   88.38845216
_cell_angle_gamma   90.13701952
_symmetry_Int_Tables_number   1
_chemical_formula_structural   Tb8Sc12Si15Se
_chemical_formula_sum   'Tb8 Sc12 Si15 Se1'
_cell_volume   741.30201525
_cell_formula_units_Z   1
loop_
 _symmetry_equiv_pos_site_id
 _symmetry_equiv_pos_as_xyz
  1  'x, y, z'
loop_
 _atom_site_type_symbol
 _atom_site_label
 _atom_site_symmetry_multiplicity
 _atom_site_fract_x
 _atom_site_fract_y
 _atom_site_fract_z
 _atom_site_occupancy
  Tb  Tb0  1  0.011269  0.175803  0.097748  1
  Tb  Tb1  1  0.988984  0.825373  0.902155  1
  Tb  Tb2  1  0.489249  0.675362  0.902671  1
  Tb  Tb3  1  0.996795  0.824157  0.596243  1
  Tb  Tb4  1  0.511094  0.325667  0.097714  1
  Tb  Tb5  1  0.999455  0.175712  0.402100  1
  Tb  Tb6  1  0.501709  0.318696  0.400707  1
  Tb  Tb7  1  0.506429  0.680592  0.598709  1
  Sc  Sc8  1  0.166794  0.500158  0.752257  1
  Sc  Sc9  1  0.832834  0.499687  0.253547  1
  Sc  Sc10  1  0.332136  0.000048  0.251481  1
  Sc  Sc11  1  0.668346  0.999360  0.749039  1
  Sc  Sc12  1  0.348067  0.166471  0.627012  1
  Sc  Sc13  1  0.654090  0.829445  0.373796  1
  Sc  Sc14  1  0.152853  0.670831  0.377273  1
  Sc  Sc15  1  0.666741  0.823958  0.125688  1
  Sc  Sc16  1  0.841458  0.330826  0.621231  1
  Sc  Sc17  1  0.332740  0.175665  0.873759  1
  Sc  Sc18  1  0.833965  0.323593  0.874215  1
  Sc  Sc19  1  0.166245  0.676788  0.125458  1
  Si  Si20  1  0.040228  0.120145  0.748233  1
  Si  Si21  1  0.959214  0.881179  0.249998  1
  Si  Si22  1  0.456266  0.618032  0.249307  1
  Si  Si23  1  0.542084  0.382392  0.749843  1
  Si  Si24  1  0.291836  0.871094  0.750213  1
  Si  Si25  1  0.708689  0.126252  0.248611  1
  Si  Si26  1  0.207101  0.374825  0.249774  1
  Si  Si27  1  0.795293  0.626267  0.750105  1
  Si  Si28  1  0.803385  0.541315  0.456332  1
  Si  Si29  1  0.322801  0.960096  0.460365  1
  Si  Si30  1  0.843785  0.535552  0.039315  1
  Si  Si31  1  0.675719  0.039535  0.540575  1
  Si  Si32  1  0.155546  0.465566  0.960507  1
  Si  Si33  1  0.655099  0.035408  0.959725  1
  Si  Si34  1  0.344394  0.966041  0.040239  1
  Se  Se35  1  0.197305  0.458107  0.544055  1
