# generated using pymatgen
data_Tb3Co9SiGeB4
_symmetry_space_group_name_H-M   'P 1'
_cell_length_a   5.15432404
_cell_length_b   5.15538179
_cell_length_c   9.39632401
_cell_angle_alpha   90.00062804
_cell_angle_beta   89.99585989
_cell_angle_gamma   119.99677908
_symmetry_Int_Tables_number   1
_chemical_formula_structural   Tb3Co9SiGeB4
_chemical_formula_sum   'Tb3 Co9 Si1 Ge1 B4'
_cell_volume   216.23961510
_cell_formula_units_Z   1
loop_
 _symmetry_equiv_pos_site_id
 _symmetry_equiv_pos_as_xyz
  1  'x, y, z'
loop_
 _atom_site_type_symbol
 _atom_site_label
 _atom_site_symmetry_multiplicity
 _atom_site_fract_x
 _atom_site_fract_y
 _atom_site_fract_z
 _atom_site_occupancy
  Tb  Tb0  1  0.999971  0.000000  0.000003  1
  Tb  Tb1  1  0.000012  0.000008  0.339503  1
  Tb  Tb2  1  0.999988  0.999992  0.660501  1
  Co  Co3  1  0.500153  0.000304  0.499994  1
  Co  Co4  1  0.500151  0.499852  0.500003  1
  Co  Co5  1  0.999692  0.499844  0.499997  1
  Co  Co6  1  0.498761  0.997484  0.200167  1
  Co  Co7  1  0.498754  0.501258  0.200195  1
  Co  Co8  1  0.002519  0.501252  0.200178  1
  Co  Co9  1  0.498723  0.997495  0.799839  1
  Co  Co10  1  0.498718  0.501252  0.799801  1
  Co  Co11  1  0.002505  0.501263  0.799825  1
  Si  Si12  1  0.333296  0.666593  0.000005  1
  Ge  Ge13  1  0.666662  0.333395  0.999998  1
  B  B14  1  0.333317  0.666663  0.347892  1
  B  B15  1  0.666682  0.333333  0.346877  1
  B  B16  1  0.666691  0.333335  0.653119  1
  B  B17  1  0.333305  0.666674  0.652104  1
