# generated using pymatgen
data_Ce4MgSnAu4
_symmetry_space_group_name_H-M   'P 1'
_cell_length_a   8.03085800
_cell_length_b   8.03085800
_cell_length_c   3.90489000
_cell_angle_alpha   90.00000000
_cell_angle_beta   90.00000000
_cell_angle_gamma   90.00000000
_symmetry_Int_Tables_number   1
_chemical_formula_structural   Ce4MgSnAu4
_chemical_formula_sum   'Ce4 Mg1 Sn1 Au4'
_cell_volume   251.84463183
_cell_formula_units_Z   1
loop_
 _symmetry_equiv_pos_site_id
 _symmetry_equiv_pos_as_xyz
  1  'x, y, z'
loop_
 _atom_site_type_symbol
 _atom_site_label
 _atom_site_symmetry_multiplicity
 _atom_site_fract_x
 _atom_site_fract_y
 _atom_site_fract_z
 _atom_site_occupancy
  Ce  Ce0  1  0.683115  0.164193  0.500000  1
  Ce  Ce1  1  0.316885  0.835807  0.500000  1
  Ce  Ce2  1  0.164193  0.316885  0.500000  1
  Ce  Ce3  1  0.835807  0.683115  0.500000  1
  Mg  Mg4  1  0.500000  0.500000  0.000000  1
  Sn  Sn5  1  0.000000  0.000000  0.000000  1
  Au  Au6  1  0.139288  0.616185  0.000000  1
  Au  Au7  1  0.860712  0.383815  0.000000  1
  Au  Au8  1  0.616185  0.860712  0.000000  1
  Au  Au9  1  0.383815  0.139288  0.000000  1
