# generated using pymatgen
data_Dy4Er4Sc11Si16W
_symmetry_space_group_name_H-M   'P 1'
_cell_length_a   7.06794657
_cell_length_b   7.31654385
_cell_length_c   13.87272936
_cell_angle_alpha   90.19072310
_cell_angle_beta   89.64381601
_cell_angle_gamma   89.72451161
_symmetry_Int_Tables_number   1
_chemical_formula_structural   Dy4Er4Sc11Si16W
_chemical_formula_sum   'Dy4 Er4 Sc11 Si16 W1'
_cell_volume   717.37343409
_cell_formula_units_Z   1
loop_
 _symmetry_equiv_pos_site_id
 _symmetry_equiv_pos_as_xyz
  1  'x, y, z'
loop_
 _atom_site_type_symbol
 _atom_site_label
 _atom_site_symmetry_multiplicity
 _atom_site_fract_x
 _atom_site_fract_y
 _atom_site_fract_z
 _atom_site_occupancy
  Dy  Dy0  1  0.011777  0.174641  0.097025  1
  Dy  Dy1  1  0.989451  0.825775  0.898976  1
  Dy  Dy2  1  0.487676  0.677347  0.899766  1
  Dy  Dy3  1  0.992898  0.829343  0.595502  1
  Er  Er4  1  0.512902  0.323526  0.096741  1
  Er  Er5  1  0.010175  0.175597  0.403591  1
  Er  Er6  1  0.506914  0.323196  0.409968  1
  Er  Er7  1  0.487947  0.675645  0.595861  1
  Sc  Sc8  1  0.163208  0.495492  0.744961  1
  Sc  Sc9  1  0.838038  0.497650  0.251909  1
  Sc  Sc10  1  0.337424  0.003237  0.252456  1
  Sc  Sc11  1  0.658156  0.001826  0.747288  1
  Sc  Sc12  1  0.665402  0.825530  0.379040  1
  Sc  Sc13  1  0.168287  0.677997  0.378228  1
  Sc  Sc14  1  0.669123  0.824247  0.124786  1
  Sc  Sc15  1  0.832557  0.323397  0.623401  1
  Sc  Sc16  1  0.333163  0.176567  0.874608  1
  Sc  Sc17  1  0.829891  0.323027  0.871890  1
  Sc  Sc18  1  0.170496  0.676731  0.125879  1
  Si  Si19  1  0.042506  0.120785  0.744885  1
  Si  Si20  1  0.964066  0.885954  0.251651  1
  Si  Si21  1  0.467292  0.615911  0.250912  1
  Si  Si22  1  0.530700  0.375440  0.745617  1
  Si  Si23  1  0.287596  0.879665  0.745454  1
  Si  Si24  1  0.711114  0.128008  0.251198  1
  Si  Si25  1  0.216157  0.372511  0.250919  1
  Si  Si26  1  0.784022  0.624745  0.746432  1
  Si  Si27  1  0.177058  0.450509  0.540589  1
  Si  Si28  1  0.841211  0.531138  0.460288  1
  Si  Si29  1  0.332687  0.970097  0.471111  1
  Si  Si30  1  0.844334  0.534761  0.039090  1
  Si  Si31  1  0.646020  0.035144  0.545046  1
  Si  Si32  1  0.154719  0.466308  0.959129  1
  Si  Si33  1  0.660607  0.036493  0.959061  1
  Si  Si34  1  0.341534  0.963868  0.038628  1
  W  W35  1  0.332892  0.177890  0.628114  1
