# generated using pymatgen
data_Zr4Ta5TcN12
_symmetry_space_group_name_H-M   'P 1'
_cell_length_a   5.28848238
_cell_length_b   5.28848247
_cell_length_c   10.71589500
_cell_angle_alpha   90.00000000
_cell_angle_beta   90.00000000
_cell_angle_gamma   120.04345183
_symmetry_Int_Tables_number   1
_chemical_formula_structural   Zr4Ta5TcN12
_chemical_formula_sum   'Zr4 Ta5 Tc1 N12'
_cell_volume   259.43638814
_cell_formula_units_Z   1
loop_
 _symmetry_equiv_pos_site_id
 _symmetry_equiv_pos_as_xyz
  1  'x, y, z'
loop_
 _atom_site_type_symbol
 _atom_site_label
 _atom_site_symmetry_multiplicity
 _atom_site_fract_x
 _atom_site_fract_y
 _atom_site_fract_z
 _atom_site_occupancy
  Zr  Zr0  1  0.667944  0.335927  0.004420  1
  Zr  Zr1  1  0.335927  0.667944  0.004420  1
  Zr  Zr2  1  0.335927  0.667944  0.495580  1
  Zr  Zr3  1  0.667944  0.335927  0.495580  1
  Ta  Ta4  1  0.323051  0.998150  0.750000  1
  Ta  Ta5  1  0.998150  0.323051  0.750000  1
  Ta  Ta6  1  0.324673  0.324673  0.250000  1
  Ta  Ta7  1  0.674557  0.000177  0.250000  1
  Ta  Ta8  1  0.000177  0.674557  0.250000  1
  Tc  Tc9  1  0.672628  0.672628  0.750000  1
  N  N10  1  0.662783  0.662783  0.372798  1
  N  N11  1  0.338786  0.000494  0.372570  1
  N  N12  1  0.000494  0.338786  0.372570  1
  N  N13  1  0.337350  0.337350  0.630427  1
  N  N14  1  0.656049  0.004049  0.630730  1
  N  N15  1  0.004049  0.656049  0.630730  1
  N  N16  1  0.337350  0.337350  0.869573  1
  N  N17  1  0.656049  0.004049  0.869270  1
  N  N18  1  0.004049  0.656049  0.869270  1
  N  N19  1  0.662783  0.662783  0.127202  1
  N  N20  1  0.338786  0.000494  0.127430  1
  N  N21  1  0.000494  0.338786  0.127430  1
