# generated using pymatgen
data_TmGa4Fe6SnGe
_symmetry_space_group_name_H-M   'P 1'
_cell_length_a   5.06600443
_cell_length_b   6.59641250
_cell_length_c   6.59641148
_cell_angle_alpha   79.98053300
_cell_angle_beta   67.41851798
_cell_angle_gamma   67.41851848
_symmetry_Int_Tables_number   1
_chemical_formula_structural   TmGa4Fe6SnGe
_chemical_formula_sum   'Tm1 Ga4 Fe6 Sn1 Ge1'
_cell_volume   187.84029118
_cell_formula_units_Z   1
loop_
 _symmetry_equiv_pos_site_id
 _symmetry_equiv_pos_as_xyz
  1  'x, y, z'
loop_
 _atom_site_type_symbol
 _atom_site_label
 _atom_site_symmetry_multiplicity
 _atom_site_fract_x
 _atom_site_fract_y
 _atom_site_fract_z
 _atom_site_occupancy
  Tm  Tm0  1  0.000000  0.004789  0.995211  1
  Ga  Ga1  1  0.339010  0.661393  0.660586  1
  Ga  Ga2  1  0.660990  0.339414  0.338607  1
  Ga  Ga3  1  0.326848  0.173131  0.173172  1
  Ga  Ga4  1  0.673152  0.826828  0.826869  1
  Fe  Fe5  1  0.500000  0.246533  0.753467  1
  Fe  Fe6  1  0.500000  0.756384  0.243616  1
  Fe  Fe7  1  0.001863  0.495970  0.994359  1
  Fe  Fe8  1  0.507808  0.495970  0.994359  1
  Fe  Fe9  1  0.998137  0.005641  0.504030  1
  Fe  Fe10  1  0.492192  0.005641  0.504030  1
  Sn  Sn11  1  0.000000  0.652126  0.347874  1
  Ge  Ge12  1  0.000000  0.336181  0.663819  1
