# generated using pymatgen
data_TbDy3Zn3Ga5Ag4
_symmetry_space_group_name_H-M   'P 1'
_cell_length_a   4.33270600
_cell_length_b   6.96131433
_cell_length_c   10.32526004
_cell_angle_alpha   90.02248253
_cell_angle_beta   90.00000000
_cell_angle_gamma   90.00000000
_symmetry_Int_Tables_number   1
_chemical_formula_structural   TbDy3Zn3Ga5Ag4
_chemical_formula_sum   'Tb1 Dy3 Zn3 Ga5 Ag4'
_cell_volume   311.42353445
_cell_formula_units_Z   1
loop_
 _symmetry_equiv_pos_site_id
 _symmetry_equiv_pos_as_xyz
  1  'x, y, z'
loop_
 _atom_site_type_symbol
 _atom_site_label
 _atom_site_symmetry_multiplicity
 _atom_site_fract_x
 _atom_site_fract_y
 _atom_site_fract_z
 _atom_site_occupancy
  Tb  Tb0  1  0.750000  0.720405  0.328333  1
  Dy  Dy1  1  0.250000  0.781206  0.828695  1
  Dy  Dy2  1  0.750000  0.215674  0.169885  1
  Dy  Dy3  1  0.250000  0.281862  0.672689  1
  Zn  Zn4  1  0.250000  0.923340  0.148467  1
  Zn  Zn5  1  0.750000  0.076875  0.850476  1
  Zn  Zn6  1  0.750000  0.577855  0.651162  1
  Ga  Ga7  1  0.250000  0.424089  0.347685  1
  Ga  Ga8  1  0.250000  0.702776  0.538772  1
  Ga  Ga9  1  0.750000  0.296971  0.466211  1
  Ga  Ga10  1  0.750000  0.798219  0.037407  1
  Ga  Ga11  1  0.250000  0.200459  0.962860  1
  Ag  Ag12  1  0.250000  0.541078  0.097961  1
  Ag  Ag13  1  0.750000  0.459182  0.900133  1
  Ag  Ag14  1  0.750000  0.959158  0.600192  1
  Ag  Ag15  1  0.250000  0.040854  0.399074  1
