# generated using pymatgen
data_La4YbInGa2
_symmetry_space_group_name_H-M   'P 1'
_cell_length_a   8.01604600
_cell_length_b   8.01604600
_cell_length_c   14.94591000
_cell_angle_alpha   90.00000000
_cell_angle_beta   90.00000000
_cell_angle_gamma   90.00000000
_symmetry_Int_Tables_number   1
_chemical_formula_structural   La4YbInGa2
_chemical_formula_sum   'La16 Yb4 In4 Ga8'
_cell_volume   960.37924133
_cell_formula_units_Z   4
loop_
 _symmetry_equiv_pos_site_id
 _symmetry_equiv_pos_as_xyz
  1  'x, y, z'
loop_
 _atom_site_type_symbol
 _atom_site_label
 _atom_site_symmetry_multiplicity
 _atom_site_fract_x
 _atom_site_fract_y
 _atom_site_fract_z
 _atom_site_occupancy
  La  La0  1  0.825978  0.831392  0.606208  1
  La  La1  1  0.174022  0.831392  0.106208  1
  La  La2  1  0.168608  0.825978  0.393792  1
  La  La3  1  0.831392  0.174022  0.393792  1
  La  La4  1  0.674022  0.668608  0.393792  1
  La  La5  1  0.668608  0.325978  0.606208  1
  La  La6  1  0.331392  0.674022  0.606208  1
  La  La7  1  0.668608  0.674022  0.106208  1
  La  La8  1  0.674022  0.331392  0.893792  1
  La  La9  1  0.831392  0.825978  0.893792  1
  La  La10  1  0.325978  0.331392  0.393792  1
  La  La11  1  0.174022  0.168608  0.606208  1
  La  La12  1  0.825978  0.168608  0.106208  1
  La  La13  1  0.325978  0.668608  0.893792  1
  La  La14  1  0.331392  0.325978  0.106208  1
  La  La15  1  0.168608  0.174022  0.893792  1
  Yb  Yb16  1  0.000000  0.500000  0.743960  1
  Yb  Yb17  1  0.000000  0.500000  0.243960  1
  Yb  Yb18  1  0.500000  0.000000  0.256040  1
  Yb  Yb19  1  0.500000  0.000000  0.756040  1
  In  In20  1  0.000000  0.500000  0.503069  1
  In  In21  1  0.500000  0.000000  0.496931  1
  In  In22  1  0.500000  0.000000  0.996931  1
  In  In23  1  0.000000  0.500000  0.003069  1
  Ga  Ga24  1  0.617639  0.382361  0.250000  1
  Ga  Ga25  1  0.117639  0.882361  0.750000  1
  Ga  Ga26  1  0.382361  0.382361  0.750000  1
  Ga  Ga27  1  0.382361  0.617639  0.250000  1
  Ga  Ga28  1  0.882361  0.882361  0.250000  1
  Ga  Ga29  1  0.617639  0.617639  0.750000  1
  Ga  Ga30  1  0.882361  0.117639  0.750000  1
  Ga  Ga31  1  0.117639  0.117639  0.250000  1
