# generated using pymatgen
data_Ba4Ga4SiGeO14
_symmetry_space_group_name_H-M   'P 1'
_cell_length_a   8.28665101
_cell_length_b   5.70786927
_cell_length_c   8.29448277
_cell_angle_alpha   90.00592426
_cell_angle_beta   90.14049849
_cell_angle_gamma   90.04996222
_symmetry_Int_Tables_number   1
_chemical_formula_structural   Ba4Ga4SiGeO14
_chemical_formula_sum   'Ba4 Ga4 Si1 Ge1 O14'
_cell_volume   392.32041096
_cell_formula_units_Z   1
loop_
 _symmetry_equiv_pos_site_id
 _symmetry_equiv_pos_as_xyz
  1  'x, y, z'
loop_
 _atom_site_type_symbol
 _atom_site_label
 _atom_site_symmetry_multiplicity
 _atom_site_fract_x
 _atom_site_fract_y
 _atom_site_fract_z
 _atom_site_occupancy
  Ba  Ba0  1  0.839283  0.514367  0.081936  1
  Ba  Ba1  1  0.339124  0.486897  0.920113  1
  Ba  Ba2  1  0.162655  0.506109  0.405515  1
  Ba  Ba3  1  0.667733  0.496676  0.591684  1
  Ga  Ga4  1  0.501486  0.000717  0.250120  1
  Ga  Ga5  1  0.996831  0.000815  0.748148  1
  Ga  Ga6  1  0.643745  0.976228  0.893397  1
  Ga  Ga7  1  0.140935  0.024395  0.109182  1
  Si  Si8  1  0.860093  0.037823  0.390174  1
  Ge  Ge9  1  0.359332  0.967556  0.608847  1
  O  O10  1  0.987042  0.152451  0.256920  1
  O  O11  1  0.493137  0.835371  0.749576  1
  O  O12  1  0.642787  0.291743  0.887033  1
  O  O13  1  0.141756  0.708614  0.112903  1
  O  O14  1  0.360378  0.271685  0.604977  1
  O  O15  1  0.859703  0.754529  0.394797  1
  O  O16  1  0.580044  0.817552  0.083491  1
  O  O17  1  0.078555  0.182070  0.916620  1
  O  O18  1  0.418348  0.821066  0.424420  1
  O  O19  1  0.914548  0.166554  0.564911  1
  O  O20  1  0.681566  0.160533  0.343573  1
  O  O21  1  0.170765  0.826905  0.659742  1
  O  O22  1  0.329971  0.186856  0.179571  1
  O  O23  1  0.830176  0.812490  0.822350  1
