# generated using pymatgen
data_DyEr9(Sn3As)2
_symmetry_space_group_name_H-M   'P 1'
_cell_length_a   9.05977539
_cell_length_b   9.05977562
_cell_length_c   6.64078600
_cell_angle_alpha   90.00000000
_cell_angle_beta   90.00000000
_cell_angle_gamma   119.96617191
_symmetry_Int_Tables_number   1
_chemical_formula_structural   DyEr9(Sn3As)2
_chemical_formula_sum   'Dy1 Er9 Sn6 As2'
_cell_volume   472.20755253
_cell_formula_units_Z   1
loop_
 _symmetry_equiv_pos_site_id
 _symmetry_equiv_pos_as_xyz
  1  'x, y, z'
loop_
 _atom_site_type_symbol
 _atom_site_label
 _atom_site_symmetry_multiplicity
 _atom_site_fract_x
 _atom_site_fract_y
 _atom_site_fract_z
 _atom_site_occupancy
  Dy  Dy0  1  0.750049  0.750049  0.750000  1
  Er  Er1  1  0.666637  0.333225  0.000030  1
  Er  Er2  1  0.333225  0.666637  0.000030  1
  Er  Er3  1  0.333225  0.666637  0.499970  1
  Er  Er4  1  0.666637  0.333225  0.499970  1
  Er  Er5  1  0.249403  0.000050  0.750000  1
  Er  Er6  1  0.000050  0.249403  0.750000  1
  Er  Er7  1  0.249388  0.249388  0.250000  1
  Er  Er8  1  0.750624  0.000042  0.250000  1
  Er  Er9  1  0.000042  0.750624  0.250000  1
  Sn  Sn10  1  0.395886  0.395886  0.750000  1
  Sn  Sn11  1  0.603627  0.000301  0.750000  1
  Sn  Sn12  1  0.000301  0.603627  0.750000  1
  Sn  Sn13  1  0.603818  0.603818  0.250000  1
  Sn  Sn14  1  0.396223  0.999961  0.250000  1
  Sn  Sn15  1  0.999961  0.396223  0.250000  1
  As  As16  1  0.000451  0.000451  0.000396  1
  As  As17  1  0.000451  0.000451  0.499604  1
