# generated using pymatgen
data_Ho2Tm3Co2
_symmetry_space_group_name_H-M   'P 1'
_cell_length_a   6.21861755
_cell_length_b   6.83299924
_cell_length_c   8.39280023
_cell_angle_alpha   96.44455287
_cell_angle_beta   111.74480780
_cell_angle_gamma   89.99999952
_symmetry_Int_Tables_number   1
_chemical_formula_structural   Ho2Tm3Co2
_chemical_formula_sum   'Ho4 Tm6 Co4'
_cell_volume   328.82152319
_cell_formula_units_Z   2
loop_
 _symmetry_equiv_pos_site_id
 _symmetry_equiv_pos_as_xyz
  1  'x, y, z'
loop_
 _atom_site_type_symbol
 _atom_site_label
 _atom_site_symmetry_multiplicity
 _atom_site_fract_x
 _atom_site_fract_y
 _atom_site_fract_z
 _atom_site_occupancy
  Ho  Ho0  1  0.980184  0.912669  0.188798  1
  Ho  Ho1  1  0.791385  0.587331  0.811202  1
  Ho  Ho2  1  0.019816  0.087331  0.811202  1
  Ho  Ho3  1  0.208615  0.412669  0.188798  1
  Tm  Tm4  1  0.649646  0.815908  0.434383  1
  Tm  Tm5  1  0.215262  0.684092  0.565617  1
  Tm  Tm6  1  0.350354  0.184092  0.565617  1
  Tm  Tm7  1  0.784738  0.315908  0.434383  1
  Tm  Tm8  1  0.426501  0.750000  0.000000  1
  Tm  Tm9  1  0.573499  0.250000  0.000000  1
  Co  Co10  1  0.822167  0.569885  0.220754  1
  Co  Co11  1  0.601415  0.930115  0.779246  1
  Co  Co12  1  0.177834  0.430115  0.779246  1
  Co  Co13  1  0.398585  0.069885  0.220754  1
