# generated using pymatgen
data_Y2ZrScAl13Ga5Ir6
_symmetry_space_group_name_H-M   'P 1'
_cell_length_a   7.52531400
_cell_length_b   7.52342215
_cell_length_c   9.39419000
_cell_angle_alpha   90.00000000
_cell_angle_beta   90.00000000
_cell_angle_gamma   119.64812152
_symmetry_Int_Tables_number   1
_chemical_formula_structural   Y2ZrScAl13Ga5Ir6
_chemical_formula_sum   'Y2 Zr1 Sc1 Al13 Ga5 Ir6'
_cell_volume   462.23096782
_cell_formula_units_Z   1
loop_
 _symmetry_equiv_pos_site_id
 _symmetry_equiv_pos_as_xyz
  1  'x, y, z'
loop_
 _atom_site_type_symbol
 _atom_site_label
 _atom_site_symmetry_multiplicity
 _atom_site_fract_x
 _atom_site_fract_y
 _atom_site_fract_z
 _atom_site_occupancy
  Y  Y0  1  0.004973  0.326926  0.750000  1
  Y  Y1  1  0.329555  0.005799  0.750000  1
  Zr  Zr2  1  0.000472  0.673622  0.250000  1
  Sc  Sc3  1  0.671534  0.996357  0.250000  1
  Al  Al4  1  0.996823  0.334601  0.081888  1
  Al  Al5  1  0.997314  0.664828  0.930322  1
  Al  Al6  1  0.997314  0.664828  0.569678  1
  Al  Al7  1  0.335894  0.998576  0.418016  1
  Al  Al8  1  0.996823  0.334601  0.418112  1
  Al  Al9  1  0.664596  0.997268  0.568849  1
  Al  Al10  1  0.664596  0.997268  0.931151  1
  Al  Al11  1  0.335894  0.998576  0.081984  1
  Al  Al12  1  0.334885  0.335091  0.547875  1
  Al  Al13  1  0.669718  0.669920  0.433178  1
  Al  Al14  1  0.669718  0.669920  0.066822  1
  Al  Al15  1  0.334885  0.335091  0.952125  1
  Al  Al16  1  0.557873  0.340951  0.250000  1
  Ga  Ga17  1  0.123906  0.124348  0.250000  1
  Ga  Ga18  1  0.868205  0.868045  0.750000  1
  Ga  Ga19  1  0.339602  0.552413  0.250000  1
  Ga  Ga20  1  0.658748  0.452841  0.750000  1
  Ga  Ga21  1  0.451700  0.658550  0.750000  1
  Ir  Ir22  1  0.671766  0.328528  0.003441  1
  Ir  Ir23  1  0.326603  0.672180  0.002144  1
  Ir  Ir24  1  0.326603  0.672180  0.497856  1
  Ir  Ir25  1  0.671766  0.328528  0.496559  1
  Ir  Ir26  1  0.999115  0.999079  0.001823  1
  Ir  Ir27  1  0.999115  0.999079  0.498177  1
