# generated using pymatgen
data_HoHf7Ti5Nb7Si16
_symmetry_space_group_name_H-M   'P 1'
_cell_length_a   6.86263412
_cell_length_b   6.86931641
_cell_length_c   12.64251390
_cell_angle_alpha   89.96594759
_cell_angle_beta   89.92398798
_cell_angle_gamma   89.95078566
_symmetry_Int_Tables_number   1
_chemical_formula_structural   HoHf7Ti5Nb7Si16
_chemical_formula_sum   'Ho1 Hf7 Ti5 Nb7 Si16'
_cell_volume   595.98754986
_cell_formula_units_Z   1
loop_
 _symmetry_equiv_pos_site_id
 _symmetry_equiv_pos_as_xyz
  1  'x, y, z'
loop_
 _atom_site_type_symbol
 _atom_site_label
 _atom_site_symmetry_multiplicity
 _atom_site_fract_x
 _atom_site_fract_y
 _atom_site_fract_z
 _atom_site_occupancy
  Ho  Ho0  1  0.996639  0.660492  0.031062  1
  Hf  Hf1  1  0.342830  0.999277  0.469959  1
  Hf  Hf2  1  0.500522  0.844004  0.717945  1
  Hf  Hf3  1  0.497616  0.157043  0.221344  1
  Hf  Hf4  1  0.842836  0.501922  0.282324  1
  Hf  Hf5  1  0.159653  0.498339  0.780507  1
  Hf  Hf6  1  0.653759  0.002371  0.968030  1
  Hf  Hf7  1  0.998982  0.342419  0.530618  1
  Ti  Ti8  1  0.651850  0.492869  0.875117  1
  Ti  Ti9  1  0.348539  0.503533  0.378258  1
  Ti  Ti10  1  0.848353  0.996874  0.374418  1
  Ti  Ti11  1  0.005525  0.151724  0.128655  1
  Ti  Ti12  1  0.995555  0.848524  0.625902  1
  Nb  Nb13  1  0.331456  0.328252  0.999710  1
  Nb  Nb14  1  0.170555  0.831146  0.251529  1
  Nb  Nb15  1  0.829458  0.170222  0.748083  1
  Nb  Nb16  1  0.671092  0.670280  0.499571  1
  Nb  Nb17  1  0.154562  0.002932  0.871181  1
  Nb  Nb18  1  0.496892  0.651123  0.124640  1
  Nb  Nb19  1  0.503115  0.348344  0.622454  1
  Si  Si20  1  0.205717  0.133833  0.674750  1
  Si  Si21  1  0.370102  0.705742  0.924569  1
  Si  Si22  1  0.635389  0.291441  0.424447  1
  Si  Si23  1  0.705905  0.357079  0.072846  1
  Si  Si24  1  0.291053  0.638929  0.572927  1
  Si  Si25  1  0.791312  0.870874  0.181198  1
  Si  Si26  1  0.135851  0.206592  0.324984  1
  Si  Si27  1  0.859551  0.793610  0.819547  1
  Si  Si28  1  0.298327  0.957892  0.064691  1
  Si  Si29  1  0.544715  0.798058  0.315741  1
  Si  Si30  1  0.455889  0.204261  0.812797  1
  Si  Si31  1  0.799152  0.547161  0.686079  1
  Si  Si32  1  0.202824  0.451281  0.189592  1
  Si  Si33  1  0.705533  0.043868  0.561594  1
  Si  Si34  1  0.952475  0.293358  0.936337  1
  Si  Si35  1  0.046413  0.704328  0.436593  1
