# generated using pymatgen
data_Dy7LuTi11Si16Ir
_symmetry_space_group_name_H-M   'P 1'
_cell_length_a   7.02812489
_cell_length_b   7.02527311
_cell_length_c   12.86392140
_cell_angle_alpha   89.92464020
_cell_angle_beta   90.09681711
_cell_angle_gamma   89.86108337
_symmetry_Int_Tables_number   1
_chemical_formula_structural   Dy7LuTi11Si16Ir
_chemical_formula_sum   'Dy7 Lu1 Ti11 Si16 Ir1'
_cell_volume   635.14631871
_cell_formula_units_Z   1
loop_
 _symmetry_equiv_pos_site_id
 _symmetry_equiv_pos_as_xyz
  1  'x, y, z'
loop_
 _atom_site_type_symbol
 _atom_site_label
 _atom_site_symmetry_multiplicity
 _atom_site_fract_x
 _atom_site_fract_y
 _atom_site_fract_z
 _atom_site_occupancy
  Dy  Dy0  1  0.002415  0.342000  0.531368  1
  Dy  Dy1  1  0.660136  0.995224  0.967565  1
  Dy  Dy2  1  0.158299  0.504020  0.782128  1
  Dy  Dy3  1  0.841427  0.499051  0.284678  1
  Dy  Dy4  1  0.503777  0.158689  0.217995  1
  Dy  Dy5  1  0.498990  0.841224  0.715184  1
  Dy  Dy6  1  0.341927  0.002301  0.468569  1
  Lu  Lu7  1  0.997400  0.658761  0.032786  1
  Ti  Ti8  1  0.342816  0.506136  0.374712  1
  Ti  Ti9  1  0.850376  0.997085  0.375802  1
  Ti  Ti10  1  0.005885  0.150678  0.124778  1
  Ti  Ti11  1  0.997492  0.850054  0.624188  1
  Ti  Ti12  1  0.506104  0.343070  0.625094  1
  Ti  Ti13  1  0.150698  0.005557  0.875437  1
  Ti  Ti14  1  0.824836  0.173021  0.748404  1
  Ti  Ti15  1  0.172845  0.824463  0.251482  1
  Ti  Ti16  1  0.325739  0.326947  0.000037  1
  Ti  Ti17  1  0.493622  0.650892  0.127999  1
  Ti  Ti18  1  0.650992  0.494337  0.872226  1
  Si  Si19  1  0.048416  0.713607  0.435893  1
  Si  Si20  1  0.952292  0.292977  0.934693  1
  Si  Si21  1  0.713672  0.048186  0.564122  1
  Si  Si22  1  0.207064  0.453966  0.183660  1
  Si  Si23  1  0.790171  0.550520  0.681652  1
  Si  Si24  1  0.452762  0.207984  0.815754  1
  Si  Si25  1  0.550439  0.790027  0.318240  1
  Si  Si26  1  0.290359  0.950798  0.065782  1
  Si  Si27  1  0.798923  0.866445  0.184554  1
  Si  Si28  1  0.298737  0.627205  0.566021  1
  Si  Si29  1  0.705232  0.370402  0.065617  1
  Si  Si30  1  0.627190  0.298869  0.433896  1
  Si  Si31  1  0.367405  0.703841  0.934840  1
  Si  Si32  1  0.131440  0.203306  0.315820  1
  Si  Si33  1  0.203177  0.131444  0.684197  1
  Si  Si34  1  0.867694  0.797549  0.814943  1
  Ir  Ir35  1  0.669252  0.669365  0.499883  1
