# generated using pymatgen
data_Y3PdPt2Pb3
_symmetry_space_group_name_H-M   'P 1'
_cell_length_a   7.84523900
_cell_length_b   7.84523851
_cell_length_c   3.88940500
_cell_angle_alpha   90.00000000
_cell_angle_beta   90.00000000
_cell_angle_gamma   119.99999783
_symmetry_Int_Tables_number   1
_chemical_formula_structural   Y3PdPt2Pb3
_chemical_formula_sum   'Y3 Pd1 Pt2 Pb3'
_cell_volume   207.31281066
_cell_formula_units_Z   1
loop_
 _symmetry_equiv_pos_site_id
 _symmetry_equiv_pos_as_xyz
  1  'x, y, z'
loop_
 _atom_site_type_symbol
 _atom_site_label
 _atom_site_symmetry_multiplicity
 _atom_site_fract_x
 _atom_site_fract_y
 _atom_site_fract_z
 _atom_site_occupancy
  Y  Y0  1  0.400878  0.000000  0.500000  1
  Y  Y1  1  0.000000  0.400878  0.500000  1
  Y  Y2  1  0.599122  0.599122  0.500000  1
  Pd  Pd3  1  0.000000  0.000000  0.500000  1
  Pt  Pt4  1  0.333333  0.666667  0.000000  1
  Pt  Pt5  1  0.666667  0.333333  0.000000  1
  Pb  Pb6  1  0.734527  0.000000  0.000000  1
  Pb  Pb7  1  0.000000  0.734527  0.000000  1
  Pb  Pb8  1  0.265473  0.265473  0.000000  1
