# generated using pymatgen
data_Ce5GeBi3
_symmetry_space_group_name_H-M   'P 1'
_cell_length_a   6.51255700
_cell_length_b   9.66792880
_cell_length_c   9.66743600
_cell_angle_alpha   120.00168843
_cell_angle_beta   90.00000000
_cell_angle_gamma   90.00000000
_symmetry_Int_Tables_number   1
_chemical_formula_structural   Ce5GeBi3
_chemical_formula_sum   'Ce10 Ge2 Bi6'
_cell_volume   527.13217950
_cell_formula_units_Z   2
loop_
 _symmetry_equiv_pos_site_id
 _symmetry_equiv_pos_as_xyz
  1  'x, y, z'
loop_
 _atom_site_type_symbol
 _atom_site_label
 _atom_site_symmetry_multiplicity
 _atom_site_fract_x
 _atom_site_fract_y
 _atom_site_fract_z
 _atom_site_occupancy
  Ce  Ce0  1  0.500000  0.333442  0.666879  1
  Ce  Ce1  1  0.500000  0.666563  0.333121  1
  Ce  Ce2  1  0.000000  0.666558  0.333121  1
  Ce  Ce3  1  0.000000  0.333437  0.666879  1
  Ce  Ce4  1  0.749996  0.257440  0.000000  1
  Ce  Ce5  1  0.750004  0.742498  0.742686  1
  Ce  Ce6  1  0.750004  0.999813  0.257314  1
  Ce  Ce7  1  0.249996  0.742560  0.000000  1
  Ce  Ce8  1  0.250004  0.257502  0.257314  1
  Ce  Ce9  1  0.250004  0.000187  0.742686  1
  Ge  Ge10  1  0.499965  0.999998  0.000000  1
  Ge  Ge11  1  0.999965  0.000002  0.000000  1
  Bi  Bi12  1  0.750013  0.615088  0.000000  1
  Bi  Bi13  1  0.750009  0.384764  0.384829  1
  Bi  Bi14  1  0.750009  0.999936  0.615171  1
  Bi  Bi15  1  0.250013  0.384912  0.000000  1
  Bi  Bi16  1  0.250009  0.615236  0.615171  1
  Bi  Bi17  1  0.250009  0.000064  0.384829  1
