# generated using pymatgen
data_LiMnSi2(Tc2B)4
_symmetry_space_group_name_H-M   'P 1'
_cell_length_a   5.82112635
_cell_length_b   5.82112660
_cell_length_c   6.82672121
_cell_angle_alpha   115.23605464
_cell_angle_beta   115.23605301
_cell_angle_gamma   90.00000224
_symmetry_Int_Tables_number   1
_chemical_formula_structural   LiMnSi2(Tc2B)4
_chemical_formula_sum   'Li1 Mn1 Si2 Tc8 B4'
_cell_volume   184.54813845
_cell_formula_units_Z   1
loop_
 _symmetry_equiv_pos_site_id
 _symmetry_equiv_pos_as_xyz
  1  'x, y, z'
loop_
 _atom_site_type_symbol
 _atom_site_label
 _atom_site_symmetry_multiplicity
 _atom_site_fract_x
 _atom_site_fract_y
 _atom_site_fract_z
 _atom_site_occupancy
  Li  Li0  1  0.000000  0.000000  0.000000  1
  Mn  Mn1  1  0.500000  0.500000  0.000000  1
  Si  Si2  1  0.247917  0.247917  0.495834  1
  Si  Si3  1  0.752083  0.752083  0.504166  1
  Tc  Tc4  1  0.029102  0.529395  0.728586  1
  Tc  Tc5  1  0.699484  0.199191  0.728586  1
  Tc  Tc6  1  0.199191  0.029102  0.728586  1
  Tc  Tc7  1  0.529395  0.699484  0.728586  1
  Tc  Tc8  1  0.970898  0.470605  0.271414  1
  Tc  Tc9  1  0.300516  0.800809  0.271414  1
  Tc  Tc10  1  0.800809  0.970898  0.271414  1
  Tc  Tc11  1  0.470605  0.300516  0.271414  1
  B  B12  1  0.375703  0.876210  0.000000  1
  B  B13  1  0.624297  0.123790  0.000000  1
  B  B14  1  0.123790  0.375703  0.000000  1
  B  B15  1  0.876210  0.624297  0.000000  1
