# generated using pymatgen
data_Be8V2ReIr
_symmetry_space_group_name_H-M   'P 1'
_cell_length_a   4.32923600
_cell_length_b   4.32923569
_cell_length_c   7.10025200
_cell_angle_alpha   90.00000000
_cell_angle_beta   90.00000000
_cell_angle_gamma   120.00000235
_symmetry_Int_Tables_number   1
_chemical_formula_structural   Be8V2ReIr
_chemical_formula_sum   'Be8 V2 Re1 Ir1'
_cell_volume   115.24626938
_cell_formula_units_Z   1
loop_
 _symmetry_equiv_pos_site_id
 _symmetry_equiv_pos_as_xyz
  1  'x, y, z'
loop_
 _atom_site_type_symbol
 _atom_site_label
 _atom_site_symmetry_multiplicity
 _atom_site_fract_x
 _atom_site_fract_y
 _atom_site_fract_z
 _atom_site_occupancy
  Be  Be0  1  0.000000  0.000000  0.999515  1
  Be  Be1  1  0.000000  0.000000  0.496016  1
  Be  Be2  1  0.830196  0.660394  0.249723  1
  Be  Be3  1  0.168495  0.831505  0.750062  1
  Be  Be4  1  0.663011  0.831505  0.750062  1
  Be  Be5  1  0.339606  0.169804  0.249723  1
  Be  Be6  1  0.830196  0.169804  0.249723  1
  Be  Be7  1  0.168495  0.336989  0.750062  1
  V  V8  1  0.666667  0.333333  0.936027  1
  V  V9  1  0.333333  0.666667  0.440856  1
  Re  Re10  1  0.666667  0.333333  0.563171  1
  Ir  Ir11  1  0.333333  0.666667  0.065060  1
