# generated using pymatgen
data_CaLa3(PrRh9)2
_symmetry_space_group_name_H-M   'P 1'
_cell_length_a   5.35543300
_cell_length_b   5.35560146
_cell_length_c   17.75281900
_cell_angle_alpha   89.99933896
_cell_angle_beta   90.00124019
_cell_angle_gamma   120.00066157
_symmetry_Int_Tables_number   1
_chemical_formula_structural   CaLa3(PrRh9)2
_chemical_formula_sum   'Ca1 La3 Pr2 Rh18'
_cell_volume   440.95868773
_cell_formula_units_Z   1
loop_
 _symmetry_equiv_pos_site_id
 _symmetry_equiv_pos_as_xyz
  1  'x, y, z'
loop_
 _atom_site_type_symbol
 _atom_site_label
 _atom_site_symmetry_multiplicity
 _atom_site_fract_x
 _atom_site_fract_y
 _atom_site_fract_z
 _atom_site_occupancy
  Ca  Ca0  1  0.333335  0.666677  0.541837  1
  La  La1  1  0.333328  0.666648  0.955520  1
  La  La2  1  0.333380  0.666694  0.745663  1
  La  La3  1  0.666641  0.333350  0.251577  1
  Pr  Pr4  1  0.666664  0.333326  0.042702  1
  Pr  Pr5  1  0.666645  0.333319  0.461197  1
  Rh  Rh6  1  0.166650  0.333224  0.127885  1
  Rh  Rh7  1  0.833442  0.666910  0.626544  1
  Rh  Rh8  1  0.666777  0.833414  0.127889  1
  Rh  Rh9  1  0.166621  0.833405  0.127891  1
  Rh  Rh10  1  0.833447  0.166514  0.626541  1
  Rh  Rh11  1  0.333085  0.166518  0.626552  1
  Rh  Rh12  1  0.833260  0.666567  0.872040  1
  Rh  Rh13  1  0.833260  0.166696  0.872045  1
  Rh  Rh14  1  0.333438  0.166718  0.872042  1
  Rh  Rh15  1  0.666569  0.833300  0.373582  1
  Rh  Rh16  1  0.166741  0.833307  0.373590  1
  Rh  Rh17  1  0.166717  0.333437  0.373577  1
  Rh  Rh18  1  0.000039  0.999992  0.250968  1
  Rh  Rh19  1  0.999937  0.999940  0.749266  1
  Rh  Rh20  1  0.333252  0.666619  0.250641  1
  Rh  Rh21  1  0.666782  0.333417  0.749387  1
  Rh  Rh22  1  0.999948  0.999928  0.000140  1
  Rh  Rh23  1  0.000047  0.000078  0.500922  1
