# generated using pymatgen
data_Na5RhF8
_symmetry_space_group_name_H-M   'P 1'
_cell_length_a   5.77051100
_cell_length_b   5.77051024
_cell_length_c   6.70714900
_cell_angle_alpha   90.00000000
_cell_angle_beta   90.00000000
_cell_angle_gamma   109.85092592
_symmetry_Int_Tables_number   1
_chemical_formula_structural   Na5RhF8
_chemical_formula_sum   'Na5 Rh1 F8'
_cell_volume   210.06895215
_cell_formula_units_Z   1
loop_
 _symmetry_equiv_pos_site_id
 _symmetry_equiv_pos_as_xyz
  1  'x, y, z'
loop_
 _atom_site_type_symbol
 _atom_site_label
 _atom_site_symmetry_multiplicity
 _atom_site_fract_x
 _atom_site_fract_y
 _atom_site_fract_z
 _atom_site_occupancy
  Na  Na0  1  0.500000  0.000000  0.238687  1
  Na  Na1  1  0.500000  0.000000  0.761313  1
  Na  Na2  1  0.500000  0.500000  0.000000  1
  Na  Na3  1  0.000000  0.500000  0.761313  1
  Na  Na4  1  0.000000  0.500000  0.238687  1
  Rh  Rh5  1  0.500000  0.500000  0.500000  1
  F  F6  1  0.735920  0.264080  0.000000  1
  F  F7  1  0.714517  0.285483  0.500000  1
  F  F8  1  0.292043  0.292043  0.719824  1
  F  F9  1  0.707957  0.707957  0.719824  1
  F  F10  1  0.292043  0.292043  0.280176  1
  F  F11  1  0.707957  0.707957  0.280176  1
  F  F12  1  0.285483  0.714517  0.500000  1
  F  F13  1  0.264080  0.735920  0.000000  1
