# generated using pymatgen
data_Y3ThZnRu
_symmetry_space_group_name_H-M   'P 1'
_cell_length_a   9.60271377
_cell_length_b   9.60271395
_cell_length_c   9.60271300
_cell_angle_alpha   59.99999982
_cell_angle_beta   59.99999920
_cell_angle_gamma   59.99999810
_symmetry_Int_Tables_number   1
_chemical_formula_structural   Y3ThZnRu
_chemical_formula_sum   'Y12 Th4 Zn4 Ru4'
_cell_volume   626.13346723
_cell_formula_units_Z   4
loop_
 _symmetry_equiv_pos_site_id
 _symmetry_equiv_pos_as_xyz
  1  'x, y, z'
loop_
 _atom_site_type_symbol
 _atom_site_label
 _atom_site_symmetry_multiplicity
 _atom_site_fract_x
 _atom_site_fract_y
 _atom_site_fract_z
 _atom_site_occupancy
  Y  Y0  1  0.809136  0.190864  0.190864  1
  Y  Y1  1  0.190864  0.809136  0.809136  1
  Y  Y2  1  0.190864  0.809136  0.190864  1
  Y  Y3  1  0.809136  0.190864  0.809136  1
  Y  Y4  1  0.190864  0.190864  0.809136  1
  Y  Y5  1  0.809136  0.809136  0.190864  1
  Y  Y6  1  0.935912  0.564088  0.564088  1
  Y  Y7  1  0.564088  0.935912  0.935912  1
  Y  Y8  1  0.564088  0.935912  0.564088  1
  Y  Y9  1  0.935912  0.564088  0.935912  1
  Y  Y10  1  0.564088  0.564088  0.935912  1
  Y  Y11  1  0.935912  0.935912  0.564088  1
  Th  Th12  1  0.350297  0.350297  0.350297  1
  Th  Th13  1  0.350297  0.350297  0.949109  1
  Th  Th14  1  0.350297  0.949109  0.350297  1
  Th  Th15  1  0.949109  0.350297  0.350297  1
  Zn  Zn16  1  0.578882  0.578882  0.578882  1
  Zn  Zn17  1  0.578882  0.578882  0.263355  1
  Zn  Zn18  1  0.578882  0.263355  0.578882  1
  Zn  Zn19  1  0.263355  0.578882  0.578882  1
  Ru  Ru20  1  0.143991  0.143991  0.143991  1
  Ru  Ru21  1  0.143991  0.143991  0.568026  1
  Ru  Ru22  1  0.143991  0.568026  0.143991  1
  Ru  Ru23  1  0.568026  0.143991  0.143991  1
