# generated using pymatgen
data_Er7(PSe3)2
_symmetry_space_group_name_H-M   'P 1'
_cell_length_a   8.02710426
_cell_length_b   6.95434281
_cell_length_c   8.04483000
_cell_angle_alpha   89.97499509
_cell_angle_beta   59.97772040
_cell_angle_gamma   73.05161159
_symmetry_Int_Tables_number   1
_chemical_formula_structural   Er7(PSe3)2
_chemical_formula_sum   'Er7 P2 Se6'
_cell_volume   366.16879627
_cell_formula_units_Z   1
loop_
 _symmetry_equiv_pos_site_id
 _symmetry_equiv_pos_as_xyz
  1  'x, y, z'
loop_
 _atom_site_type_symbol
 _atom_site_label
 _atom_site_symmetry_multiplicity
 _atom_site_fract_x
 _atom_site_fract_y
 _atom_site_fract_z
 _atom_site_occupancy
  Er  Er0  1  0.159656  0.687725  0.979456  1
  Er  Er1  1  0.662130  0.185554  0.744394  1
  Er  Er2  1  0.147345  0.178453  0.737697  1
  Er  Er3  1  0.658904  0.689275  0.981175  1
  Er  Er4  1  0.161477  0.687369  0.479620  1
  Er  Er5  1  0.658971  0.189354  0.214052  1
  Er  Er6  1  0.170834  0.200702  0.225616  1
  P  P7  1  0.409161  0.445108  0.104346  1
  P  P8  1  0.911554  0.930882  0.854435  1
  Se  Se9  1  0.413276  0.936078  0.358628  1
  Se  Se10  1  0.905746  0.442111  0.603941  1
  Se  Se11  1  0.904582  0.442649  0.113141  1
  Se  Se12  1  0.409938  0.429515  0.605506  1
  Se  Se13  1  0.911961  0.946250  0.353847  1
  Se  Se14  1  0.412399  0.935914  0.850564  1
