# generated using pymatgen
data_Sr2V3Ni9As7
_symmetry_space_group_name_H-M   'P 1'
_cell_length_a   9.60408200
_cell_length_b   9.60408201
_cell_length_c   3.85833300
_cell_angle_alpha   90.00000000
_cell_angle_beta   90.00000000
_cell_angle_gamma   119.99999998
_symmetry_Int_Tables_number   1
_chemical_formula_structural   Sr2V3Ni9As7
_chemical_formula_sum   'Sr2 V3 Ni9 As7'
_cell_volume   308.20668790
_cell_formula_units_Z   1
loop_
 _symmetry_equiv_pos_site_id
 _symmetry_equiv_pos_as_xyz
  1  'x, y, z'
loop_
 _atom_site_type_symbol
 _atom_site_label
 _atom_site_symmetry_multiplicity
 _atom_site_fract_x
 _atom_site_fract_y
 _atom_site_fract_z
 _atom_site_occupancy
  Sr  Sr0  1  0.333333  0.666667  0.000000  1
  Sr  Sr1  1  0.666667  0.333333  0.500000  1
  V  V2  1  0.212840  0.110536  0.500000  1
  V  V3  1  0.889464  0.102306  0.500000  1
  V  V4  1  0.897694  0.787160  0.500000  1
  Ni  Ni5  1  0.126607  0.276411  0.000000  1
  Ni  Ni6  1  0.723589  0.850197  0.000000  1
  Ni  Ni7  1  0.149803  0.873393  0.000000  1
  Ni  Ni8  1  0.426609  0.367441  0.000000  1
  Ni  Ni9  1  0.632559  0.059169  0.000000  1
  Ni  Ni10  1  0.940831  0.573391  0.000000  1
  Ni  Ni11  1  0.051124  0.428499  0.500000  1
  Ni  Ni12  1  0.571501  0.622624  0.500000  1
  Ni  Ni13  1  0.377376  0.948876  0.500000  1
  As  As14  1  0.293882  0.399427  0.500000  1
  As  As15  1  0.600573  0.894455  0.500000  1
  As  As16  1  0.105545  0.706118  0.500000  1
  As  As17  1  0.404018  0.107715  0.000000  1
  As  As18  1  0.892285  0.296303  0.000000  1
  As  As19  1  0.703697  0.595982  0.000000  1
  As  As20  1  0.000000  0.000000  0.000000  1
