# generated using pymatgen
data_Dy10In8Ir2PtRh
_symmetry_space_group_name_H-M   'P 1'
_cell_length_a   3.64617600
_cell_length_b   8.08113471
_cell_length_c   18.28888537
_cell_angle_alpha   89.86386196
_cell_angle_beta   90.00000000
_cell_angle_gamma   90.00000000
_symmetry_Int_Tables_number   1
_chemical_formula_structural   Dy10In8Ir2PtRh
_chemical_formula_sum   'Dy10 In8 Ir2 Pt1 Rh1'
_cell_volume   538.88486550
_cell_formula_units_Z   1
loop_
 _symmetry_equiv_pos_site_id
 _symmetry_equiv_pos_as_xyz
  1  'x, y, z'
loop_
 _atom_site_type_symbol
 _atom_site_label
 _atom_site_symmetry_multiplicity
 _atom_site_fract_x
 _atom_site_fract_y
 _atom_site_fract_z
 _atom_site_occupancy
  Dy  Dy0  1  0.000000  0.115071  0.412281  1
  Dy  Dy1  1  0.000000  0.883732  0.589117  1
  Dy  Dy2  1  0.000000  0.384274  0.910636  1
  Dy  Dy3  1  0.000000  0.617269  0.086196  1
  Dy  Dy4  1  0.000000  0.237955  0.222091  1
  Dy  Dy5  1  0.000000  0.756311  0.778201  1
  Dy  Dy6  1  0.000000  0.252474  0.721306  1
  Dy  Dy7  1  0.000000  0.751739  0.279706  1
  Dy  Dy8  1  0.000000  0.000187  0.999674  1
  Dy  Dy9  1  0.000000  0.500438  0.500087  1
  In  In10  1  0.500000  0.425394  0.351462  1
  In  In11  1  0.500000  0.571547  0.649955  1
  In  In12  1  0.500000  0.071951  0.850264  1
  In  In13  1  0.500000  0.928273  0.149336  1
  In  In14  1  0.500000  0.291970  0.066302  1
  In  In15  1  0.500000  0.707047  0.931547  1
  In  In16  1  0.500000  0.206881  0.568195  1
  In  In17  1  0.500000  0.792838  0.432172  1
  Ir  Ir18  1  0.500000  0.021917  0.304249  1
  Ir  Ir19  1  0.500000  0.980262  0.695805  1
  Pt  Pt20  1  0.500000  0.523329  0.196549  1
  Rh  Rh21  1  0.500000  0.479137  0.804869  1
