# generated using pymatgen
data_DyHo4Tm11In3AgIr4
_symmetry_space_group_name_H-M   'P 1'
_cell_length_a   9.58282623
_cell_length_b   9.57994303
_cell_length_c   9.58053300
_cell_angle_alpha   59.89895812
_cell_angle_beta   59.87223659
_cell_angle_gamma   59.86755236
_symmetry_Int_Tables_number   1
_chemical_formula_structural   DyHo4Tm11In3AgIr4
_chemical_formula_sum   'Dy1 Ho4 Tm11 In3 Ag1 Ir4'
_cell_volume   620.21593464
_cell_formula_units_Z   1
loop_
 _symmetry_equiv_pos_site_id
 _symmetry_equiv_pos_as_xyz
  1  'x, y, z'
loop_
 _atom_site_type_symbol
 _atom_site_label
 _atom_site_symmetry_multiplicity
 _atom_site_fract_x
 _atom_site_fract_y
 _atom_site_fract_z
 _atom_site_occupancy
  Dy  Dy0  1  0.189933  0.189589  0.809591  1
  Ho  Ho1  1  0.808196  0.191386  0.191703  1
  Ho  Ho2  1  0.811035  0.185823  0.810727  1
  Ho  Ho3  1  0.190185  0.809163  0.190132  1
  Ho  Ho4  1  0.811606  0.810924  0.185747  1
  Tm  Tm5  1  0.599059  0.598332  0.598016  1
  Tm  Tm6  1  0.599409  0.600719  0.202354  1
  Tm  Tm7  1  0.599344  0.202272  0.600590  1
  Tm  Tm8  1  0.202151  0.599685  0.599592  1
  Tm  Tm9  1  0.058655  0.441155  0.440803  1
  Tm  Tm10  1  0.438097  0.060108  0.060223  1
  Tm  Tm11  1  0.440968  0.058324  0.441450  1
  Tm  Tm12  1  0.059819  0.439206  0.059525  1
  Tm  Tm13  1  0.440880  0.441698  0.058295  1
  Tm  Tm14  1  0.059818  0.059429  0.439089  1
  Tm  Tm15  1  0.187773  0.809100  0.809444  1
  In  In16  1  0.832156  0.832299  0.504137  1
  In  In17  1  0.831864  0.504481  0.832288  1
  In  In18  1  0.503824  0.832071  0.832441  1
  Ag  Ag19  1  0.834334  0.832984  0.833150  1
  Ir  Ir20  1  0.392508  0.391824  0.391385  1
  Ir  Ir21  1  0.390927  0.392209  0.826501  1
  Ir  Ir22  1  0.390679  0.826508  0.392040  1
  Ir  Ir23  1  0.826785  0.390708  0.390777  1
