# generated using pymatgen
data_Dy5Ho4Lu11Sn16
_symmetry_space_group_name_H-M   'P 1'
_cell_length_a   7.94544503
_cell_length_b   8.07136569
_cell_length_c   15.25642102
_cell_angle_alpha   90.03123519
_cell_angle_beta   89.99540113
_cell_angle_gamma   90.06769633
_symmetry_Int_Tables_number   1
_chemical_formula_structural   Dy5Ho4Lu11Sn16
_chemical_formula_sum   'Dy5 Ho4 Lu11 Sn16'
_cell_volume   978.40248618
_cell_formula_units_Z   1
loop_
 _symmetry_equiv_pos_site_id
 _symmetry_equiv_pos_as_xyz
  1  'x, y, z'
loop_
 _atom_site_type_symbol
 _atom_site_label
 _atom_site_symmetry_multiplicity
 _atom_site_fract_x
 _atom_site_fract_y
 _atom_site_fract_z
 _atom_site_occupancy
  Dy  Dy0  1  0.978810  0.822451  0.097443  1
  Dy  Dy1  1  0.480667  0.677882  0.096194  1
  Dy  Dy2  1  0.979455  0.821755  0.403478  1
  Dy  Dy3  1  0.519731  0.321147  0.595382  1
  Dy  Dy4  1  0.020391  0.178388  0.903721  1
  Ho  Ho5  1  0.866177  0.663496  0.877707  1
  Ho  Ho6  1  0.520459  0.321180  0.904157  1
  Ho  Ho7  1  0.020662  0.178699  0.595632  1
  Ho  Ho8  1  0.479191  0.678443  0.403874  1
  Lu  Lu9  1  0.364589  0.837485  0.876189  1
  Lu  Lu10  1  0.865229  0.661955  0.623061  1
  Lu  Lu11  1  0.634924  0.161580  0.376662  1
  Lu  Lu12  1  0.135001  0.337927  0.123643  1
  Lu  Lu13  1  0.633804  0.161977  0.124604  1
  Lu  Lu14  1  0.134678  0.337467  0.376615  1
  Lu  Lu15  1  0.365983  0.838137  0.622733  1
  Lu  Lu16  1  0.196906  0.504759  0.749699  1
  Lu  Lu17  1  0.696210  0.995736  0.749263  1
  Lu  Lu18  1  0.803562  0.494981  0.250413  1
  Lu  Lu19  1  0.303210  0.004720  0.250018  1
  Sn  Sn20  1  0.296515  0.039433  0.041492  1
  Sn  Sn21  1  0.796832  0.460696  0.458158  1
  Sn  Sn22  1  0.704252  0.960321  0.541242  1
  Sn  Sn23  1  0.206797  0.538127  0.958961  1
  Sn  Sn24  1  0.700919  0.963689  0.958655  1
  Sn  Sn25  1  0.202587  0.539597  0.541402  1
  Sn  Sn26  1  0.296472  0.039129  0.458352  1
  Sn  Sn27  1  0.796584  0.458914  0.043017  1
  Sn  Sn28  1  0.561799  0.620049  0.749001  1
  Sn  Sn29  1  0.063038  0.880973  0.748977  1
  Sn  Sn30  1  0.437667  0.379852  0.250720  1
  Sn  Sn31  1  0.937624  0.120338  0.250064  1
  Sn  Sn32  1  0.330641  0.149480  0.749622  1
  Sn  Sn33  1  0.830162  0.350335  0.749351  1
  Sn  Sn34  1  0.668967  0.849848  0.250300  1
  Sn  Sn35  1  0.169502  0.649052  0.250199  1
