# generated using pymatgen
data_Ho2Lu10Co5Bi
_symmetry_space_group_name_H-M   'P 1'
_cell_length_a   8.13068690
_cell_length_b   8.13989830
_cell_length_c   8.13989884
_cell_angle_alpha   111.24829046
_cell_angle_beta   110.95764180
_cell_angle_gamma   106.29806840
_symmetry_Int_Tables_number   1
_chemical_formula_structural   Ho2Lu10Co5Bi
_chemical_formula_sum   'Ho2 Lu10 Co5 Bi1'
_cell_volume   413.52527542
_cell_formula_units_Z   1
loop_
 _symmetry_equiv_pos_site_id
 _symmetry_equiv_pos_as_xyz
  1  'x, y, z'
loop_
 _atom_site_type_symbol
 _atom_site_label
 _atom_site_symmetry_multiplicity
 _atom_site_fract_x
 _atom_site_fract_y
 _atom_site_fract_z
 _atom_site_occupancy
  Ho  Ho0  1  0.984876  0.789352  0.195524  1
  Ho  Ho1  1  0.015124  0.210648  0.804476  1
  Lu  Lu2  1  0.816337  0.713105  0.531786  1
  Lu  Lu3  1  0.183663  0.286895  0.468214  1
  Lu  Lu4  1  0.183663  0.715449  0.896770  1
  Lu  Lu5  1  0.816337  0.284551  0.103230  1
  Lu  Lu6  1  0.686254  0.378799  0.689331  1
  Lu  Lu7  1  0.313746  0.621201  0.310669  1
  Lu  Lu8  1  0.686254  0.996922  0.307454  1
  Lu  Lu9  1  0.313746  0.003078  0.692546  1
  Lu  Lu10  1  0.592139  0.788574  0.803567  1
  Lu  Lu11  1  0.407861  0.211426  0.196433  1
  Co  Co12  1  0.624411  0.998586  0.625825  1
  Co  Co13  1  0.375589  0.001414  0.374175  1
  Co  Co14  1  0.115380  0.612507  0.502873  1
  Co  Co15  1  0.884620  0.387493  0.497127  1
  Co  Co16  1  0.000000  0.000000  0.000000  1
  Bi  Bi17  1  0.500000  0.500000  0.000000  1
