# generated using pymatgen
data_SmIrF7
_symmetry_space_group_name_H-M   'P 1'
_cell_length_a   5.68534100
_cell_length_b   9.09978293
_cell_length_c   12.14691956
_cell_angle_alpha   62.28208454
_cell_angle_beta   90.00000000
_cell_angle_gamma   90.00000000
_symmetry_Int_Tables_number   1
_chemical_formula_structural   SmIrF7
_chemical_formula_sum   'Sm4 Ir4 F28'
_cell_volume   556.31244492
_cell_formula_units_Z   4
loop_
 _symmetry_equiv_pos_site_id
 _symmetry_equiv_pos_as_xyz
  1  'x, y, z'
loop_
 _atom_site_type_symbol
 _atom_site_label
 _atom_site_symmetry_multiplicity
 _atom_site_fract_x
 _atom_site_fract_y
 _atom_site_fract_z
 _atom_site_occupancy
  Sm  Sm0  1  0.759691  0.812060  0.266172  1
  Sm  Sm1  1  0.259691  0.187940  0.233828  1
  Sm  Sm2  1  0.240309  0.187940  0.733828  1
  Sm  Sm3  1  0.740309  0.812060  0.766172  1
  Ir  Ir4  1  0.243176  0.726252  0.544299  1
  Ir  Ir5  1  0.743176  0.273748  0.955701  1
  Ir  Ir6  1  0.756824  0.273748  0.455701  1
  Ir  Ir7  1  0.256824  0.726252  0.044299  1
  F  F8  1  0.956868  0.716183  0.455295  1
  F  F9  1  0.456868  0.283817  0.044705  1
  F  F10  1  0.043132  0.283817  0.544705  1
  F  F11  1  0.543132  0.716183  0.955295  1
  F  F12  1  0.052940  0.706867  0.920460  1
  F  F13  1  0.552940  0.293133  0.579540  1
  F  F14  1  0.947060  0.293133  0.079540  1
  F  F15  1  0.447060  0.706867  0.420460  1
  F  F16  1  0.735536  0.514815  0.860243  1
  F  F17  1  0.235536  0.485185  0.639757  1
  F  F18  1  0.264464  0.485185  0.139757  1
  F  F19  1  0.764464  0.514815  0.360243  1
  F  F20  1  0.741794  0.032534  0.048894  1
  F  F21  1  0.241794  0.967466  0.451106  1
  F  F22  1  0.258206  0.967466  0.951106  1
  F  F23  1  0.758206  0.032534  0.548894  1
  F  F24  1  0.042325  0.744198  0.670053  1
  F  F25  1  0.542325  0.255802  0.829947  1
  F  F26  1  0.957675  0.255802  0.329947  1
  F  F27  1  0.457675  0.744198  0.170053  1
  F  F28  1  0.023545  0.268807  0.861972  1
  F  F29  1  0.523545  0.731193  0.638028  1
  F  F30  1  0.976455  0.731193  0.138028  1
  F  F31  1  0.476455  0.268807  0.361972  1
  F  F32  1  0.083538  0.970353  0.232016  1
  F  F33  1  0.583538  0.029647  0.267984  1
  F  F34  1  0.916462  0.029647  0.767984  1
  F  F35  1  0.416462  0.970353  0.732016  1
