# generated using pymatgen
data_CeSmFe12P7
_symmetry_space_group_name_H-M   'P 1'
_cell_length_a   8.97405900
_cell_length_b   8.97406006
_cell_length_c   3.65966600
_cell_angle_alpha   90.00000000
_cell_angle_beta   90.00000000
_cell_angle_gamma   120.00000618
_symmetry_Int_Tables_number   1
_chemical_formula_structural   CeSmFe12P7
_chemical_formula_sum   'Ce1 Sm1 Fe12 P7'
_cell_volume   255.24071233
_cell_formula_units_Z   1
loop_
 _symmetry_equiv_pos_site_id
 _symmetry_equiv_pos_as_xyz
  1  'x, y, z'
loop_
 _atom_site_type_symbol
 _atom_site_label
 _atom_site_symmetry_multiplicity
 _atom_site_fract_x
 _atom_site_fract_y
 _atom_site_fract_z
 _atom_site_occupancy
  Ce  Ce0  1  0.333333  0.666667  0.500000  1
  Sm  Sm1  1  0.000000  0.000000  0.000000  1
  Fe  Fe2  1  0.094236  0.393320  0.000000  1
  Fe  Fe3  1  0.299084  0.905764  0.000000  1
  Fe  Fe4  1  0.606680  0.700916  0.000000  1
  Fe  Fe5  1  0.817478  0.605071  0.000000  1
  Fe  Fe6  1  0.787593  0.182522  0.000000  1
  Fe  Fe7  1  0.394929  0.212407  0.000000  1
  Fe  Fe8  1  0.049876  0.764792  0.500000  1
  Fe  Fe9  1  0.714916  0.950124  0.500000  1
  Fe  Fe10  1  0.235208  0.285084  0.500000  1
  Fe  Fe11  1  0.878746  0.429804  0.500000  1
  Fe  Fe12  1  0.551058  0.121254  0.500000  1
  Fe  Fe13  1  0.570196  0.448942  0.500000  1
  P  P14  1  0.072532  0.632938  0.000000  1
  P  P15  1  0.560406  0.927468  0.000000  1
  P  P16  1  0.367062  0.439594  0.000000  1
  P  P17  1  0.773557  0.730478  0.500000  1
  P  P18  1  0.956921  0.226443  0.500000  1
  P  P19  1  0.269522  0.043079  0.500000  1
  P  P20  1  0.666667  0.333333  0.000000  1
