# generated using pymatgen
data_Sr3TmBi3
_symmetry_space_group_name_H-M   'P 1'
_cell_length_a   8.60644846
_cell_length_b   8.75348465
_cell_length_c   8.60644850
_cell_angle_alpha   109.75755713
_cell_angle_beta   108.89311175
_cell_angle_gamma   109.75755412
_symmetry_Int_Tables_number   1
_chemical_formula_structural   Sr3TmBi3
_chemical_formula_sum   'Sr6 Tm2 Bi6'
_cell_volume   499.12752555
_cell_formula_units_Z   2
loop_
 _symmetry_equiv_pos_site_id
 _symmetry_equiv_pos_as_xyz
  1  'x, y, z'
loop_
 _atom_site_type_symbol
 _atom_site_label
 _atom_site_symmetry_multiplicity
 _atom_site_fract_x
 _atom_site_fract_y
 _atom_site_fract_z
 _atom_site_occupancy
  Sr  Sr0  1  0.359884  0.354808  0.357060  1
  Sr  Sr1  1  0.000220  0.139805  0.496899  1
  Sr  Sr2  1  0.857060  0.854808  0.859884  1
  Sr  Sr3  1  0.996899  0.639805  0.500220  1
  Sr  Sr4  1  0.505111  0.005031  0.139503  1
  Sr  Sr5  1  0.639503  0.505031  0.005111  1
  Tm  Tm6  1  0.502075  0.003632  0.640048  1
  Tm  Tm7  1  0.140048  0.503632  0.002075  1
  Bi  Bi8  1  0.876560  0.253258  0.103768  1
  Bi  Bi9  1  0.140242  0.865087  0.256310  1
  Bi  Bi10  1  0.370138  0.628379  0.752182  1
  Bi  Bi11  1  0.252182  0.128379  0.870138  1
  Bi  Bi12  1  0.756310  0.365087  0.640242  1
  Bi  Bi13  1  0.603768  0.753258  0.376560  1
