# generated using pymatgen
data_NdB2RuRh
_symmetry_space_group_name_H-M   'P 1'
_cell_length_a   6.88578796
_cell_length_b   6.02565869
_cell_length_c   5.59878821
_cell_angle_alpha   72.54320597
_cell_angle_beta   56.59325711
_cell_angle_gamma   50.86354555
_symmetry_Int_Tables_number   1
_chemical_formula_structural   NdB2RuRh
_chemical_formula_sum   'Nd2 B4 Ru2 Rh2'
_cell_volume   150.00853792
_cell_formula_units_Z   2
loop_
 _symmetry_equiv_pos_site_id
 _symmetry_equiv_pos_as_xyz
  1  'x, y, z'
loop_
 _atom_site_type_symbol
 _atom_site_label
 _atom_site_symmetry_multiplicity
 _atom_site_fract_x
 _atom_site_fract_y
 _atom_site_fract_z
 _atom_site_occupancy
  Nd  Nd0  1  0.000000  0.000000  0.000000  1
  Nd  Nd1  1  0.250000  0.250000  0.250000  1
  B  B2  1  0.313480  0.686520  0.313480  1
  B  B3  1  0.686520  0.313480  0.686520  1
  B  B4  1  0.575908  0.924092  0.575908  1
  B  B5  1  0.924092  0.575908  0.924092  1
  Ru  Ru6  1  0.614523  0.614523  0.885477  1
  Ru  Ru7  1  0.885477  0.885477  0.614523  1
  Rh  Rh8  1  0.633996  0.633996  0.366004  1
  Rh  Rh9  1  0.366004  0.366004  0.633996  1
