# generated using pymatgen
data_NdTa6Cl18
_symmetry_space_group_name_H-M   'P 1'
_cell_length_a   10.24460595
_cell_length_b   10.24460580
_cell_length_c   10.24460564
_cell_angle_alpha   55.91778508
_cell_angle_beta   55.91778076
_cell_angle_gamma   55.91777708
_symmetry_Int_Tables_number   1
_chemical_formula_structural   NdTa6Cl18
_chemical_formula_sum   'Nd1 Ta6 Cl18'
_cell_volume   688.34696246
_cell_formula_units_Z   1
loop_
 _symmetry_equiv_pos_site_id
 _symmetry_equiv_pos_as_xyz
  1  'x, y, z'
loop_
 _atom_site_type_symbol
 _atom_site_label
 _atom_site_symmetry_multiplicity
 _atom_site_fract_x
 _atom_site_fract_y
 _atom_site_fract_z
 _atom_site_occupancy
  Nd  Nd0  1  0.000000  0.000000  0.000000  1
  Ta  Ta1  1  0.410766  0.302886  0.647313  1
  Ta  Ta2  1  0.352687  0.589234  0.697114  1
  Ta  Ta3  1  0.697114  0.352687  0.589234  1
  Ta  Ta4  1  0.302886  0.647313  0.410766  1
  Ta  Ta5  1  0.647313  0.410766  0.302886  1
  Ta  Ta6  1  0.589234  0.697114  0.352687  1
  Cl  Cl7  1  0.568513  0.164538  0.441375  1
  Cl  Cl8  1  0.225763  0.371221  0.904751  1
  Cl  Cl9  1  0.904751  0.225763  0.371221  1
  Cl  Cl10  1  0.371221  0.904751  0.225763  1
  Cl  Cl11  1  0.774237  0.628779  0.095249  1
  Cl  Cl12  1  0.095249  0.774237  0.628779  1
  Cl  Cl13  1  0.695874  0.952911  0.166266  1
  Cl  Cl14  1  0.952911  0.166266  0.695874  1
  Cl  Cl15  1  0.166266  0.695874  0.952911  1
  Cl  Cl16  1  0.304126  0.047089  0.833734  1
  Cl  Cl17  1  0.047089  0.833734  0.304126  1
  Cl  Cl18  1  0.833734  0.304126  0.047089  1
  Cl  Cl19  1  0.558625  0.431487  0.835462  1
  Cl  Cl20  1  0.164538  0.441375  0.568513  1
  Cl  Cl21  1  0.441375  0.568513  0.164538  1
  Cl  Cl22  1  0.431487  0.835462  0.558625  1
  Cl  Cl23  1  0.835462  0.558625  0.431487  1
  Cl  Cl24  1  0.628779  0.095249  0.774237  1
