# generated using pymatgen
data_Er10Bi4PtRh
_symmetry_space_group_name_H-M   'P 1'
_cell_length_a   7.97764485
_cell_length_b   8.97639100
_cell_length_c   12.35113849
_cell_angle_alpha   90.00000000
_cell_angle_beta   90.09733277
_cell_angle_gamma   90.00000000
_symmetry_Int_Tables_number   1
_chemical_formula_structural   Er10Bi4PtRh
_chemical_formula_sum   'Er20 Bi8 Pt2 Rh2'
_cell_volume   884.46942618
_cell_formula_units_Z   2
loop_
 _symmetry_equiv_pos_site_id
 _symmetry_equiv_pos_as_xyz
  1  'x, y, z'
loop_
 _atom_site_type_symbol
 _atom_site_label
 _atom_site_symmetry_multiplicity
 _atom_site_fract_x
 _atom_site_fract_y
 _atom_site_fract_z
 _atom_site_occupancy
  Er  Er0  1  0.661797  0.750000  0.706962  1
  Er  Er1  1  0.338203  0.250000  0.293038  1
  Er  Er2  1  0.164997  0.250000  0.789003  1
  Er  Er3  1  0.835003  0.750000  0.210997  1
  Er  Er4  1  0.127817  0.750000  0.805742  1
  Er  Er5  1  0.872183  0.250000  0.194258  1
  Er  Er6  1  0.624726  0.250000  0.692159  1
  Er  Er7  1  0.375274  0.750000  0.307841  1
  Er  Er8  1  0.549318  0.750000  0.999547  1
  Er  Er9  1  0.450682  0.250000  0.000453  1
  Er  Er10  1  0.050064  0.250000  0.500438  1
  Er  Er11  1  0.949936  0.750000  0.499562  1
  Er  Er12  1  0.822076  0.454458  0.932030  1
  Er  Er13  1  0.177924  0.545542  0.067970  1
  Er  Er14  1  0.325279  0.544481  0.566043  1
  Er  Er15  1  0.177924  0.954458  0.067970  1
  Er  Er16  1  0.674721  0.455519  0.433957  1
  Er  Er17  1  0.822076  0.045542  0.932030  1
  Er  Er18  1  0.674721  0.044481  0.433957  1
  Er  Er19  1  0.325279  0.955519  0.566043  1
  Bi  Bi20  1  0.934412  0.008764  0.673344  1
  Bi  Bi21  1  0.065588  0.991236  0.326656  1
  Bi  Bi22  1  0.433392  0.990697  0.827482  1
  Bi  Bi23  1  0.065588  0.508764  0.326656  1
  Bi  Bi24  1  0.566608  0.009303  0.172518  1
  Bi  Bi25  1  0.934412  0.491236  0.673344  1
  Bi  Bi26  1  0.566608  0.490697  0.172518  1
  Bi  Bi27  1  0.433392  0.509303  0.827482  1
  Pt  Pt28  1  0.924223  0.750000  0.990117  1
  Pt  Pt29  1  0.075777  0.250000  0.009883  1
  Rh  Rh30  1  0.424674  0.250000  0.510145  1
  Rh  Rh31  1  0.575326  0.750000  0.489855  1
