# generated using pymatgen
data_LaPr3Nd(RuO6)2
_symmetry_space_group_name_H-M   'P 1'
_cell_length_a   7.12708554
_cell_length_b   7.12708544
_cell_length_c   7.76254234
_cell_angle_alpha   74.15805756
_cell_angle_beta   74.15805593
_cell_angle_gamma   49.97966051
_symmetry_Int_Tables_number   1
_chemical_formula_structural   LaPr3Nd(RuO6)2
_chemical_formula_sum   'La1 Pr3 Nd1 Ru2 O12'
_cell_volume   287.94119004
_cell_formula_units_Z   1
loop_
 _symmetry_equiv_pos_site_id
 _symmetry_equiv_pos_as_xyz
  1  'x, y, z'
loop_
 _atom_site_type_symbol
 _atom_site_label
 _atom_site_symmetry_multiplicity
 _atom_site_fract_x
 _atom_site_fract_y
 _atom_site_fract_z
 _atom_site_occupancy
  La  La0  1  0.000085  0.000085  0.499809  1
  Pr  Pr1  1  0.693278  0.693278  0.642620  1
  Pr  Pr2  1  0.690917  0.690917  0.167350  1
  Pr  Pr3  1  0.309125  0.309125  0.832693  1
  Nd  Nd4  1  0.306580  0.306580  0.357316  1
  Ru  Ru5  1  0.764446  0.235336  0.000222  1
  Ru  Ru6  1  0.235336  0.764446  0.000222  1
  O  O7  1  0.095813  0.592864  0.577288  1
  O  O8  1  0.999153  0.999153  0.183971  1
  O  O9  1  0.405728  0.906629  0.421477  1
  O  O10  1  0.499391  0.499391  0.171870  1
  O  O11  1  0.096724  0.585059  0.079176  1
  O  O12  1  0.906629  0.405728  0.421477  1
  O  O13  1  0.000824  0.000824  0.816009  1
  O  O14  1  0.592864  0.095812  0.577288  1
  O  O15  1  0.500016  0.500016  0.828808  1
  O  O16  1  0.585059  0.096724  0.079176  1
  O  O17  1  0.414301  0.903729  0.921614  1
  O  O18  1  0.903729  0.414301  0.921614  1
