# generated using pymatgen
data_Th4Ni3Os
_symmetry_space_group_name_H-M   'P 1'
_cell_length_a   4.24985500
_cell_length_b   5.79113700
_cell_length_c   14.31602800
_cell_angle_alpha   90.00000000
_cell_angle_beta   90.00000000
_cell_angle_gamma   90.00000000
_symmetry_Int_Tables_number   1
_chemical_formula_structural   Th4Ni3Os
_chemical_formula_sum   'Th8 Ni6 Os2'
_cell_volume   352.33881625
_cell_formula_units_Z   2
loop_
 _symmetry_equiv_pos_site_id
 _symmetry_equiv_pos_as_xyz
  1  'x, y, z'
loop_
 _atom_site_type_symbol
 _atom_site_label
 _atom_site_symmetry_multiplicity
 _atom_site_fract_x
 _atom_site_fract_y
 _atom_site_fract_z
 _atom_site_occupancy
  Th  Th0  1  0.250000  0.545065  0.284304  1
  Th  Th1  1  0.750000  0.457852  0.715654  1
  Th  Th2  1  0.250000  0.957852  0.784346  1
  Th  Th3  1  0.250000  0.759502  0.538473  1
  Th  Th4  1  0.250000  0.748413  0.033172  1
  Th  Th5  1  0.750000  0.259502  0.961527  1
  Th  Th6  1  0.750000  0.045065  0.215696  1
  Th  Th7  1  0.750000  0.248413  0.466828  1
  Ni  Ni8  1  0.750000  0.735158  0.406446  1
  Ni  Ni9  1  0.250000  0.456884  0.854123  1
  Ni  Ni10  1  0.750000  0.956884  0.645877  1
  Ni  Ni11  1  0.750000  0.745670  0.891370  1
  Ni  Ni12  1  0.250000  0.235158  0.093554  1
  Ni  Ni13  1  0.250000  0.245670  0.608630  1
  Os  Os14  1  0.250000  0.051456  0.356803  1
  Os  Os15  1  0.750000  0.551456  0.143197  1
