# generated using pymatgen
data_Tb4MgCo4(P4Rh5)3
_symmetry_space_group_name_H-M   'P 1'
_cell_length_a   3.85748900
_cell_length_b   10.77448806
_cell_length_c   12.46987515
_cell_angle_alpha   90.05006949
_cell_angle_beta   90.00000000
_cell_angle_gamma   90.00000000
_symmetry_Int_Tables_number   1
_chemical_formula_structural   Tb4MgCo4(P4Rh5)3
_chemical_formula_sum   'Tb4 Mg1 Co4 P12 Rh15'
_cell_volume   518.27860379
_cell_formula_units_Z   1
loop_
 _symmetry_equiv_pos_site_id
 _symmetry_equiv_pos_as_xyz
  1  'x, y, z'
loop_
 _atom_site_type_symbol
 _atom_site_label
 _atom_site_symmetry_multiplicity
 _atom_site_fract_x
 _atom_site_fract_y
 _atom_site_fract_z
 _atom_site_occupancy
  Tb  Tb0  1  0.250000  0.583515  0.705984  1
  Tb  Tb1  1  0.250000  0.917878  0.209594  1
  Tb  Tb2  1  0.750000  0.415838  0.292490  1
  Tb  Tb3  1  0.750000  0.082351  0.790948  1
  Mg  Mg4  1  0.250000  0.705729  0.986680  1
  Co  Co5  1  0.250000  0.463256  0.934924  1
  Co  Co6  1  0.250000  0.035361  0.433308  1
  Co  Co7  1  0.750000  0.537206  0.063597  1
  Co  Co8  1  0.750000  0.965127  0.564367  1
  P  P9  1  0.250000  0.424052  0.106856  1
  P  P10  1  0.250000  0.076188  0.604273  1
  P  P11  1  0.750000  0.571566  0.888329  1
  P  P12  1  0.750000  0.924815  0.393862  1
  P  P13  1  0.250000  0.269984  0.870629  1
  P  P14  1  0.250000  0.227693  0.372859  1
  P  P15  1  0.750000  0.730518  0.135689  1
  P  P16  1  0.750000  0.773380  0.627856  1
  P  P17  1  0.250000  0.598020  0.389044  1
  P  P18  1  0.250000  0.906613  0.884831  1
  P  P19  1  0.750000  0.399934  0.612317  1
  P  P20  1  0.750000  0.099396  0.110384  1
  Rh  Rh21  1  0.250000  0.782588  0.487942  1
  Rh  Rh22  1  0.750000  0.291802  0.019663  1
  Rh  Rh23  1  0.750000  0.217043  0.511278  1
  Rh  Rh24  1  0.250000  0.407839  0.481284  1
  Rh  Rh25  1  0.250000  0.095626  0.980528  1
  Rh  Rh26  1  0.750000  0.591883  0.521395  1
  Rh  Rh27  1  0.750000  0.905403  0.019653  1
  Rh  Rh28  1  0.250000  0.229262  0.180419  1
  Rh  Rh29  1  0.250000  0.272264  0.675699  1
  Rh  Rh30  1  0.750000  0.773189  0.821401  1
  Rh  Rh31  1  0.750000  0.726157  0.325642  1
  Rh  Rh32  1  0.250000  0.887542  0.695484  1
  Rh  Rh33  1  0.250000  0.616531  0.197599  1
  Rh  Rh34  1  0.750000  0.113224  0.300655  1
  Rh  Rh35  1  0.750000  0.381227  0.802536  1
