# generated using pymatgen
data_PrPdF7
_symmetry_space_group_name_H-M   'P 1'
_cell_length_a   5.67046900
_cell_length_b   9.19833076
_cell_length_c   12.30670613
_cell_angle_alpha   61.89202285
_cell_angle_beta   90.00000000
_cell_angle_gamma   90.00000000
_symmetry_Int_Tables_number   1
_chemical_formula_structural   PrPdF7
_chemical_formula_sum   'Pr4 Pd4 F28'
_cell_volume   566.19833909
_cell_formula_units_Z   4
loop_
 _symmetry_equiv_pos_site_id
 _symmetry_equiv_pos_as_xyz
  1  'x, y, z'
loop_
 _atom_site_type_symbol
 _atom_site_label
 _atom_site_symmetry_multiplicity
 _atom_site_fract_x
 _atom_site_fract_y
 _atom_site_fract_z
 _atom_site_occupancy
  Pr  Pr0  1  0.760867  0.810095  0.764416  1
  Pr  Pr1  1  0.260867  0.189905  0.735584  1
  Pr  Pr2  1  0.239133  0.189905  0.235584  1
  Pr  Pr3  1  0.739133  0.810095  0.264416  1
  Pd  Pd4  1  0.756544  0.273178  0.957618  1
  Pd  Pd5  1  0.256544  0.726822  0.542382  1
  Pd  Pd6  1  0.243456  0.726822  0.042382  1
  Pd  Pd7  1  0.743456  0.273178  0.457618  1
  F  F8  1  0.429625  0.706672  0.917059  1
  F  F9  1  0.929625  0.293328  0.582941  1
  F  F10  1  0.570375  0.293328  0.082941  1
  F  F11  1  0.070375  0.706672  0.417059  1
  F  F12  1  0.450929  0.282556  0.537818  1
  F  F13  1  0.950929  0.717444  0.962182  1
  F  F14  1  0.549071  0.717444  0.462182  1
  F  F15  1  0.049071  0.282556  0.037818  1
  F  F16  1  0.766248  0.512771  0.862130  1
  F  F17  1  0.266248  0.487229  0.637870  1
  F  F18  1  0.233752  0.487229  0.137870  1
  F  F19  1  0.733752  0.512771  0.362130  1
  F  F20  1  0.757475  0.033258  0.047631  1
  F  F21  1  0.257475  0.966742  0.452369  1
  F  F22  1  0.242525  0.966742  0.952369  1
  F  F23  1  0.742525  0.033258  0.547631  1
  F  F24  1  0.969095  0.727598  0.628755  1
  F  F25  1  0.469095  0.272402  0.871245  1
  F  F26  1  0.030905  0.272402  0.371245  1
  F  F27  1  0.530905  0.727598  0.128755  1
  F  F28  1  0.061293  0.740940  0.171453  1
  F  F29  1  0.561293  0.259060  0.328547  1
  F  F30  1  0.938707  0.259060  0.828547  1
  F  F31  1  0.438707  0.740940  0.671453  1
  F  F32  1  0.403026  0.965862  0.230436  1
  F  F33  1  0.903026  0.034138  0.269564  1
  F  F34  1  0.596974  0.034138  0.769564  1
  F  F35  1  0.096974  0.965862  0.730436  1
