# generated using pymatgen
data_Yb9CeIr4
_symmetry_space_group_name_H-M   'P 1'
_cell_length_a   8.47756351
_cell_length_b   8.47756272
_cell_length_c   7.43340288
_cell_angle_alpha   82.86838480
_cell_angle_beta   82.86838461
_cell_angle_gamma   44.87063761
_symmetry_Int_Tables_number   1
_chemical_formula_structural   Yb9CeIr4
_chemical_formula_sum   'Yb9 Ce1 Ir4'
_cell_volume   373.48979645
_cell_formula_units_Z   1
loop_
 _symmetry_equiv_pos_site_id
 _symmetry_equiv_pos_as_xyz
  1  'x, y, z'
loop_
 _atom_site_type_symbol
 _atom_site_label
 _atom_site_symmetry_multiplicity
 _atom_site_fract_x
 _atom_site_fract_y
 _atom_site_fract_z
 _atom_site_occupancy
  Yb  Yb0  1  0.425974  0.574026  0.750000  1
  Yb  Yb1  1  0.356404  0.199796  0.321163  1
  Yb  Yb2  1  0.204350  0.969329  0.074861  1
  Yb  Yb3  1  0.794188  0.032987  0.918472  1
  Yb  Yb4  1  0.967013  0.205812  0.581528  1
  Yb  Yb5  1  0.638494  0.795341  0.678206  1
  Yb  Yb6  1  0.204659  0.361506  0.821794  1
  Yb  Yb7  1  0.800204  0.643596  0.178837  1
  Yb  Yb8  1  0.030671  0.795650  0.425139  1
  Ce  Ce9  1  0.566395  0.433605  0.250000  1
  Ir  Ir10  1  0.404090  0.805873  0.414427  1
  Ir  Ir11  1  0.194127  0.595910  0.085573  1
  Ir  Ir12  1  0.811449  0.398019  0.936947  1
  Ir  Ir13  1  0.601981  0.188551  0.563053  1
