# generated using pymatgen
data_Zr15Sc7Os8
_symmetry_space_group_name_H-M   'P 1'
_cell_length_a   9.56639495
_cell_length_b   9.56639490
_cell_length_c   9.56639466
_cell_angle_alpha   59.39504760
_cell_angle_beta   59.39505095
_cell_angle_gamma   59.39504618
_symmetry_Int_Tables_number   1
_chemical_formula_structural   Zr15Sc7Os8
_chemical_formula_sum   'Zr15 Sc7 Os8'
_cell_volume   610.53344252
_cell_formula_units_Z   1
loop_
 _symmetry_equiv_pos_site_id
 _symmetry_equiv_pos_as_xyz
  1  'x, y, z'
loop_
 _atom_site_type_symbol
 _atom_site_label
 _atom_site_symmetry_multiplicity
 _atom_site_fract_x
 _atom_site_fract_y
 _atom_site_fract_z
 _atom_site_occupancy
  Zr  Zr0  1  0.843385  0.843385  0.843385  1
  Zr  Zr1  1  0.522838  0.157477  0.157477  1
  Zr  Zr2  1  0.157477  0.157477  0.522838  1
  Zr  Zr3  1  0.157477  0.522838  0.157477  1
  Zr  Zr4  1  0.840302  0.840302  0.477647  1
  Zr  Zr5  1  0.840302  0.477647  0.840302  1
  Zr  Zr6  1  0.477647  0.840302  0.840302  1
  Zr  Zr7  1  0.156723  0.156723  0.156723  1
  Zr  Zr8  1  0.202753  0.794453  0.202753  1
  Zr  Zr9  1  0.204837  0.797708  0.797708  1
  Zr  Zr10  1  0.794453  0.202753  0.202753  1
  Zr  Zr11  1  0.797708  0.797708  0.204837  1
  Zr  Zr12  1  0.202753  0.202753  0.794453  1
  Zr  Zr13  1  0.797708  0.204837  0.797708  1
  Zr  Zr14  1  0.383982  0.383982  0.383982  1
  Sc  Sc15  1  0.149740  0.619094  0.619094  1
  Sc  Sc16  1  0.619094  0.149740  0.619094  1
  Sc  Sc17  1  0.619094  0.619094  0.149740  1
  Sc  Sc18  1  0.382347  0.849394  0.382347  1
  Sc  Sc19  1  0.382347  0.382347  0.849394  1
  Sc  Sc20  1  0.849394  0.382347  0.382347  1
  Sc  Sc21  1  0.616075  0.616075  0.616075  1
  Os  Os22  1  0.498691  0.498691  0.005795  1
  Os  Os23  1  0.999704  0.999704  0.499385  1
  Os  Os24  1  0.498691  0.005795  0.498691  1
  Os  Os25  1  0.005795  0.498691  0.498691  1
  Os  Os26  1  0.499385  0.999704  0.999704  1
  Os  Os27  1  0.999704  0.499385  0.999704  1
  Os  Os28  1  0.499364  0.499364  0.499364  1
  Os  Os29  1  0.000227  0.000227  0.000227  1
