# generated using pymatgen
data_Er6Ni17P12Pd
_symmetry_space_group_name_H-M   'P 1'
_cell_length_a   3.77424300
_cell_length_b   10.48820100
_cell_length_c   12.32102500
_cell_angle_alpha   90.00000000
_cell_angle_beta   90.00000000
_cell_angle_gamma   90.00000000
_symmetry_Int_Tables_number   1
_chemical_formula_structural   Er6Ni17P12Pd
_chemical_formula_sum   'Er6 Ni17 P12 Pd1'
_cell_volume   487.72801127
_cell_formula_units_Z   1
loop_
 _symmetry_equiv_pos_site_id
 _symmetry_equiv_pos_as_xyz
  1  'x, y, z'
loop_
 _atom_site_type_symbol
 _atom_site_label
 _atom_site_symmetry_multiplicity
 _atom_site_fract_x
 _atom_site_fract_y
 _atom_site_fract_z
 _atom_site_occupancy
  Er  Er0  1  0.000000  0.500000  0.524724  1
  Er  Er1  1  0.500000  0.000000  0.478169  1
  Er  Er2  1  0.500000  0.818485  0.206602  1
  Er  Er3  1  0.500000  0.181515  0.206602  1
  Er  Er4  1  0.000000  0.683084  0.794013  1
  Er  Er5  1  0.000000  0.316916  0.794013  1
  Ni  Ni6  1  0.000000  0.500000  0.985297  1
  Ni  Ni7  1  0.500000  0.000000  0.016431  1
  Ni  Ni8  1  0.500000  0.300613  0.430742  1
  Ni  Ni9  1  0.500000  0.699387  0.430742  1
  Ni  Ni10  1  0.000000  0.198735  0.571166  1
  Ni  Ni11  1  0.000000  0.801265  0.571166  1
  Ni  Ni12  1  0.500000  0.879016  0.710053  1
  Ni  Ni13  1  0.500000  0.120984  0.710053  1
  Ni  Ni14  1  0.000000  0.623318  0.290876  1
  Ni  Ni15  1  0.000000  0.376682  0.290876  1
  Ni  Ni16  1  0.500000  0.328697  0.991996  1
  Ni  Ni17  1  0.500000  0.671303  0.991996  1
  Ni  Ni18  1  0.000000  0.163488  0.001807  1
  Ni  Ni19  1  0.000000  0.836512  0.001807  1
  Ni  Ni20  1  0.000000  0.000000  0.838859  1
  Ni  Ni21  1  0.500000  0.500000  0.700586  1
  Ni  Ni22  1  0.000000  0.000000  0.300709  1
  P  P23  1  0.500000  0.313460  0.615508  1
  P  P24  1  0.500000  0.686540  0.615508  1
  P  P25  1  0.000000  0.185855  0.386054  1
  P  P26  1  0.000000  0.814145  0.386054  1
  P  P27  1  0.500000  0.500000  0.876882  1
  P  P28  1  0.000000  0.000000  0.124262  1
  P  P29  1  0.500000  0.849768  0.890298  1
  P  P30  1  0.500000  0.150232  0.890298  1
  P  P31  1  0.000000  0.659863  0.104813  1
  P  P32  1  0.000000  0.340137  0.104813  1
  P  P33  1  0.500000  0.500000  0.353332  1
  P  P34  1  0.000000  0.000000  0.653965  1
  Pd  Pd35  1  0.500000  0.500000  0.158926  1
