# generated using pymatgen
data_Nb10Ga4Si2C
_symmetry_space_group_name_H-M   'P 1'
_cell_length_a   7.72153256
_cell_length_b   7.72824058
_cell_length_c   5.32369827
_cell_angle_alpha   89.98651429
_cell_angle_beta   90.00678799
_cell_angle_gamma   120.02886307
_symmetry_Int_Tables_number   1
_chemical_formula_structural   Nb10Ga4Si2C
_chemical_formula_sum   'Nb10 Ga4 Si2 C1'
_cell_volume   275.04376772
_cell_formula_units_Z   1
loop_
 _symmetry_equiv_pos_site_id
 _symmetry_equiv_pos_as_xyz
  1  'x, y, z'
loop_
 _atom_site_type_symbol
 _atom_site_label
 _atom_site_symmetry_multiplicity
 _atom_site_fract_x
 _atom_site_fract_y
 _atom_site_fract_z
 _atom_site_occupancy
  Nb  Nb0  1  0.000000  0.764612  0.255490  1
  Nb  Nb1  1  0.237950  0.237663  0.254828  1
  Nb  Nb2  1  0.762050  0.999712  0.254829  1
  Nb  Nb3  1  0.000001  0.234432  0.743609  1
  Nb  Nb4  1  0.761419  0.765338  0.744715  1
  Nb  Nb5  1  0.238580  0.003920  0.744715  1
  Nb  Nb6  1  0.337821  0.667555  0.998496  1
  Nb  Nb7  1  0.662180  0.329734  0.998497  1
  Nb  Nb8  1  0.662380  0.330034  0.501414  1
  Nb  Nb9  1  0.337620  0.667654  0.501415  1
  Ga  Ga10  1  0.000001  0.401776  0.244078  1
  Ga  Ga11  1  0.600949  0.598946  0.244598  1
  Ga  Ga12  1  0.399050  0.997996  0.244599  1
  Ga  Ga13  1  0.000001  0.599628  0.755867  1
  Si  Si14  1  0.400259  0.401019  0.757244  1
  Si  Si15  1  0.599741  0.000758  0.757243  1
  C  C16  1  0.000000  0.999223  0.498364  1
