# generated using pymatgen
data_MgNb3(Pd3Rh)3
_symmetry_space_group_name_H-M   'P 1'
_cell_length_a   5.61264700
_cell_length_b   5.61264685
_cell_length_c   9.07866800
_cell_angle_alpha   90.00000000
_cell_angle_beta   90.00000000
_cell_angle_gamma   119.99999499
_symmetry_Int_Tables_number   1
_chemical_formula_structural   MgNb3(Pd3Rh)3
_chemical_formula_sum   'Mg1 Nb3 Pd9 Rh3'
_cell_volume   247.67845733
_cell_formula_units_Z   1
loop_
 _symmetry_equiv_pos_site_id
 _symmetry_equiv_pos_as_xyz
  1  'x, y, z'
loop_
 _atom_site_type_symbol
 _atom_site_label
 _atom_site_symmetry_multiplicity
 _atom_site_fract_x
 _atom_site_fract_y
 _atom_site_fract_z
 _atom_site_occupancy
  Mg  Mg0  1  0.333333  0.666667  0.000000  1
  Nb  Nb1  1  0.666667  0.333333  0.500000  1
  Nb  Nb2  1  0.000000  0.000000  0.736929  1
  Nb  Nb3  1  0.000000  0.000000  0.263071  1
  Pd  Pd4  1  0.833406  0.166594  0.000000  1
  Pd  Pd5  1  0.833406  0.666812  0.000000  1
  Pd  Pd6  1  0.333188  0.166594  0.000000  1
  Pd  Pd7  1  0.997737  0.498869  0.748612  1
  Pd  Pd8  1  0.501131  0.498869  0.748612  1
  Pd  Pd9  1  0.501131  0.002263  0.748612  1
  Pd  Pd10  1  0.997737  0.498869  0.251388  1
  Pd  Pd11  1  0.501131  0.498869  0.251388  1
  Pd  Pd12  1  0.501131  0.002263  0.251388  1
  Rh  Rh13  1  0.167616  0.832384  0.500000  1
  Rh  Rh14  1  0.167616  0.335233  0.500000  1
  Rh  Rh15  1  0.664767  0.832384  0.500000  1
