# generated using pymatgen
data_Zr4Ga2SiGe
_symmetry_space_group_name_H-M   'P 1'
_cell_length_a   3.84849900
_cell_length_b   3.87845800
_cell_length_c   10.16107300
_cell_angle_alpha   90.00000000
_cell_angle_beta   90.00000000
_cell_angle_gamma   90.00000000
_symmetry_Int_Tables_number   1
_chemical_formula_structural   Zr4Ga2SiGe
_chemical_formula_sum   'Zr4 Ga2 Si1 Ge1'
_cell_volume   151.66663188
_cell_formula_units_Z   1
loop_
 _symmetry_equiv_pos_site_id
 _symmetry_equiv_pos_as_xyz
  1  'x, y, z'
loop_
 _atom_site_type_symbol
 _atom_site_label
 _atom_site_symmetry_multiplicity
 _atom_site_fract_x
 _atom_site_fract_y
 _atom_site_fract_z
 _atom_site_occupancy
  Zr  Zr0  1  0.000000  0.000000  0.139572  1
  Zr  Zr1  1  0.000000  0.500000  0.644833  1
  Zr  Zr2  1  0.500000  0.500000  0.355647  1
  Zr  Zr3  1  0.500000  0.000000  0.858028  1
  Ga  Ga4  1  0.500000  0.500000  0.081565  1
  Ga  Ga5  1  0.500000  0.000000  0.585521  1
  Si  Si6  1  0.000000  0.500000  0.918735  1
  Ge  Ge7  1  0.000000  0.000000  0.416100  1
