# generated using pymatgen
data_TaWF10
_symmetry_space_group_name_H-M   'P 1'
_cell_length_a   8.95996575
_cell_length_b   8.96632996
_cell_length_c   5.35201460
_cell_angle_alpha   86.90662661
_cell_angle_beta   86.90243299
_cell_angle_gamma   112.37073499
_symmetry_Int_Tables_number   1
_chemical_formula_structural   TaWF10
_chemical_formula_sum   'Ta2 W2 F20'
_cell_volume   395.73460158
_cell_formula_units_Z   2
loop_
 _symmetry_equiv_pos_site_id
 _symmetry_equiv_pos_as_xyz
  1  'x, y, z'
loop_
 _atom_site_type_symbol
 _atom_site_label
 _atom_site_symmetry_multiplicity
 _atom_site_fract_x
 _atom_site_fract_y
 _atom_site_fract_z
 _atom_site_occupancy
  Ta  Ta0  1  0.257376  0.254734  0.748442  1
  Ta  Ta1  1  0.201713  0.801339  0.500458  1
  W  W2  1  0.804022  0.199472  0.500113  1
  W  W3  1  0.747987  0.745621  0.255683  1
  F  F4  1  0.272082  0.454786  0.847213  1
  F  F5  1  0.327003  0.326379  0.408576  1
  F  F6  1  0.455603  0.265963  0.848355  1
  F  F7  1  0.027990  0.218678  0.621256  1
  F  F8  1  0.668606  0.668155  0.589228  1
  F  F9  1  0.541360  0.723465  0.152571  1
  F  F10  1  0.861892  0.863095  0.958243  1
  F  F11  1  0.976287  0.782354  0.378871  1
  F  F12  1  0.170174  0.602151  0.379762  1
  F  F13  1  0.920494  0.287417  0.189624  1
  F  F14  1  0.599483  0.171528  0.381979  1
  F  F15  1  0.833785  0.402785  0.623167  1
  F  F16  1  0.780236  0.974266  0.376326  1
  F  F17  1  0.716151  0.081567  0.809936  1
  F  F18  1  0.214498  0.025296  0.619752  1
  F  F19  1  0.400692  0.835534  0.623604  1
  F  F20  1  0.129534  0.131799  0.034983  1
  F  F21  1  0.729871  0.541243  0.150917  1
  F  F22  1  0.284015  0.923325  0.190662  1
  F  F23  1  0.079149  0.719047  0.810280  1
