# generated using pymatgen
data_Ac2P7Ru12
_symmetry_space_group_name_H-M   'P 1'
_cell_length_a   9.60167000
_cell_length_b   9.60167075
_cell_length_c   4.00963600
_cell_angle_alpha   90.00000000
_cell_angle_beta   90.00000000
_cell_angle_gamma   120.00000340
_symmetry_Int_Tables_number   1
_chemical_formula_structural   Ac2P7Ru12
_chemical_formula_sum   'Ac2 P7 Ru12'
_cell_volume   320.13204609
_cell_formula_units_Z   1
loop_
 _symmetry_equiv_pos_site_id
 _symmetry_equiv_pos_as_xyz
  1  'x, y, z'
loop_
 _atom_site_type_symbol
 _atom_site_label
 _atom_site_symmetry_multiplicity
 _atom_site_fract_x
 _atom_site_fract_y
 _atom_site_fract_z
 _atom_site_occupancy
  Ac  Ac0  1  0.666667  0.333333  0.500000  1
  Ac  Ac1  1  0.333333  0.666667  0.000000  1
  P  P2  1  0.611028  0.714417  0.500000  1
  P  P3  1  0.000000  0.000000  0.000000  1
  P  P4  1  0.285583  0.896611  0.500000  1
  P  P5  1  0.103389  0.388972  0.500000  1
  P  P6  1  0.896705  0.583187  0.000000  1
  P  P7  1  0.416813  0.313518  0.000000  1
  P  P8  1  0.686482  0.103295  0.000000  1
  Ru  Ru9  1  0.561911  0.951671  0.500000  1
  Ru  Ru10  1  0.389761  0.438089  0.500000  1
  Ru  Ru11  1  0.913250  0.117781  0.500000  1
  Ru  Ru12  1  0.204531  0.086750  0.500000  1
  Ru  Ru13  1  0.882219  0.795469  0.500000  1
  Ru  Ru14  1  0.732639  0.891188  0.000000  1
  Ru  Ru15  1  0.108812  0.841450  0.000000  1
  Ru  Ru16  1  0.158550  0.267361  0.000000  1
  Ru  Ru17  1  0.419742  0.063672  0.000000  1
  Ru  Ru18  1  0.936328  0.356072  0.000000  1
  Ru  Ru19  1  0.643928  0.580258  0.000000  1
  Ru  Ru20  1  0.048329  0.610239  0.500000  1
