# generated using pymatgen
data_YHo9Al4(GeC4)2
_symmetry_space_group_name_H-M   'P 1'
_cell_length_a   10.73086601
_cell_length_b   10.73058001
_cell_length_c   3.51801500
_cell_angle_alpha   90.00000000
_cell_angle_beta   90.00000000
_cell_angle_gamma   89.99534403
_symmetry_Int_Tables_number   1
_chemical_formula_structural   YHo9Al4(GeC4)2
_chemical_formula_sum   'Y1 Ho9 Al4 Ge2 C8'
_cell_volume   405.09385433
_cell_formula_units_Z   1
loop_
 _symmetry_equiv_pos_site_id
 _symmetry_equiv_pos_as_xyz
  1  'x, y, z'
loop_
 _atom_site_type_symbol
 _atom_site_label
 _atom_site_symmetry_multiplicity
 _atom_site_fract_x
 _atom_site_fract_y
 _atom_site_fract_z
 _atom_site_occupancy
  Y  Y0  1  0.774773  0.948920  0.500000  1
  Ho  Ho1  1  0.550965  0.726150  0.500000  1
  Ho  Ho2  1  0.448885  0.273807  0.500000  1
  Ho  Ho3  1  0.051216  0.773679  0.500000  1
  Ho  Ho4  1  0.949025  0.226383  0.500000  1
  Ho  Ho5  1  0.273783  0.551049  0.500000  1
  Ho  Ho6  1  0.726219  0.448907  0.500000  1
  Ho  Ho7  1  0.226234  0.051078  0.500000  1
  Ho  Ho8  1  0.499976  0.000008  0.000000  1
  Ho  Ho9  1  0.000019  0.499995  0.000000  1
  Al  Al10  1  0.703499  0.203780  0.000000  1
  Al  Al11  1  0.296347  0.796412  0.000000  1
  Al  Al12  1  0.203600  0.296348  0.000000  1
  Al  Al13  1  0.796273  0.703397  0.000000  1
  Ge  Ge14  1  0.499980  0.499959  0.000000  1
  Ge  Ge15  1  0.000599  0.000151  0.000000  1
  C  C16  1  0.632935  0.134299  0.500000  1
  C  C17  1  0.366449  0.866458  0.500000  1
  C  C18  1  0.133524  0.366511  0.500000  1
  C  C19  1  0.866521  0.633503  0.500000  1
  C  C20  1  0.162856  0.662835  0.000000  1
  C  C21  1  0.837188  0.337187  0.000000  1
  C  C22  1  0.661995  0.836327  0.000000  1
  C  C23  1  0.337142  0.162860  0.000000  1
