# generated using pymatgen
data_Ti8Al14AsRh7
_symmetry_space_group_name_H-M   'P 1'
_cell_length_a   8.64629824
_cell_length_b   8.64629878
_cell_length_c   8.64629788
_cell_angle_alpha   119.99387415
_cell_angle_beta   119.87016821
_cell_angle_gamma   90.11781850
_symmetry_Int_Tables_number   1
_chemical_formula_structural   Ti8Al14AsRh7
_chemical_formula_sum   'Ti8 Al14 As1 Rh7'
_cell_volume   457.53046977
_cell_formula_units_Z   1
loop_
 _symmetry_equiv_pos_site_id
 _symmetry_equiv_pos_as_xyz
  1  'x, y, z'
loop_
 _atom_site_type_symbol
 _atom_site_label
 _atom_site_symmetry_multiplicity
 _atom_site_fract_x
 _atom_site_fract_y
 _atom_site_fract_z
 _atom_site_occupancy
  Ti  Ti0  1  0.796403  0.295058  0.084604  1
  Ti  Ti1  1  0.210453  0.295058  0.498655  1
  Ti  Ti2  1  0.204934  0.704934  0.500000  1
  Ti  Ti3  1  0.210453  0.711798  0.915396  1
  Ti  Ti4  1  0.796403  0.711798  0.501345  1
  Ti  Ti5  1  0.789885  0.289885  0.500000  1
  Ti  Ti6  1  0.380214  0.122944  0.742730  1
  Ti  Ti7  1  0.380214  0.637485  0.257270  1
  Al  Al8  1  0.159239  0.339361  0.180121  1
  Al  Al9  1  0.159239  0.979119  0.819879  1
  Al  Al10  1  0.155514  0.340478  0.815036  1
  Al  Al11  1  0.525441  0.340478  0.184964  1
  Al  Al12  1  0.839587  0.658714  0.819128  1
  Al  Al13  1  0.839587  0.020459  0.180872  1
  Al  Al14  1  0.838403  0.660098  0.178305  1
  Al  Al15  1  0.481793  0.660098  0.821695  1
  Al  Al16  1  0.380091  0.119637  0.260455  1
  Al  Al17  1  0.859183  0.119637  0.739545  1
  Al  Al18  1  0.620098  0.879389  0.259291  1
  Al  Al19  1  0.620098  0.360807  0.740709  1
  Al  Al20  1  0.620518  0.879532  0.740986  1
  Al  Al21  1  0.138545  0.879532  0.259014  1
  As  As22  1  0.997697  0.497697  0.500000  1
  Rh  Rh23  1  0.001319  0.000003  0.501471  1
  Rh  Rh24  1  0.498532  0.000003  0.998684  1
  Rh  Rh25  1  0.497549  0.497549  0.000000  1
  Rh  Rh26  1  0.498532  0.499848  0.498529  1
  Rh  Rh27  1  0.001319  0.499848  0.001316  1
  Rh  Rh28  1  0.000197  0.000197  0.000000  1
  Rh  Rh29  1  0.498554  0.998554  0.500000  1
