# generated using pymatgen
data_DyEr9(Bi3C)2
_symmetry_space_group_name_H-M   'P 1'
_cell_length_a   9.07982100
_cell_length_b   9.07982156
_cell_length_c   6.45222600
_cell_angle_alpha   90.00000000
_cell_angle_beta   90.00000000
_cell_angle_gamma   120.00000162
_symmetry_Int_Tables_number   1
_chemical_formula_structural   DyEr9(Bi3C)2
_chemical_formula_sum   'Dy1 Er9 Bi6 C2'
_cell_volume   460.67516051
_cell_formula_units_Z   1
loop_
 _symmetry_equiv_pos_site_id
 _symmetry_equiv_pos_as_xyz
  1  'x, y, z'
loop_
 _atom_site_type_symbol
 _atom_site_label
 _atom_site_symmetry_multiplicity
 _atom_site_fract_x
 _atom_site_fract_y
 _atom_site_fract_z
 _atom_site_occupancy
  Dy  Dy0  1  0.666667  0.333333  0.000000  1
  Er  Er1  1  0.333333  0.666667  0.000000  1
  Er  Er2  1  0.333333  0.666667  0.500000  1
  Er  Er3  1  0.666667  0.333333  0.500000  1
  Er  Er4  1  0.793523  0.793522  0.749922  1
  Er  Er5  1  0.206478  0.000001  0.749922  1
  Er  Er6  1  0.999999  0.206477  0.749922  1
  Er  Er7  1  0.206478  0.206477  0.250078  1
  Er  Er8  1  0.793523  0.000001  0.250078  1
  Er  Er9  1  0.999999  0.793522  0.250078  1
  Bi  Bi10  1  0.401096  0.401610  0.749509  1
  Bi  Bi11  1  0.598390  0.999485  0.749509  1
  Bi  Bi12  1  0.000515  0.598904  0.749509  1
  Bi  Bi13  1  0.598390  0.598904  0.250491  1
  Bi  Bi14  1  0.401096  0.999485  0.250491  1
  Bi  Bi15  1  0.000515  0.401610  0.250491  1
  C  C16  1  0.000000  0.000000  0.000000  1
  C  C17  1  0.000000  0.000000  0.500000  1
