# generated using pymatgen
data_Tb5NdAl20(SiRu2)4
_symmetry_space_group_name_H-M   'P 1'
_cell_length_a   8.69982736
_cell_length_b   8.69982634
_cell_length_c   9.64870100
_cell_angle_alpha   90.00000000
_cell_angle_beta   90.00000000
_cell_angle_gamma   119.96702871
_symmetry_Int_Tables_number   1
_chemical_formula_structural   Tb5NdAl20(SiRu2)4
_chemical_formula_sum   'Tb5 Nd1 Al20 Si4 Ru8'
_cell_volume   632.65201091
_cell_formula_units_Z   1
loop_
 _symmetry_equiv_pos_site_id
 _symmetry_equiv_pos_as_xyz
  1  'x, y, z'
loop_
 _atom_site_type_symbol
 _atom_site_label
 _atom_site_symmetry_multiplicity
 _atom_site_fract_x
 _atom_site_fract_y
 _atom_site_fract_z
 _atom_site_occupancy
  Tb  Tb0  1  0.194949  0.389884  0.250000  1
  Tb  Tb1  1  0.804988  0.610740  0.750000  1
  Tb  Tb2  1  0.610116  0.805051  0.250000  1
  Tb  Tb3  1  0.389260  0.195012  0.750000  1
  Tb  Tb4  1  0.194691  0.805309  0.250000  1
  Nd  Nd5  1  0.807076  0.192924  0.750000  1
  Al  Al6  1  0.166228  0.330788  0.575567  1
  Al  Al7  1  0.835070  0.670121  0.423298  1
  Al  Al8  1  0.669212  0.833772  0.575567  1
  Al  Al9  1  0.835070  0.670121  0.076702  1
  Al  Al10  1  0.329879  0.164930  0.423298  1
  Al  Al11  1  0.166228  0.330788  0.924433  1
  Al  Al12  1  0.165024  0.834976  0.576138  1
  Al  Al13  1  0.329879  0.164930  0.076702  1
  Al  Al14  1  0.835031  0.164969  0.422205  1
  Al  Al15  1  0.669212  0.833772  0.924433  1
  Al  Al16  1  0.835031  0.164969  0.077795  1
  Al  Al17  1  0.165024  0.834976  0.923862  1
  Al  Al18  1  0.563381  0.127251  0.250000  1
  Al  Al19  1  0.434809  0.871432  0.750000  1
  Al  Al20  1  0.872749  0.436619  0.250000  1
  Al  Al21  1  0.128568  0.565191  0.750000  1
  Al  Al22  1  0.563557  0.436443  0.250000  1
  Al  Al23  1  0.436474  0.563526  0.750000  1
  Al  Al24  1  0.999919  0.000081  0.250000  1
  Al  Al25  1  0.001739  0.998261  0.750000  1
  Si  Si26  1  0.333137  0.666863  0.036451  1
  Si  Si27  1  0.665751  0.334249  0.965795  1
  Si  Si28  1  0.665751  0.334249  0.534205  1
  Si  Si29  1  0.333137  0.666863  0.463549  1
  Ru  Ru30  1  0.499001  0.999411  0.000908  1
  Ru  Ru31  1  0.000589  0.500999  0.000908  1
  Ru  Ru32  1  0.499001  0.999411  0.499092  1
  Ru  Ru33  1  0.499764  0.500236  0.000358  1
  Ru  Ru34  1  0.000589  0.500999  0.499092  1
  Ru  Ru35  1  0.499764  0.500236  0.499642  1
  Ru  Ru36  1  0.000177  0.999823  0.000263  1
  Ru  Ru37  1  0.000177  0.999823  0.499737  1
