# generated using pymatgen
data_Ta3Ti7Ga6C
_symmetry_space_group_name_H-M   'P 1'
_cell_length_a   7.68434500
_cell_length_b   7.68434390
_cell_length_c   5.20439500
_cell_angle_alpha   90.00000000
_cell_angle_beta   90.00000000
_cell_angle_gamma   120.00000043
_symmetry_Int_Tables_number   1
_chemical_formula_structural   Ta3Ti7Ga6C
_chemical_formula_sum   'Ta3 Ti7 Ga6 C1'
_cell_volume   266.14268161
_cell_formula_units_Z   1
loop_
 _symmetry_equiv_pos_site_id
 _symmetry_equiv_pos_as_xyz
  1  'x, y, z'
loop_
 _atom_site_type_symbol
 _atom_site_label
 _atom_site_symmetry_multiplicity
 _atom_site_fract_x
 _atom_site_fract_y
 _atom_site_fract_z
 _atom_site_occupancy
  Ta  Ta0  1  0.000000  0.233792  0.747143  1
  Ta  Ta1  1  0.766208  0.766208  0.747143  1
  Ta  Ta2  1  0.233792  0.000000  0.747143  1
  Ti  Ti3  1  0.333333  0.666667  0.504400  1
  Ti  Ti4  1  0.666667  0.333333  0.504400  1
  Ti  Ti5  1  0.666667  0.333333  0.998274  1
  Ti  Ti6  1  0.333333  0.666667  0.998274  1
  Ti  Ti7  1  0.000000  0.770999  0.251971  1
  Ti  Ti8  1  0.229001  0.229001  0.251971  1
  Ti  Ti9  1  0.770999  0.000000  0.251971  1
  Ga  Ga10  1  0.000000  0.398756  0.247926  1
  Ga  Ga11  1  0.601244  0.601244  0.247926  1
  Ga  Ga12  1  0.398756  0.000000  0.247926  1
  Ga  Ga13  1  0.000000  0.599725  0.752642  1
  Ga  Ga14  1  0.400275  0.400275  0.752642  1
  Ga  Ga15  1  0.599725  0.000000  0.752642  1
  C  C16  1  0.000000  0.000000  0.495609  1
