# generated using pymatgen
data_LiHo3In3HgIr
_symmetry_space_group_name_H-M   'P 1'
_cell_length_a   8.02307200
_cell_length_b   8.02307062
_cell_length_c   3.65156300
_cell_angle_alpha   90.00000000
_cell_angle_beta   90.00000000
_cell_angle_gamma   120.00000679
_symmetry_Int_Tables_number   1
_chemical_formula_structural   LiHo3In3HgIr
_chemical_formula_sum   'Li1 Ho3 In3 Hg1 Ir1'
_cell_volume   203.55918554
_cell_formula_units_Z   1
loop_
 _symmetry_equiv_pos_site_id
 _symmetry_equiv_pos_as_xyz
  1  'x, y, z'
loop_
 _atom_site_type_symbol
 _atom_site_label
 _atom_site_symmetry_multiplicity
 _atom_site_fract_x
 _atom_site_fract_y
 _atom_site_fract_z
 _atom_site_occupancy
  Li  Li0  1  0.000000  0.000000  0.500000  1
  Ho  Ho1  1  0.969048  0.576905  0.500000  1
  Ho  Ho2  1  0.423095  0.392142  0.500000  1
  Ho  Ho3  1  0.607858  0.030952  0.500000  1
  In  In4  1  0.256747  0.998994  0.000000  1
  In  In5  1  0.742246  0.743253  0.000000  1
  In  In6  1  0.001006  0.257754  0.000000  1
  Hg  Hg7  1  0.333333  0.666667  0.000000  1
  Ir  Ir8  1  0.666667  0.333333  0.000000  1
