# generated using pymatgen
data_Ho3Ni8P6Ru
_symmetry_space_group_name_H-M   'P 1'
_cell_length_a   3.75272400
_cell_length_b   10.48740900
_cell_length_c   12.36322400
_cell_angle_alpha   90.00000000
_cell_angle_beta   90.00000000
_cell_angle_gamma   90.00000000
_symmetry_Int_Tables_number   1
_chemical_formula_structural   Ho3Ni8P6Ru
_chemical_formula_sum   'Ho6 Ni16 P12 Ru2'
_cell_volume   486.57138883
_cell_formula_units_Z   2
loop_
 _symmetry_equiv_pos_site_id
 _symmetry_equiv_pos_as_xyz
  1  'x, y, z'
loop_
 _atom_site_type_symbol
 _atom_site_label
 _atom_site_symmetry_multiplicity
 _atom_site_fract_x
 _atom_site_fract_y
 _atom_site_fract_z
 _atom_site_occupancy
  Ho  Ho0  1  0.000000  0.500000  0.523756  1
  Ho  Ho1  1  0.500000  0.000000  0.476244  1
  Ho  Ho2  1  0.500000  0.814874  0.207759  1
  Ho  Ho3  1  0.500000  0.185126  0.207759  1
  Ho  Ho4  1  0.000000  0.685126  0.792241  1
  Ho  Ho5  1  0.000000  0.314874  0.792241  1
  Ni  Ni6  1  0.500000  0.500000  0.700372  1
  Ni  Ni7  1  0.000000  0.000000  0.299628  1
  Ni  Ni8  1  0.000000  0.500000  0.981938  1
  Ni  Ni9  1  0.500000  0.000000  0.018062  1
  Ni  Ni10  1  0.500000  0.331122  0.987980  1
  Ni  Ni11  1  0.500000  0.668878  0.987980  1
  Ni  Ni12  1  0.000000  0.168878  0.012020  1
  Ni  Ni13  1  0.000000  0.831122  0.012020  1
  Ni  Ni14  1  0.500000  0.302417  0.429476  1
  Ni  Ni15  1  0.500000  0.697583  0.429476  1
  Ni  Ni16  1  0.000000  0.197583  0.570524  1
  Ni  Ni17  1  0.000000  0.802417  0.570524  1
  Ni  Ni18  1  0.500000  0.878861  0.709295  1
  Ni  Ni19  1  0.500000  0.121139  0.709295  1
  Ni  Ni20  1  0.000000  0.621139  0.290705  1
  Ni  Ni21  1  0.000000  0.378861  0.290705  1
  P  P22  1  0.500000  0.500000  0.875678  1
  P  P23  1  0.000000  0.000000  0.124322  1
  P  P24  1  0.500000  0.500000  0.348708  1
  P  P25  1  0.000000  0.000000  0.651292  1
  P  P26  1  0.500000  0.313999  0.614756  1
  P  P27  1  0.500000  0.686001  0.614756  1
  P  P28  1  0.000000  0.186001  0.385244  1
  P  P29  1  0.000000  0.813999  0.385244  1
  P  P30  1  0.500000  0.849883  0.892346  1
  P  P31  1  0.500000  0.150117  0.892346  1
  P  P32  1  0.000000  0.650117  0.107654  1
  P  P33  1  0.000000  0.349883  0.107654  1
  Ru  Ru34  1  0.500000  0.500000  0.157695  1
  Ru  Ru35  1  0.000000  0.000000  0.842305  1
