# generated using pymatgen
data_Er5Lu15(Zn3Os)2
_symmetry_space_group_name_H-M   'P 1'
_cell_length_a   9.20332900
_cell_length_b   9.20544524
_cell_length_c   9.46306200
_cell_angle_alpha   90.00000000
_cell_angle_beta   90.00000000
_cell_angle_gamma   119.77187606
_symmetry_Int_Tables_number   1
_chemical_formula_structural   Er5Lu15(Zn3Os)2
_chemical_formula_sum   'Er5 Lu15 Zn6 Os2'
_cell_volume   695.89834851
_cell_formula_units_Z   1
loop_
 _symmetry_equiv_pos_site_id
 _symmetry_equiv_pos_as_xyz
  1  'x, y, z'
loop_
 _atom_site_type_symbol
 _atom_site_label
 _atom_site_symmetry_multiplicity
 _atom_site_fract_x
 _atom_site_fract_y
 _atom_site_fract_z
 _atom_site_occupancy
  Er  Er0  1  0.539407  0.079489  0.250000  1
  Er  Er1  1  0.920817  0.461019  0.250000  1
  Er  Er2  1  0.460203  0.539801  0.750000  1
  Er  Er3  1  0.460710  0.923114  0.750000  1
  Er  Er4  1  0.077056  0.539369  0.750000  1
  Lu  Lu5  1  0.000553  0.999308  0.499649  1
  Lu  Lu6  1  0.000553  0.999308  0.000351  1
  Lu  Lu7  1  0.208128  0.792050  0.443666  1
  Lu  Lu8  1  0.207621  0.414528  0.444166  1
  Lu  Lu9  1  0.585384  0.792309  0.444077  1
  Lu  Lu10  1  0.792681  0.207354  0.555616  1
  Lu  Lu11  1  0.790995  0.584195  0.555336  1
  Lu  Lu12  1  0.415717  0.208982  0.555309  1
  Lu  Lu13  1  0.792681  0.207354  0.944384  1
  Lu  Lu14  1  0.790995  0.584195  0.944664  1
  Lu  Lu15  1  0.415717  0.208982  0.944691  1
  Lu  Lu16  1  0.208128  0.792050  0.056334  1
  Lu  Lu17  1  0.207621  0.414528  0.055834  1
  Lu  Lu18  1  0.585384  0.792309  0.055923  1
  Lu  Lu19  1  0.537641  0.462329  0.250000  1
  Zn  Zn20  1  0.887672  0.112575  0.250000  1
  Zn  Zn21  1  0.884435  0.773615  0.250000  1
  Zn  Zn22  1  0.226521  0.115468  0.250000  1
  Zn  Zn23  1  0.112355  0.887410  0.750000  1
  Zn  Zn24  1  0.114226  0.224620  0.750000  1
  Zn  Zn25  1  0.775289  0.885693  0.750000  1
  Os  Os26  1  0.334560  0.665112  0.250000  1
  Os  Os27  1  0.666948  0.332931  0.750000  1
