# generated using pymatgen
data_Ho3Er(GaRh)4
_symmetry_space_group_name_H-M   'P 1'
_cell_length_a   4.34940900
_cell_length_b   6.74809416
_cell_length_c   7.75836919
_cell_angle_alpha   89.97468801
_cell_angle_beta   90.00000000
_cell_angle_gamma   90.00000000
_symmetry_Int_Tables_number   1
_chemical_formula_structural   Ho3Er(GaRh)4
_chemical_formula_sum   'Ho3 Er1 Ga4 Rh4'
_cell_volume   227.70983190
_cell_formula_units_Z   1
loop_
 _symmetry_equiv_pos_site_id
 _symmetry_equiv_pos_as_xyz
  1  'x, y, z'
loop_
 _atom_site_type_symbol
 _atom_site_label
 _atom_site_symmetry_multiplicity
 _atom_site_fract_x
 _atom_site_fract_y
 _atom_site_fract_z
 _atom_site_occupancy
  Ho  Ho0  1  0.250000  0.978302  0.307810  1
  Ho  Ho1  1  0.250000  0.478310  0.192057  1
  Ho  Ho2  1  0.750000  0.021631  0.692398  1
  Er  Er3  1  0.750000  0.521846  0.807601  1
  Ga  Ga4  1  0.250000  0.337823  0.572232  1
  Ga  Ga5  1  0.250000  0.837272  0.927866  1
  Ga  Ga6  1  0.750000  0.662289  0.428194  1
  Ga  Ga7  1  0.750000  0.162674  0.071945  1
  Rh  Rh8  1  0.250000  0.230988  0.895044  1
  Rh  Rh9  1  0.250000  0.730158  0.605147  1
  Rh  Rh10  1  0.750000  0.769207  0.104455  1
  Rh  Rh11  1  0.750000  0.269501  0.395252  1
