# generated using pymatgen
data_Ca2Fe2Co10P7
_symmetry_space_group_name_H-M   'P 1'
_cell_length_a   9.06799700
_cell_length_b   9.06216128
_cell_length_c   3.63295200
_cell_angle_alpha   90.00000000
_cell_angle_beta   90.00000000
_cell_angle_gamma   119.99746936
_symmetry_Int_Tables_number   1
_chemical_formula_structural   Ca2Fe2Co10P7
_chemical_formula_sum   'Ca2 Fe2 Co10 P7'
_cell_volume   258.54998705
_cell_formula_units_Z   1
loop_
 _symmetry_equiv_pos_site_id
 _symmetry_equiv_pos_as_xyz
  1  'x, y, z'
loop_
 _atom_site_type_symbol
 _atom_site_label
 _atom_site_symmetry_multiplicity
 _atom_site_fract_x
 _atom_site_fract_y
 _atom_site_fract_z
 _atom_site_occupancy
  Ca  Ca0  1  0.000048  0.000444  0.000000  1
  Ca  Ca1  1  0.333806  0.666846  0.500000  1
  Fe  Fe2  1  0.544697  0.427063  0.500000  1
  Fe  Fe3  1  0.573523  0.116794  0.500000  1
  Co  Co4  1  0.096065  0.705004  0.000000  1
  Co  Co5  1  0.294853  0.391512  0.000000  1
  Co  Co6  1  0.609256  0.903342  0.000000  1
  Co  Co7  1  0.823296  0.217870  0.000000  1
  Co  Co8  1  0.784119  0.605429  0.000000  1
  Co  Co9  1  0.392456  0.176250  0.000000  1
  Co  Co10  1  0.051080  0.285451  0.500000  1
  Co  Co11  1  0.715686  0.765914  0.500000  1
  Co  Co12  1  0.233535  0.948376  0.500000  1
  Co  Co13  1  0.880665  0.456123  0.500000  1
  P  P14  1  0.076338  0.445411  0.000000  1
  P  P15  1  0.555062  0.630308  0.000000  1
  P  P16  1  0.369966  0.924225  0.000000  1
  P  P17  1  0.776869  0.043572  0.500000  1
  P  P18  1  0.956996  0.734694  0.500000  1
  P  P19  1  0.266678  0.223486  0.500000  1
  P  P20  1  0.665004  0.331880  0.000000  1
