# generated using pymatgen
data_Tm16Cd4OsPt3
_symmetry_space_group_name_H-M   'P 1'
_cell_length_a   9.58397122
_cell_length_b   9.58397116
_cell_length_c   9.58397173
_cell_angle_alpha   59.40620121
_cell_angle_beta   59.40620206
_cell_angle_gamma   59.40620375
_symmetry_Int_Tables_number   1
_chemical_formula_structural   Tm16Cd4OsPt3
_chemical_formula_sum   'Tm16 Cd4 Os1 Pt3'
_cell_volume   614.06343606
_cell_formula_units_Z   1
loop_
 _symmetry_equiv_pos_site_id
 _symmetry_equiv_pos_as_xyz
  1  'x, y, z'
loop_
 _atom_site_type_symbol
 _atom_site_label
 _atom_site_symmetry_multiplicity
 _atom_site_fract_x
 _atom_site_fract_y
 _atom_site_fract_z
 _atom_site_occupancy
  Tm  Tm0  1  0.351451  0.351451  0.351451  1
  Tm  Tm1  1  0.351502  0.351502  0.945749  1
  Tm  Tm2  1  0.351502  0.945749  0.351502  1
  Tm  Tm3  1  0.945749  0.351502  0.351502  1
  Tm  Tm4  1  0.813978  0.188517  0.188517  1
  Tm  Tm5  1  0.187996  0.810366  0.810366  1
  Tm  Tm6  1  0.188517  0.813978  0.188517  1
  Tm  Tm7  1  0.810366  0.187996  0.810366  1
  Tm  Tm8  1  0.188517  0.188517  0.813978  1
  Tm  Tm9  1  0.810366  0.810366  0.187996  1
  Tm  Tm10  1  0.935362  0.566029  0.566029  1
  Tm  Tm11  1  0.558046  0.938299  0.938299  1
  Tm  Tm12  1  0.566029  0.935362  0.566029  1
  Tm  Tm13  1  0.938299  0.558046  0.938299  1
  Tm  Tm14  1  0.566029  0.566029  0.935362  1
  Tm  Tm15  1  0.938299  0.938299  0.558046  1
  Cd  Cd16  1  0.580314  0.580314  0.580314  1
  Cd  Cd17  1  0.580580  0.580580  0.253722  1
  Cd  Cd18  1  0.580580  0.253722  0.580580  1
  Cd  Cd19  1  0.253722  0.580580  0.580580  1
  Os  Os20  1  0.143606  0.143606  0.143606  1
  Pt  Pt21  1  0.143390  0.143390  0.572409  1
  Pt  Pt22  1  0.143390  0.572409  0.143390  1
  Pt  Pt23  1  0.572409  0.143390  0.143390  1
