# generated using pymatgen
data_Y12Tm3Th(CdPt)4
_symmetry_space_group_name_H-M   'P 1'
_cell_length_a   9.69905957
_cell_length_b   9.69905999
_cell_length_c   9.69905979
_cell_angle_alpha   60.35252028
_cell_angle_beta   60.35252713
_cell_angle_gamma   60.35252624
_symmetry_Int_Tables_number   1
_chemical_formula_structural   Y12Tm3Th(CdPt)4
_chemical_formula_sum   'Y12 Tm3 Th1 Cd4 Pt4'
_cell_volume   650.31462716
_cell_formula_units_Z   1
loop_
 _symmetry_equiv_pos_site_id
 _symmetry_equiv_pos_as_xyz
  1  'x, y, z'
loop_
 _atom_site_type_symbol
 _atom_site_label
 _atom_site_symmetry_multiplicity
 _atom_site_fract_x
 _atom_site_fract_y
 _atom_site_fract_z
 _atom_site_occupancy
  Y  Y0  1  0.812316  0.190018  0.190018  1
  Y  Y1  1  0.191756  0.809845  0.809845  1
  Y  Y2  1  0.190018  0.812316  0.190018  1
  Y  Y3  1  0.809845  0.191756  0.809845  1
  Y  Y4  1  0.190018  0.190018  0.812316  1
  Y  Y5  1  0.809845  0.809845  0.191756  1
  Y  Y6  1  0.936814  0.565481  0.565481  1
  Y  Y7  1  0.562461  0.938050  0.938050  1
  Y  Y8  1  0.565481  0.936814  0.565481  1
  Y  Y9  1  0.938050  0.562461  0.938050  1
  Y  Y10  1  0.565481  0.565481  0.936814  1
  Y  Y11  1  0.938050  0.938050  0.562461  1
  Tm  Tm12  1  0.353290  0.353290  0.941088  1
  Tm  Tm13  1  0.353290  0.941088  0.353290  1
  Tm  Tm14  1  0.941088  0.353290  0.353290  1
  Th  Th15  1  0.348455  0.348455  0.348455  1
  Cd  Cd16  1  0.581122  0.581122  0.581122  1
  Cd  Cd17  1  0.582667  0.582667  0.253608  1
  Cd  Cd18  1  0.582667  0.253608  0.582667  1
  Cd  Cd19  1  0.253608  0.582667  0.582667  1
  Pt  Pt20  1  0.145567  0.145567  0.145567  1
  Pt  Pt21  1  0.140197  0.140197  0.567717  1
  Pt  Pt22  1  0.140197  0.567717  0.140197  1
  Pt  Pt23  1  0.567717  0.140197  0.140197  1
