# generated using pymatgen
data_SmTh2(InPd)3
_symmetry_space_group_name_H-M   'P 1'
_cell_length_a   7.71166192
_cell_length_b   7.71166215
_cell_length_c   4.11907400
_cell_angle_alpha   90.00000000
_cell_angle_beta   90.00000000
_cell_angle_gamma   120.34976707
_symmetry_Int_Tables_number   1
_chemical_formula_structural   SmTh2(InPd)3
_chemical_formula_sum   'Sm1 Th2 In3 Pd3'
_cell_volume   211.39013850
_cell_formula_units_Z   1
loop_
 _symmetry_equiv_pos_site_id
 _symmetry_equiv_pos_as_xyz
  1  'x, y, z'
loop_
 _atom_site_type_symbol
 _atom_site_label
 _atom_site_symmetry_multiplicity
 _atom_site_fract_x
 _atom_site_fract_y
 _atom_site_fract_z
 _atom_site_occupancy
  Sm  Sm0  1  0.411501  0.411501  0.500000  1
  Th  Th1  1  0.586394  0.000613  0.500000  1
  Th  Th2  1  0.000613  0.586394  0.500000  1
  In  In3  1  0.251070  0.007931  0.000000  1
  In  In4  1  0.007931  0.251070  0.000000  1
  In  In5  1  0.742437  0.742437  0.000000  1
  Pd  Pd6  1  0.992157  0.992157  0.500000  1
  Pd  Pd7  1  0.332149  0.675748  0.000000  1
  Pd  Pd8  1  0.675748  0.332149  0.000000  1
