# generated using pymatgen
data_Ta8MnCuTe8
_symmetry_space_group_name_H-M   'P 1'
_cell_length_a   4.83027800
_cell_length_b   11.09556500
_cell_length_c   19.48374600
_cell_angle_alpha   90.00000000
_cell_angle_beta   90.00000000
_cell_angle_gamma   90.00000000
_symmetry_Int_Tables_number   1
_chemical_formula_structural   Ta8MnCuTe8
_chemical_formula_sum   'Ta16 Mn2 Cu2 Te16'
_cell_volume   1044.22481092
_cell_formula_units_Z   2
loop_
 _symmetry_equiv_pos_site_id
 _symmetry_equiv_pos_as_xyz
  1  'x, y, z'
loop_
 _atom_site_type_symbol
 _atom_site_label
 _atom_site_symmetry_multiplicity
 _atom_site_fract_x
 _atom_site_fract_y
 _atom_site_fract_z
 _atom_site_occupancy
  Ta  Ta0  1  0.497824  0.562985  0.386039  1
  Ta  Ta1  1  0.497824  0.437015  0.613961  1
  Ta  Ta2  1  0.502176  0.062985  0.113961  1
  Ta  Ta3  1  0.502176  0.937015  0.886039  1
  Ta  Ta4  1  0.498251  0.700447  0.535913  1
  Ta  Ta5  1  0.498251  0.299553  0.464087  1
  Ta  Ta6  1  0.501749  0.200447  0.964087  1
  Ta  Ta7  1  0.501749  0.799553  0.035913  1
  Ta  Ta8  1  0.001806  0.686491  0.444715  1
  Ta  Ta9  1  0.001806  0.313509  0.555285  1
  Ta  Ta10  1  0.998194  0.186491  0.055285  1
  Ta  Ta11  1  0.998194  0.813509  0.944715  1
  Ta  Ta12  1  0.002229  0.403028  0.394004  1
  Ta  Ta13  1  0.002229  0.596972  0.605996  1
  Ta  Ta14  1  0.997771  0.903028  0.105996  1
  Ta  Ta15  1  0.997771  0.096972  0.894004  1
  Mn  Mn16  1  0.749881  0.500000  0.500000  1
  Mn  Mn17  1  0.250119  0.000000  0.000000  1
  Cu  Cu18  1  0.249981  0.500000  0.500000  1
  Cu  Cu19  1  0.750019  0.000000  0.000000  1
  Te  Te20  1  0.999976  0.843558  0.561729  1
  Te  Te21  1  0.999976  0.156442  0.438271  1
  Te  Te22  1  0.000024  0.343558  0.938271  1
  Te  Te23  1  0.000024  0.656442  0.061729  1
  Te  Te24  1  0.500812  0.333813  0.318247  1
  Te  Te25  1  0.500812  0.666187  0.681753  1
  Te  Te26  1  0.499188  0.833813  0.181753  1
  Te  Te27  1  0.499188  0.166187  0.818247  1
  Te  Te28  1  0.499950  0.819391  0.405136  1
  Te  Te29  1  0.499950  0.180609  0.594864  1
  Te  Te30  1  0.500050  0.319391  0.094864  1
  Te  Te31  1  0.500050  0.680609  0.905136  1
  Te  Te32  1  0.999347  0.608253  0.304568  1
  Te  Te33  1  0.999347  0.391747  0.695432  1
  Te  Te34  1  0.000653  0.108253  0.195432  1
  Te  Te35  1  0.000653  0.891747  0.804568  1
