# generated using pymatgen
data_Pr11NdOs(PtBr4)3
_symmetry_space_group_name_H-M   'P 1'
_cell_length_a   10.70937060
_cell_length_b   10.56914431
_cell_length_c   10.56640995
_cell_angle_alpha   109.22036298
_cell_angle_beta   109.70672798
_cell_angle_gamma   109.73094243
_symmetry_Int_Tables_number   1
_chemical_formula_structural   Pr11NdOs(PtBr4)3
_chemical_formula_sum   'Pr11 Nd1 Os1 Pt3 Br12'
_cell_volume   917.87682532
_cell_formula_units_Z   1
loop_
 _symmetry_equiv_pos_site_id
 _symmetry_equiv_pos_as_xyz
  1  'x, y, z'
loop_
 _atom_site_type_symbol
 _atom_site_label
 _atom_site_symmetry_multiplicity
 _atom_site_fract_x
 _atom_site_fract_y
 _atom_site_fract_z
 _atom_site_occupancy
  Pr  Pr0  1  0.750090  0.235637  0.264458  1
  Pr  Pr1  1  0.750123  0.014405  0.485724  1
  Pr  Pr2  1  0.235717  0.471232  0.485518  1
  Pr  Pr3  1  0.261642  0.741583  0.231464  1
  Pr  Pr4  1  0.030299  0.268586  0.010489  1
  Pr  Pr5  1  0.014267  0.028569  0.264322  1
  Pr  Pr6  1  0.480161  0.741623  0.010387  1
  Pr  Pr7  1  0.485402  0.235618  0.470950  1
  Pr  Pr8  1  0.019575  0.489759  0.758022  1
  Pr  Pr9  1  0.264437  0.014773  0.028904  1
  Pr  Pr10  1  0.238554  0.268558  0.758357  1
  Nd  Nd11  1  0.469188  0.489340  0.231105  1
  Os  Os12  1  0.250551  0.500043  0.000600  1
  Pt  Pt13  1  0.250644  0.250540  0.250017  1
  Pt  Pt14  1  0.499990  0.000043  0.250010  1
  Pt  Pt15  1  0.999905  0.249939  0.499919  1
  Br  Br16  1  0.249964  0.754654  0.745364  1
  Br  Br17  1  0.507887  0.503298  0.752802  1
  Br  Br18  1  0.992125  0.747219  0.996703  1
  Br  Br19  1  0.744960  0.249564  0.752815  1
  Br  Br20  1  0.995381  0.990737  0.745404  1
  Br  Br21  1  0.250009  0.997130  0.502887  1
  Br  Br22  1  0.752479  0.505772  0.502496  1
  Br  Br23  1  0.504687  0.250121  0.997277  1
  Br  Br24  1  0.754600  0.746718  0.250514  1
  Br  Br25  1  0.747152  0.997129  0.994257  1
  Br  Br26  1  0.995439  0.503300  0.250475  1
  Br  Br27  1  0.504770  0.754108  0.508762  1
