# generated using pymatgen
data_V3Zn(SiOs3)2
_symmetry_space_group_name_H-M   'P 1'
_cell_length_a   4.24562500
_cell_length_b   5.99764600
_cell_length_c   12.72966301
_cell_angle_alpha   90.00000000
_cell_angle_beta   90.00380674
_cell_angle_gamma   90.00000000
_symmetry_Int_Tables_number   1
_chemical_formula_structural   V3Zn(SiOs3)2
_chemical_formula_sum   'V6 Zn2 Si4 Os12'
_cell_volume   324.14502967
_cell_formula_units_Z   2
loop_
 _symmetry_equiv_pos_site_id
 _symmetry_equiv_pos_as_xyz
  1  'x, y, z'
loop_
 _atom_site_type_symbol
 _atom_site_label
 _atom_site_symmetry_multiplicity
 _atom_site_fract_x
 _atom_site_fract_y
 _atom_site_fract_z
 _atom_site_occupancy
  V  V0  1  0.000003  0.500001  0.005794  1
  V  V1  1  0.499749  0.000000  0.160864  1
  V  V2  1  0.999764  0.500001  0.327844  1
  V  V3  1  0.499988  0.000000  0.499570  1
  V  V4  1  0.000227  0.500001  0.667129  1
  V  V5  1  0.500239  0.000000  0.838851  1
  Zn  Zn6  1  0.000043  0.000000  0.998946  1
  Zn  Zn7  1  0.499703  0.500001  0.167721  1
  Si  Si8  1  0.999737  0.000000  0.335664  1
  Si  Si9  1  0.500003  0.500001  0.500528  1
  Si  Si10  1  0.000234  0.000000  0.666184  1
  Si  Si11  1  0.500308  0.500001  0.830992  1
  Os  Os12  1  0.500041  0.254629  0.995459  1
  Os  Os13  1  0.500041  0.745371  0.995459  1
  Os  Os14  1  0.999747  0.245323  0.171005  1
  Os  Os15  1  0.999747  0.754677  0.171005  1
  Os  Os16  1  0.499798  0.246408  0.338515  1
  Os  Os17  1  0.499798  0.753592  0.338515  1
  Os  Os18  1  0.999997  0.249823  0.501284  1
  Os  Os19  1  0.999997  0.750177  0.501284  1
  Os  Os20  1  0.500189  0.250086  0.665530  1
  Os  Os21  1  0.500189  0.749914  0.665530  1
  Os  Os22  1  0.000228  0.253291  0.828163  1
  Os  Os23  1  0.000228  0.746709  0.828163  1
