# generated using pymatgen
data_Ho12TcIr2Os
_symmetry_space_group_name_H-M   'P 1'
_cell_length_a   6.34904353
_cell_length_b   7.34254188
_cell_length_c   9.06363900
_cell_angle_alpha   90.00000000
_cell_angle_beta   90.00000000
_cell_angle_gamma   90.11744990
_symmetry_Int_Tables_number   1
_chemical_formula_structural   Ho12TcIr2Os
_chemical_formula_sum   'Ho12 Tc1 Ir2 Os1'
_cell_volume   422.52890516
_cell_formula_units_Z   1
loop_
 _symmetry_equiv_pos_site_id
 _symmetry_equiv_pos_as_xyz
  1  'x, y, z'
loop_
 _atom_site_type_symbol
 _atom_site_label
 _atom_site_symmetry_multiplicity
 _atom_site_fract_x
 _atom_site_fract_y
 _atom_site_fract_z
 _atom_site_occupancy
  Ho  Ho0  1  0.331724  0.676618  0.061578  1
  Ho  Ho1  1  0.169005  0.175112  0.435843  1
  Ho  Ho2  1  0.670002  0.324650  0.564093  1
  Ho  Ho3  1  0.831946  0.823386  0.937852  1
  Ho  Ho4  1  0.670002  0.324650  0.935907  1
  Ho  Ho5  1  0.831946  0.823386  0.562148  1
  Ho  Ho6  1  0.331724  0.676618  0.438422  1
  Ho  Ho7  1  0.169005  0.175112  0.064157  1
  Ho  Ho8  1  0.870070  0.538910  0.250000  1
  Ho  Ho9  1  0.627679  0.038337  0.250000  1
  Ho  Ho10  1  0.130567  0.461673  0.750000  1
  Ho  Ho11  1  0.370432  0.960614  0.750000  1
  Tc  Tc12  1  0.036491  0.885238  0.250000  1
  Ir  Ir13  1  0.460657  0.383420  0.250000  1
  Ir  Ir14  1  0.959609  0.117033  0.750000  1
  Os  Os15  1  0.539141  0.615240  0.750000  1
