# generated using pymatgen
data_Pr3SiPt5
_symmetry_space_group_name_H-M   'P 1'
_cell_length_a   8.45284343
_cell_length_b   8.45284244
_cell_length_c   8.45284232
_cell_angle_alpha   127.18753631
_cell_angle_beta   126.44448146
_cell_angle_gamma   78.55253307
_symmetry_Int_Tables_number   1
_chemical_formula_structural   Pr3SiPt5
_chemical_formula_sum   'Pr6 Si2 Pt10'
_cell_volume   374.70587554
_cell_formula_units_Z   2
loop_
 _symmetry_equiv_pos_site_id
 _symmetry_equiv_pos_as_xyz
  1  'x, y, z'
loop_
 _atom_site_type_symbol
 _atom_site_label
 _atom_site_symmetry_multiplicity
 _atom_site_fract_x
 _atom_site_fract_y
 _atom_site_fract_z
 _atom_site_occupancy
  Pr  Pr0  1  0.827472  0.550011  0.277462  1
  Pr  Pr1  1  0.613799  0.250000  0.363799  1
  Pr  Pr2  1  0.172528  0.449989  0.722538  1
  Pr  Pr3  1  0.386201  0.750000  0.636201  1
  Pr  Pr4  1  0.227451  0.949989  0.277462  1
  Pr  Pr5  1  0.772549  0.050011  0.722538  1
  Si  Si6  1  0.213859  0.250000  0.963859  1
  Si  Si7  1  0.786141  0.750000  0.036141  1
  Pt  Pt8  1  0.171695  0.908316  0.864226  1
  Pt  Pt9  1  0.828305  0.091684  0.135774  1
  Pt  Pt10  1  0.455909  0.192530  0.864226  1
  Pt  Pt11  1  0.544091  0.408316  0.736621  1
  Pt  Pt12  1  0.828305  0.692530  0.736621  1
  Pt  Pt13  1  0.455909  0.591684  0.263379  1
  Pt  Pt14  1  0.544091  0.807470  0.135774  1
  Pt  Pt15  1  0.171695  0.307470  0.263379  1
  Pt  Pt16  1  0.000000  0.000000  0.500000  1
  Pt  Pt17  1  0.000000  0.500000  0.000000  1
