# generated using pymatgen
data_CsTb2DySe5
_symmetry_space_group_name_H-M   'P 1'
_cell_length_a   4.17319000
_cell_length_b   12.53340100
_cell_length_c   22.35824700
_cell_angle_alpha   90.00000000
_cell_angle_beta   90.00000000
_cell_angle_gamma   90.00000000
_symmetry_Int_Tables_number   1
_chemical_formula_structural   CsTb2DySe5
_chemical_formula_sum   'Cs4 Tb8 Dy4 Se20'
_cell_volume   1169.43164739
_cell_formula_units_Z   4
loop_
 _symmetry_equiv_pos_site_id
 _symmetry_equiv_pos_as_xyz
  1  'x, y, z'
loop_
 _atom_site_type_symbol
 _atom_site_label
 _atom_site_symmetry_multiplicity
 _atom_site_fract_x
 _atom_site_fract_y
 _atom_site_fract_z
 _atom_site_occupancy
  Cs  Cs0  1  0.250000  0.853412  0.092367  1
  Cs  Cs1  1  0.750000  0.146588  0.907633  1
  Cs  Cs2  1  0.750000  0.353412  0.407633  1
  Cs  Cs3  1  0.250000  0.646588  0.592367  1
  Tb  Tb4  1  0.750000  0.797080  0.825399  1
  Tb  Tb5  1  0.250000  0.202920  0.174601  1
  Tb  Tb6  1  0.250000  0.297080  0.674601  1
  Tb  Tb7  1  0.750000  0.702920  0.325399  1
  Tb  Tb8  1  0.250000  0.957339  0.697864  1
  Tb  Tb9  1  0.750000  0.042661  0.302136  1
  Tb  Tb10  1  0.750000  0.457339  0.802136  1
  Tb  Tb11  1  0.250000  0.542661  0.197864  1
  Dy  Dy12  1  0.750000  0.391744  0.053926  1
  Dy  Dy13  1  0.250000  0.608256  0.946074  1
  Dy  Dy14  1  0.250000  0.891744  0.446074  1
  Dy  Dy15  1  0.750000  0.108256  0.553926  1
  Se  Se16  1  0.250000  0.948351  0.568775  1
  Se  Se17  1  0.750000  0.051649  0.431225  1
  Se  Se18  1  0.750000  0.448351  0.931225  1
  Se  Se19  1  0.250000  0.551649  0.068775  1
  Se  Se20  1  0.750000  0.764099  0.952491  1
  Se  Se21  1  0.250000  0.235901  0.047509  1
  Se  Se22  1  0.250000  0.264099  0.547509  1
  Se  Se23  1  0.750000  0.735901  0.452491  1
  Se  Se24  1  0.250000  0.949652  0.825546  1
  Se  Se25  1  0.750000  0.050348  0.174454  1
  Se  Se26  1  0.750000  0.449652  0.674454  1
  Se  Se27  1  0.250000  0.550348  0.325546  1
  Se  Se28  1  0.750000  0.126169  0.684589  1
  Se  Se29  1  0.250000  0.873831  0.315411  1
  Se  Se30  1  0.250000  0.626169  0.815411  1
  Se  Se31  1  0.750000  0.373831  0.184589  1
  Se  Se32  1  0.750000  0.693898  0.197570  1
  Se  Se33  1  0.250000  0.306102  0.802430  1
  Se  Se34  1  0.250000  0.193898  0.302430  1
  Se  Se35  1  0.750000  0.806102  0.697570  1
