# generated using pymatgen
data_Er4Bi3Sb3Rh7
_symmetry_space_group_name_H-M   'P 1'
_cell_length_a   7.67441737
_cell_length_b   7.70203800
_cell_length_c   7.67441722
_cell_angle_alpha   109.54414456
_cell_angle_beta   109.39820117
_cell_angle_gamma   109.54413811
_symmetry_Int_Tables_number   1
_chemical_formula_structural   Er4Bi3Sb3Rh7
_chemical_formula_sum   'Er4 Bi3 Sb3 Rh7'
_cell_volume   348.88553054
_cell_formula_units_Z   1
loop_
 _symmetry_equiv_pos_site_id
 _symmetry_equiv_pos_as_xyz
  1  'x, y, z'
loop_
 _atom_site_type_symbol
 _atom_site_label
 _atom_site_symmetry_multiplicity
 _atom_site_fract_x
 _atom_site_fract_y
 _atom_site_fract_z
 _atom_site_occupancy
  Er  Er0  1  0.511840  0.005312  0.000000  1
  Er  Er1  1  0.000000  0.471325  0.000000  1
  Er  Er2  1  0.000000  0.005312  0.511840  1
  Er  Er3  1  0.488160  0.493473  0.488160  1
  Bi  Bi4  1  0.300045  0.991310  0.300045  1
  Bi  Bi5  1  0.000000  0.691266  0.699955  1
  Bi  Bi6  1  0.699955  0.691266  0.000000  1
  Sb  Sb7  1  0.670338  0.992150  0.670338  1
  Sb  Sb8  1  0.000000  0.321812  0.329662  1
  Sb  Sb9  1  0.329662  0.321812  0.000000  1
  Rh  Rh10  1  0.250566  0.493701  0.750179  1
  Rh  Rh11  1  0.499613  0.243134  0.749434  1
  Rh  Rh12  1  0.749434  0.243134  0.499613  1
  Rh  Rh13  1  0.500387  0.743522  0.249821  1
  Rh  Rh14  1  0.000000  0.054248  0.000000  1
  Rh  Rh15  1  0.249821  0.743522  0.500387  1
  Rh  Rh16  1  0.750179  0.493701  0.250566  1
