# generated using pymatgen
data_Ho3Er2Si10P2Ir19
_symmetry_space_group_name_H-M   'P 1'
_cell_length_a   12.83431404
_cell_length_b   12.83431501
_cell_length_c   3.95357900
_cell_angle_alpha   90.00000000
_cell_angle_beta   90.00000000
_cell_angle_gamma   120.14907376
_symmetry_Int_Tables_number   1
_chemical_formula_structural   Ho3Er2Si10P2Ir19
_chemical_formula_sum   'Ho3 Er2 Si10 P2 Ir19'
_cell_volume   563.13440922
_cell_formula_units_Z   1
loop_
 _symmetry_equiv_pos_site_id
 _symmetry_equiv_pos_as_xyz
  1  'x, y, z'
loop_
 _atom_site_type_symbol
 _atom_site_label
 _atom_site_symmetry_multiplicity
 _atom_site_fract_x
 _atom_site_fract_y
 _atom_site_fract_z
 _atom_site_occupancy
  Ho  Ho0  1  0.812943  0.812943  0.500000  1
  Ho  Ho1  1  0.186042  0.001156  0.500000  1
  Ho  Ho2  1  0.001156  0.186042  0.500000  1
  Er  Er3  1  0.666578  0.333606  0.000000  1
  Er  Er4  1  0.333606  0.666578  0.000000  1
  Si  Si5  1  0.686087  0.167603  0.500000  1
  Si  Si6  1  0.831998  0.518137  0.500000  1
  Si  Si7  1  0.481264  0.312940  0.500000  1
  Si  Si8  1  0.167603  0.686087  0.500000  1
  Si  Si9  1  0.518137  0.831998  0.500000  1
  Si  Si10  1  0.312940  0.481264  0.500000  1
  Si  Si11  1  0.633426  0.633426  0.000000  1
  Si  Si12  1  0.366953  0.000182  0.000000  1
  Si  Si13  1  0.000182  0.366953  0.000000  1
  Si  Si14  1  0.178715  0.178715  0.000000  1
  P  P15  1  0.820811  0.000870  0.000000  1
  P  P16  1  0.000870  0.820811  0.000000  1
  Ir  Ir17  1  0.806535  0.179897  0.000000  1
  Ir  Ir18  1  0.820558  0.627125  0.000000  1
  Ir  Ir19  1  0.375569  0.193960  0.000000  1
  Ir  Ir20  1  0.179897  0.806535  0.000000  1
  Ir  Ir21  1  0.627125  0.820558  0.000000  1
  Ir  Ir22  1  0.193960  0.375569  0.000000  1
  Ir  Ir23  1  0.448037  0.448037  0.000000  1
  Ir  Ir24  1  0.552281  0.999067  0.000000  1
  Ir  Ir25  1  0.999067  0.552281  0.000000  1
  Ir  Ir26  1  0.281862  0.281862  0.500000  1
  Ir  Ir27  1  0.720889  0.000209  0.500000  1
  Ir  Ir28  1  0.000209  0.720889  0.500000  1
  Ir  Ir29  1  0.872051  0.359435  0.500000  1
  Ir  Ir30  1  0.640524  0.512774  0.500000  1
  Ir  Ir31  1  0.487348  0.126503  0.500000  1
  Ir  Ir32  1  0.359435  0.872051  0.500000  1
  Ir  Ir33  1  0.512774  0.640524  0.500000  1
  Ir  Ir34  1  0.126503  0.487348  0.500000  1
  Ir  Ir35  1  0.996068  0.996068  0.000000  1
