# generated using pymatgen
data_Zr6Mn8Fe7Si7Ni
_symmetry_space_group_name_H-M   'P 1'
_cell_length_a   8.19342595
_cell_length_b   8.19342564
_cell_length_c   8.19517909
_cell_angle_alpha   60.00707666
_cell_angle_beta   60.00707521
_cell_angle_gamma   60.00000095
_symmetry_Int_Tables_number   1
_chemical_formula_structural   Zr6Mn8Fe7Si7Ni
_chemical_formula_sum   'Zr6 Mn8 Fe7 Si7 Ni1'
_cell_volume   389.06390768
_cell_formula_units_Z   1
loop_
 _symmetry_equiv_pos_site_id
 _symmetry_equiv_pos_as_xyz
  1  'x, y, z'
loop_
 _atom_site_type_symbol
 _atom_site_label
 _atom_site_symmetry_multiplicity
 _atom_site_fract_x
 _atom_site_fract_y
 _atom_site_fract_z
 _atom_site_occupancy
  Zr  Zr0  1  0.702444  0.702444  0.302015  1
  Zr  Zr1  1  0.293097  0.702444  0.302015  1
  Zr  Zr2  1  0.702444  0.293097  0.302015  1
  Zr  Zr3  1  0.298726  0.298726  0.701194  1
  Zr  Zr4  1  0.701353  0.298726  0.701194  1
  Zr  Zr5  1  0.298726  0.701353  0.701194  1
  Mn  Mn6  1  0.876292  0.876292  0.371126  1
  Mn  Mn7  1  0.879488  0.367903  0.873121  1
  Mn  Mn8  1  0.367903  0.879488  0.873121  1
  Mn  Mn9  1  0.879488  0.879488  0.873121  1
  Mn  Mn10  1  0.121958  0.121958  0.634125  1
  Mn  Mn11  1  0.122317  0.633977  0.121389  1
  Mn  Mn12  1  0.633977  0.122317  0.121389  1
  Mn  Mn13  1  0.122317  0.122317  0.121389  1
  Fe  Fe14  1  0.676780  0.969178  0.677263  1
  Fe  Fe15  1  0.969178  0.676780  0.677263  1
  Fe  Fe16  1  0.676780  0.676780  0.677263  1
  Fe  Fe17  1  0.323539  0.323539  0.029382  1
  Fe  Fe18  1  0.324612  0.028297  0.322478  1
  Fe  Fe19  1  0.028297  0.324612  0.322478  1
  Fe  Fe20  1  0.324612  0.324612  0.322478  1
  Si  Si21  1  0.999132  0.999132  0.002604  1
  Si  Si22  1  0.001225  0.001225  0.498046  1
  Si  Si23  1  0.499504  0.001225  0.498046  1
  Si  Si24  1  0.001225  0.499504  0.498046  1
  Si  Si25  1  0.499728  0.499728  0.997865  1
  Si  Si26  1  0.002680  0.499728  0.997865  1
  Si  Si27  1  0.499728  0.002680  0.997865  1
  Ni  Ni28  1  0.672450  0.672450  0.982652  1
