# generated using pymatgen
data_Tb8TiNb11Si15P
_symmetry_space_group_name_H-M   'P 1'
_cell_length_a   7.07809757
_cell_length_b   7.08131457
_cell_length_c   13.06953893
_cell_angle_alpha   89.91284709
_cell_angle_beta   89.96903743
_cell_angle_gamma   89.98024686
_symmetry_Int_Tables_number   1
_chemical_formula_structural   Tb8TiNb11Si15P
_chemical_formula_sum   'Tb8 Ti1 Nb11 Si15 P1'
_cell_volume   655.07361495
_cell_formula_units_Z   1
loop_
 _symmetry_equiv_pos_site_id
 _symmetry_equiv_pos_as_xyz
  1  'x, y, z'
loop_
 _atom_site_type_symbol
 _atom_site_label
 _atom_site_symmetry_multiplicity
 _atom_site_fract_x
 _atom_site_fract_y
 _atom_site_fract_z
 _atom_site_occupancy
  Tb  Tb0  1  0.341471  0.002160  0.468371  1
  Tb  Tb1  1  0.495159  0.845936  0.717457  1
  Tb  Tb2  1  0.500987  0.158009  0.217910  1
  Tb  Tb3  1  0.841506  0.497328  0.282531  1
  Tb  Tb4  1  0.157718  0.497356  0.781229  1
  Tb  Tb5  1  0.659158  0.996678  0.967723  1
  Tb  Tb6  1  0.003285  0.340848  0.533746  1
  Tb  Tb7  1  0.997731  0.659346  0.031708  1
  Ti  Ti8  1  0.995774  0.848672  0.627579  1
  Nb  Nb9  1  0.328336  0.328646  0.999146  1
  Nb  Nb10  1  0.171334  0.828656  0.250074  1
  Nb  Nb11  1  0.829211  0.172430  0.748963  1
  Nb  Nb12  1  0.670782  0.671138  0.500184  1
  Nb  Nb13  1  0.155148  0.008746  0.871073  1
  Nb  Nb14  1  0.491962  0.653058  0.124239  1
  Nb  Nb15  1  0.505190  0.344310  0.625213  1
  Nb  Nb16  1  0.654206  0.494112  0.875929  1
  Nb  Nb17  1  0.347253  0.506636  0.376361  1
  Nb  Nb18  1  0.846237  0.992204  0.374611  1
  Nb  Nb19  1  0.007689  0.152682  0.126148  1
  Si  Si20  1  0.366455  0.704526  0.931770  1
  Si  Si21  1  0.632960  0.295728  0.433632  1
  Si  Si22  1  0.703336  0.367081  0.067305  1
  Si  Si23  1  0.296018  0.633656  0.567271  1
  Si  Si24  1  0.795828  0.866676  0.182823  1
  Si  Si25  1  0.133191  0.203786  0.317991  1
  Si  Si26  1  0.867436  0.796251  0.816113  1
  Si  Si27  1  0.292559  0.954087  0.062628  1
  Si  Si28  1  0.545455  0.792714  0.313672  1
  Si  Si29  1  0.459281  0.208700  0.816003  1
  Si  Si30  1  0.792275  0.549082  0.684960  1
  Si  Si31  1  0.207066  0.453754  0.186539  1
  Si  Si32  1  0.709648  0.044656  0.563904  1
  Si  Si33  1  0.953654  0.292596  0.936637  1
  Si  Si34  1  0.045559  0.707984  0.437664  1
  P  P35  1  0.199143  0.129772  0.680894  1
