# generated using pymatgen
data_Eu3ThTaSn3O14
_symmetry_space_group_name_H-M   'P 1'
_cell_length_a   7.54656115
_cell_length_b   7.62715411
_cell_length_c   7.54656100
_cell_angle_alpha   60.34893346
_cell_angle_beta   60.00000504
_cell_angle_gamma   60.34892931
_symmetry_Int_Tables_number   1
_chemical_formula_structural   Eu3ThTaSn3O14
_chemical_formula_sum   'Eu3 Th1 Ta1 Sn3 O14'
_cell_volume   308.75657300
_cell_formula_units_Z   1
loop_
 _symmetry_equiv_pos_site_id
 _symmetry_equiv_pos_as_xyz
  1  'x, y, z'
loop_
 _atom_site_type_symbol
 _atom_site_label
 _atom_site_symmetry_multiplicity
 _atom_site_fract_x
 _atom_site_fract_y
 _atom_site_fract_z
 _atom_site_occupancy
  Eu  Eu0  1  0.125000  0.125000  0.125000  1
  Eu  Eu1  1  0.625000  0.125000  0.125000  1
  Eu  Eu2  1  0.125000  0.125000  0.625000  1
  Th  Th3  1  0.125000  0.625000  0.125000  1
  Ta  Ta4  1  0.625000  0.125000  0.625000  1
  Sn  Sn5  1  0.625000  0.625000  0.625000  1
  Sn  Sn6  1  0.125000  0.625000  0.625000  1
  Sn  Sn7  1  0.625000  0.625000  0.125000  1
  O  O8  1  0.959006  0.544484  0.959006  1
  O  O9  1  0.696662  0.298561  0.308116  1
  O  O10  1  0.290994  0.705516  0.712497  1
  O  O11  1  0.696662  0.298561  0.696662  1
  O  O12  1  0.308116  0.298561  0.696662  1
  O  O13  1  0.712497  0.705516  0.290994  1
  O  O14  1  0.941884  0.951439  0.553338  1
  O  O15  1  0.553338  0.951439  0.941884  1
  O  O16  1  0.959006  0.544484  0.537503  1
  O  O17  1  0.537503  0.544484  0.959006  1
  O  O18  1  0.290994  0.705516  0.290994  1
  O  O19  1  0.553338  0.951439  0.553338  1
  O  O20  1  0.005910  0.982270  0.005910  1
  O  O21  1  0.244090  0.267730  0.244090  1
