# generated using pymatgen
data_ErTm3(Rh2O7)2
_symmetry_space_group_name_H-M   'P 1'
_cell_length_a   7.18419737
_cell_length_b   7.18570052
_cell_length_c   7.18570000
_cell_angle_alpha   60.00000238
_cell_angle_beta   59.99308089
_cell_angle_gamma   59.99308956
_symmetry_Int_Tables_number   1
_chemical_formula_structural   ErTm3(Rh2O7)2
_chemical_formula_sum   'Er1 Tm3 Rh4 O14'
_cell_volume   262.27449575
_cell_formula_units_Z   1
loop_
 _symmetry_equiv_pos_site_id
 _symmetry_equiv_pos_as_xyz
  1  'x, y, z'
loop_
 _atom_site_type_symbol
 _atom_site_label
 _atom_site_symmetry_multiplicity
 _atom_site_fract_x
 _atom_site_fract_y
 _atom_site_fract_z
 _atom_site_occupancy
  Er  Er0  1  0.625000  0.125000  0.125000  1
  Tm  Tm1  1  0.125000  0.125000  0.125000  1
  Tm  Tm2  1  0.125000  0.625000  0.125000  1
  Tm  Tm3  1  0.125000  0.125000  0.625000  1
  Rh  Rh4  1  0.625000  0.625000  0.625000  1
  Rh  Rh5  1  0.625000  0.625000  0.125000  1
  Rh  Rh6  1  0.125000  0.625000  0.625000  1
  Rh  Rh7  1  0.625000  0.125000  0.625000  1
  O  O8  1  0.247736  0.250754  0.250754  1
  O  O9  1  0.285477  0.714384  0.285755  1
  O  O10  1  0.964523  0.964245  0.535616  1
  O  O11  1  0.536359  0.963821  0.535999  1
  O  O12  1  0.713641  0.714001  0.286179  1
  O  O13  1  0.964523  0.535616  0.535616  1
  O  O14  1  0.713641  0.286179  0.714001  1
  O  O15  1  0.285477  0.285755  0.714384  1
  O  O16  1  0.713641  0.286179  0.286179  1
  O  O17  1  0.285477  0.714384  0.714384  1
  O  O18  1  0.964523  0.535616  0.964245  1
  O  O19  1  0.536359  0.535999  0.963821  1
  O  O20  1  0.002264  0.999246  0.999246  1
  O  O21  1  0.536359  0.963821  0.963821  1
