# generated using pymatgen
data_CoTc3Ni2P3
_symmetry_space_group_name_H-M   'P 1'
_cell_length_a   5.77757852
_cell_length_b   5.77757879
_cell_length_c   3.72616100
_cell_angle_alpha   90.00000000
_cell_angle_beta   90.00000000
_cell_angle_gamma   120.24706900
_symmetry_Int_Tables_number   1
_chemical_formula_structural   CoTc3Ni2P3
_chemical_formula_sum   'Co1 Tc3 Ni2 P3'
_cell_volume   107.44775725
_cell_formula_units_Z   1
loop_
 _symmetry_equiv_pos_site_id
 _symmetry_equiv_pos_as_xyz
  1  'x, y, z'
loop_
 _atom_site_type_symbol
 _atom_site_label
 _atom_site_symmetry_multiplicity
 _atom_site_fract_x
 _atom_site_fract_y
 _atom_site_fract_z
 _atom_site_occupancy
  Co  Co0  1  0.748415  0.748415  0.000000  1
  Tc  Tc1  1  0.991726  0.583836  0.500000  1
  Tc  Tc2  1  0.583836  0.991726  0.500000  1
  Tc  Tc3  1  0.412465  0.412465  0.500000  1
  Ni  Ni4  1  0.255731  0.002353  0.000000  1
  Ni  Ni5  1  0.002353  0.255731  0.000000  1
  P  P6  1  0.996124  0.996124  0.500000  1
  P  P7  1  0.670034  0.339318  0.000000  1
  P  P8  1  0.339318  0.670034  0.000000  1
