# generated using pymatgen
data_LiLa3MnC6
_symmetry_space_group_name_H-M   'P 1'
_cell_length_a   8.61650800
_cell_length_b   8.61650769
_cell_length_c   5.35447000
_cell_angle_alpha   90.00000000
_cell_angle_beta   90.00000000
_cell_angle_gamma   120.00000071
_symmetry_Int_Tables_number   1
_chemical_formula_structural   LiLa3MnC6
_chemical_formula_sum   'Li2 La6 Mn2 C12'
_cell_volume   344.27833492
_cell_formula_units_Z   2
loop_
 _symmetry_equiv_pos_site_id
 _symmetry_equiv_pos_as_xyz
  1  'x, y, z'
loop_
 _atom_site_type_symbol
 _atom_site_label
 _atom_site_symmetry_multiplicity
 _atom_site_fract_x
 _atom_site_fract_y
 _atom_site_fract_z
 _atom_site_occupancy
  Li  Li0  1  0.000000  0.000000  0.500000  1
  Li  Li1  1  0.000000  0.000000  0.000000  1
  La  La2  1  0.616832  0.682631  0.750000  1
  La  La3  1  0.934200  0.616832  0.250000  1
  La  La4  1  0.682631  0.065800  0.250000  1
  La  La5  1  0.317369  0.934200  0.750000  1
  La  La6  1  0.065800  0.383168  0.750000  1
  La  La7  1  0.383168  0.317369  0.250000  1
  Mn  Mn8  1  0.666667  0.333333  0.750000  1
  Mn  Mn9  1  0.333333  0.666667  0.250000  1
  C  C10  1  0.975456  0.735782  0.750000  1
  C  C11  1  0.239674  0.975456  0.250000  1
  C  C12  1  0.735782  0.760326  0.250000  1
  C  C13  1  0.264218  0.239674  0.750000  1
  C  C14  1  0.760326  0.024544  0.750000  1
  C  C15  1  0.024544  0.264218  0.250000  1
  C  C16  1  0.851328  0.562392  0.750000  1
  C  C17  1  0.288935  0.851328  0.250000  1
  C  C18  1  0.562392  0.711065  0.250000  1
  C  C19  1  0.437608  0.288935  0.750000  1
  C  C20  1  0.148672  0.437608  0.250000  1
  C  C21  1  0.711065  0.148672  0.750000  1
