# generated using pymatgen
data_TaMn5(GaRu2)6
_symmetry_space_group_name_H-M   'P 1'
_cell_length_a   4.27000900
_cell_length_b   6.03444100
_cell_length_c   12.79480500
_cell_angle_alpha   90.00044013
_cell_angle_beta   89.99989219
_cell_angle_gamma   89.99993746
_symmetry_Int_Tables_number   1
_chemical_formula_structural   TaMn5(GaRu2)6
_chemical_formula_sum   'Ta1 Mn5 Ga6 Ru12'
_cell_volume   329.68524230
_cell_formula_units_Z   1
loop_
 _symmetry_equiv_pos_site_id
 _symmetry_equiv_pos_as_xyz
  1  'x, y, z'
loop_
 _atom_site_type_symbol
 _atom_site_label
 _atom_site_symmetry_multiplicity
 _atom_site_fract_x
 _atom_site_fract_y
 _atom_site_fract_z
 _atom_site_occupancy
  Ta  Ta0  1  0.999970  0.000016  0.999996  1
  Mn  Mn1  1  0.500021  0.499985  0.169556  1
  Mn  Mn2  1  0.999934  0.999957  0.334402  1
  Mn  Mn3  1  0.499957  0.500000  0.500001  1
  Mn  Mn4  1  0.000016  0.000020  0.665597  1
  Mn  Mn5  1  0.500081  0.500014  0.830462  1
  Ga  Ga6  1  0.999966  0.500035  0.000047  1
  Ga  Ga7  1  0.500029  0.000001  0.167945  1
  Ga  Ga8  1  0.999951  0.499946  0.336434  1
  Ga  Ga9  1  0.499938  0.000014  0.500039  1
  Ga  Ga10  1  0.000032  0.500013  0.663479  1
  Ga  Ga11  1  0.500080  0.000001  0.832044  1
  Ru  Ru12  1  0.499982  0.259583  0.000008  1
  Ru  Ru13  1  0.499991  0.740460  0.000031  1
  Ru  Ru14  1  0.000009  0.254713  0.170617  1
  Ru  Ru15  1  0.000036  0.745268  0.170644  1
  Ru  Ru16  1  0.499942  0.249440  0.334192  1
  Ru  Ru17  1  0.499968  0.750482  0.334205  1
  Ru  Ru18  1  0.999937  0.249103  0.499967  1
  Ru  Ru19  1  0.999959  0.750904  0.499959  1
  Ru  Ru20  1  0.500008  0.249582  0.665826  1
  Ru  Ru21  1  0.500045  0.750441  0.665815  1
  Ru  Ru22  1  0.000049  0.254723  0.829368  1
  Ru  Ru23  1  0.000101  0.745301  0.829368  1
