# generated using pymatgen
data_LaYbEr(Si3Pd10)2
_symmetry_space_group_name_H-M   'P 1'
_cell_length_a   8.73788082
_cell_length_b   8.73787968
_cell_length_c   8.73788000
_cell_angle_alpha   59.99999880
_cell_angle_beta   60.00000310
_cell_angle_gamma   60.00000433
_symmetry_Int_Tables_number   1
_chemical_formula_structural   LaYbEr(Si3Pd10)2
_chemical_formula_sum   'La1 Yb1 Er1 Si6 Pd20'
_cell_volume   471.74062265
_cell_formula_units_Z   1
loop_
 _symmetry_equiv_pos_site_id
 _symmetry_equiv_pos_as_xyz
  1  'x, y, z'
loop_
 _atom_site_type_symbol
 _atom_site_label
 _atom_site_symmetry_multiplicity
 _atom_site_fract_x
 _atom_site_fract_y
 _atom_site_fract_z
 _atom_site_occupancy
  La  La0  1  0.250000  0.250000  0.250000  1
  Yb  Yb1  1  0.750000  0.750000  0.750000  1
  Er  Er2  1  0.000000  0.000000  0.000000  1
  Si  Si3  1  0.732146  0.267854  0.267854  1
  Si  Si4  1  0.267854  0.732146  0.732146  1
  Si  Si5  1  0.267854  0.732146  0.267854  1
  Si  Si6  1  0.732146  0.267854  0.732146  1
  Si  Si7  1  0.267854  0.267854  0.732146  1
  Si  Si8  1  0.732146  0.732146  0.267854  1
  Pd  Pd9  1  0.385314  0.385314  0.385314  1
  Pd  Pd10  1  0.616916  0.616916  0.616916  1
  Pd  Pd11  1  0.385314  0.385314  0.844058  1
  Pd  Pd12  1  0.385314  0.844058  0.385314  1
  Pd  Pd13  1  0.616916  0.616916  0.149251  1
  Pd  Pd14  1  0.616916  0.149251  0.616916  1
  Pd  Pd15  1  0.844058  0.385314  0.385314  1
  Pd  Pd16  1  0.149251  0.616916  0.616916  1
  Pd  Pd17  1  0.344895  0.999418  0.999418  1
  Pd  Pd18  1  0.656270  0.999418  0.999418  1
  Pd  Pd19  1  0.999418  0.344895  0.656270  1
  Pd  Pd20  1  0.999418  0.656270  0.344895  1
  Pd  Pd21  1  0.999418  0.344895  0.999418  1
  Pd  Pd22  1  0.656270  0.999418  0.344895  1
  Pd  Pd23  1  0.999418  0.656270  0.999418  1
  Pd  Pd24  1  0.344895  0.999418  0.656270  1
  Pd  Pd25  1  0.999418  0.999418  0.344895  1
  Pd  Pd26  1  0.999418  0.999418  0.656270  1
  Pd  Pd27  1  0.656270  0.344895  0.999418  1
  Pd  Pd28  1  0.344895  0.656270  0.999418  1
