# generated using pymatgen
data_Nd4Al16Si2PdRh5
_symmetry_space_group_name_H-M   'P 1'
_cell_length_a   7.60750809
_cell_length_b   7.60750780
_cell_length_c   9.51115805
_cell_angle_alpha   89.98814229
_cell_angle_beta   89.98814148
_cell_angle_gamma   119.46154605
_symmetry_Int_Tables_number   1
_chemical_formula_structural   Nd4Al16Si2PdRh5
_chemical_formula_sum   'Nd4 Al16 Si2 Pd1 Rh5'
_cell_volume   479.26945053
_cell_formula_units_Z   1
loop_
 _symmetry_equiv_pos_site_id
 _symmetry_equiv_pos_as_xyz
  1  'x, y, z'
loop_
 _atom_site_type_symbol
 _atom_site_label
 _atom_site_symmetry_multiplicity
 _atom_site_fract_x
 _atom_site_fract_y
 _atom_site_fract_z
 _atom_site_occupancy
  Nd  Nd0  1  0.993117  0.672954  0.750098  1
  Nd  Nd1  1  0.004166  0.325178  0.250152  1
  Nd  Nd2  1  0.674822  0.995834  0.749848  1
  Nd  Nd3  1  0.327046  0.006883  0.249902  1
  Al  Al4  1  0.007672  0.336334  0.576150  1
  Al  Al5  1  0.000487  0.667794  0.424402  1
  Al  Al6  1  0.998513  0.663781  0.073478  1
  Al  Al7  1  0.336219  0.001487  0.926522  1
  Al  Al8  1  0.002455  0.336214  0.925981  1
  Al  Al9  1  0.663786  0.997545  0.074019  1
  Al  Al10  1  0.663666  0.992328  0.423850  1
  Al  Al11  1  0.332206  0.999513  0.575598  1
  Al  Al12  1  0.335434  0.335617  0.049004  1
  Al  Al13  1  0.664383  0.664566  0.950996  1
  Al  Al14  1  0.663107  0.666411  0.552895  1
  Al  Al15  1  0.333589  0.336893  0.447105  1
  Al  Al16  1  0.337143  0.548571  0.750615  1
  Al  Al17  1  0.664118  0.456210  0.246400  1
  Al  Al18  1  0.543790  0.335882  0.753600  1
  Al  Al19  1  0.451429  0.662857  0.249385  1
  Si  Si20  1  0.130241  0.129143  0.750702  1
  Si  Si21  1  0.870857  0.869759  0.249298  1
  Pd  Pd22  1  0.671721  0.328279  0.500000  1
  Rh  Rh23  1  0.329343  0.670657  0.500000  1
  Rh  Rh24  1  0.329549  0.670451  0.000000  1
  Rh  Rh25  1  0.670910  0.329090  0.000000  1
  Rh  Rh26  1  0.000007  0.999993  0.500000  1
  Rh  Rh27  1  0.000219  0.999781  0.000000  1
