# generated using pymatgen
data_Tm4Sc4B24IrW3
_symmetry_space_group_name_H-M   'P 1'
_cell_length_a   3.50155800
_cell_length_b   9.08682199
_cell_length_c   11.46384525
_cell_angle_alpha   90.05348014
_cell_angle_beta   90.00000000
_cell_angle_gamma   90.00000000
_symmetry_Int_Tables_number   1
_chemical_formula_structural   Tm4Sc4B24IrW3
_chemical_formula_sum   'Tm4 Sc4 B24 Ir1 W3'
_cell_volume   364.75686165
_cell_formula_units_Z   1
loop_
 _symmetry_equiv_pos_site_id
 _symmetry_equiv_pos_as_xyz
  1  'x, y, z'
loop_
 _atom_site_type_symbol
 _atom_site_label
 _atom_site_symmetry_multiplicity
 _atom_site_fract_x
 _atom_site_fract_y
 _atom_site_fract_z
 _atom_site_occupancy
  Tm  Tm0  1  0.500000  0.317329  0.414542  1
  Tm  Tm1  1  0.500000  0.681122  0.587880  1
  Tm  Tm2  1  0.500000  0.179863  0.912840  1
  Tm  Tm3  1  0.500000  0.821958  0.083384  1
  Sc  Sc4  1  0.500000  0.443640  0.126838  1
  Sc  Sc5  1  0.500000  0.555394  0.873311  1
  Sc  Sc6  1  0.500000  0.053853  0.626554  1
  Sc  Sc7  1  0.500000  0.945118  0.372793  1
  B  B8  1  0.000000  0.095417  0.473329  1
  B  B9  1  0.000000  0.900129  0.525198  1
  B  B10  1  0.000000  0.403313  0.974290  1
  B  B11  1  0.000000  0.598056  0.028541  1
  B  B12  1  0.000000  0.129348  0.320834  1
  B  B13  1  0.000000  0.870109  0.680164  1
  B  B14  1  0.000000  0.371366  0.819158  1
  B  B15  1  0.000000  0.629872  0.182268  1
  B  B16  1  0.000000  0.051637  0.065278  1
  B  B17  1  0.000000  0.947815  0.935381  1
  B  B18  1  0.000000  0.449234  0.562704  1
  B  B19  1  0.000000  0.556465  0.433148  1
  B  B20  1  0.000000  0.482908  0.286435  1
  B  B21  1  0.000000  0.522702  0.714234  1
  B  B22  1  0.000000  0.022032  0.784761  1
  B  B23  1  0.000000  0.976241  0.214725  1
  B  B24  1  0.000000  0.256760  0.078978  1
  B  B25  1  0.000000  0.743712  0.922026  1
  B  B26  1  0.000000  0.242482  0.577959  1
  B  B27  1  0.000000  0.753562  0.419612  1
  B  B28  1  0.000000  0.299513  0.238015  1
  B  B29  1  0.000000  0.702263  0.764366  1
  B  B30  1  0.000000  0.202780  0.735946  1
  B  B31  1  0.000000  0.793207  0.264722  1
  Ir  Ir32  1  0.500000  0.640480  0.318906  1
  W  W33  1  0.500000  0.141187  0.182379  1
  W  W34  1  0.500000  0.859258  0.818993  1
  W  W35  1  0.500000  0.359872  0.679508  1
