# generated using pymatgen
data_YbPr2Ni9
_symmetry_space_group_name_H-M   'P 1'
_cell_length_a   5.01167714
_cell_length_b   5.01167673
_cell_length_c   8.69668344
_cell_angle_alpha   90.00000144
_cell_angle_beta   73.25352930
_cell_angle_gamma   120.00000252
_symmetry_Int_Tables_number   1
_chemical_formula_structural   YbPr2Ni9
_chemical_formula_sum   'Yb1 Pr2 Ni9'
_cell_volume   178.39192242
_cell_formula_units_Z   1
loop_
 _symmetry_equiv_pos_site_id
 _symmetry_equiv_pos_as_xyz
  1  'x, y, z'
loop_
 _atom_site_type_symbol
 _atom_site_label
 _atom_site_symmetry_multiplicity
 _atom_site_fract_x
 _atom_site_fract_y
 _atom_site_fract_z
 _atom_site_occupancy
  Yb  Yb0  1  0.721639  0.860819  0.417542  1
  Pr  Pr1  1  0.995285  0.997642  0.007073  1
  Pr  Pr2  1  0.283667  0.141834  0.574498  1
  Ni  Ni3  1  0.663841  0.581409  0.754751  1
  Ni  Ni4  1  0.162816  0.581409  0.754751  1
  Ni  Ni5  1  0.663841  0.082432  0.754751  1
  Ni  Ni6  1  0.334779  0.418647  0.246572  1
  Ni  Ni7  1  0.837296  0.418647  0.246572  1
  Ni  Ni8  1  0.334779  0.916132  0.246572  1
  Ni  Ni9  1  0.001763  0.500882  0.497355  1
  Ni  Ni10  1  0.664948  0.332474  0.002579  1
  Ni  Ni11  1  0.335346  0.667672  0.996982  1
