# generated using pymatgen
data_CaSc(Re2Si)4
_symmetry_space_group_name_H-M   'P 1'
_cell_length_a   7.35048844
_cell_length_b   7.35048796
_cell_length_c   4.16535600
_cell_angle_alpha   90.00000000
_cell_angle_beta   90.00000000
_cell_angle_gamma   88.90211221
_symmetry_Int_Tables_number   1
_chemical_formula_structural   CaSc(Re2Si)4
_chemical_formula_sum   'Ca1 Sc1 Re8 Si4'
_cell_volume   225.01152284
_cell_formula_units_Z   1
loop_
 _symmetry_equiv_pos_site_id
 _symmetry_equiv_pos_as_xyz
  1  'x, y, z'
loop_
 _atom_site_type_symbol
 _atom_site_label
 _atom_site_symmetry_multiplicity
 _atom_site_fract_x
 _atom_site_fract_y
 _atom_site_fract_z
 _atom_site_occupancy
  Ca  Ca0  1  0.500000  0.500000  0.000000  1
  Sc  Sc1  1  0.000000  0.000000  0.500000  1
  Re  Re2  1  0.660332  0.909433  0.000000  1
  Re  Re3  1  0.152828  0.601783  0.500000  1
  Re  Re4  1  0.090567  0.339668  0.000000  1
  Re  Re5  1  0.909433  0.660332  0.000000  1
  Re  Re6  1  0.398217  0.847172  0.500000  1
  Re  Re7  1  0.601783  0.152828  0.500000  1
  Re  Re8  1  0.339668  0.090567  0.000000  1
  Re  Re9  1  0.847172  0.398217  0.500000  1
  Si  Si10  1  0.204245  0.795755  0.000000  1
  Si  Si11  1  0.795755  0.204245  0.000000  1
  Si  Si12  1  0.710369  0.710369  0.500000  1
  Si  Si13  1  0.289631  0.289631  0.500000  1
