# generated using pymatgen
data_Lu6Al7Cu16
_symmetry_space_group_name_H-M   'P 1'
_cell_length_a   8.61760106
_cell_length_b   8.61771451
_cell_length_c   8.61733601
_cell_angle_alpha   59.99800171
_cell_angle_beta   59.99597169
_cell_angle_gamma   59.99719971
_symmetry_Int_Tables_number   1
_chemical_formula_structural   Lu6Al7Cu16
_chemical_formula_sum   'Lu6 Al7 Cu16'
_cell_volume   452.48849802
_cell_formula_units_Z   1
loop_
 _symmetry_equiv_pos_site_id
 _symmetry_equiv_pos_as_xyz
  1  'x, y, z'
loop_
 _atom_site_type_symbol
 _atom_site_label
 _atom_site_symmetry_multiplicity
 _atom_site_fract_x
 _atom_site_fract_y
 _atom_site_fract_z
 _atom_site_occupancy
  Lu  Lu0  1  0.708786  0.291202  0.291213  1
  Lu  Lu1  1  0.291214  0.708798  0.708787  1
  Lu  Lu2  1  0.291212  0.708779  0.291217  1
  Lu  Lu3  1  0.291219  0.291210  0.708770  1
  Lu  Lu4  1  0.708788  0.291221  0.708783  1
  Lu  Lu5  1  0.708781  0.708790  0.291230  1
  Al  Al6  1  0.500000  0.000000  0.000000  1
  Al  Al7  1  0.000000  0.500000  0.500000  1
  Al  Al8  1  0.000000  0.500000  0.000000  1
  Al  Al9  1  0.000000  0.000000  0.500000  1
  Al  Al10  1  0.500000  0.000000  0.500000  1
  Al  Al11  1  0.500000  0.500000  0.000000  1
  Al  Al12  1  0.000000  0.000000  0.000000  1
  Cu  Cu13  1  0.327560  0.327568  0.327541  1
  Cu  Cu14  1  0.327582  0.327552  0.017312  1
  Cu  Cu15  1  0.017300  0.327560  0.327585  1
  Cu  Cu16  1  0.327556  0.017336  0.327544  1
  Cu  Cu17  1  0.672440  0.672432  0.672459  1
  Cu  Cu18  1  0.672418  0.672448  0.982688  1
  Cu  Cu19  1  0.672444  0.982664  0.672456  1
  Cu  Cu20  1  0.982700  0.672440  0.672415  1
  Cu  Cu21  1  0.120684  0.120660  0.120669  1
  Cu  Cu22  1  0.120667  0.120677  0.637979  1
  Cu  Cu23  1  0.637991  0.120674  0.120672  1
  Cu  Cu24  1  0.120665  0.638012  0.120665  1
  Cu  Cu25  1  0.879316  0.879340  0.879331  1
  Cu  Cu26  1  0.879333  0.879323  0.362021  1
  Cu  Cu27  1  0.879335  0.361988  0.879335  1
  Cu  Cu28  1  0.362009  0.879326  0.879328  1
