# generated using pymatgen
data_Hf7Co16Si12W
_symmetry_space_group_name_H-M   'P 1'
_cell_length_a   12.21084769
_cell_length_b   12.21084782
_cell_length_c   3.68714300
_cell_angle_alpha   90.00000000
_cell_angle_beta   90.00000000
_cell_angle_gamma   119.76304181
_symmetry_Int_Tables_number   1
_chemical_formula_structural   Hf7Co16Si12W
_chemical_formula_sum   'Hf7 Co16 Si12 W1'
_cell_volume   477.24818715
_cell_formula_units_Z   1
loop_
 _symmetry_equiv_pos_site_id
 _symmetry_equiv_pos_as_xyz
  1  'x, y, z'
loop_
 _atom_site_type_symbol
 _atom_site_label
 _atom_site_symmetry_multiplicity
 _atom_site_fract_x
 _atom_site_fract_y
 _atom_site_fract_z
 _atom_site_occupancy
  Hf  Hf0  1  0.809944  0.809944  0.500000  1
  Hf  Hf1  1  0.003542  0.182508  0.500000  1
  Hf  Hf2  1  0.560348  0.000766  0.000000  1
  Hf  Hf3  1  0.335196  0.663884  0.000000  1
  Hf  Hf4  1  0.663884  0.335196  0.000000  1
  Hf  Hf5  1  0.000766  0.560348  0.000000  1
  Hf  Hf6  1  0.182508  0.003542  0.500000  1
  Co  Co7  1  0.624732  0.818254  0.000000  1
  Co  Co8  1  0.372751  0.198364  0.000000  1
  Co  Co9  1  0.999173  0.721031  0.500000  1
  Co  Co10  1  0.280144  0.280144  0.500000  1
  Co  Co11  1  0.882326  0.360038  0.500000  1
  Co  Co12  1  0.721031  0.999173  0.500000  1
  Co  Co13  1  0.818254  0.624732  0.000000  1
  Co  Co14  1  0.179126  0.806625  0.000000  1
  Co  Co15  1  0.360038  0.882326  0.500000  1
  Co  Co16  1  0.127145  0.481819  0.500000  1
  Co  Co17  1  0.640484  0.519348  0.500000  1
  Co  Co18  1  0.998594  0.998594  0.000000  1
  Co  Co19  1  0.519348  0.640484  0.500000  1
  Co  Co20  1  0.481819  0.127145  0.500000  1
  Co  Co21  1  0.198364  0.372751  0.000000  1
  Co  Co22  1  0.806625  0.179126  0.000000  1
  Si  Si23  1  0.002921  0.348752  0.000000  1
  Si  Si24  1  0.822580  0.516209  0.500000  1
  Si  Si25  1  0.695522  0.179732  0.500000  1
  Si  Si26  1  0.177097  0.177097  0.000000  1
  Si  Si27  1  0.641532  0.641532  0.000000  1
  Si  Si28  1  0.819886  0.997914  0.000000  1
  Si  Si29  1  0.516209  0.822580  0.500000  1
  Si  Si30  1  0.179732  0.695522  0.500000  1
  Si  Si31  1  0.348752  0.002921  0.000000  1
  Si  Si32  1  0.482206  0.312652  0.500000  1
  Si  Si33  1  0.997914  0.819886  0.000000  1
  Si  Si34  1  0.312652  0.482206  0.500000  1
  W  W35  1  0.436852  0.436852  0.000000  1
