# generated using pymatgen
data_TiNb5(AlOs2)6
_symmetry_space_group_name_H-M   'P 1'
_cell_length_a   4.39044100
_cell_length_b   6.23528900
_cell_length_c   13.18328800
_cell_angle_alpha   90.00000000
_cell_angle_beta   90.00096092
_cell_angle_gamma   90.00000000
_symmetry_Int_Tables_number   1
_chemical_formula_structural   TiNb5(AlOs2)6
_chemical_formula_sum   'Ti1 Nb5 Al6 Os12'
_cell_volume   360.90132164
_cell_formula_units_Z   1
loop_
 _symmetry_equiv_pos_site_id
 _symmetry_equiv_pos_as_xyz
  1  'x, y, z'
loop_
 _atom_site_type_symbol
 _atom_site_label
 _atom_site_symmetry_multiplicity
 _atom_site_fract_x
 _atom_site_fract_y
 _atom_site_fract_z
 _atom_site_occupancy
  Ti  Ti0  1  0.500233  0.500001  0.833332  1
  Nb  Nb1  1  0.999995  0.000000  0.997712  1
  Nb  Nb2  1  0.499795  0.500001  0.165373  1
  Nb  Nb3  1  0.999802  0.000000  0.333334  1
  Nb  Nb4  1  0.499997  0.500001  0.501287  1
  Nb  Nb5  1  0.000200  0.000000  0.668959  1
  Al  Al6  1  0.999989  0.500001  0.998190  1
  Al  Al7  1  0.499854  0.000000  0.165471  1
  Al  Al8  1  0.999865  0.500001  0.333347  1
  Al  Al9  1  0.499997  0.000000  0.501151  1
  Al  Al10  1  0.000132  0.500001  0.668484  1
  Al  Al11  1  0.500117  0.000000  0.833348  1
  Os  Os12  1  0.500006  0.251375  0.998926  1
  Os  Os13  1  0.500006  0.748624  0.998926  1
  Os  Os14  1  0.999824  0.250002  0.166613  1
  Os  Os15  1  0.999824  0.749997  0.166613  1
  Os  Os16  1  0.499828  0.249918  0.333333  1
  Os  Os17  1  0.499828  0.750082  0.333333  1
  Os  Os18  1  0.999999  0.249994  0.500061  1
  Os  Os19  1  0.999999  0.750005  0.500061  1
  Os  Os20  1  0.500179  0.251391  0.667740  1
  Os  Os21  1  0.500179  0.748609  0.667740  1
  Os  Os22  1  0.000181  0.254054  0.833333  1
  Os  Os23  1  0.000181  0.745945  0.833333  1
