# generated using pymatgen
data_NbFeSbF12
_symmetry_space_group_name_H-M   'P 1'
_cell_length_a   5.31618267
_cell_length_b   5.62141987
_cell_length_c   9.27149175
_cell_angle_alpha   74.08672458
_cell_angle_beta   89.28299173
_cell_angle_gamma   62.49950606
_symmetry_Int_Tables_number   1
_chemical_formula_structural   NbFeSbF12
_chemical_formula_sum   'Nb1 Fe1 Sb1 F12'
_cell_volume   234.22450419
_cell_formula_units_Z   1
loop_
 _symmetry_equiv_pos_site_id
 _symmetry_equiv_pos_as_xyz
  1  'x, y, z'
loop_
 _atom_site_type_symbol
 _atom_site_label
 _atom_site_symmetry_multiplicity
 _atom_site_fract_x
 _atom_site_fract_y
 _atom_site_fract_z
 _atom_site_occupancy
  Nb  Nb0  1  0.772624  0.005343  0.238052  1
  Fe  Fe1  1  0.494949  0.499705  0.500012  1
  Sb  Sb2  1  0.224233  0.997440  0.755926  1
  F  F3  1  0.949623  0.234283  0.207377  1
  F  F4  1  0.049025  0.764965  0.792957  1
  F  F5  1  0.022482  0.757328  0.138971  1
  F  F6  1  0.458272  0.780032  0.625264  1
  F  F7  1  0.544314  0.226261  0.376664  1
  F  F8  1  0.941708  0.243211  0.571656  1
  F  F9  1  0.065961  0.753032  0.428314  1
  F  F10  1  0.403008  0.236976  0.684236  1
  F  F11  1  0.597136  0.758246  0.323521  1
  F  F12  1  0.516244  0.775852  0.921586  1
  F  F13  1  0.480556  0.225472  0.075063  1
  F  F14  1  0.979865  0.241852  0.860403  1
