# generated using pymatgen
data_Hf2MnAs2Ru
_symmetry_space_group_name_H-M   'P 1'
_cell_length_a   7.61701964
_cell_length_b   7.64825995
_cell_length_c   7.62529363
_cell_angle_alpha   128.05511585
_cell_angle_beta   121.60421133
_cell_angle_gamma   81.91371329
_symmetry_Int_Tables_number   1
_chemical_formula_structural   Hf2MnAs2Ru
_chemical_formula_sum   'Hf6 Mn3 As6 Ru3'
_cell_volume   286.68696749
_cell_formula_units_Z   3
loop_
 _symmetry_equiv_pos_site_id
 _symmetry_equiv_pos_as_xyz
  1  'x, y, z'
loop_
 _atom_site_type_symbol
 _atom_site_label
 _atom_site_symmetry_multiplicity
 _atom_site_fract_x
 _atom_site_fract_y
 _atom_site_fract_z
 _atom_site_occupancy
  Hf  Hf0  1  0.462028  0.689110  0.718646  1
  Hf  Hf1  1  0.533338  0.253266  0.220025  1
  Hf  Hf2  1  0.747900  0.838770  0.590939  1
  Hf  Hf3  1  0.251486  0.839479  0.089133  1
  Hf  Hf4  1  0.051647  0.256257  0.705386  1
  Hf  Hf5  1  0.951938  0.651786  0.207110  1
  Mn  Mn6  1  0.496462  0.495479  0.992336  1
  Mn  Mn7  1  0.998133  0.500487  0.498913  1
  Mn  Mn8  1  0.098849  0.253817  0.108553  1
  As  As9  1  0.270469  0.278901  0.498579  1
  As  As10  1  0.737560  0.239777  0.012232  1
  As  As11  1  0.328647  0.578753  0.242702  1
  As  As12  1  0.667854  0.909721  0.251037  1
  As  As13  1  0.158363  0.919744  0.752540  1
  As  As14  1  0.839098  0.586020  0.753762  1
  Ru  Ru15  1  0.902171  0.007068  0.157136  1
  Ru  Ru16  1  0.352313  0.008494  0.606017  1
  Ru  Ru17  1  0.651746  0.252671  0.654553  1
