# generated using pymatgen
data_Cs2Mg(PS3)2
_symmetry_space_group_name_H-M   'P 1'
_cell_length_a   13.03738700
_cell_length_b   6.23439024
_cell_length_c   9.50454525
_cell_angle_alpha   56.34806025
_cell_angle_beta   90.00000000
_cell_angle_gamma   90.00000000
_symmetry_Int_Tables_number   1
_chemical_formula_structural   Cs2Mg(PS3)2
_chemical_formula_sum   'Cs4 Mg2 P4 S12'
_cell_volume   643.06961824
_cell_formula_units_Z   2
loop_
 _symmetry_equiv_pos_site_id
 _symmetry_equiv_pos_as_xyz
  1  'x, y, z'
loop_
 _atom_site_type_symbol
 _atom_site_label
 _atom_site_symmetry_multiplicity
 _atom_site_fract_x
 _atom_site_fract_y
 _atom_site_fract_z
 _atom_site_occupancy
  Cs  Cs0  1  0.326611  0.205133  0.524444  1
  Cs  Cs1  1  0.673389  0.794867  0.475556  1
  Cs  Cs2  1  0.826611  0.794867  0.975556  1
  Cs  Cs3  1  0.173389  0.205133  0.024444  1
  Mg  Mg4  1  0.500000  0.500000  0.000000  1
  Mg  Mg5  1  0.000000  0.500000  0.500000  1
  P  P6  1  0.461399  0.846839  0.120468  1
  P  P7  1  0.038601  0.846839  0.620468  1
  P  P8  1  0.961399  0.153161  0.379532  1
  P  P9  1  0.538601  0.153161  0.879532  1
  S  S10  1  0.073599  0.030174  0.735853  1
  S  S11  1  0.659119  0.277197  0.952993  1
  S  S12  1  0.065769  0.444296  0.260360  1
  S  S13  1  0.926401  0.969826  0.264147  1
  S  S14  1  0.426401  0.030174  0.235853  1
  S  S15  1  0.340881  0.722803  0.047007  1
  S  S16  1  0.434231  0.444296  0.760360  1
  S  S17  1  0.565769  0.555704  0.239640  1
  S  S18  1  0.573599  0.969826  0.764147  1
  S  S19  1  0.159119  0.722803  0.547007  1
  S  S20  1  0.934231  0.555704  0.739640  1
  S  S21  1  0.840881  0.277197  0.452993  1
