# generated using pymatgen
data_Ba4SrTc3ClO15
_symmetry_space_group_name_H-M   'P 1'
_cell_length_a   10.92555600
_cell_length_b   10.92555546
_cell_length_c   7.89987500
_cell_angle_alpha   90.00000000
_cell_angle_beta   90.00000000
_cell_angle_gamma   119.99999558
_symmetry_Int_Tables_number   1
_chemical_formula_structural   Ba4SrTc3ClO15
_chemical_formula_sum   'Ba8 Sr2 Tc6 Cl2 O30'
_cell_volume   816.65371838
_cell_formula_units_Z   2
loop_
 _symmetry_equiv_pos_site_id
 _symmetry_equiv_pos_as_xyz
  1  'x, y, z'
loop_
 _atom_site_type_symbol
 _atom_site_label
 _atom_site_symmetry_multiplicity
 _atom_site_fract_x
 _atom_site_fract_y
 _atom_site_fract_z
 _atom_site_occupancy
  Ba  Ba0  1  0.737210  0.000000  0.760109  1
  Ba  Ba1  1  0.262790  0.262790  0.760109  1
  Ba  Ba2  1  0.000000  0.737210  0.760109  1
  Ba  Ba3  1  0.262272  0.000000  0.260745  1
  Ba  Ba4  1  0.737728  0.737728  0.260745  1
  Ba  Ba5  1  0.000000  0.262272  0.260745  1
  Ba  Ba6  1  0.333333  0.666667  0.502676  1
  Ba  Ba7  1  0.666667  0.333333  0.502676  1
  Sr  Sr8  1  0.666667  0.333333  0.005921  1
  Sr  Sr9  1  0.333333  0.666667  0.005921  1
  Tc  Tc10  1  0.606587  0.000000  0.196664  1
  Tc  Tc11  1  0.393413  0.393413  0.196664  1
  Tc  Tc12  1  0.000000  0.606587  0.196664  1
  Tc  Tc13  1  0.388716  0.000000  0.711692  1
  Tc  Tc14  1  0.611284  0.611284  0.711692  1
  Tc  Tc15  1  0.000000  0.388716  0.711692  1
  Cl  Cl16  1  0.000000  0.000000  0.041248  1
  Cl  Cl17  1  0.000000  0.000000  0.539228  1
  O  O18  1  0.606804  0.865456  0.056475  1
  O  O19  1  0.258652  0.393196  0.056475  1
  O  O20  1  0.134544  0.741348  0.056475  1
  O  O21  1  0.741348  0.134544  0.056475  1
  O  O22  1  0.865456  0.606804  0.056475  1
  O  O23  1  0.393196  0.258652  0.056475  1
  O  O24  1  0.390853  0.132858  0.564376  1
  O  O25  1  0.742006  0.609147  0.564376  1
  O  O26  1  0.867142  0.257994  0.564376  1
  O  O27  1  0.257994  0.867142  0.564376  1
  O  O28  1  0.132858  0.390853  0.564376  1
  O  O29  1  0.609147  0.742006  0.564376  1
  O  O30  1  0.417339  0.866555  0.235153  1
  O  O31  1  0.449216  0.582661  0.235153  1
  O  O32  1  0.133445  0.550784  0.235153  1
  O  O33  1  0.550784  0.133445  0.235153  1
  O  O34  1  0.866555  0.417339  0.235153  1
  O  O35  1  0.582661  0.449216  0.235153  1
  O  O36  1  0.575458  0.133704  0.758012  1
  O  O37  1  0.558246  0.424542  0.758012  1
  O  O38  1  0.866296  0.441754  0.758012  1
  O  O39  1  0.441754  0.866296  0.758012  1
  O  O40  1  0.133704  0.575458  0.758012  1
  O  O41  1  0.424542  0.558246  0.758012  1
  O  O42  1  0.703089  0.000000  0.374606  1
  O  O43  1  0.296911  0.296911  0.374606  1
  O  O44  1  0.000000  0.703089  0.374606  1
  O  O45  1  0.284933  0.000000  0.880732  1
  O  O46  1  0.715067  0.715067  0.880732  1
  O  O47  1  0.000000  0.284933  0.880732  1
