# generated using pymatgen
data_Li12Pr11DyTe5(MoO16)3
_symmetry_space_group_name_H-M   'P 1'
_cell_length_a   11.01701202
_cell_length_b   11.03969592
_cell_length_c   11.03969700
_cell_angle_alpha   109.46382984
_cell_angle_beta   109.51668914
_cell_angle_gamma   109.51677943
_symmetry_Int_Tables_number   1
_chemical_formula_structural   Li12Pr11DyTe5(MoO16)3
_chemical_formula_sum   'Li12 Pr11 Dy1 Te5 Mo3 O48'
_cell_volume   1032.54032319
_cell_formula_units_Z   1
loop_
 _symmetry_equiv_pos_site_id
 _symmetry_equiv_pos_as_xyz
  1  'x, y, z'
loop_
 _atom_site_type_symbol
 _atom_site_label
 _atom_site_symmetry_multiplicity
 _atom_site_fract_x
 _atom_site_fract_y
 _atom_site_fract_z
 _atom_site_occupancy
  Li  Li0  1  0.874520  0.749279  0.124766  1
  Li  Li1  1  0.251711  0.874433  0.126993  1
  Li  Li2  1  0.876570  0.125679  0.252585  1
  Li  Li3  1  0.373648  0.625636  0.250301  1
  Li  Li4  1  0.749919  0.622171  0.374049  1
  Li  Li5  1  0.625232  0.252062  0.375336  1
  Li  Li6  1  0.374113  0.747764  0.623821  1
  Li  Li7  1  0.249650  0.375600  0.623593  1
  Li  Li8  1  0.123844  0.875003  0.747487  1
  Li  Li9  1  0.625672  0.373901  0.749882  1
  Li  Li10  1  0.126009  0.250551  0.875655  1
  Li  Li11  1  0.747862  0.127281  0.874923  1
  Pr  Pr12  1  0.375951  0.248824  0.122358  1
  Pr  Pr13  1  0.623853  0.873176  0.247631  1
  Pr  Pr14  1  0.121322  0.370749  0.245841  1
  Pr  Pr15  1  0.248237  0.123888  0.372241  1
  Pr  Pr16  1  0.123091  0.748558  0.374366  1
  Pr  Pr17  1  0.751862  0.876200  0.627918  1
  Pr  Pr18  1  0.875005  0.250187  0.624965  1
  Pr  Pr19  1  0.378761  0.127898  0.754759  1
  Pr  Pr20  1  0.876684  0.628504  0.752956  1
  Pr  Pr21  1  0.253646  0.626807  0.876345  1
  Pr  Pr22  1  0.626973  0.752934  0.877912  1
  Dy  Dy23  1  0.747175  0.373569  0.124047  1
  Te  Te24  1  0.997047  0.499170  0.000309  1
  Te  Te25  1  0.000318  0.000015  0.500200  1
  Te  Te26  1  0.499743  0.499899  0.499627  1
  Te  Te27  1  0.499742  0.999855  0.500100  1
  Te  Te28  1  0.997035  0.497866  0.496732  1
  Mo  Mo29  1  0.000553  0.000437  0.000156  1
  Mo  Mo30  1  0.503147  0.003298  0.002519  1
  Mo  Mo31  1  0.503167  0.499865  0.000624  1
  O  O32  1  0.901193  0.330735  0.025588  1
  O  O33  1  0.114456  0.192968  0.021773  1
  O  O34  1  0.408044  0.886680  0.078108  1
  O  O35  1  0.671654  0.693658  0.078441  1
  O  O36  1  0.672279  0.978867  0.093741  1
  O  O37  1  0.424623  0.613224  0.094841  1
  O  O38  1  0.917080  0.589653  0.114911  1
  O  O39  1  0.193564  0.021876  0.113738  1
  O  O40  1  0.581333  0.196565  0.171854  1
  O  O41  1  0.597740  0.472844  0.168224  1
  O  O42  1  0.168425  0.576140  0.192525  1
  O  O43  1  0.021391  0.113858  0.192431  1
  O  O44  1  0.383959  0.476806  0.305862  1
  O  O45  1  0.916572  0.327037  0.301842  1
  O  O46  1  0.305981  0.921598  0.329415  1
  O  O47  1  0.021804  0.906847  0.328944  1
  O  O48  1  0.901225  0.569937  0.375184  1
  O  O49  1  0.476414  0.306645  0.382885  1
  O  O50  1  0.523073  0.829915  0.407353  1
  O  O51  1  0.884103  0.077129  0.407275  1
  O  O52  1  0.806666  0.829030  0.422334  1
  O  O53  1  0.614604  0.092676  0.421630  1
  O  O54  1  0.306031  0.383353  0.476131  1
  O  O55  1  0.168591  0.591201  0.475487  1
  O  O56  1  0.693381  0.616443  0.522903  1
  O  O57  1  0.828529  0.406750  0.522480  1
  O  O58  1  0.193850  0.170822  0.578032  1
  O  O59  1  0.385094  0.907310  0.578815  1
  O  O60  1  0.116148  0.922515  0.592799  1
  O  O61  1  0.476548  0.170001  0.592690  1
  O  O62  1  0.523208  0.693054  0.616669  1
  O  O63  1  0.092834  0.423286  0.615093  1
  O  O64  1  0.978508  0.093325  0.671204  1
  O  O65  1  0.693428  0.078038  0.670949  1
  O  O66  1  0.615716  0.522874  0.693335  1
  O  O67  1  0.076769  0.670243  0.690418  1
  O  O68  1  0.978762  0.886230  0.807720  1
  O  O69  1  0.828757  0.422999  0.806584  1
  O  O70  1  0.408355  0.521650  0.829898  1
  O  O71  1  0.425364  0.811552  0.830272  1
  O  O72  1  0.806760  0.978689  0.886310  1
  O  O73  1  0.076264  0.406358  0.886155  1
  O  O74  1  0.582127  0.385461  0.909806  1
  O  O75  1  0.329757  0.021888  0.907646  1
  O  O76  1  0.330352  0.307704  0.922270  1
  O  O77  1  0.598053  0.124889  0.929908  1
  O  O78  1  0.092919  0.670113  0.978191  1
  O  O79  1  0.885663  0.807515  0.978335  1
