# generated using pymatgen
data_Eu(AlI4)3
_symmetry_space_group_name_H-M   'P 1'
_cell_length_a   11.97621300
_cell_length_b   11.97621401
_cell_length_c   20.79672400
_cell_angle_alpha   90.00000000
_cell_angle_beta   90.00000000
_cell_angle_gamma   120.00000550
_symmetry_Int_Tables_number   1
_chemical_formula_structural   Eu(AlI4)3
_chemical_formula_sum   'Eu3 Al9 I36'
_cell_volume   2583.23903943
_cell_formula_units_Z   3
loop_
 _symmetry_equiv_pos_site_id
 _symmetry_equiv_pos_as_xyz
  1  'x, y, z'
loop_
 _atom_site_type_symbol
 _atom_site_label
 _atom_site_symmetry_multiplicity
 _atom_site_fract_x
 _atom_site_fract_y
 _atom_site_fract_z
 _atom_site_occupancy
  Eu  Eu0  1  0.000000  0.739354  0.666667  1
  Eu  Eu1  1  0.739354  0.000000  0.333333  1
  Eu  Eu2  1  0.260646  0.260646  0.000000  1
  Al  Al3  1  0.902754  0.902754  0.500000  1
  Al  Al4  1  0.347425  0.708981  0.386780  1
  Al  Al5  1  0.291019  0.638443  0.720114  1
  Al  Al6  1  0.361557  0.652575  0.053447  1
  Al  Al7  1  0.097246  0.000000  0.833333  1
  Al  Al8  1  0.000000  0.097246  0.166667  1
  Al  Al9  1  0.708981  0.347425  0.613220  1
  Al  Al10  1  0.652575  0.361557  0.946553  1
  Al  Al11  1  0.638443  0.291019  0.279886  1
  I  I12  1  0.290428  0.513679  0.455892  1
  I  I13  1  0.223252  0.709572  0.122559  1
  I  I14  1  0.486321  0.776748  0.789226  1
  I  I15  1  0.712684  0.483740  0.711271  1
  I  I16  1  0.516260  0.228943  0.044605  1
  I  I17  1  0.771057  0.287316  0.377938  1
  I  I18  1  0.228943  0.516260  0.955395  1
  I  I19  1  0.287316  0.771057  0.622062  1
  I  I20  1  0.483740  0.712684  0.288729  1
  I  I21  1  0.920733  0.512917  0.555060  1
  I  I22  1  0.487083  0.407815  0.888394  1
  I  I23  1  0.592185  0.079267  0.221727  1
  I  I24  1  0.407815  0.487083  0.111606  1
  I  I25  1  0.079267  0.592185  0.778273  1
  I  I26  1  0.512917  0.920733  0.444940  1
  I  I27  1  0.121734  0.926728  0.530251  1
  I  I28  1  0.073272  0.195005  0.863584  1
  I  I29  1  0.804995  0.878266  0.196917  1
  I  I30  1  0.195005  0.073272  0.136416  1
  I  I31  1  0.878266  0.804995  0.803083  1
  I  I32  1  0.926728  0.121734  0.469749  1
  I  I33  1  0.228898  0.027422  0.730729  1
  I  I34  1  0.972578  0.201477  0.064063  1
  I  I35  1  0.798523  0.771102  0.397396  1
  I  I36  1  0.201477  0.972578  0.935937  1
  I  I37  1  0.771102  0.798523  0.602604  1
  I  I38  1  0.027422  0.228898  0.269271  1
  I  I39  1  0.152387  0.720726  0.350291  1
  I  I40  1  0.279274  0.431661  0.683624  1
  I  I41  1  0.568339  0.847613  0.016958  1
  I  I42  1  0.431661  0.279274  0.316376  1
  I  I43  1  0.847613  0.568339  0.983042  1
  I  I44  1  0.720726  0.152387  0.649709  1
  I  I45  1  0.513679  0.290428  0.544107  1
  I  I46  1  0.709572  0.223252  0.877441  1
  I  I47  1  0.776748  0.486321  0.210774  1
