# generated using pymatgen
data_Lu12In2SiRu3
_symmetry_space_group_name_H-M   'P 1'
_cell_length_a   8.32206567
_cell_length_b   8.32206649
_cell_length_c   8.32206600
_cell_angle_alpha   112.58873056
_cell_angle_beta   111.65111170
_cell_angle_gamma   104.29605803
_symmetry_Int_Tables_number   1
_chemical_formula_structural   Lu12In2SiRu3
_chemical_formula_sum   'Lu12 In2 Si1 Ru3'
_cell_volume   440.96721341
_cell_formula_units_Z   1
loop_
 _symmetry_equiv_pos_site_id
 _symmetry_equiv_pos_as_xyz
  1  'x, y, z'
loop_
 _atom_site_type_symbol
 _atom_site_label
 _atom_site_symmetry_multiplicity
 _atom_site_fract_x
 _atom_site_fract_y
 _atom_site_fract_z
 _atom_site_occupancy
  Lu  Lu0  1  0.446611  0.242214  0.204397  1
  Lu  Lu1  1  0.552728  0.756850  0.795877  1
  Lu  Lu2  1  0.037816  0.242214  0.795603  1
  Lu  Lu3  1  0.960974  0.756850  0.204123  1
  Lu  Lu4  1  0.187240  0.285251  0.465524  1
  Lu  Lu5  1  0.819726  0.721716  0.534476  1
  Lu  Lu6  1  0.187240  0.721716  0.901991  1
  Lu  Lu7  1  0.819726  0.285251  0.098009  1
  Lu  Lu8  1  0.329462  0.641785  0.312324  1
  Lu  Lu9  1  0.663283  0.352568  0.689285  1
  Lu  Lu10  1  0.329462  0.017138  0.687676  1
  Lu  Lu11  1  0.663283  0.973999  0.310715  1
  In  In12  1  0.500093  0.500093  0.000000  1
  In  In13  1  0.998557  0.998557  0.000000  1
  Si  Si14  1  0.879148  0.379148  0.500000  1
  Ru  Ru15  1  0.332147  0.001881  0.330265  1
  Ru  Ru16  1  0.671617  0.001881  0.669735  1
  Ru  Ru17  1  0.120886  0.620886  0.500000  1
