# generated using pymatgen
data_YLu7In3Pt
_symmetry_space_group_name_H-M   'P 1'
_cell_length_a   10.28138100
_cell_length_b   10.28138250
_cell_length_c   6.93016900
_cell_angle_alpha   90.00000000
_cell_angle_beta   90.00000000
_cell_angle_gamma   120.00000482
_symmetry_Int_Tables_number   1
_chemical_formula_structural   YLu7In3Pt
_chemical_formula_sum   'Y2 Lu14 In6 Pt2'
_cell_volume   634.42078939
_cell_formula_units_Z   2
loop_
 _symmetry_equiv_pos_site_id
 _symmetry_equiv_pos_as_xyz
  1  'x, y, z'
loop_
 _atom_site_type_symbol
 _atom_site_label
 _atom_site_symmetry_multiplicity
 _atom_site_fract_x
 _atom_site_fract_y
 _atom_site_fract_z
 _atom_site_occupancy
  Y  Y0  1  0.000000  0.000000  0.498304  1
  Y  Y1  1  0.000000  0.000000  0.998304  1
  Lu  Lu2  1  0.467419  0.532581  0.478248  1
  Lu  Lu3  1  0.065163  0.532581  0.478248  1
  Lu  Lu4  1  0.467419  0.934837  0.478248  1
  Lu  Lu5  1  0.532581  0.467419  0.978248  1
  Lu  Lu6  1  0.934837  0.467419  0.978248  1
  Lu  Lu7  1  0.532581  0.065163  0.978248  1
  Lu  Lu8  1  0.823358  0.176642  0.275509  1
  Lu  Lu9  1  0.353283  0.176642  0.275509  1
  Lu  Lu10  1  0.823358  0.646717  0.275509  1
  Lu  Lu11  1  0.176642  0.823358  0.775509  1
  Lu  Lu12  1  0.646717  0.823358  0.775509  1
  Lu  Lu13  1  0.176642  0.353283  0.775509  1
  Lu  Lu14  1  0.333333  0.666667  0.100683  1
  Lu  Lu15  1  0.666667  0.333333  0.600683  1
  In  In16  1  0.163244  0.836756  0.235072  1
  In  In17  1  0.673512  0.836756  0.235072  1
  In  In18  1  0.163244  0.326488  0.235072  1
  In  In19  1  0.836756  0.163244  0.735072  1
  In  In20  1  0.326488  0.163244  0.735072  1
  In  In21  1  0.836756  0.673512  0.735072  1
  Pt  Pt22  1  0.333333  0.666667  0.706803  1
  Pt  Pt23  1  0.666667  0.333333  0.206803  1
