# generated using pymatgen
data_Tb3PrAl18OsPd5
_symmetry_space_group_name_H-M   'P 1'
_cell_length_a   7.66546627
_cell_length_b   7.66623113
_cell_length_c   9.56312900
_cell_angle_alpha   90.02038102
_cell_angle_beta   90.10251327
_cell_angle_gamma   119.55715645
_symmetry_Int_Tables_number   1
_chemical_formula_structural   Tb3PrAl18OsPd5
_chemical_formula_sum   'Tb3 Pr1 Al18 Os1 Pd5'
_cell_volume   488.84450815
_cell_formula_units_Z   1
loop_
 _symmetry_equiv_pos_site_id
 _symmetry_equiv_pos_as_xyz
  1  'x, y, z'
loop_
 _atom_site_type_symbol
 _atom_site_label
 _atom_site_symmetry_multiplicity
 _atom_site_fract_x
 _atom_site_fract_y
 _atom_site_fract_z
 _atom_site_occupancy
  Tb  Tb0  1  0.005652  0.329912  0.750794  1
  Tb  Tb1  1  0.670074  0.994046  0.249103  1
  Tb  Tb2  1  0.329463  0.003761  0.750992  1
  Pr  Pr3  1  0.995081  0.670445  0.249766  1
  Al  Al4  1  0.130699  0.134935  0.249134  1
  Al  Al5  1  0.868976  0.871902  0.750845  1
  Al  Al6  1  0.995863  0.332161  0.071395  1
  Al  Al7  1  0.994914  0.658888  0.923193  1
  Al  Al8  1  0.998458  0.665745  0.580253  1
  Al  Al9  1  0.336670  0.004635  0.425420  1
  Al  Al10  1  0.002066  0.333255  0.426744  1
  Al  Al11  1  0.665098  0.999458  0.577263  1
  Al  Al12  1  0.665818  0.004026  0.924555  1
  Al  Al13  1  0.341673  0.005863  0.071527  1
  Al  Al14  1  0.333579  0.334194  0.562019  1
  Al  Al15  1  0.663217  0.665534  0.445841  1
  Al  Al16  1  0.665649  0.661341  0.046970  1
  Al  Al17  1  0.336895  0.331383  0.945402  1
  Al  Al18  1  0.341597  0.546889  0.249237  1
  Al  Al19  1  0.659424  0.451428  0.753565  1
  Al  Al20  1  0.545186  0.336895  0.245160  1
  Al  Al21  1  0.453572  0.663324  0.750759  1
  Os  Os22  1  0.671278  0.327181  0.998546  1
  Pd  Pd23  1  0.328526  0.671014  0.998697  1
  Pd  Pd24  1  0.327967  0.672391  0.501244  1
  Pd  Pd25  1  0.671099  0.328284  0.501372  1
  Pd  Pd26  1  0.001103  0.999842  0.998852  1
  Pd  Pd27  1  0.000405  0.001267  0.501349  1
