# generated using pymatgen
data_PrNd(Ga3Cu)2
_symmetry_space_group_name_H-M   'P 1'
_cell_length_a   6.02953747
_cell_length_b   6.02953624
_cell_length_c   5.97880800
_cell_angle_alpha   90.00000000
_cell_angle_beta   90.00000000
_cell_angle_gamma   119.11685667
_symmetry_Int_Tables_number   1
_chemical_formula_structural   PrNd(Ga3Cu)2
_chemical_formula_sum   'Pr1 Nd1 Ga6 Cu2'
_cell_volume   189.89328548
_cell_formula_units_Z   1
loop_
 _symmetry_equiv_pos_site_id
 _symmetry_equiv_pos_as_xyz
  1  'x, y, z'
loop_
 _atom_site_type_symbol
 _atom_site_label
 _atom_site_symmetry_multiplicity
 _atom_site_fract_x
 _atom_site_fract_y
 _atom_site_fract_z
 _atom_site_occupancy
  Pr  Pr0  1  0.751784  0.248216  0.250000  1
  Nd  Nd1  1  0.247697  0.752303  0.750000  1
  Ga  Ga2  1  0.656901  0.343099  0.750000  1
  Ga  Ga3  1  0.343470  0.656530  0.250000  1
  Ga  Ga4  1  0.741322  0.740892  0.998330  1
  Ga  Ga5  1  0.741322  0.740892  0.501670  1
  Ga  Ga6  1  0.259108  0.258678  0.998330  1
  Ga  Ga7  1  0.259108  0.258678  0.501670  1
  Cu  Cu8  1  0.886582  0.113418  0.750000  1
  Cu  Cu9  1  0.112705  0.887295  0.250000  1
