# generated using pymatgen
data_Ac3In3CuHgPd
_symmetry_space_group_name_H-M   'P 1'
_cell_length_a   8.27053800
_cell_length_b   8.27053762
_cell_length_c   4.21010500
_cell_angle_alpha   90.00000000
_cell_angle_beta   90.00000000
_cell_angle_gamma   120.00000950
_symmetry_Int_Tables_number   1
_chemical_formula_structural   Ac3In3CuHgPd
_chemical_formula_sum   'Ac3 In3 Cu1 Hg1 Pd1'
_cell_volume   249.39688253
_cell_formula_units_Z   1
loop_
 _symmetry_equiv_pos_site_id
 _symmetry_equiv_pos_as_xyz
  1  'x, y, z'
loop_
 _atom_site_type_symbol
 _atom_site_label
 _atom_site_symmetry_multiplicity
 _atom_site_fract_x
 _atom_site_fract_y
 _atom_site_fract_z
 _atom_site_occupancy
  Ac  Ac0  1  0.399559  0.416669  0.500000  1
  Ac  Ac1  1  0.583331  0.982890  0.500000  1
  Ac  Ac2  1  0.017110  0.600441  0.500000  1
  In  In3  1  0.765305  0.768101  0.000000  1
  In  In4  1  0.231899  0.997204  0.000000  1
  In  In5  1  0.002796  0.234695  0.000000  1
  Cu  Cu6  1  0.000000  0.000000  0.500000  1
  Hg  Hg7  1  0.666667  0.333333  0.000000  1
  Pd  Pd8  1  0.333333  0.666667  0.000000  1
