# generated using pymatgen
data_Hf8Nb4Ga11Sb
_symmetry_space_group_name_H-M   'P 1'
_cell_length_a   5.55834900
_cell_length_b   8.53735593
_cell_length_c   9.16773659
_cell_angle_alpha   89.69549252
_cell_angle_beta   90.00000000
_cell_angle_gamma   90.00000000
_symmetry_Int_Tables_number   1
_chemical_formula_structural   Hf8Nb4Ga11Sb
_chemical_formula_sum   'Hf8 Nb4 Ga11 Sb1'
_cell_volume   435.03599622
_cell_formula_units_Z   1
loop_
 _symmetry_equiv_pos_site_id
 _symmetry_equiv_pos_as_xyz
  1  'x, y, z'
loop_
 _atom_site_type_symbol
 _atom_site_label
 _atom_site_symmetry_multiplicity
 _atom_site_fract_x
 _atom_site_fract_y
 _atom_site_fract_z
 _atom_site_occupancy
  Hf  Hf0  1  0.750000  0.469468  0.621372  1
  Hf  Hf1  1  0.250000  0.529985  0.378512  1
  Hf  Hf2  1  0.750000  0.969877  0.388001  1
  Hf  Hf3  1  0.250000  0.030539  0.620208  1
  Hf  Hf4  1  0.750000  0.378099  0.186839  1
  Hf  Hf5  1  0.250000  0.630931  0.816920  1
  Hf  Hf6  1  0.750000  0.863030  0.808032  1
  Hf  Hf7  1  0.250000  0.132522  0.187631  1
  Nb  Nb8  1  0.003191  0.743219  0.112132  1
  Nb  Nb9  1  0.497109  0.254416  0.884937  1
  Nb  Nb10  1  0.002891  0.254416  0.884937  1
  Nb  Nb11  1  0.496809  0.743219  0.112132  1
  Ga  Ga12  1  0.003849  0.747848  0.571543  1
  Ga  Ga13  1  0.500987  0.251237  0.427762  1
  Ga  Ga14  1  0.999013  0.251237  0.427762  1
  Ga  Ga15  1  0.496151  0.747848  0.571543  1
  Ga  Ga16  1  0.250000  0.951642  0.918982  1
  Ga  Ga17  1  0.750000  0.546500  0.919649  1
  Ga  Ga18  1  0.250000  0.451649  0.078825  1
  Ga  Ga19  1  0.750000  0.134668  0.652707  1
  Ga  Ga20  1  0.250000  0.865571  0.349034  1
  Ga  Ga21  1  0.750000  0.636783  0.351517  1
  Ga  Ga22  1  0.250000  0.369255  0.649184  1
  Sb  Sb23  1  0.750000  0.046039  0.079841  1
