# generated using pymatgen
data_Ba6LuIn(BO3)6
_symmetry_space_group_name_H-M   'P 1'
_cell_length_a   8.14092571
_cell_length_b   8.14092518
_cell_length_c   8.14092453
_cell_angle_alpha   105.81845930
_cell_angle_beta   105.81845760
_cell_angle_gamma   105.81846296
_symmetry_Int_Tables_number   1
_chemical_formula_structural   Ba6LuIn(BO3)6
_chemical_formula_sum   'Ba6 Lu1 In1 B6 O18'
_cell_volume   463.05162754
_cell_formula_units_Z   1
loop_
 _symmetry_equiv_pos_site_id
 _symmetry_equiv_pos_as_xyz
  1  'x, y, z'
loop_
 _atom_site_type_symbol
 _atom_site_label
 _atom_site_symmetry_multiplicity
 _atom_site_fract_x
 _atom_site_fract_y
 _atom_site_fract_z
 _atom_site_occupancy
  Ba  Ba0  1  0.764876  0.665417  0.155612  1
  Ba  Ba1  1  0.334584  0.844388  0.235125  1
  Ba  Ba2  1  0.844388  0.235126  0.334583  1
  Ba  Ba3  1  0.155612  0.764875  0.665418  1
  Ba  Ba4  1  0.665417  0.155612  0.764875  1
  Ba  Ba5  1  0.235125  0.334583  0.844389  1
  Lu  Lu6  1  0.500000  0.500000  0.500000  1
  In  In7  1  0.000000  0.000000  0.000000  1
  B  B8  1  0.451596  0.208104  0.132006  1
  B  B9  1  0.132006  0.451596  0.208104  1
  B  B10  1  0.208104  0.132006  0.451596  1
  B  B11  1  0.791896  0.867994  0.548405  1
  B  B12  1  0.867995  0.548405  0.791896  1
  B  B13  1  0.548405  0.791896  0.867994  1
  O  O14  1  0.281924  0.070228  0.005843  1
  O  O15  1  0.570259  0.300978  0.065628  1
  O  O16  1  0.005843  0.281924  0.070228  1
  O  O17  1  0.319666  0.504525  0.238182  1
  O  O18  1  0.070228  0.005842  0.281924  1
  O  O19  1  0.065627  0.570259  0.300978  1
  O  O20  1  0.504525  0.238182  0.319666  1
  O  O21  1  0.699021  0.934372  0.429741  1
  O  O22  1  0.761818  0.680334  0.495476  1
  O  O23  1  0.238182  0.319667  0.504525  1
  O  O24  1  0.300978  0.065627  0.570259  1
  O  O25  1  0.495476  0.761818  0.680334  1
  O  O26  1  0.934372  0.429740  0.699021  1
  O  O27  1  0.929771  0.994157  0.718075  1
  O  O28  1  0.680334  0.495476  0.761818  1
  O  O29  1  0.994156  0.718076  0.929772  1
  O  O30  1  0.429740  0.699021  0.934372  1
  O  O31  1  0.718076  0.929772  0.994157  1
