# generated using pymatgen
data_Er2LuThCdIr
_symmetry_space_group_name_H-M   'P 1'
_cell_length_a   9.64844930
_cell_length_b   9.64844938
_cell_length_c   9.65830600
_cell_angle_alpha   59.96620080
_cell_angle_beta   59.96620053
_cell_angle_gamma   60.06760135
_symmetry_Int_Tables_number   1
_chemical_formula_structural   Er2LuThCdIr
_chemical_formula_sum   'Er8 Lu4 Th4 Cd4 Ir4'
_cell_volume   635.77011012
_cell_formula_units_Z   4
loop_
 _symmetry_equiv_pos_site_id
 _symmetry_equiv_pos_as_xyz
  1  'x, y, z'
loop_
 _atom_site_type_symbol
 _atom_site_label
 _atom_site_symmetry_multiplicity
 _atom_site_fract_x
 _atom_site_fract_y
 _atom_site_fract_z
 _atom_site_occupancy
  Er  Er0  1  0.435855  0.435855  0.064145  1
  Er  Er1  1  0.064145  0.064145  0.435855  1
  Er  Er2  1  0.185321  0.814679  0.814679  1
  Er  Er3  1  0.814679  0.185321  0.185321  1
  Er  Er4  1  0.814679  0.185321  0.814679  1
  Er  Er5  1  0.185321  0.814679  0.185321  1
  Er  Er6  1  0.814831  0.814831  0.185169  1
  Er  Er7  1  0.185169  0.185169  0.814831  1
  Lu  Lu8  1  0.063157  0.436843  0.436843  1
  Lu  Lu9  1  0.436843  0.063157  0.063157  1
  Lu  Lu10  1  0.436843  0.063157  0.436843  1
  Lu  Lu11  1  0.063157  0.436843  0.063157  1
  Th  Th12  1  0.601230  0.601230  0.600267  1
  Th  Th13  1  0.601230  0.601230  0.197273  1
  Th  Th14  1  0.600267  0.197273  0.601230  1
  Th  Th15  1  0.197273  0.600267  0.601230  1
  Cd  Cd16  1  0.833233  0.833233  0.833147  1
  Cd  Cd17  1  0.833233  0.833233  0.500386  1
  Cd  Cd18  1  0.833147  0.500386  0.833233  1
  Cd  Cd19  1  0.500386  0.833147  0.833233  1
  Ir  Ir20  1  0.391543  0.391543  0.394043  1
  Ir  Ir21  1  0.391543  0.391543  0.822870  1
  Ir  Ir22  1  0.394043  0.822870  0.391543  1
  Ir  Ir23  1  0.822870  0.394043  0.391543  1
