# generated using pymatgen
data_Nb2TlTe4
_symmetry_space_group_name_H-M   'P 1'
_cell_length_a   9.13403498
_cell_length_b   9.13403560
_cell_length_c   6.76624000
_cell_angle_alpha   105.32010974
_cell_angle_beta   105.32011143
_cell_angle_gamma   22.53411089
_symmetry_Int_Tables_number   1
_chemical_formula_structural   Nb2TlTe4
_chemical_formula_sum   'Nb2 Tl1 Te4'
_cell_volume   208.34098820
_cell_formula_units_Z   1
loop_
 _symmetry_equiv_pos_site_id
 _symmetry_equiv_pos_as_xyz
  1  'x, y, z'
loop_
 _atom_site_type_symbol
 _atom_site_label
 _atom_site_symmetry_multiplicity
 _atom_site_fract_x
 _atom_site_fract_y
 _atom_site_fract_z
 _atom_site_occupancy
  Nb  Nb0  1  0.253434  0.253434  0.320028  1
  Nb  Nb1  1  0.746566  0.746566  0.679972  1
  Tl  Tl2  1  0.000000  0.000000  0.000000  1
  Te  Te3  1  0.334172  0.334172  0.995254  1
  Te  Te4  1  0.127926  0.127926  0.496560  1
  Te  Te5  1  0.872074  0.872074  0.503440  1
  Te  Te6  1  0.665828  0.665828  0.004745  1
