# generated using pymatgen
data_TlFeP2O7
_symmetry_space_group_name_H-M   'P 1'
_cell_length_a   10.15807000
_cell_length_b   7.62999533
_cell_length_c   8.41297200
_cell_angle_alpha   74.09137633
_cell_angle_beta   90.00000000
_cell_angle_gamma   90.00000000
_symmetry_Int_Tables_number   1
_chemical_formula_structural   TlFeP2O7
_chemical_formula_sum   'Tl4 Fe4 P8 O28'
_cell_volume   627.08232808
_cell_formula_units_Z   4
loop_
 _symmetry_equiv_pos_site_id
 _symmetry_equiv_pos_as_xyz
  1  'x, y, z'
loop_
 _atom_site_type_symbol
 _atom_site_label
 _atom_site_symmetry_multiplicity
 _atom_site_fract_x
 _atom_site_fract_y
 _atom_site_fract_z
 _atom_site_occupancy
  Tl  Tl0  1  0.686478  0.186021  0.948285  1
  Tl  Tl1  1  0.186478  0.813979  0.551715  1
  Tl  Tl2  1  0.313522  0.813979  0.051715  1
  Tl  Tl3  1  0.813522  0.186021  0.448285  1
  Fe  Fe4  1  0.399964  0.239196  0.241429  1
  Fe  Fe5  1  0.899964  0.760804  0.258571  1
  Fe  Fe6  1  0.600036  0.760804  0.758571  1
  Fe  Fe7  1  0.100036  0.239196  0.741429  1
  P  P8  1  0.404374  0.130395  0.669036  1
  P  P9  1  0.904374  0.869605  0.830964  1
  P  P10  1  0.595626  0.869605  0.330964  1
  P  P11  1  0.095626  0.130395  0.169036  1
  P  P12  1  0.131226  0.431905  0.313757  1
  P  P13  1  0.631226  0.568095  0.186243  1
  P  P14  1  0.868774  0.568095  0.686243  1
  P  P15  1  0.368774  0.431905  0.813757  1
  O  O16  1  0.277194  0.442020  0.262553  1
  O  O17  1  0.777194  0.557980  0.237447  1
  O  O18  1  0.722806  0.557980  0.737447  1
  O  O19  1  0.222806  0.442020  0.762553  1
  O  O20  1  0.998052  0.991358  0.272673  1
  O  O21  1  0.498052  0.008642  0.227327  1
  O  O22  1  0.001948  0.008642  0.727327  1
  O  O23  1  0.501948  0.991358  0.772673  1
  O  O24  1  0.104071  0.321548  0.491044  1
  O  O25  1  0.604071  0.678452  0.008956  1
  O  O26  1  0.895929  0.678452  0.508956  1
  O  O27  1  0.395929  0.321548  0.991044  1
  O  O28  1  0.087459  0.151112  0.985671  1
  O  O29  1  0.587459  0.848888  0.514329  1
  O  O30  1  0.912541  0.848888  0.014329  1
  O  O31  1  0.412541  0.151112  0.485671  1
  O  O32  1  0.053632  0.325697  0.197015  1
  O  O33  1  0.553632  0.674303  0.302985  1
  O  O34  1  0.946368  0.674303  0.802985  1
  O  O35  1  0.446368  0.325697  0.697015  1
  O  O36  1  0.264609  0.085097  0.740122  1
  O  O37  1  0.764609  0.914903  0.759878  1
  O  O38  1  0.735391  0.914903  0.259878  1
  O  O39  1  0.235391  0.085097  0.240122  1
  O  O40  1  0.427715  0.623669  0.767504  1
  O  O41  1  0.927715  0.376331  0.732496  1
  O  O42  1  0.572285  0.376331  0.232496  1
  O  O43  1  0.072285  0.623669  0.267504  1
