# generated using pymatgen
data_LaTl(BrO3)6
_symmetry_space_group_name_H-M   'P 1'
_cell_length_a   9.95023100
_cell_length_b   9.95022991
_cell_length_c   5.91783900
_cell_angle_alpha   90.00000000
_cell_angle_beta   90.00000000
_cell_angle_gamma   119.99998701
_symmetry_Int_Tables_number   1
_chemical_formula_structural   LaTl(BrO3)6
_chemical_formula_sum   'La1 Tl1 Br6 O18'
_cell_volume   507.41127455
_cell_formula_units_Z   1
loop_
 _symmetry_equiv_pos_site_id
 _symmetry_equiv_pos_as_xyz
  1  'x, y, z'
loop_
 _atom_site_type_symbol
 _atom_site_label
 _atom_site_symmetry_multiplicity
 _atom_site_fract_x
 _atom_site_fract_y
 _atom_site_fract_z
 _atom_site_occupancy
  La  La0  1  0.666667  0.333333  0.696368  1
  Tl  Tl1  1  0.333333  0.666667  0.199181  1
  Br  Br2  1  0.677979  0.006740  0.362082  1
  Br  Br3  1  0.302986  0.967190  0.873997  1
  Br  Br4  1  0.032810  0.335796  0.873997  1
  Br  Br5  1  0.328761  0.322021  0.362082  1
  Br  Br6  1  0.993260  0.671239  0.362082  1
  Br  Br7  1  0.664204  0.697014  0.873997  1
  O  O8  1  0.767051  0.832349  0.059651  1
  O  O9  1  0.959777  0.774556  0.545397  1
  O  O10  1  0.814779  0.040223  0.545397  1
  O  O11  1  0.167651  0.934702  0.059651  1
  O  O12  1  0.065298  0.232949  0.059651  1
  O  O13  1  0.225444  0.185221  0.545397  1
  O  O14  1  0.710933  0.555002  0.917208  1
  O  O15  1  0.179245  0.712892  0.434076  1
  O  O16  1  0.518164  0.401027  0.446206  1
  O  O17  1  0.125760  0.527092  0.962001  1
  O  O18  1  0.401333  0.874240  0.962001  1
  O  O19  1  0.598973  0.117137  0.446206  1
  O  O20  1  0.882863  0.481836  0.446206  1
  O  O21  1  0.472908  0.598667  0.962001  1
  O  O22  1  0.287108  0.466354  0.434076  1
  O  O23  1  0.844069  0.289067  0.917208  1
  O  O24  1  0.444998  0.155931  0.917208  1
  O  O25  1  0.533646  0.820755  0.434076  1
