# generated using pymatgen
data_Y10(BiPb)3
_symmetry_space_group_name_H-M   'P 1'
_cell_length_a   9.13603400
_cell_length_b   9.13603354
_cell_length_c   6.51490500
_cell_angle_alpha   90.00000000
_cell_angle_beta   90.00000000
_cell_angle_gamma   120.00000167
_symmetry_Int_Tables_number   1
_chemical_formula_structural   Y10(BiPb)3
_chemical_formula_sum   'Y10 Bi3 Pb3'
_cell_volume   470.92755631
_cell_formula_units_Z   1
loop_
 _symmetry_equiv_pos_site_id
 _symmetry_equiv_pos_as_xyz
  1  'x, y, z'
loop_
 _atom_site_type_symbol
 _atom_site_label
 _atom_site_symmetry_multiplicity
 _atom_site_fract_x
 _atom_site_fract_y
 _atom_site_fract_z
 _atom_site_occupancy
  Y  Y0  1  0.666667  0.333333  0.002470  1
  Y  Y1  1  0.333333  0.666667  0.002470  1
  Y  Y2  1  0.333333  0.666667  0.497530  1
  Y  Y3  1  0.666667  0.333333  0.497530  1
  Y  Y4  1  0.761817  0.761817  0.750000  1
  Y  Y5  1  0.238183  0.000000  0.750000  1
  Y  Y6  1  0.000000  0.238183  0.750000  1
  Y  Y7  1  0.238647  0.238647  0.250000  1
  Y  Y8  1  0.761353  0.000000  0.250000  1
  Y  Y9  1  0.000000  0.761353  0.250000  1
  Bi  Bi10  1  0.393673  0.393673  0.750000  1
  Bi  Bi11  1  0.606327  0.000000  0.750000  1
  Bi  Bi12  1  0.000000  0.606327  0.750000  1
  Pb  Pb13  1  0.606397  0.606397  0.250000  1
  Pb  Pb14  1  0.393603  0.000000  0.250000  1
  Pb  Pb15  1  0.000000  0.393603  0.250000  1
