# generated using pymatgen
data_DyTa2(Nb2Cl9)2
_symmetry_space_group_name_H-M   'P 1'
_cell_length_a   10.17044866
_cell_length_b   10.16774195
_cell_length_c   10.17139732
_cell_angle_alpha   56.00577146
_cell_angle_beta   55.99005380
_cell_angle_gamma   55.99403523
_symmetry_Int_Tables_number   1
_chemical_formula_structural   DyTa2(Nb2Cl9)2
_chemical_formula_sum   'Dy1 Ta2 Nb4 Cl18'
_cell_volume   674.77374345
_cell_formula_units_Z   1
loop_
 _symmetry_equiv_pos_site_id
 _symmetry_equiv_pos_as_xyz
  1  'x, y, z'
loop_
 _atom_site_type_symbol
 _atom_site_label
 _atom_site_symmetry_multiplicity
 _atom_site_fract_x
 _atom_site_fract_y
 _atom_site_fract_z
 _atom_site_occupancy
  Dy  Dy0  1  0.999271  0.000225  0.000497  1
  Ta  Ta1  1  0.408595  0.300812  0.649208  1
  Ta  Ta2  1  0.350691  0.591780  0.698866  1
  Nb  Nb3  1  0.699955  0.350272  0.591312  1
  Nb  Nb4  1  0.300712  0.649880  0.407887  1
  Nb  Nb5  1  0.650443  0.408092  0.299683  1
  Nb  Nb6  1  0.592306  0.700009  0.349506  1
  Cl  Cl7  1  0.566459  0.160879  0.444694  1
  Cl  Cl8  1  0.224299  0.371662  0.906531  1
  Cl  Cl9  1  0.909012  0.222873  0.370766  1
  Cl  Cl10  1  0.370640  0.909039  0.223356  1
  Cl  Cl11  1  0.776843  0.629221  0.091129  1
  Cl  Cl12  1  0.092637  0.775650  0.631226  1
  Cl  Cl13  1  0.703448  0.958287  0.160142  1
  Cl  Cl14  1  0.957228  0.159523  0.704494  1
  Cl  Cl15  1  0.162592  0.701995  0.954473  1
  Cl  Cl16  1  0.297374  0.045809  0.838210  1
  Cl  Cl17  1  0.042295  0.839377  0.296604  1
  Cl  Cl18  1  0.840137  0.295918  0.042070  1
  Cl  Cl19  1  0.555204  0.433494  0.839104  1
  Cl  Cl20  1  0.162538  0.439261  0.570335  1
  Cl  Cl21  1  0.441909  0.568339  0.160848  1
  Cl  Cl22  1  0.429818  0.837383  0.560688  1
  Cl  Cl23  1  0.839236  0.558233  0.431549  1
  Cl  Cl24  1  0.626359  0.091989  0.776823  1
