# generated using pymatgen
data_Ho3Al3GaNi9B2
_symmetry_space_group_name_H-M   'P 1'
_cell_length_a   5.16145900
_cell_length_b   5.16145872
_cell_length_c   10.60757900
_cell_angle_alpha   90.00000000
_cell_angle_beta   90.00000000
_cell_angle_gamma   120.00000822
_symmetry_Int_Tables_number   1
_chemical_formula_structural   Ho3Al3GaNi9B2
_chemical_formula_sum   'Ho3 Al3 Ga1 Ni9 B2'
_cell_volume   244.73259239
_cell_formula_units_Z   1
loop_
 _symmetry_equiv_pos_site_id
 _symmetry_equiv_pos_as_xyz
  1  'x, y, z'
loop_
 _atom_site_type_symbol
 _atom_site_label
 _atom_site_symmetry_multiplicity
 _atom_site_fract_x
 _atom_site_fract_y
 _atom_site_fract_z
 _atom_site_occupancy
  Ho  Ho0  1  0.000000  0.000000  0.999158  1
  Ho  Ho1  1  0.000000  0.000000  0.661509  1
  Ho  Ho2  1  0.000000  0.000000  0.337126  1
  Al  Al3  1  0.666667  0.333333  0.685016  1
  Al  Al4  1  0.333333  0.666667  0.684558  1
  Al  Al5  1  0.333333  0.666667  0.315719  1
  Ga  Ga6  1  0.666667  0.333333  0.315528  1
  Ni  Ni7  1  0.499871  0.500129  0.500633  1
  Ni  Ni8  1  0.499871  0.999741  0.500633  1
  Ni  Ni9  1  0.000259  0.500129  0.500633  1
  Ni  Ni10  1  0.500112  0.499888  0.870977  1
  Ni  Ni11  1  0.500112  0.000224  0.870977  1
  Ni  Ni12  1  0.999776  0.499888  0.870977  1
  Ni  Ni13  1  0.500027  0.499973  0.128747  1
  Ni  Ni14  1  0.500027  0.000054  0.128747  1
  Ni  Ni15  1  0.999946  0.499973  0.128747  1
  B  B16  1  0.666667  0.333333  0.999825  1
  B  B17  1  0.333333  0.666667  0.000493  1
