# generated using pymatgen
data_Dy10Tl5CuPbSe
_symmetry_space_group_name_H-M   'P 1'
_cell_length_a   9.14801257
_cell_length_b   9.14801231
_cell_length_c   6.80664374
_cell_angle_alpha   89.86372498
_cell_angle_beta   89.86372797
_cell_angle_gamma   119.83135578
_symmetry_Int_Tables_number   1
_chemical_formula_structural   Dy10Tl5CuPbSe
_chemical_formula_sum   'Dy10 Tl5 Cu1 Pb1 Se1'
_cell_volume   494.13745965
_cell_formula_units_Z   1
loop_
 _symmetry_equiv_pos_site_id
 _symmetry_equiv_pos_as_xyz
  1  'x, y, z'
loop_
 _atom_site_type_symbol
 _atom_site_label
 _atom_site_symmetry_multiplicity
 _atom_site_fract_x
 _atom_site_fract_y
 _atom_site_fract_z
 _atom_site_occupancy
  Dy  Dy0  1  0.253495  0.000708  0.243235  1
  Dy  Dy1  1  0.749042  0.002226  0.755824  1
  Dy  Dy2  1  0.000708  0.253495  0.243235  1
  Dy  Dy3  1  0.002226  0.749042  0.755824  1
  Dy  Dy4  1  0.746591  0.746591  0.248436  1
  Dy  Dy5  1  0.251403  0.251403  0.755506  1
  Dy  Dy6  1  0.332159  0.666058  0.000719  1
  Dy  Dy7  1  0.666058  0.332159  0.000719  1
  Dy  Dy8  1  0.665140  0.329880  0.497613  1
  Dy  Dy9  1  0.329880  0.665140  0.497613  1
  Tl  Tl10  1  0.601458  0.998945  0.249550  1
  Tl  Tl11  1  0.399758  0.000279  0.752438  1
  Tl  Tl12  1  0.998945  0.601458  0.249550  1
  Tl  Tl13  1  0.000279  0.399758  0.752438  1
  Tl  Tl14  1  0.394874  0.394874  0.249365  1
  Cu  Cu15  1  0.002771  0.002771  0.497886  1
  Pb  Pb16  1  0.606090  0.606090  0.749943  1
  Se  Se17  1  0.999120  0.999120  0.000105  1
