# generated using pymatgen
data_Nd2Gd2CCl5
_symmetry_space_group_name_H-M   'P 1'
_cell_length_a   8.91160538
_cell_length_b   8.91160568
_cell_length_c   7.99681759
_cell_angle_alpha   104.23093866
_cell_angle_beta   104.23093948
_cell_angle_gamma   24.60796653
_symmetry_Int_Tables_number   1
_chemical_formula_structural   Nd2Gd2CCl5
_chemical_formula_sum   'Nd2 Gd2 C1 Cl5'
_cell_volume   255.94451327
_cell_formula_units_Z   1
loop_
 _symmetry_equiv_pos_site_id
 _symmetry_equiv_pos_as_xyz
  1  'x, y, z'
loop_
 _atom_site_type_symbol
 _atom_site_label
 _atom_site_symmetry_multiplicity
 _atom_site_fract_x
 _atom_site_fract_y
 _atom_site_fract_z
 _atom_site_occupancy
  Nd  Nd0  1  0.647893  0.647893  0.085596  1
  Nd  Nd1  1  0.999602  0.999602  0.216915  1
  Gd  Gd2  1  0.001305  0.001305  0.788032  1
  Gd  Gd3  1  0.353565  0.353565  0.914913  1
  C  C4  1  0.497181  0.497181  0.988784  1
  Cl  Cl5  1  0.829019  0.829019  0.154735  1
  Cl  Cl6  1  0.166057  0.166057  0.353577  1
  Cl  Cl7  1  0.498796  0.498796  0.508246  1
  Cl  Cl8  1  0.837771  0.837771  0.659355  1
  Cl  Cl9  1  0.168902  0.168902  0.829837  1
