# generated using pymatgen
data_PrDy(SiRh2)2
_symmetry_space_group_name_H-M   'P 1'
_cell_length_a   9.11562620
_cell_length_b   9.11562574
_cell_length_c   4.14389300
_cell_angle_alpha   90.00000000
_cell_angle_beta   90.00000000
_cell_angle_gamma   154.73963122
_symmetry_Int_Tables_number   1
_chemical_formula_structural   PrDy(SiRh2)2
_chemical_formula_sum   'Pr1 Dy1 Si2 Rh4'
_cell_volume   146.93902622
_cell_formula_units_Z   1
loop_
 _symmetry_equiv_pos_site_id
 _symmetry_equiv_pos_as_xyz
  1  'x, y, z'
loop_
 _atom_site_type_symbol
 _atom_site_label
 _atom_site_symmetry_multiplicity
 _atom_site_fract_x
 _atom_site_fract_y
 _atom_site_fract_z
 _atom_site_occupancy
  Pr  Pr0  1  0.903387  0.096613  0.250000  1
  Dy  Dy1  1  0.099917  0.900083  0.750000  1
  Si  Si2  1  0.320897  0.679103  0.750000  1
  Si  Si3  1  0.676979  0.323021  0.250000  1
  Rh  Rh4  1  0.547277  0.452723  0.250000  1
  Rh  Rh5  1  0.454707  0.545293  0.750000  1
  Rh  Rh6  1  0.248948  0.751052  0.250000  1
  Rh  Rh7  1  0.747891  0.252109  0.750000  1
