# generated using pymatgen
data_TbDyMn12P7
_symmetry_space_group_name_H-M   'P 1'
_cell_length_a   9.30483100
_cell_length_b   9.30483036
_cell_length_c   3.60178300
_cell_angle_alpha   90.00000000
_cell_angle_beta   90.00000000
_cell_angle_gamma   120.00000582
_symmetry_Int_Tables_number   1
_chemical_formula_structural   TbDyMn12P7
_chemical_formula_sum   'Tb1 Dy1 Mn12 P7'
_cell_volume   270.06300743
_cell_formula_units_Z   1
loop_
 _symmetry_equiv_pos_site_id
 _symmetry_equiv_pos_as_xyz
  1  'x, y, z'
loop_
 _atom_site_type_symbol
 _atom_site_label
 _atom_site_symmetry_multiplicity
 _atom_site_fract_x
 _atom_site_fract_y
 _atom_site_fract_z
 _atom_site_occupancy
  Tb  Tb0  1  0.333333  0.666667  0.500000  1
  Dy  Dy1  1  0.666667  0.333333  0.000000  1
  Mn  Mn2  1  0.375939  0.951462  0.000000  1
  Mn  Mn3  1  0.048538  0.424477  0.000000  1
  Mn  Mn4  1  0.575523  0.624061  0.000000  1
  Mn  Mn5  1  0.880223  0.723903  0.000000  1
  Mn  Mn6  1  0.276097  0.156320  0.000000  1
  Mn  Mn7  1  0.843680  0.119777  0.000000  1
  Mn  Mn8  1  0.954935  0.562676  0.500000  1
  Mn  Mn9  1  0.437324  0.392259  0.500000  1
  Mn  Mn10  1  0.607741  0.045065  0.500000  1
  Mn  Mn11  1  0.123739  0.896421  0.500000  1
  Mn  Mn12  1  0.103579  0.227318  0.500000  1
  Mn  Mn13  1  0.772682  0.876261  0.500000  1
  P  P14  1  0.119015  0.708584  0.000000  1
  P  P15  1  0.291416  0.410431  0.000000  1
  P  P16  1  0.589569  0.880985  0.000000  1
  P  P17  1  0.719097  0.591996  0.500000  1
  P  P18  1  0.408004  0.127102  0.500000  1
  P  P19  1  0.872898  0.280903  0.500000  1
  P  P20  1  0.000000  0.000000  0.000000  1
