# generated using pymatgen
data_Nd3Ho5Cd2RuPt
_symmetry_space_group_name_H-M   'P 1'
_cell_length_a   9.73540027
_cell_length_b   9.73537543
_cell_length_c   9.75764900
_cell_angle_alpha   59.92329133
_cell_angle_beta   59.92334844
_cell_angle_gamma   59.99098701
_symmetry_Int_Tables_number   1
_chemical_formula_structural   Nd3Ho5Cd2RuPt
_chemical_formula_sum   'Nd6 Ho10 Cd4 Ru2 Pt2'
_cell_volume   653.13485155
_cell_formula_units_Z   2
loop_
 _symmetry_equiv_pos_site_id
 _symmetry_equiv_pos_as_xyz
  1  'x, y, z'
loop_
 _atom_site_type_symbol
 _atom_site_label
 _atom_site_symmetry_multiplicity
 _atom_site_fract_x
 _atom_site_fract_y
 _atom_site_fract_z
 _atom_site_occupancy
  Nd  Nd0  1  0.939465  0.556154  0.563208  1
  Nd  Nd1  1  0.556205  0.939434  0.941081  1
  Nd  Nd2  1  0.556150  0.939468  0.563211  1
  Nd  Nd3  1  0.939430  0.556204  0.941086  1
  Nd  Nd4  1  0.560405  0.560403  0.939553  1
  Nd  Nd5  1  0.939799  0.939796  0.560237  1
  Ho  Ho6  1  0.347940  0.347940  0.351957  1
  Ho  Ho7  1  0.347860  0.347859  0.952227  1
  Ho  Ho8  1  0.344096  0.960195  0.347801  1
  Ho  Ho9  1  0.960195  0.344094  0.347802  1
  Ho  Ho10  1  0.817851  0.185548  0.187671  1
  Ho  Ho11  1  0.185548  0.817785  0.809011  1
  Ho  Ho12  1  0.185549  0.817850  0.187670  1
  Ho  Ho13  1  0.817787  0.185546  0.809010  1
  Ho  Ho14  1  0.185666  0.185671  0.814371  1
  Ho  Ho15  1  0.810934  0.810936  0.189037  1
  Cd  Cd16  1  0.579156  0.579156  0.579277  1
  Cd  Cd17  1  0.579145  0.579145  0.262392  1
  Cd  Cd18  1  0.580202  0.260362  0.579740  1
  Cd  Cd19  1  0.260362  0.580200  0.579743  1
  Ru  Ru20  1  0.143506  0.143504  0.137737  1
  Ru  Ru21  1  0.143516  0.143513  0.575363  1
  Pt  Pt22  1  0.144795  0.574441  0.140408  1
  Pt  Pt23  1  0.574441  0.144797  0.140408  1
