# generated using pymatgen
data_Tb6NdCo3Sn23Ir3
_symmetry_space_group_name_H-M   'P 1'
_cell_length_a   9.81251326
_cell_length_b   9.82442461
_cell_length_c   10.07717291
_cell_angle_alpha   90.11094385
_cell_angle_beta   89.81373161
_cell_angle_gamma   120.07033048
_symmetry_Int_Tables_number   1
_chemical_formula_structural   Tb6NdCo3Sn23Ir3
_chemical_formula_sum   'Tb6 Nd1 Co3 Sn23 Ir3'
_cell_volume   840.70993820
_cell_formula_units_Z   1
loop_
 _symmetry_equiv_pos_site_id
 _symmetry_equiv_pos_as_xyz
  1  'x, y, z'
loop_
 _atom_site_type_symbol
 _atom_site_label
 _atom_site_symmetry_multiplicity
 _atom_site_fract_x
 _atom_site_fract_y
 _atom_site_fract_z
 _atom_site_occupancy
  Tb  Tb0  1  0.478936  0.521479  0.306573  1
  Tb  Tb1  1  0.520628  0.478494  0.692802  1
  Tb  Tb2  1  0.479912  0.958342  0.306352  1
  Tb  Tb3  1  0.520568  0.042896  0.693583  1
  Tb  Tb4  1  0.042018  0.520417  0.305320  1
  Tb  Tb5  1  0.957610  0.479281  0.693658  1
  Nd  Nd6  1  0.996249  0.993268  0.003973  1
  Co  Co7  1  0.170635  0.338216  0.801676  1
  Co  Co8  1  0.337855  0.170850  0.197141  1
  Co  Co9  1  0.663551  0.832424  0.800848  1
  Sn  Sn10  1  0.352155  0.005205  0.005136  1
  Sn  Sn11  1  0.647953  0.995476  0.994166  1
  Sn  Sn12  1  0.006032  0.349678  0.993984  1
  Sn  Sn13  1  0.000869  0.644783  0.999660  1
  Sn  Sn14  1  0.645622  0.651128  0.994553  1
  Sn  Sn15  1  0.344602  0.345171  0.999764  1
  Sn  Sn16  1  0.335802  0.664676  0.819904  1
  Sn  Sn17  1  0.661447  0.331093  0.176584  1
  Sn  Sn18  1  0.999980  0.999514  0.500824  1
  Sn  Sn19  1  0.778717  0.221721  0.456672  1
  Sn  Sn20  1  0.221337  0.777773  0.542971  1
  Sn  Sn21  1  0.778540  0.556164  0.456572  1
  Sn  Sn22  1  0.218798  0.438556  0.549799  1
  Sn  Sn23  1  0.438672  0.219210  0.449805  1
  Sn  Sn24  1  0.560435  0.780423  0.550665  1
  Sn  Sn25  1  0.334174  0.667274  0.117574  1
  Sn  Sn26  1  0.665965  0.333884  0.881134  1
  Sn  Sn27  1  0.124768  0.888357  0.279524  1
  Sn  Sn28  1  0.884011  0.118644  0.725860  1
  Sn  Sn29  1  0.124332  0.237576  0.279268  1
  Sn  Sn30  1  0.876742  0.764113  0.720170  1
  Sn  Sn31  1  0.760595  0.881723  0.286866  1
  Sn  Sn32  1  0.237464  0.125349  0.720774  1
  Ir  Ir33  1  0.832064  0.169737  0.196583  1
  Ir  Ir34  1  0.170314  0.833603  0.801138  1
  Ir  Ir35  1  0.830651  0.663504  0.198127  1
