# generated using pymatgen
data_HoErOsC2
_symmetry_space_group_name_H-M   'P 1'
_cell_length_a   5.09644000
_cell_length_b   6.41623100
_cell_length_c   9.74321100
_cell_angle_alpha   90.00000000
_cell_angle_beta   90.00000000
_cell_angle_gamma   90.00000000
_symmetry_Int_Tables_number   1
_chemical_formula_structural   HoErOsC2
_chemical_formula_sum   'Ho4 Er4 Os4 C8'
_cell_volume   318.60237923
_cell_formula_units_Z   4
loop_
 _symmetry_equiv_pos_site_id
 _symmetry_equiv_pos_as_xyz
  1  'x, y, z'
loop_
 _atom_site_type_symbol
 _atom_site_label
 _atom_site_symmetry_multiplicity
 _atom_site_fract_x
 _atom_site_fract_y
 _atom_site_fract_z
 _atom_site_occupancy
  Ho  Ho0  1  0.250000  0.524967  0.219831  1
  Ho  Ho1  1  0.750000  0.475033  0.780169  1
  Ho  Ho2  1  0.750000  0.975033  0.719831  1
  Ho  Ho3  1  0.250000  0.024967  0.280169  1
  Er  Er4  1  0.250000  0.683627  0.552889  1
  Er  Er5  1  0.750000  0.316373  0.447111  1
  Er  Er6  1  0.750000  0.816373  0.052889  1
  Er  Er7  1  0.250000  0.183627  0.947111  1
  Os  Os8  1  0.250000  0.725816  0.866175  1
  Os  Os9  1  0.750000  0.274184  0.133825  1
  Os  Os10  1  0.750000  0.774184  0.366175  1
  Os  Os11  1  0.250000  0.225816  0.633825  1
  C  C12  1  0.250000  0.461867  0.758054  1
  C  C13  1  0.750000  0.538133  0.241946  1
  C  C14  1  0.750000  0.038133  0.258054  1
  C  C15  1  0.250000  0.961867  0.741946  1
  C  C16  1  0.250000  0.825845  0.054527  1
  C  C17  1  0.750000  0.174155  0.945473  1
  C  C18  1  0.750000  0.674155  0.554527  1
  C  C19  1  0.250000  0.325845  0.445473  1
