# generated using pymatgen
data_Hf18Ti2Fe2MoOs5
_symmetry_space_group_name_H-M   'P 1'
_cell_length_a   8.41911600
_cell_length_b   8.58770716
_cell_length_c   8.57344700
_cell_angle_alpha   119.94401677
_cell_angle_beta   90.00000000
_cell_angle_gamma   90.00000000
_symmetry_Int_Tables_number   1
_chemical_formula_structural   Hf18Ti2Fe2MoOs5
_chemical_formula_sum   'Hf18 Ti2 Fe2 Mo1 Os5'
_cell_volume   537.12397617
_cell_formula_units_Z   1
loop_
 _symmetry_equiv_pos_site_id
 _symmetry_equiv_pos_as_xyz
  1  'x, y, z'
loop_
 _atom_site_type_symbol
 _atom_site_label
 _atom_site_symmetry_multiplicity
 _atom_site_fract_x
 _atom_site_fract_y
 _atom_site_fract_z
 _atom_site_occupancy
  Hf  Hf0  1  0.560413  0.798854  0.597195  1
  Hf  Hf1  1  0.560404  0.798857  0.201656  1
  Hf  Hf2  1  0.559891  0.401311  0.200655  1
  Hf  Hf3  1  0.441396  0.202217  0.403571  1
  Hf  Hf4  1  0.441406  0.202218  0.798652  1
  Hf  Hf5  1  0.439760  0.598399  0.799204  1
  Hf  Hf6  1  0.058604  0.202217  0.403571  1
  Hf  Hf7  1  0.058594  0.202218  0.798652  1
  Hf  Hf8  1  0.060240  0.598399  0.799204  1
  Hf  Hf9  1  0.939587  0.798854  0.597195  1
  Hf  Hf10  1  0.939596  0.798857  0.201656  1
  Hf  Hf11  1  0.940109  0.401311  0.200655  1
  Hf  Hf12  1  0.750000  0.460428  0.918348  1
  Hf  Hf13  1  0.750000  0.460417  0.542078  1
  Hf  Hf14  1  0.750000  0.082672  0.541328  1
  Hf  Hf15  1  0.250000  0.541162  0.082775  1
  Hf  Hf16  1  0.250000  0.541168  0.458380  1
  Hf  Hf17  1  0.250000  0.918405  0.459207  1
  Ti  Ti18  1  0.501723  0.997358  0.998678  1
  Ti  Ti19  1  0.998277  0.997358  0.998678  1
  Fe  Fe20  1  0.750000  0.667180  0.333597  1
  Fe  Fe21  1  0.250000  0.334086  0.667041  1
  Mo  Mo22  1  0.250000  0.225620  0.112803  1
  Os  Os23  1  0.750000  0.112317  0.227695  1
  Os  Os24  1  0.750000  0.112325  0.884630  1
  Os  Os25  1  0.750000  0.772217  0.886115  1
  Os  Os26  1  0.250000  0.886795  0.771530  1
  Os  Os27  1  0.250000  0.886782  0.115255  1
