# generated using pymatgen
data_ScTiSn2Rh3
_symmetry_space_group_name_H-M   'P 1'
_cell_length_a   7.64940128
_cell_length_b   7.64940004
_cell_length_c   7.64940121
_cell_angle_alpha   34.21420544
_cell_angle_beta   34.21422210
_cell_angle_gamma   34.21421096
_symmetry_Int_Tables_number   1
_chemical_formula_structural   ScTiSn2Rh3
_chemical_formula_sum   'Sc1 Ti1 Sn2 Rh3'
_cell_volume   126.18768586
_cell_formula_units_Z   1
loop_
 _symmetry_equiv_pos_site_id
 _symmetry_equiv_pos_as_xyz
  1  'x, y, z'
loop_
 _atom_site_type_symbol
 _atom_site_label
 _atom_site_symmetry_multiplicity
 _atom_site_fract_x
 _atom_site_fract_y
 _atom_site_fract_z
 _atom_site_occupancy
  Sc  Sc0  1  0.755560  0.755560  0.755560  1
  Ti  Ti1  1  0.246772  0.246772  0.246772  1
  Sn  Sn2  1  0.993764  0.993764  0.993764  1
  Sn  Sn3  1  0.503851  0.503851  0.503851  1
  Rh  Rh4  1  0.125464  0.125464  0.125464  1
  Rh  Rh5  1  0.626346  0.626346  0.626346  1
  Rh  Rh6  1  0.373242  0.373242  0.373242  1
