# generated using pymatgen
data_Ac6NiRuI6
_symmetry_space_group_name_H-M   'P 1'
_cell_length_a   4.43823200
_cell_length_b   10.04194926
_cell_length_c   12.90104570
_cell_angle_alpha   86.53470313
_cell_angle_beta   90.00000000
_cell_angle_gamma   90.00000000
_symmetry_Int_Tables_number   1
_chemical_formula_structural   Ac6NiRuI6
_chemical_formula_sum   'Ac6 Ni1 Ru1 I6'
_cell_volume   573.92896322
_cell_formula_units_Z   1
loop_
 _symmetry_equiv_pos_site_id
 _symmetry_equiv_pos_as_xyz
  1  'x, y, z'
loop_
 _atom_site_type_symbol
 _atom_site_label
 _atom_site_symmetry_multiplicity
 _atom_site_fract_x
 _atom_site_fract_y
 _atom_site_fract_z
 _atom_site_occupancy
  Ac  Ac0  1  0.250000  0.312877  0.880609  1
  Ac  Ac1  1  0.750000  0.683054  0.121577  1
  Ac  Ac2  1  0.750000  0.117065  0.663888  1
  Ac  Ac3  1  0.250000  0.882181  0.337658  1
  Ac  Ac4  1  0.750000  0.089399  0.104206  1
  Ac  Ac5  1  0.250000  0.905911  0.894411  1
  Ni  Ni6  1  0.750000  0.117591  0.879231  1
  Ru  Ru7  1  0.250000  0.887711  0.118548  1
  I  I8  1  0.750000  0.138178  0.381256  1
  I  I9  1  0.250000  0.865196  0.618535  1
  I  I10  1  0.250000  0.369624  0.616605  1
  I  I11  1  0.750000  0.629097  0.383695  1
  I  I12  1  0.750000  0.608124  0.863128  1
  I  I13  1  0.250000  0.393994  0.136652  1
