# generated using pymatgen
data_DyY3(CrB4)4
_symmetry_space_group_name_H-M   'P 1'
_cell_length_a   5.94607304
_cell_length_b   11.49239007
_cell_length_c   3.45262600
_cell_angle_alpha   90.00000000
_cell_angle_beta   90.00000000
_cell_angle_gamma   90.01292695
_symmetry_Int_Tables_number   1
_chemical_formula_structural   DyY3(CrB4)4
_chemical_formula_sum   'Dy1 Y3 Cr4 B16'
_cell_volume   235.93377873
_cell_formula_units_Z   1
loop_
 _symmetry_equiv_pos_site_id
 _symmetry_equiv_pos_as_xyz
  1  'x, y, z'
loop_
 _atom_site_type_symbol
 _atom_site_label
 _atom_site_symmetry_multiplicity
 _atom_site_fract_x
 _atom_site_fract_y
 _atom_site_fract_z
 _atom_site_occupancy
  Dy  Dy0  1  0.875372  0.849077  0.000000  1
  Y  Y1  1  0.624385  0.349211  0.000000  1
  Y  Y2  1  0.375637  0.650835  0.000000  1
  Y  Y3  1  0.124529  0.150922  0.000000  1
  Cr  Cr4  1  0.624035  0.080704  0.000000  1
  Cr  Cr5  1  0.376068  0.919165  0.000000  1
  Cr  Cr6  1  0.123904  0.419361  0.000000  1
  Cr  Cr7  1  0.876099  0.580741  0.000000  1
  B  B8  1  0.781224  0.184099  0.500000  1
  B  B9  1  0.218596  0.815903  0.500000  1
  B  B10  1  0.281000  0.316093  0.500000  1
  B  B11  1  0.719101  0.684042  0.500000  1
  B  B12  1  0.862519  0.032279  0.500000  1
  B  B13  1  0.137396  0.967478  0.500000  1
  B  B14  1  0.362419  0.467638  0.500000  1
  B  B15  1  0.637537  0.532437  0.500000  1
  B  B16  1  0.886986  0.453297  0.500000  1
  B  B17  1  0.112994  0.546758  0.500000  1
  B  B18  1  0.387040  0.046632  0.500000  1
  B  B19  1  0.613081  0.953201  0.500000  1
  B  B20  1  0.975322  0.308689  0.500000  1
  B  B21  1  0.024545  0.691436  0.500000  1
  B  B22  1  0.475205  0.191430  0.500000  1
  B  B23  1  0.525005  0.808572  0.500000  1
