# generated using pymatgen
data_Zr4AlCr(B2Ru5)2
_symmetry_space_group_name_H-M   'P 1'
_cell_length_a   9.38695100
_cell_length_b   9.38695100
_cell_length_c   3.06920400
_cell_angle_alpha   90.00000000
_cell_angle_beta   90.00000000
_cell_angle_gamma   90.00000000
_symmetry_Int_Tables_number   1
_chemical_formula_structural   Zr4AlCr(B2Ru5)2
_chemical_formula_sum   'Zr4 Al1 Cr1 B4 Ru10'
_cell_volume   270.44244724
_cell_formula_units_Z   1
loop_
 _symmetry_equiv_pos_site_id
 _symmetry_equiv_pos_as_xyz
  1  'x, y, z'
loop_
 _atom_site_type_symbol
 _atom_site_label
 _atom_site_symmetry_multiplicity
 _atom_site_fract_x
 _atom_site_fract_y
 _atom_site_fract_z
 _atom_site_occupancy
  Zr  Zr0  1  0.677837  0.174483  0.000000  1
  Zr  Zr1  1  0.322163  0.825517  0.000000  1
  Zr  Zr2  1  0.174483  0.322163  0.000000  1
  Zr  Zr3  1  0.825517  0.677837  0.000000  1
  Al  Al4  1  0.000000  0.000000  0.000000  1
  Cr  Cr5  1  0.500000  0.500000  0.000000  1
  B  B6  1  0.121149  0.625147  0.000000  1
  B  B7  1  0.878851  0.374853  0.000000  1
  B  B8  1  0.625147  0.878851  0.000000  1
  B  B9  1  0.374853  0.121149  0.000000  1
  Ru  Ru10  1  0.215741  0.072510  0.500000  1
  Ru  Ru11  1  0.784259  0.927490  0.500000  1
  Ru  Ru12  1  0.072510  0.784259  0.500000  1
  Ru  Ru13  1  0.711086  0.432452  0.500000  1
  Ru  Ru14  1  0.927490  0.215741  0.500000  1
  Ru  Ru15  1  0.288914  0.567548  0.500000  1
  Ru  Ru16  1  0.567548  0.711086  0.500000  1
  Ru  Ru17  1  0.432452  0.288914  0.500000  1
  Ru  Ru18  1  0.500000  0.000000  0.500000  1
  Ru  Ru19  1  0.000000  0.500000  0.500000  1
