# generated using pymatgen
data_Pr2Ga9PdRh2
_symmetry_space_group_name_H-M   'P 1'
_cell_length_a   7.68734445
_cell_length_b   7.68735163
_cell_length_c   9.67250000
_cell_angle_alpha   90.00000000
_cell_angle_beta   90.00000000
_cell_angle_gamma   119.54066158
_symmetry_Int_Tables_number   1
_chemical_formula_structural   Pr2Ga9PdRh2
_chemical_formula_sum   'Pr4 Ga18 Pd2 Rh4'
_cell_volume   497.29498675
_cell_formula_units_Z   2
loop_
 _symmetry_equiv_pos_site_id
 _symmetry_equiv_pos_as_xyz
  1  'x, y, z'
loop_
 _atom_site_type_symbol
 _atom_site_label
 _atom_site_symmetry_multiplicity
 _atom_site_fract_x
 _atom_site_fract_y
 _atom_site_fract_z
 _atom_site_occupancy
  Pr  Pr0  1  0.997484  0.672937  0.250000  1
  Pr  Pr1  1  0.002516  0.327063  0.750000  1
  Pr  Pr2  1  0.672941  0.997484  0.250000  1
  Pr  Pr3  1  0.327059  0.002516  0.750000  1
  Ga  Ga4  1  0.136434  0.136434  0.250000  1
  Ga  Ga5  1  0.863566  0.863566  0.750000  1
  Ga  Ga6  1  0.003353  0.339010  0.077363  1
  Ga  Ga7  1  0.996647  0.660990  0.922637  1
  Ga  Ga8  1  0.996647  0.660990  0.577363  1
  Ga  Ga9  1  0.339010  0.003353  0.422637  1
  Ga  Ga10  1  0.003353  0.339010  0.422637  1
  Ga  Ga11  1  0.660990  0.996647  0.577363  1
  Ga  Ga12  1  0.660990  0.996647  0.922637  1
  Ga  Ga13  1  0.339010  0.003353  0.077363  1
  Ga  Ga14  1  0.339564  0.339564  0.561650  1
  Ga  Ga15  1  0.660436  0.660436  0.438350  1
  Ga  Ga16  1  0.660436  0.660436  0.061650  1
  Ga  Ga17  1  0.339564  0.339564  0.938350  1
  Ga  Ga18  1  0.336518  0.546708  0.250000  1
  Ga  Ga19  1  0.663482  0.453292  0.750000  1
  Ga  Ga20  1  0.546709  0.336518  0.250000  1
  Ga  Ga21  1  0.453291  0.663482  0.750000  1
  Pd  Pd22  1  0.000000  0.000000  0.000000  1
  Pd  Pd23  1  0.000000  0.000000  0.500000  1
  Rh  Rh24  1  0.671262  0.328738  0.000000  1
  Rh  Rh25  1  0.328738  0.671262  0.000000  1
  Rh  Rh26  1  0.328738  0.671262  0.500000  1
  Rh  Rh27  1  0.671262  0.328738  0.500000  1
