# generated using pymatgen
data_CaNd15(ZrIr3)4
_symmetry_space_group_name_H-M   'P 1'
_cell_length_a   11.18382754
_cell_length_b   11.16804547
_cell_length_c   6.39402699
_cell_angle_alpha   89.65959015
_cell_angle_beta   89.93928554
_cell_angle_gamma   89.81847612
_symmetry_Int_Tables_number   1
_chemical_formula_structural   CaNd15(ZrIr3)4
_chemical_formula_sum   'Ca1 Nd15 Zr4 Ir12'
_cell_volume   798.60499176
_cell_formula_units_Z   1
loop_
 _symmetry_equiv_pos_site_id
 _symmetry_equiv_pos_as_xyz
  1  'x, y, z'
loop_
 _atom_site_type_symbol
 _atom_site_label
 _atom_site_symmetry_multiplicity
 _atom_site_fract_x
 _atom_site_fract_y
 _atom_site_fract_z
 _atom_site_occupancy
  Ca  Ca0  1  0.085756  0.286968  0.124616  1
  Nd  Nd1  1  0.791208  0.411636  0.123618  1
  Nd  Nd2  1  0.211456  0.582318  0.122603  1
  Nd  Nd3  1  0.914014  0.712276  0.120920  1
  Nd  Nd4  1  0.412762  0.786826  0.376446  1
  Nd  Nd5  1  0.587683  0.212176  0.378054  1
  Nd  Nd6  1  0.287353  0.088062  0.374540  1
  Nd  Nd7  1  0.711641  0.912285  0.378034  1
  Nd  Nd8  1  0.413941  0.212868  0.875879  1
  Nd  Nd9  1  0.712775  0.086630  0.875416  1
  Nd  Nd10  1  0.287472  0.914007  0.876439  1
  Nd  Nd11  1  0.586477  0.787761  0.877186  1
  Nd  Nd12  1  0.086216  0.713207  0.622543  1
  Nd  Nd13  1  0.914899  0.287898  0.619807  1
  Nd  Nd14  1  0.211034  0.413003  0.622176  1
  Nd  Nd15  1  0.787048  0.586889  0.623966  1
  Zr  Zr16  1  0.000868  0.003686  0.000623  1
  Zr  Zr17  1  0.500917  0.500222  0.001885  1
  Zr  Zr18  1  0.500929  0.499852  0.502668  1
  Zr  Zr19  1  0.999419  0.999821  0.500840  1
  Ir  Ir20  1  0.138608  0.862214  0.248787  1
  Ir  Ir21  1  0.364737  0.361967  0.253642  1
  Ir  Ir22  1  0.639641  0.638122  0.249707  1
  Ir  Ir23  1  0.855636  0.135719  0.253913  1
  Ir  Ir24  1  0.359980  0.637955  0.750303  1
  Ir  Ir25  1  0.138960  0.138875  0.743103  1
  Ir  Ir26  1  0.861596  0.861185  0.752022  1
  Ir  Ir27  1  0.639837  0.359865  0.753250  1
  Ir  Ir28  1  0.999647  0.502605  0.384047  1
  Ir  Ir29  1  0.499094  0.000217  0.118173  1
  Ir  Ir30  1  0.499310  0.999740  0.617717  1
  Ir  Ir31  1  0.999084  0.503144  0.877079  1
