# generated using pymatgen
data_Tb2GePdI2
_symmetry_space_group_name_H-M   'P 1'
_cell_length_a   4.33994700
_cell_length_b   4.33994644
_cell_length_c   11.49034800
_cell_angle_alpha   90.00000000
_cell_angle_beta   90.00000000
_cell_angle_gamma   119.99999661
_symmetry_Int_Tables_number   1
_chemical_formula_structural   Tb2GePdI2
_chemical_formula_sum   'Tb2 Ge1 Pd1 I2'
_cell_volume   187.42720322
_cell_formula_units_Z   1
loop_
 _symmetry_equiv_pos_site_id
 _symmetry_equiv_pos_as_xyz
  1  'x, y, z'
loop_
 _atom_site_type_symbol
 _atom_site_label
 _atom_site_symmetry_multiplicity
 _atom_site_fract_x
 _atom_site_fract_y
 _atom_site_fract_z
 _atom_site_occupancy
  Tb  Tb0  1  0.000000  0.000000  0.156805  1
  Tb  Tb1  1  0.000000  0.000000  0.845791  1
  Ge  Ge2  1  0.666667  0.333333  0.012442  1
  Pd  Pd3  1  0.333333  0.666667  0.989626  1
  I  I4  1  0.666667  0.333333  0.665325  1
  I  I5  1  0.333333  0.666667  0.330011  1
