# generated using pymatgen
data_SmY2(GaIr2)3
_symmetry_space_group_name_H-M   'P 1'
_cell_length_a   5.60015400
_cell_length_b   5.60015296
_cell_length_c   15.70829900
_cell_angle_alpha   90.00000000
_cell_angle_beta   90.00000000
_cell_angle_gamma   119.99999436
_symmetry_Int_Tables_number   1
_chemical_formula_structural   SmY2(GaIr2)3
_chemical_formula_sum   'Sm2 Y4 Ga6 Ir12'
_cell_volume   426.63813726
_cell_formula_units_Z   2
loop_
 _symmetry_equiv_pos_site_id
 _symmetry_equiv_pos_as_xyz
  1  'x, y, z'
loop_
 _atom_site_type_symbol
 _atom_site_label
 _atom_site_symmetry_multiplicity
 _atom_site_fract_x
 _atom_site_fract_y
 _atom_site_fract_z
 _atom_site_occupancy
  Sm  Sm0  1  0.666667  0.333333  0.750000  1
  Sm  Sm1  1  0.333333  0.666667  0.250000  1
  Y  Y2  1  0.666667  0.333333  0.960754  1
  Y  Y3  1  0.666667  0.333333  0.539246  1
  Y  Y4  1  0.333333  0.666667  0.039246  1
  Y  Y5  1  0.333333  0.666667  0.460754  1
  Ga  Ga6  1  0.666667  0.333333  0.250000  1
  Ga  Ga7  1  0.000000  0.000000  0.500000  1
  Ga  Ga8  1  0.000000  0.000000  0.250000  1
  Ga  Ga9  1  0.000000  0.000000  0.750000  1
  Ga  Ga10  1  0.333333  0.666667  0.750000  1
  Ga  Ga11  1  0.000000  0.000000  0.000000  1
  Ir  Ir12  1  0.169511  0.339023  0.874598  1
  Ir  Ir13  1  0.169511  0.339023  0.625402  1
  Ir  Ir14  1  0.660977  0.830489  0.874598  1
  Ir  Ir15  1  0.339023  0.169511  0.374598  1
  Ir  Ir16  1  0.830489  0.660977  0.374598  1
  Ir  Ir17  1  0.830489  0.169511  0.374598  1
  Ir  Ir18  1  0.830489  0.169511  0.125402  1
  Ir  Ir19  1  0.339023  0.169511  0.125402  1
  Ir  Ir20  1  0.660977  0.830489  0.625402  1
  Ir  Ir21  1  0.169511  0.830489  0.625402  1
  Ir  Ir22  1  0.830489  0.660977  0.125402  1
  Ir  Ir23  1  0.169511  0.830489  0.874598  1
