# generated using pymatgen
data_Cr20NiMoRuC6
_symmetry_space_group_name_H-M   'P 1'
_cell_length_a   7.51339704
_cell_length_b   7.51339681
_cell_length_c   7.51339800
_cell_angle_alpha   60.00000358
_cell_angle_beta   60.00000456
_cell_angle_gamma   60.00000206
_symmetry_Int_Tables_number   1
_chemical_formula_structural   Cr20NiMoRuC6
_chemical_formula_sum   'Cr20 Ni1 Mo1 Ru1 C6'
_cell_volume   299.91217472
_cell_formula_units_Z   1
loop_
 _symmetry_equiv_pos_site_id
 _symmetry_equiv_pos_as_xyz
  1  'x, y, z'
loop_
 _atom_site_type_symbol
 _atom_site_label
 _atom_site_symmetry_multiplicity
 _atom_site_fract_x
 _atom_site_fract_y
 _atom_site_fract_z
 _atom_site_occupancy
  Cr  Cr0  1  0.616970  0.616970  0.149089  1
  Cr  Cr1  1  0.616970  0.149089  0.616970  1
  Cr  Cr2  1  0.149089  0.616970  0.616970  1
  Cr  Cr3  1  0.616970  0.616970  0.616970  1
  Cr  Cr4  1  0.384295  0.384295  0.847118  1
  Cr  Cr5  1  0.384295  0.847118  0.384295  1
  Cr  Cr6  1  0.847118  0.384295  0.384295  1
  Cr  Cr7  1  0.384295  0.384295  0.384295  1
  Cr  Cr8  1  0.000508  0.000508  0.332586  1
  Cr  Cr9  1  0.666399  0.000508  0.332586  1
  Cr  Cr10  1  0.000508  0.666399  0.332586  1
  Cr  Cr11  1  0.666399  0.332586  0.000508  1
  Cr  Cr12  1  0.000508  0.332586  0.000508  1
  Cr  Cr13  1  0.000508  0.332586  0.666399  1
  Cr  Cr14  1  0.332586  0.666399  0.000508  1
  Cr  Cr15  1  0.332586  0.000508  0.666399  1
  Cr  Cr16  1  0.332586  0.000508  0.000508  1
  Cr  Cr17  1  0.000508  0.000508  0.666399  1
  Cr  Cr18  1  0.000508  0.666399  0.000508  1
  Cr  Cr19  1  0.666399  0.000508  0.000508  1
  Ni  Ni20  1  0.000000  0.000000  0.000000  1
  Mo  Mo21  1  0.250000  0.250000  0.250000  1
  Ru  Ru22  1  0.750000  0.750000  0.750000  1
  C  C23  1  0.723147  0.723147  0.276853  1
  C  C24  1  0.276853  0.723147  0.276853  1
  C  C25  1  0.723147  0.276853  0.276853  1
  C  C26  1  0.276853  0.276853  0.723147  1
  C  C27  1  0.723147  0.276853  0.723147  1
  C  C28  1  0.276853  0.723147  0.723147  1
