# generated using pymatgen
data_Ti3NbSi2(PIr2)2
_symmetry_space_group_name_H-M   'P 1'
_cell_length_a   3.79473100
_cell_length_b   6.34673617
_cell_length_c   7.22660719
_cell_angle_alpha   89.97384060
_cell_angle_beta   90.00000000
_cell_angle_gamma   90.00000000
_symmetry_Int_Tables_number   1
_chemical_formula_structural   Ti3NbSi2(PIr2)2
_chemical_formula_sum   'Ti3 Nb1 Si2 P2 Ir4'
_cell_volume   174.04672017
_cell_formula_units_Z   1
loop_
 _symmetry_equiv_pos_site_id
 _symmetry_equiv_pos_as_xyz
  1  'x, y, z'
loop_
 _atom_site_type_symbol
 _atom_site_label
 _atom_site_symmetry_multiplicity
 _atom_site_fract_x
 _atom_site_fract_y
 _atom_site_fract_z
 _atom_site_occupancy
  Ti  Ti0  1  0.250000  0.527520  0.673654  1
  Ti  Ti1  1  0.750000  0.975325  0.175801  1
  Ti  Ti2  1  0.750000  0.476264  0.323793  1
  Nb  Nb3  1  0.250000  0.025784  0.829070  1
  Si  Si4  1  0.750000  0.236545  0.623025  1
  Si  Si5  1  0.750000  0.732987  0.875544  1
  P  P6  1  0.250000  0.762455  0.377237  1
  P  P7  1  0.250000  0.263520  0.123503  1
  Ir  Ir8  1  0.250000  0.148664  0.432820  1
  Ir  Ir9  1  0.250000  0.647191  0.069555  1
  Ir  Ir10  1  0.750000  0.849210  0.556549  1
  Ir  Ir11  1  0.750000  0.354532  0.939449  1
