# generated using pymatgen
data_BaThPdS3
_symmetry_space_group_name_H-M   'P 1'
_cell_length_a   7.21508974
_cell_length_b   7.21509069
_cell_length_c   10.37434200
_cell_angle_alpha   90.00000000
_cell_angle_beta   90.00000000
_cell_angle_gamma   146.62521221
_symmetry_Int_Tables_number   1
_chemical_formula_structural   BaThPdS3
_chemical_formula_sum   'Ba2 Th2 Pd2 S6'
_cell_volume   297.09562426
_cell_formula_units_Z   2
loop_
 _symmetry_equiv_pos_site_id
 _symmetry_equiv_pos_as_xyz
  1  'x, y, z'
loop_
 _atom_site_type_symbol
 _atom_site_label
 _atom_site_symmetry_multiplicity
 _atom_site_fract_x
 _atom_site_fract_y
 _atom_site_fract_z
 _atom_site_occupancy
  Ba  Ba0  1  0.246768  0.753230  0.250000  1
  Ba  Ba1  1  0.753230  0.246768  0.750000  1
  Th  Th2  1  0.499999  0.499999  0.000000  1
  Th  Th3  1  0.499999  0.499999  0.500000  1
  Pd  Pd4  1  0.971403  0.028596  0.250000  1
  Pd  Pd5  1  0.028596  0.971403  0.750000  1
  S  S6  1  0.864742  0.135257  0.057027  1
  S  S7  1  0.576607  0.423392  0.250000  1
  S  S8  1  0.864742  0.135257  0.442973  1
  S  S9  1  0.135257  0.864742  0.557028  1
  S  S10  1  0.423392  0.576607  0.750000  1
  S  S11  1  0.135257  0.864742  0.942972  1
