# generated using pymatgen
data_Li2Pr3TmPt3
_symmetry_space_group_name_H-M   'P 1'
_cell_length_a   7.69321000
_cell_length_b   7.64014858
_cell_length_c   4.15532200
_cell_angle_alpha   90.00000000
_cell_angle_beta   90.00000000
_cell_angle_gamma   120.23002580
_symmetry_Int_Tables_number   1
_chemical_formula_structural   Li2Pr3TmPt3
_chemical_formula_sum   'Li2 Pr3 Tm1 Pt3'
_cell_volume   211.02474563
_cell_formula_units_Z   1
loop_
 _symmetry_equiv_pos_site_id
 _symmetry_equiv_pos_as_xyz
  1  'x, y, z'
loop_
 _atom_site_type_symbol
 _atom_site_label
 _atom_site_symmetry_multiplicity
 _atom_site_fract_x
 _atom_site_fract_y
 _atom_site_fract_z
 _atom_site_occupancy
  Li  Li0  1  0.006024  0.241915  0.500000  1
  Li  Li1  1  0.764108  0.758085  0.500000  1
  Pr  Pr2  1  0.413647  0.438896  0.000000  1
  Pr  Pr3  1  0.616402  0.000000  0.000000  1
  Pr  Pr4  1  0.974751  0.561104  0.000000  1
  Tm  Tm5  1  0.243254  0.000000  0.500000  1
  Pt  Pt6  1  0.005517  0.000000  0.000000  1
  Pt  Pt7  1  0.648762  0.321225  0.500000  1
  Pt  Pt8  1  0.327536  0.678775  0.500000  1
