# generated using pymatgen
data_Y2ErGa6Co4Ni5
_symmetry_space_group_name_H-M   'P 1'
_cell_length_a   8.70564318
_cell_length_b   8.75288949
_cell_length_c   4.07947900
_cell_angle_alpha   90.00000000
_cell_angle_beta   90.00000000
_cell_angle_gamma   120.17410982
_symmetry_Int_Tables_number   1
_chemical_formula_structural   Y2ErGa6Co4Ni5
_chemical_formula_sum   'Y2 Er1 Ga6 Co4 Ni5'
_cell_volume   268.73424889
_cell_formula_units_Z   1
loop_
 _symmetry_equiv_pos_site_id
 _symmetry_equiv_pos_as_xyz
  1  'x, y, z'
loop_
 _atom_site_type_symbol
 _atom_site_label
 _atom_site_symmetry_multiplicity
 _atom_site_fract_x
 _atom_site_fract_y
 _atom_site_fract_z
 _atom_site_occupancy
  Y  Y0  1  0.667493  0.334396  0.500000  1
  Y  Y1  1  0.331239  0.669209  0.500000  1
  Er  Er2  1  0.001927  0.000452  0.000000  1
  Ga  Ga3  1  0.490486  0.486970  0.000000  1
  Ga  Ga4  1  0.510392  0.000459  0.000000  1
  Ga  Ga5  1  0.996389  0.509319  0.000000  1
  Ga  Ga6  1  0.727655  0.727783  0.500000  1
  Ga  Ga7  1  0.272580  0.999241  0.500000  1
  Ga  Ga8  1  0.000950  0.270458  0.500000  1
  Co  Co9  1  0.824259  0.187764  0.000000  1
  Co  Co10  1  0.814078  0.639415  0.000000  1
  Co  Co11  1  0.364261  0.175088  0.000000  1
  Co  Co12  1  0.186234  0.821981  0.000000  1
  Ni  Ni13  1  0.631964  0.809964  0.000000  1
  Ni  Ni14  1  0.178466  0.370135  0.000000  1
  Ni  Ni15  1  0.295553  0.293173  0.500000  1
  Ni  Ni16  1  0.706727  0.000802  0.500000  1
  Ni  Ni17  1  0.999348  0.703393  0.500000  1
