# generated using pymatgen
data_Eu3LuAl6(Ga2Ir)6
_symmetry_space_group_name_H-M   'P 1'
_cell_length_a   7.59146715
_cell_length_b   7.59080487
_cell_length_c   9.69726108
_cell_angle_alpha   90.00928247
_cell_angle_beta   89.98492639
_cell_angle_gamma   119.61094122
_symmetry_Int_Tables_number   1
_chemical_formula_structural   Eu3LuAl6(Ga2Ir)6
_chemical_formula_sum   'Eu3 Lu1 Al6 Ga12 Ir6'
_cell_volume   485.82800890
_cell_formula_units_Z   1
loop_
 _symmetry_equiv_pos_site_id
 _symmetry_equiv_pos_as_xyz
  1  'x, y, z'
loop_
 _atom_site_type_symbol
 _atom_site_label
 _atom_site_symmetry_multiplicity
 _atom_site_fract_x
 _atom_site_fract_y
 _atom_site_fract_z
 _atom_site_occupancy
  Eu  Eu0  1  0.999747  0.671895  0.252748  1
  Eu  Eu1  1  0.332985  0.001592  0.748595  1
  Eu  Eu2  1  0.666947  0.997321  0.248379  1
  Lu  Lu3  1  0.997434  0.327142  0.753275  1
  Al  Al4  1  0.666332  0.666211  0.453867  1
  Al  Al5  1  0.331999  0.332903  0.944411  1
  Al  Al6  1  0.665297  0.665725  0.047078  1
  Al  Al7  1  0.332821  0.333366  0.556407  1
  Al  Al8  1  0.003755  0.334487  0.433551  1
  Al  Al9  1  0.997574  0.664784  0.928891  1
  Ga  Ga10  1  0.333327  0.001508  0.072258  1
  Ga  Ga11  1  0.668124  0.001720  0.576522  1
  Ga  Ga12  1  0.999533  0.662180  0.578672  1
  Ga  Ga13  1  0.002180  0.336467  0.072998  1
  Ga  Ga14  1  0.666267  0.999451  0.921913  1
  Ga  Ga15  1  0.335424  0.003868  0.426091  1
  Ga  Ga16  1  0.127377  0.130929  0.249208  1
  Ga  Ga17  1  0.873432  0.872666  0.749150  1
  Ga  Ga18  1  0.662446  0.455707  0.749012  1
  Ga  Ga19  1  0.340547  0.543693  0.249245  1
  Ga  Ga20  1  0.447667  0.652155  0.748726  1
  Ga  Ga21  1  0.546388  0.341698  0.248658  1
  Ir  Ir22  1  0.000768  0.004653  0.501300  1
  Ir  Ir23  1  0.000367  0.999038  0.996321  1
  Ir  Ir24  1  0.672087  0.332104  0.499848  1
  Ir  Ir25  1  0.328470  0.667262  0.996246  1
  Ir  Ir26  1  0.329053  0.665148  0.500095  1
  Ir  Ir27  1  0.671653  0.334322  0.996536  1
