# generated using pymatgen
data_Er6Zn16PAu7
_symmetry_space_group_name_H-M   'P 1'
_cell_length_a   9.10534238
_cell_length_b   9.10539837
_cell_length_c   9.10530963
_cell_angle_alpha   60.08448230
_cell_angle_beta   60.08420968
_cell_angle_gamma   60.08452806
_symmetry_Int_Tables_number   1
_chemical_formula_structural   Er6Zn16PAu7
_chemical_formula_sum   'Er6 Zn16 P1 Au7'
_cell_volume   534.81654051
_cell_formula_units_Z   1
loop_
 _symmetry_equiv_pos_site_id
 _symmetry_equiv_pos_as_xyz
  1  'x, y, z'
loop_
 _atom_site_type_symbol
 _atom_site_label
 _atom_site_symmetry_multiplicity
 _atom_site_fract_x
 _atom_site_fract_y
 _atom_site_fract_z
 _atom_site_occupancy
  Er  Er0  1  0.712092  0.287791  0.287787  1
  Er  Er1  1  0.711595  0.289782  0.711598  1
  Er  Er2  1  0.711597  0.711587  0.289778  1
  Er  Er3  1  0.289776  0.711594  0.711590  1
  Er  Er4  1  0.287788  0.712093  0.287791  1
  Er  Er5  1  0.287789  0.287797  0.712092  1
  Zn  Zn6  1  0.875592  0.875594  0.875595  1
  Zn  Zn7  1  0.503027  0.998962  0.998957  1
  Zn  Zn8  1  0.499908  0.000735  0.499911  1
  Zn  Zn9  1  0.499913  0.499911  0.000737  1
  Zn  Zn10  1  0.000730  0.499910  0.499913  1
  Zn  Zn11  1  0.998960  0.503028  0.998956  1
  Zn  Zn12  1  0.998958  0.998955  0.503031  1
  Zn  Zn13  1  0.999784  0.999785  0.999787  1
  Zn  Zn14  1  0.006735  0.331020  0.331023  1
  Zn  Zn15  1  0.331022  0.006737  0.331023  1
  Zn  Zn16  1  0.331016  0.331022  0.006732  1
  Zn  Zn17  1  0.331030  0.331027  0.331024  1
  Zn  Zn18  1  0.992261  0.669704  0.669703  1
  Zn  Zn19  1  0.669708  0.992260  0.669699  1
  Zn  Zn20  1  0.669704  0.669694  0.992269  1
  Zn  Zn21  1  0.669026  0.669018  0.669017  1
  P  P22  1  0.499800  0.499797  0.499802  1
  Au  Au23  1  0.632278  0.121520  0.121523  1
  Au  Au24  1  0.121515  0.632287  0.121513  1
  Au  Au25  1  0.121522  0.121514  0.632280  1
  Au  Au26  1  0.123487  0.123482  0.123488  1
  Au  Au27  1  0.369229  0.877081  0.877076  1
  Au  Au28  1  0.877077  0.369235  0.877073  1
  Au  Au29  1  0.877079  0.877075  0.369232  1
