# generated using pymatgen
data_Sr2Al20TcIr3
_symmetry_space_group_name_H-M   'P 1'
_cell_length_a   6.92574136
_cell_length_b   6.93730618
_cell_length_c   9.25089406
_cell_angle_alpha   89.94185393
_cell_angle_beta   89.80938067
_cell_angle_gamma   96.55476090
_symmetry_Int_Tables_number   1
_chemical_formula_structural   Sr2Al20TcIr3
_chemical_formula_sum   'Sr2 Al20 Tc1 Ir3'
_cell_volume   441.56007192
_cell_formula_units_Z   1
loop_
 _symmetry_equiv_pos_site_id
 _symmetry_equiv_pos_as_xyz
  1  'x, y, z'
loop_
 _atom_site_type_symbol
 _atom_site_label
 _atom_site_symmetry_multiplicity
 _atom_site_fract_x
 _atom_site_fract_y
 _atom_site_fract_z
 _atom_site_occupancy
  Sr  Sr0  1  0.876677  0.121888  0.750185  1
  Sr  Sr1  1  0.123323  0.878112  0.249815  1
  Al  Al2  1  0.412389  0.141801  0.751356  1
  Al  Al3  1  0.141764  0.410268  0.249692  1
  Al  Al4  1  0.587611  0.858199  0.248644  1
  Al  Al5  1  0.858236  0.589732  0.750308  1
  Al  Al6  1  0.518616  0.777814  0.752562  1
  Al  Al7  1  0.776426  0.518152  0.251284  1
  Al  Al8  1  0.481384  0.222186  0.247438  1
  Al  Al9  1  0.223574  0.481848  0.748716  1
  Al  Al10  1  0.839076  0.162920  0.397169  1
  Al  Al11  1  0.160924  0.837080  0.602831  1
  Al  Al12  1  0.836495  0.160937  0.101054  1
  Al  Al13  1  0.163505  0.839063  0.898946  1
  Al  Al14  1  0.620546  0.379402  0.550999  1
  Al  Al15  1  0.379454  0.620598  0.449001  1
  Al  Al16  1  0.619469  0.376050  0.950007  1
  Al  Al17  1  0.380531  0.623950  0.049993  1
  Al  Al18  1  0.773394  0.776217  0.998647  1
  Al  Al19  1  0.774773  0.775370  0.499748  1
  Al  Al20  1  0.226606  0.223783  0.001353  1
  Al  Al21  1  0.225227  0.224630  0.500252  1
  Tc  Tc22  1  0.500000  0.000000  0.000000  1
  Ir  Ir23  1  0.000000  0.500000  0.000000  1
  Ir  Ir24  1  0.500000  0.000000  0.500000  1
  Ir  Ir25  1  0.000000  0.500000  0.500000  1
