# generated using pymatgen
data_Dy3Er3V2(Co4P3)4
_symmetry_space_group_name_H-M   'P 1'
_cell_length_a   3.68176400
_cell_length_b   10.54450103
_cell_length_c   12.22301404
_cell_angle_alpha   89.99116674
_cell_angle_beta   90.00000000
_cell_angle_gamma   90.00000000
_symmetry_Int_Tables_number   1
_chemical_formula_structural   Dy3Er3V2(Co4P3)4
_chemical_formula_sum   'Dy3 Er3 V2 Co16 P12'
_cell_volume   474.52629806
_cell_formula_units_Z   1
loop_
 _symmetry_equiv_pos_site_id
 _symmetry_equiv_pos_as_xyz
  1  'x, y, z'
loop_
 _atom_site_type_symbol
 _atom_site_label
 _atom_site_symmetry_multiplicity
 _atom_site_fract_x
 _atom_site_fract_y
 _atom_site_fract_z
 _atom_site_occupancy
  Dy  Dy0  1  0.000000  0.499987  0.523405  1
  Dy  Dy1  1  0.500000  0.000000  0.476748  1
  Dy  Dy2  1  0.000000  0.319160  0.795556  1
  Er  Er3  1  0.500000  0.819012  0.204175  1
  Er  Er4  1  0.500000  0.180969  0.204282  1
  Er  Er5  1  0.000000  0.681095  0.795773  1
  V  V6  1  0.500000  0.500060  0.154044  1
  V  V7  1  0.000000  0.999794  0.845888  1
  Co  Co8  1  0.500000  0.500545  0.702229  1
  Co  Co9  1  0.000000  0.999970  0.297520  1
  Co  Co10  1  0.000000  0.500264  0.987012  1
  Co  Co11  1  0.500000  0.999751  0.013258  1
  Co  Co12  1  0.500000  0.332493  0.993182  1
  Co  Co13  1  0.500000  0.667742  0.992869  1
  Co  Co14  1  0.000000  0.167421  0.007372  1
  Co  Co15  1  0.000000  0.832352  0.007180  1
  Co  Co16  1  0.500000  0.295836  0.430918  1
  Co  Co17  1  0.500000  0.704190  0.431027  1
  Co  Co18  1  0.000000  0.204086  0.568765  1
  Co  Co19  1  0.000000  0.795803  0.569074  1
  Co  Co20  1  0.500000  0.878298  0.707882  1
  Co  Co21  1  0.500000  0.121182  0.707604  1
  Co  Co22  1  0.000000  0.621624  0.292098  1
  Co  Co23  1  0.000000  0.378351  0.292100  1
  P  P24  1  0.500000  0.500521  0.881980  1
  P  P25  1  0.000000  0.999939  0.118332  1
  P  P26  1  0.500000  0.500006  0.347071  1
  P  P27  1  0.000000  0.000033  0.652927  1
  P  P28  1  0.500000  0.311389  0.615844  1
  P  P29  1  0.500000  0.688641  0.616441  1
  P  P30  1  0.000000  0.188520  0.383493  1
  P  P31  1  0.000000  0.811440  0.383562  1
  P  P32  1  0.500000  0.845449  0.891467  1
  P  P33  1  0.500000  0.154027  0.891800  1
  P  P34  1  0.000000  0.654606  0.108597  1
  P  P35  1  0.000000  0.345445  0.108523  1
