# generated using pymatgen
data_Fe7Re4TcMo
_symmetry_space_group_name_H-M   'P 1'
_cell_length_a   8.95434916
_cell_length_b   8.95434924
_cell_length_c   8.95434804
_cell_angle_alpha   30.37829178
_cell_angle_beta   30.37829348
_cell_angle_gamma   30.37829477
_symmetry_Int_Tables_number   1
_chemical_formula_structural   Fe7Re4TcMo
_chemical_formula_sum   'Fe7 Re4 Tc1 Mo1'
_cell_volume   162.73153033
_cell_formula_units_Z   1
loop_
 _symmetry_equiv_pos_site_id
 _symmetry_equiv_pos_as_xyz
  1  'x, y, z'
loop_
 _atom_site_type_symbol
 _atom_site_label
 _atom_site_symmetry_multiplicity
 _atom_site_fract_x
 _atom_site_fract_y
 _atom_site_fract_z
 _atom_site_occupancy
  Fe  Fe0  1  0.587846  0.091975  0.091975  1
  Fe  Fe1  1  0.091975  0.091975  0.587846  1
  Fe  Fe2  1  0.908793  0.908793  0.410587  1
  Fe  Fe3  1  0.908793  0.410587  0.908793  1
  Fe  Fe4  1  0.000004  0.000004  0.000004  1
  Fe  Fe5  1  0.091975  0.587846  0.091975  1
  Fe  Fe6  1  0.410587  0.908793  0.908793  1
  Re  Re7  1  0.347120  0.347120  0.347120  1
  Re  Re8  1  0.166657  0.166657  0.166657  1
  Re  Re9  1  0.548362  0.548362  0.548362  1
  Re  Re10  1  0.652558  0.652558  0.652558  1
  Tc  Tc11  1  0.451812  0.451812  0.451812  1
  Mo  Mo12  1  0.833518  0.833518  0.833518  1
