# generated using pymatgen
data_DyHo2Mg3AgSn2
_symmetry_space_group_name_H-M   'P 1'
_cell_length_a   7.50478600
_cell_length_b   7.51129657
_cell_length_c   4.51410700
_cell_angle_alpha   90.00000000
_cell_angle_beta   90.00000000
_cell_angle_gamma   119.97133160
_symmetry_Int_Tables_number   1
_chemical_formula_structural   DyHo2Mg3AgSn2
_chemical_formula_sum   'Dy1 Ho2 Mg3 Ag1 Sn2'
_cell_volume   220.43527360
_cell_formula_units_Z   1
loop_
 _symmetry_equiv_pos_site_id
 _symmetry_equiv_pos_as_xyz
  1  'x, y, z'
loop_
 _atom_site_type_symbol
 _atom_site_label
 _atom_site_symmetry_multiplicity
 _atom_site_fract_x
 _atom_site_fract_y
 _atom_site_fract_z
 _atom_site_occupancy
  Dy  Dy0  1  0.584813  0.000000  0.000000  1
  Ho  Ho1  1  0.999944  0.584894  0.000000  1
  Ho  Ho2  1  0.415049  0.415106  0.000000  1
  Mg  Mg3  1  0.237494  0.000000  0.500000  1
  Mg  Mg4  1  0.000139  0.237625  0.500000  1
  Mg  Mg5  1  0.762514  0.762375  0.500000  1
  Ag  Ag6  1  0.000142  0.000000  0.000000  1
  Sn  Sn7  1  0.333127  0.666350  0.500000  1
  Sn  Sn8  1  0.666778  0.333650  0.500000  1
