# generated using pymatgen
data_Pr2Cd3Ga5Pd2
_symmetry_space_group_name_H-M   'P 1'
_cell_length_a   8.62668628
_cell_length_b   8.62668630
_cell_length_c   6.75164100
_cell_angle_alpha   90.00000000
_cell_angle_beta   90.00000000
_cell_angle_gamma   150.57217663
_symmetry_Int_Tables_number   1
_chemical_formula_structural   Pr2Cd3Ga5Pd2
_chemical_formula_sum   'Pr2 Cd3 Ga5 Pd2'
_cell_volume   246.86969196
_cell_formula_units_Z   1
loop_
 _symmetry_equiv_pos_site_id
 _symmetry_equiv_pos_as_xyz
  1  'x, y, z'
loop_
 _atom_site_type_symbol
 _atom_site_label
 _atom_site_symmetry_multiplicity
 _atom_site_fract_x
 _atom_site_fract_y
 _atom_site_fract_z
 _atom_site_occupancy
  Pr  Pr0  1  0.371330  0.628672  0.250000  1
  Pr  Pr1  1  0.626063  0.373939  0.750000  1
  Cd  Cd2  1  0.997845  0.002155  0.996988  1
  Cd  Cd3  1  0.566839  0.433163  0.250000  1
  Cd  Cd4  1  0.997845  0.002155  0.503012  1
  Ga  Ga5  1  0.183420  0.816583  0.051722  1
  Ga  Ga6  1  0.183420  0.816583  0.448278  1
  Ga  Ga7  1  0.818044  0.181959  0.554242  1
  Ga  Ga8  1  0.430245  0.569757  0.750000  1
  Ga  Ga9  1  0.818044  0.181959  0.945758  1
  Pd  Pd10  1  0.727397  0.272606  0.250000  1
  Pd  Pd11  1  0.279519  0.720484  0.750000  1
