# generated using pymatgen
data_Sr3Eu(GaP)8
_symmetry_space_group_name_H-M   'P 1'
_cell_length_a   3.94443600
_cell_length_b   9.42674057
_cell_length_c   12.22332600
_cell_angle_alpha   95.64144060
_cell_angle_beta   90.00000000
_cell_angle_gamma   90.00000000
_symmetry_Int_Tables_number   1
_chemical_formula_structural   Sr3Eu(GaP)8
_chemical_formula_sum   'Sr3 Eu1 Ga8 P8'
_cell_volume   452.30071501
_cell_formula_units_Z   1
loop_
 _symmetry_equiv_pos_site_id
 _symmetry_equiv_pos_as_xyz
  1  'x, y, z'
loop_
 _atom_site_type_symbol
 _atom_site_label
 _atom_site_symmetry_multiplicity
 _atom_site_fract_x
 _atom_site_fract_y
 _atom_site_fract_z
 _atom_site_occupancy
  Sr  Sr0  1  0.000000  0.195294  0.279905  1
  Sr  Sr1  1  0.000000  0.804706  0.720095  1
  Sr  Sr2  1  0.500000  0.000000  0.000000  1
  Eu  Eu3  1  0.500000  0.500000  0.500000  1
  Ga  Ga4  1  0.500000  0.396272  0.056022  1
  Ga  Ga5  1  0.500000  0.603728  0.943978  1
  Ga  Ga6  1  0.500000  0.886787  0.434395  1
  Ga  Ga7  1  0.500000  0.113213  0.565605  1
  Ga  Ga8  1  0.000000  0.597521  0.279980  1
  Ga  Ga9  1  0.000000  0.402479  0.720020  1
  Ga  Ga10  1  0.000000  0.801656  0.173105  1
  Ga  Ga11  1  0.000000  0.198344  0.826895  1
  P  P12  1  0.500000  0.443659  0.257192  1
  P  P13  1  0.500000  0.556341  0.742808  1
  P  P14  1  0.000000  0.266298  0.536820  1
  P  P15  1  0.000000  0.733702  0.463180  1
  P  P16  1  0.500000  0.942491  0.240747  1
  P  P17  1  0.500000  0.057509  0.759253  1
  P  P18  1  0.000000  0.241991  0.026265  1
  P  P19  1  0.000000  0.758009  0.973735  1
