# generated using pymatgen
data_Na2CuPd3
_symmetry_space_group_name_H-M   'P 1'
_cell_length_a   5.41517428
_cell_length_b   5.24000236
_cell_length_c   5.41517200
_cell_angle_alpha   58.88784070
_cell_angle_beta   59.99998951
_cell_angle_gamma   58.88784436
_symmetry_Int_Tables_number   1
_chemical_formula_structural   Na2CuPd3
_chemical_formula_sum   'Na2 Cu1 Pd3'
_cell_volume   106.79040356
_cell_formula_units_Z   1
loop_
 _symmetry_equiv_pos_site_id
 _symmetry_equiv_pos_as_xyz
  1  'x, y, z'
loop_
 _atom_site_type_symbol
 _atom_site_label
 _atom_site_symmetry_multiplicity
 _atom_site_fract_x
 _atom_site_fract_y
 _atom_site_fract_z
 _atom_site_occupancy
  Na  Na0  1  0.749145  0.752563  0.749145  1
  Na  Na1  1  0.500855  0.497437  0.500855  1
  Cu  Cu2  1  0.125000  0.625000  0.125000  1
  Pd  Pd3  1  0.125000  0.125000  0.625000  1
  Pd  Pd4  1  0.625000  0.125000  0.125000  1
  Pd  Pd5  1  0.125000  0.125000  0.125000  1
