# generated using pymatgen
data_Cs2Sr(SnSe3)2
_symmetry_space_group_name_H-M   'P 1'
_cell_length_a   9.73421629
_cell_length_b   9.73421586
_cell_length_c   9.78141324
_cell_angle_alpha   90.58236703
_cell_angle_beta   90.58237484
_cell_angle_gamma   112.79611027
_symmetry_Int_Tables_number   1
_chemical_formula_structural   Cs2Sr(SnSe3)2
_chemical_formula_sum   'Cs4 Sr2 Sn4 Se12'
_cell_volume   854.29755194
_cell_formula_units_Z   2
loop_
 _symmetry_equiv_pos_site_id
 _symmetry_equiv_pos_as_xyz
  1  'x, y, z'
loop_
 _atom_site_type_symbol
 _atom_site_label
 _atom_site_symmetry_multiplicity
 _atom_site_fract_x
 _atom_site_fract_y
 _atom_site_fract_z
 _atom_site_occupancy
  Cs  Cs0  1  0.263836  0.546358  0.522593  1
  Cs  Cs1  1  0.736164  0.453642  0.477407  1
  Cs  Cs2  1  0.453642  0.736164  0.977407  1
  Cs  Cs3  1  0.546358  0.263836  0.022593  1
  Sr  Sr4  1  0.988032  0.011968  0.250000  1
  Sr  Sr5  1  0.011968  0.988032  0.750000  1
  Sn  Sn6  1  0.975945  0.663289  0.057472  1
  Sn  Sn7  1  0.024055  0.336711  0.942528  1
  Sn  Sn8  1  0.336711  0.024055  0.442528  1
  Sn  Sn9  1  0.663289  0.975945  0.557472  1
  Se  Se10  1  0.675487  0.752845  0.675032  1
  Se  Se11  1  0.909294  0.509846  0.826609  1
  Se  Se12  1  0.247155  0.324513  0.824968  1
  Se  Se13  1  0.509846  0.909294  0.326609  1
  Se  Se14  1  0.324513  0.247155  0.324968  1
  Se  Se15  1  0.920193  0.169919  0.516987  1
  Se  Se16  1  0.830081  0.079807  0.983013  1
  Se  Se17  1  0.169919  0.920193  0.016987  1
  Se  Se18  1  0.090706  0.490154  0.173391  1
  Se  Se19  1  0.490154  0.090706  0.673391  1
  Se  Se20  1  0.079807  0.830081  0.483013  1
  Se  Se21  1  0.752845  0.675487  0.175032  1
