# generated using pymatgen
data_Dy16Hg4OsPt3
_symmetry_space_group_name_H-M   'P 1'
_cell_length_a   9.65928335
_cell_length_b   9.65928211
_cell_length_c   9.65928316
_cell_angle_alpha   59.66640223
_cell_angle_beta   59.66640101
_cell_angle_gamma   59.66639802
_symmetry_Int_Tables_number   1
_chemical_formula_structural   Dy16Hg4OsPt3
_chemical_formula_sum   'Dy16 Hg4 Os1 Pt3'
_cell_volume   632.43441313
_cell_formula_units_Z   1
loop_
 _symmetry_equiv_pos_site_id
 _symmetry_equiv_pos_as_xyz
  1  'x, y, z'
loop_
 _atom_site_type_symbol
 _atom_site_label
 _atom_site_symmetry_multiplicity
 _atom_site_fract_x
 _atom_site_fract_y
 _atom_site_fract_z
 _atom_site_occupancy
  Dy  Dy0  1  0.353388  0.353388  0.353388  1
  Dy  Dy1  1  0.351802  0.351802  0.943057  1
  Dy  Dy2  1  0.351802  0.943057  0.351802  1
  Dy  Dy3  1  0.943057  0.351802  0.351802  1
  Dy  Dy4  1  0.814618  0.189157  0.189157  1
  Dy  Dy5  1  0.188421  0.809147  0.809147  1
  Dy  Dy6  1  0.189157  0.814618  0.189157  1
  Dy  Dy7  1  0.809147  0.188421  0.809147  1
  Dy  Dy8  1  0.189157  0.189157  0.814618  1
  Dy  Dy9  1  0.809147  0.809147  0.188421  1
  Dy  Dy10  1  0.936563  0.564653  0.564653  1
  Dy  Dy11  1  0.557916  0.937926  0.937926  1
  Dy  Dy12  1  0.564653  0.936563  0.564653  1
  Dy  Dy13  1  0.937926  0.557915  0.937926  1
  Dy  Dy14  1  0.564653  0.564653  0.936563  1
  Dy  Dy15  1  0.937926  0.937926  0.557915  1
  Hg  Hg16  1  0.584315  0.584315  0.584315  1
  Hg  Hg17  1  0.585549  0.585549  0.241518  1
  Hg  Hg18  1  0.585549  0.241518  0.585549  1
  Hg  Hg19  1  0.241518  0.585549  0.585549  1
  Os  Os20  1  0.143765  0.143765  0.143765  1
  Pt  Pt21  1  0.144303  0.144303  0.571364  1
  Pt  Pt22  1  0.144303  0.571364  0.144303  1
  Pt  Pt23  1  0.571364  0.144303  0.144303  1
