# generated using pymatgen
data_Er2Al2(Fe5C)3
_symmetry_space_group_name_H-M   'P 1'
_cell_length_a   6.51490553
_cell_length_b   6.51490610
_cell_length_c   6.45495346
_cell_angle_alpha   83.27588188
_cell_angle_beta   83.27588530
_cell_angle_gamma   82.90545062
_symmetry_Int_Tables_number   1
_chemical_formula_structural   Er2Al2(Fe5C)3
_chemical_formula_sum   'Er2 Al2 Fe15 C3'
_cell_volume   268.53829198
_cell_formula_units_Z   1
loop_
 _symmetry_equiv_pos_site_id
 _symmetry_equiv_pos_as_xyz
  1  'x, y, z'
loop_
 _atom_site_type_symbol
 _atom_site_label
 _atom_site_symmetry_multiplicity
 _atom_site_fract_x
 _atom_site_fract_y
 _atom_site_fract_z
 _atom_site_occupancy
  Er  Er0  1  0.657035  0.657035  0.655730  1
  Er  Er1  1  0.342965  0.342965  0.344270  1
  Al  Al2  1  0.500000  0.000000  0.000000  1
  Al  Al3  1  0.000000  0.500000  0.000000  1
  Fe  Fe4  1  0.000000  0.000000  0.500000  1
  Fe  Fe5  1  0.716300  0.283700  0.000000  1
  Fe  Fe6  1  0.998472  0.717031  0.286936  1
  Fe  Fe7  1  0.282969  0.001528  0.713064  1
  Fe  Fe8  1  0.001528  0.282969  0.713064  1
  Fe  Fe9  1  0.717031  0.998472  0.286936  1
  Fe  Fe10  1  0.283700  0.716300  0.000000  1
  Fe  Fe11  1  0.341961  0.853209  0.346709  1
  Fe  Fe12  1  0.347255  0.347255  0.851281  1
  Fe  Fe13  1  0.853209  0.341961  0.346709  1
  Fe  Fe14  1  0.658039  0.146791  0.653291  1
  Fe  Fe15  1  0.652745  0.652745  0.148719  1
  Fe  Fe16  1  0.146791  0.658039  0.653291  1
  Fe  Fe17  1  0.906274  0.906274  0.903506  1
  Fe  Fe18  1  0.093726  0.093726  0.096494  1
  C  C19  1  0.500000  0.500000  0.000000  1
  C  C20  1  0.000000  0.500000  0.500000  1
  C  C21  1  0.500000  0.000000  0.500000  1
