# generated using pymatgen
data_Hf7Cu7PtAu2
_symmetry_space_group_name_H-M   'P 1'
_cell_length_a   7.95982212
_cell_length_b   7.92070899
_cell_length_c   9.50361263
_cell_angle_alpha   90.10446714
_cell_angle_beta   89.61086722
_cell_angle_gamma   107.20432259
_symmetry_Int_Tables_number   1
_chemical_formula_structural   Hf7Cu7PtAu2
_chemical_formula_sum   'Hf14 Cu14 Pt2 Au4'
_cell_volume   572.35557650
_cell_formula_units_Z   2
loop_
 _symmetry_equiv_pos_site_id
 _symmetry_equiv_pos_as_xyz
  1  'x, y, z'
loop_
 _atom_site_type_symbol
 _atom_site_label
 _atom_site_symmetry_multiplicity
 _atom_site_fract_x
 _atom_site_fract_y
 _atom_site_fract_z
 _atom_site_occupancy
  Hf  Hf0  1  0.693442  0.303613  0.000872  1
  Hf  Hf1  1  0.306558  0.696387  0.999128  1
  Hf  Hf2  1  0.809164  0.196011  0.496766  1
  Hf  Hf3  1  0.190836  0.803989  0.503234  1
  Hf  Hf4  1  0.000000  0.000000  0.000000  1
  Hf  Hf5  1  0.500000  0.500000  0.500000  1
  Hf  Hf6  1  0.011511  0.508902  0.250959  1
  Hf  Hf7  1  0.988489  0.491098  0.749041  1
  Hf  Hf8  1  0.496280  0.990852  0.748291  1
  Hf  Hf9  1  0.503720  0.009148  0.251709  1
  Hf  Hf10  1  0.314400  0.314859  0.186260  1
  Hf  Hf11  1  0.685600  0.685141  0.813740  1
  Hf  Hf12  1  0.184689  0.183661  0.689544  1
  Hf  Hf13  1  0.815311  0.816339  0.310456  1
  Cu  Cu14  1  0.638615  0.341063  0.701472  1
  Cu  Cu15  1  0.656709  0.368882  0.298922  1
  Cu  Cu16  1  0.361385  0.658937  0.298528  1
  Cu  Cu17  1  0.343291  0.631118  0.701078  1
  Cu  Cu18  1  0.841449  0.140231  0.797599  1
  Cu  Cu19  1  0.158551  0.859769  0.202401  1
  Cu  Cu20  1  0.945794  0.645459  0.007747  1
  Cu  Cu21  1  0.054206  0.354541  0.992253  1
  Cu  Cu22  1  0.545592  0.848878  0.503557  1
  Cu  Cu23  1  0.150248  0.448499  0.496304  1
  Cu  Cu24  1  0.454408  0.151122  0.496443  1
  Cu  Cu25  1  0.849752  0.551501  0.503696  1
  Cu  Cu26  1  0.354954  0.054737  0.000692  1
  Cu  Cu27  1  0.645046  0.945263  0.999308  1
  Pt  Pt28  1  0.854599  0.154560  0.206014  1
  Pt  Pt29  1  0.145401  0.845440  0.793986  1
  Au  Au30  1  0.123604  0.110771  0.396876  1
  Au  Au31  1  0.876396  0.889229  0.603124  1
  Au  Au32  1  0.389625  0.387733  0.891143  1
  Au  Au33  1  0.610375  0.612267  0.108857  1
