# generated using pymatgen
data_Hf9Th8Sc3Ge16
_symmetry_space_group_name_H-M   'P 1'
_cell_length_a   7.41416240
_cell_length_b   7.50035134
_cell_length_c   14.13862688
_cell_angle_alpha   89.97345592
_cell_angle_beta   90.03043383
_cell_angle_gamma   89.97787653
_symmetry_Int_Tables_number   1
_chemical_formula_structural   Hf9Th8Sc3Ge16
_chemical_formula_sum   'Hf9 Th8 Sc3 Ge16'
_cell_volume   786.23214411
_cell_formula_units_Z   1
loop_
 _symmetry_equiv_pos_site_id
 _symmetry_equiv_pos_as_xyz
  1  'x, y, z'
loop_
 _atom_site_type_symbol
 _atom_site_label
 _atom_site_symmetry_multiplicity
 _atom_site_fract_x
 _atom_site_fract_y
 _atom_site_fract_z
 _atom_site_occupancy
  Hf  Hf0  1  0.173031  0.502263  0.748933  1
  Hf  Hf1  1  0.826151  0.498143  0.250899  1
  Hf  Hf2  1  0.327925  0.001125  0.250414  1
  Hf  Hf3  1  0.673169  0.997470  0.748797  1
  Hf  Hf4  1  0.341564  0.165028  0.624796  1
  Hf  Hf5  1  0.658921  0.835269  0.375766  1
  Hf  Hf6  1  0.158416  0.665684  0.374585  1
  Hf  Hf7  1  0.657741  0.835530  0.124869  1
  Hf  Hf8  1  0.841465  0.335005  0.624977  1
  Th  Th9  1  0.995150  0.174400  0.096446  1
  Th  Th10  1  0.004297  0.824756  0.903637  1
  Th  Th11  1  0.504388  0.675852  0.904155  1
  Th  Th12  1  0.005588  0.826284  0.594557  1
  Th  Th13  1  0.496110  0.324573  0.096350  1
  Th  Th14  1  0.994640  0.173847  0.405053  1
  Th  Th15  1  0.494717  0.326285  0.405130  1
  Th  Th16  1  0.505550  0.673491  0.594541  1
  Sc  Sc17  1  0.342444  0.163881  0.875254  1
  Sc  Sc18  1  0.842947  0.336003  0.875686  1
  Sc  Sc19  1  0.157627  0.664381  0.124585  1
  Ge  Ge20  1  0.179011  0.456371  0.544980  1
  Ge  Ge21  1  0.821305  0.543483  0.454594  1
  Ge  Ge22  1  0.320823  0.956388  0.454707  1
  Ge  Ge23  1  0.817257  0.545115  0.046483  1
  Ge  Ge24  1  0.678893  0.043544  0.545176  1
  Ge  Ge25  1  0.180964  0.456505  0.953839  1
  Ge  Ge26  1  0.681382  0.043651  0.955326  1
  Ge  Ge27  1  0.320897  0.955619  0.046748  1
  Ge  Ge28  1  0.040998  0.133318  0.749303  1
  Ge  Ge29  1  0.956927  0.866646  0.250135  1
  Ge  Ge30  1  0.458684  0.634437  0.250631  1
  Ge  Ge31  1  0.541257  0.366371  0.749054  1
  Ge  Ge32  1  0.309687  0.865514  0.749117  1
  Ge  Ge33  1  0.690408  0.133431  0.250594  1
  Ge  Ge34  1  0.190310  0.365899  0.250592  1
  Ge  Ge35  1  0.809355  0.634439  0.749291  1
