# generated using pymatgen
data_Ba5Gd2MnAl2O13
_symmetry_space_group_name_H-M   'P 1'
_cell_length_a   5.96730500
_cell_length_b   5.96730449
_cell_length_c   24.99678700
_cell_angle_alpha   90.00000000
_cell_angle_beta   90.00000000
_cell_angle_gamma   119.99998619
_symmetry_Int_Tables_number   1
_chemical_formula_structural   Ba5Gd2MnAl2O13
_chemical_formula_sum   'Ba10 Gd4 Mn2 Al4 O26'
_cell_volume   770.85255571
_cell_formula_units_Z   2
loop_
 _symmetry_equiv_pos_site_id
 _symmetry_equiv_pos_as_xyz
  1  'x, y, z'
loop_
 _atom_site_type_symbol
 _atom_site_label
 _atom_site_symmetry_multiplicity
 _atom_site_fract_x
 _atom_site_fract_y
 _atom_site_fract_z
 _atom_site_occupancy
  Ba  Ba0  1  0.333333  0.666667  0.540250  1
  Ba  Ba1  1  0.666667  0.333333  0.459750  1
  Ba  Ba2  1  0.666667  0.333333  0.040250  1
  Ba  Ba3  1  0.333333  0.666667  0.959750  1
  Ba  Ba4  1  0.000000  0.000000  0.134311  1
  Ba  Ba5  1  0.000000  0.000000  0.865689  1
  Ba  Ba6  1  0.000000  0.000000  0.634311  1
  Ba  Ba7  1  0.000000  0.000000  0.365689  1
  Ba  Ba8  1  0.333333  0.666667  0.250000  1
  Ba  Ba9  1  0.666667  0.333333  0.750000  1
  Gd  Gd10  1  0.333333  0.666667  0.100181  1
  Gd  Gd11  1  0.666667  0.333333  0.899819  1
  Gd  Gd12  1  0.666667  0.333333  0.600181  1
  Gd  Gd13  1  0.333333  0.666667  0.399819  1
  Mn  Mn14  1  0.000000  0.000000  0.000000  1
  Mn  Mn15  1  0.000000  0.000000  0.500000  1
  Al  Al16  1  0.333333  0.666667  0.680555  1
  Al  Al17  1  0.666667  0.333333  0.319445  1
  Al  Al18  1  0.666667  0.333333  0.180555  1
  Al  Al19  1  0.333333  0.666667  0.819445  1
  O  O20  1  0.504936  0.009871  0.157336  1
  O  O21  1  0.495064  0.990129  0.842664  1
  O  O22  1  0.990129  0.495064  0.157336  1
  O  O23  1  0.495064  0.990129  0.657336  1
  O  O24  1  0.009871  0.504936  0.842664  1
  O  O25  1  0.504936  0.009871  0.342664  1
  O  O26  1  0.504936  0.495064  0.157336  1
  O  O27  1  0.009871  0.504936  0.657336  1
  O  O28  1  0.495064  0.504936  0.842664  1
  O  O29  1  0.990129  0.495064  0.342664  1
  O  O30  1  0.495064  0.504936  0.657336  1
  O  O31  1  0.504936  0.495064  0.342664  1
  O  O32  1  0.154723  0.309446  0.046286  1
  O  O33  1  0.845277  0.690554  0.953714  1
  O  O34  1  0.690554  0.845277  0.046286  1
  O  O35  1  0.845277  0.690554  0.546286  1
  O  O36  1  0.309446  0.154723  0.953714  1
  O  O37  1  0.154723  0.309446  0.453714  1
  O  O38  1  0.154723  0.845277  0.046286  1
  O  O39  1  0.309446  0.154723  0.546286  1
  O  O40  1  0.845277  0.154723  0.953714  1
  O  O41  1  0.690554  0.845277  0.453714  1
  O  O42  1  0.845277  0.154723  0.546286  1
  O  O43  1  0.154723  0.845277  0.453714  1
  O  O44  1  0.333333  0.666667  0.750000  1
  O  O45  1  0.666667  0.333333  0.250000  1
