# generated using pymatgen
data_Er3Al3ZnCuSi
_symmetry_space_group_name_H-M   'P 1'
_cell_length_a   6.93686300
_cell_length_b   6.93686398
_cell_length_c   4.14993600
_cell_angle_alpha   90.00000000
_cell_angle_beta   90.00000000
_cell_angle_gamma   119.99999056
_symmetry_Int_Tables_number   1
_chemical_formula_structural   Er3Al3ZnCuSi
_chemical_formula_sum   'Er3 Al3 Zn1 Cu1 Si1'
_cell_volume   172.94116026
_cell_formula_units_Z   1
loop_
 _symmetry_equiv_pos_site_id
 _symmetry_equiv_pos_as_xyz
  1  'x, y, z'
loop_
 _atom_site_type_symbol
 _atom_site_label
 _atom_site_symmetry_multiplicity
 _atom_site_fract_x
 _atom_site_fract_y
 _atom_site_fract_z
 _atom_site_occupancy
  Er  Er0  1  0.407171  0.998660  0.000000  1
  Er  Er1  1  0.001340  0.408511  0.000000  1
  Er  Er2  1  0.591489  0.592829  0.000000  1
  Al  Al3  1  0.762531  0.000171  0.499999  1
  Al  Al4  1  0.237640  0.237469  0.499999  1
  Al  Al5  1  0.999829  0.762360  0.499999  1
  Zn  Zn6  1  0.666667  0.333334  0.499999  1
  Cu  Cu7  1  0.000000  0.000000  0.000000  1
  Si  Si8  1  0.333333  0.666666  0.499999  1
