# generated using pymatgen
data_Hf18TiZnCuRe7
_symmetry_space_group_name_H-M   'P 1'
_cell_length_a   8.64563200
_cell_length_b   8.64563118
_cell_length_c   8.51629600
_cell_angle_alpha   90.00000000
_cell_angle_beta   90.00000000
_cell_angle_gamma   120.00000313
_symmetry_Int_Tables_number   1
_chemical_formula_structural   Hf18TiZnCuRe7
_chemical_formula_sum   'Hf18 Ti1 Zn1 Cu1 Re7'
_cell_volume   551.28327451
_cell_formula_units_Z   1
loop_
 _symmetry_equiv_pos_site_id
 _symmetry_equiv_pos_as_xyz
  1  'x, y, z'
loop_
 _atom_site_type_symbol
 _atom_site_label
 _atom_site_symmetry_multiplicity
 _atom_site_fract_x
 _atom_site_fract_y
 _atom_site_fract_z
 _atom_site_occupancy
  Hf  Hf0  1  0.194094  0.805906  0.449681  1
  Hf  Hf1  1  0.194094  0.388188  0.449681  1
  Hf  Hf2  1  0.611812  0.805906  0.449681  1
  Hf  Hf3  1  0.803280  0.196720  0.553406  1
  Hf  Hf4  1  0.803280  0.606559  0.553406  1
  Hf  Hf5  1  0.393441  0.196720  0.553406  1
  Hf  Hf6  1  0.804566  0.195434  0.944644  1
  Hf  Hf7  1  0.804566  0.609133  0.944644  1
  Hf  Hf8  1  0.390867  0.195434  0.944644  1
  Hf  Hf9  1  0.192438  0.807562  0.051478  1
  Hf  Hf10  1  0.192438  0.384877  0.051478  1
  Hf  Hf11  1  0.615123  0.807562  0.051478  1
  Hf  Hf12  1  0.541102  0.458898  0.248488  1
  Hf  Hf13  1  0.541102  0.082204  0.248488  1
  Hf  Hf14  1  0.917796  0.458898  0.248488  1
  Hf  Hf15  1  0.458835  0.541165  0.751777  1
  Hf  Hf16  1  0.458835  0.917671  0.751777  1
  Hf  Hf17  1  0.082329  0.541165  0.751777  1
  Ti  Ti18  1  0.000000  0.000000  0.500124  1
  Zn  Zn19  1  0.333333  0.666667  0.248577  1
  Cu  Cu20  1  0.666667  0.333333  0.751988  1
  Re  Re21  1  0.888412  0.111588  0.251930  1
  Re  Re22  1  0.888412  0.776824  0.251930  1
  Re  Re23  1  0.223176  0.111588  0.251930  1
  Re  Re24  1  0.111489  0.888511  0.748128  1
  Re  Re25  1  0.111489  0.222978  0.748128  1
  Re  Re26  1  0.777022  0.888511  0.748128  1
  Re  Re27  1  0.000000  0.000000  0.000718  1
