# generated using pymatgen
data_YHo2Co8TcP6
_symmetry_space_group_name_H-M   'P 1'
_cell_length_a   3.70142800
_cell_length_b   10.50116100
_cell_length_c   12.19633600
_cell_angle_alpha   90.00000000
_cell_angle_beta   90.00000000
_cell_angle_gamma   90.00000000
_symmetry_Int_Tables_number   1
_chemical_formula_structural   YHo2Co8TcP6
_chemical_formula_sum   'Y2 Ho4 Co16 Tc2 P12'
_cell_volume   474.06293748
_cell_formula_units_Z   2
loop_
 _symmetry_equiv_pos_site_id
 _symmetry_equiv_pos_as_xyz
  1  'x, y, z'
loop_
 _atom_site_type_symbol
 _atom_site_label
 _atom_site_symmetry_multiplicity
 _atom_site_fract_x
 _atom_site_fract_y
 _atom_site_fract_z
 _atom_site_occupancy
  Y  Y0  1  0.000000  0.500000  0.524432  1
  Y  Y1  1  0.500000  0.000000  0.475568  1
  Ho  Ho2  1  0.500000  0.817879  0.205765  1
  Ho  Ho3  1  0.500000  0.182121  0.205765  1
  Ho  Ho4  1  0.000000  0.682121  0.794235  1
  Ho  Ho5  1  0.000000  0.317879  0.794235  1
  Co  Co6  1  0.000000  0.500000  0.987250  1
  Co  Co7  1  0.500000  0.000000  0.012750  1
  Co  Co8  1  0.500000  0.296393  0.431064  1
  Co  Co9  1  0.500000  0.703607  0.431064  1
  Co  Co10  1  0.000000  0.203607  0.568936  1
  Co  Co11  1  0.000000  0.796393  0.568936  1
  Co  Co12  1  0.500000  0.878870  0.707990  1
  Co  Co13  1  0.500000  0.121130  0.707990  1
  Co  Co14  1  0.000000  0.621130  0.292010  1
  Co  Co15  1  0.000000  0.378870  0.292010  1
  Co  Co16  1  0.500000  0.332188  0.989914  1
  Co  Co17  1  0.500000  0.667812  0.989914  1
  Co  Co18  1  0.000000  0.167812  0.010086  1
  Co  Co19  1  0.000000  0.832188  0.010086  1
  Co  Co20  1  0.500000  0.500000  0.703433  1
  Co  Co21  1  0.000000  0.000000  0.296567  1
  Tc  Tc22  1  0.500000  0.500000  0.156562  1
  Tc  Tc23  1  0.000000  0.000000  0.843438  1
  P  P24  1  0.500000  0.311426  0.616581  1
  P  P25  1  0.500000  0.688574  0.616581  1
  P  P26  1  0.000000  0.188574  0.383419  1
  P  P27  1  0.000000  0.811426  0.383419  1
  P  P28  1  0.500000  0.500000  0.881167  1
  P  P29  1  0.000000  0.000000  0.118833  1
  P  P30  1  0.500000  0.846069  0.892655  1
  P  P31  1  0.500000  0.153931  0.892655  1
  P  P32  1  0.000000  0.653931  0.107345  1
  P  P33  1  0.000000  0.346069  0.107345  1
  P  P34  1  0.500000  0.500000  0.348471  1
  P  P35  1  0.000000  0.000000  0.651529  1
