# generated using pymatgen
data_Zr5SiPtRh9
_symmetry_space_group_name_H-M   'P 1'
_cell_length_a   5.61642746
_cell_length_b   5.63646960
_cell_length_c   8.41087000
_cell_angle_alpha   90.00000000
_cell_angle_beta   90.00000000
_cell_angle_gamma   100.00300901
_symmetry_Int_Tables_number   1
_chemical_formula_structural   Zr5SiPtRh9
_chemical_formula_sum   'Zr5 Si1 Pt1 Rh9'
_cell_volume   262.21388198
_cell_formula_units_Z   1
loop_
 _symmetry_equiv_pos_site_id
 _symmetry_equiv_pos_as_xyz
  1  'x, y, z'
loop_
 _atom_site_type_symbol
 _atom_site_label
 _atom_site_symmetry_multiplicity
 _atom_site_fract_x
 _atom_site_fract_y
 _atom_site_fract_z
 _atom_site_occupancy
  Zr  Zr0  1  0.424590  0.427900  0.250000  1
  Zr  Zr1  1  0.794940  0.218002  0.504305  1
  Zr  Zr2  1  0.213604  0.792147  0.994661  1
  Zr  Zr3  1  0.213604  0.792147  0.505339  1
  Zr  Zr4  1  0.794940  0.218002  0.995695  1
  Si  Si5  1  0.538954  0.540349  0.750000  1
  Pt  Pt6  1  0.520801  0.963691  0.250000  1
  Rh  Rh7  1  0.711092  0.710762  0.999199  1
  Rh  Rh8  1  0.711092  0.710762  0.500801  1
  Rh  Rh9  1  0.300290  0.302182  0.956390  1
  Rh  Rh10  1  0.300290  0.302182  0.543610  1
  Rh  Rh11  1  0.505445  0.985933  0.750000  1
  Rh  Rh12  1  0.018497  0.014935  0.250000  1
  Rh  Rh13  1  0.998078  0.999274  0.750000  1
  Rh  Rh14  1  0.984487  0.506418  0.750000  1
  Rh  Rh15  1  0.969298  0.515317  0.250000  1
