# generated using pymatgen
data_Li3Al8RuRh4
_symmetry_space_group_name_H-M   'P 1'
_cell_length_a   5.99742000
_cell_length_b   4.26803600
_cell_length_c   8.59226800
_cell_angle_alpha   90.00000000
_cell_angle_beta   90.00028334
_cell_angle_gamma   90.00000000
_symmetry_Int_Tables_number   1
_chemical_formula_structural   Li3Al8RuRh4
_chemical_formula_sum   'Li3 Al8 Ru1 Rh4'
_cell_volume   219.93804083
_cell_formula_units_Z   1
loop_
 _symmetry_equiv_pos_site_id
 _symmetry_equiv_pos_as_xyz
  1  'x, y, z'
loop_
 _atom_site_type_symbol
 _atom_site_label
 _atom_site_symmetry_multiplicity
 _atom_site_fract_x
 _atom_site_fract_y
 _atom_site_fract_z
 _atom_site_occupancy
  Li  Li0  1  0.750001  0.250000  0.127497  1
  Li  Li1  1  0.250009  0.750000  0.374984  1
  Li  Li2  1  0.749993  0.250000  0.622545  1
  Al  Al3  1  0.495340  0.750000  0.122845  1
  Al  Al4  1  0.004663  0.750000  0.122848  1
  Al  Al5  1  0.493847  0.250000  0.375007  1
  Al  Al6  1  0.006157  0.250000  0.375011  1
  Al  Al7  1  0.004663  0.750000  0.627130  1
  Al  Al8  1  0.495336  0.750000  0.627137  1
  Al  Al9  1  0.007649  0.250000  0.875006  1
  Al  Al10  1  0.492354  0.250000  0.875012  1
  Ru  Ru11  1  0.250003  0.750000  0.874995  1
  Rh  Rh12  1  0.249992  0.250000  0.127246  1
  Rh  Rh13  1  0.749995  0.750000  0.374996  1
  Rh  Rh14  1  0.250001  0.250000  0.622755  1
  Rh  Rh15  1  0.749993  0.750000  0.874990  1
