# generated using pymatgen
data_Hf10AlZnSb4
_symmetry_space_group_name_H-M   'P 1'
_cell_length_a   5.53370998
_cell_length_b   8.26645142
_cell_length_c   8.26645172
_cell_angle_alpha   83.53878614
_cell_angle_beta   70.41288361
_cell_angle_gamma   70.41286475
_symmetry_Int_Tables_number   1
_chemical_formula_structural   Hf10AlZnSb4
_chemical_formula_sum   'Hf10 Al1 Zn1 Sb4'
_cell_volume   335.64400207
_cell_formula_units_Z   1
loop_
 _symmetry_equiv_pos_site_id
 _symmetry_equiv_pos_as_xyz
  1  'x, y, z'
loop_
 _atom_site_type_symbol
 _atom_site_label
 _atom_site_symmetry_multiplicity
 _atom_site_fract_x
 _atom_site_fract_y
 _atom_site_fract_z
 _atom_site_occupancy
  Hf  Hf0  1  0.075824  0.139606  0.709995  1
  Hf  Hf1  1  0.925013  0.860387  0.289939  1
  Hf  Hf2  1  0.785473  0.289934  0.139573  1
  Hf  Hf3  1  0.424176  0.290005  0.860394  1
  Hf  Hf4  1  0.215207  0.710121  0.860463  1
  Hf  Hf5  1  0.574987  0.710061  0.139613  1
  Hf  Hf6  1  0.714527  0.860427  0.710066  1
  Hf  Hf7  1  0.284793  0.139537  0.289879  1
  Hf  Hf8  1  0.250000  0.499921  0.500079  1
  Hf  Hf9  1  0.750000  0.500017  0.499983  1
  Al  Al10  1  0.250000  0.000070  0.999930  1
  Zn  Zn11  1  0.750000  0.999955  0.000045  1
  Sb  Sb12  1  0.164472  0.499989  0.171136  1
  Sb  Sb13  1  0.835574  0.499975  0.828869  1
  Sb  Sb14  1  0.335528  0.828864  0.500011  1
  Sb  Sb15  1  0.664426  0.171131  0.500025  1
