# generated using pymatgen
data_Dy12Re7Si16Mo
_symmetry_space_group_name_H-M   'P 1'
_cell_length_a   10.58993438
_cell_length_b   10.58813626
_cell_length_c   14.34890800
_cell_angle_alpha   54.99969919
_cell_angle_beta   55.00685442
_cell_angle_gamma   30.67076055
_symmetry_Int_Tables_number   1
_chemical_formula_structural   Dy12Re7Si16Mo
_chemical_formula_sum   'Dy12 Re7 Si16 Mo1'
_cell_volume   659.80623641
_cell_formula_units_Z   1
loop_
 _symmetry_equiv_pos_site_id
 _symmetry_equiv_pos_as_xyz
  1  'x, y, z'
loop_
 _atom_site_type_symbol
 _atom_site_label
 _atom_site_symmetry_multiplicity
 _atom_site_fract_x
 _atom_site_fract_y
 _atom_site_fract_z
 _atom_site_occupancy
  Dy  Dy0  1  0.752168  0.486342  0.049825  1
  Dy  Dy1  1  0.541186  0.305350  0.152444  1
  Dy  Dy2  1  0.514153  0.248013  0.450800  1
  Dy  Dy3  1  0.459367  0.693155  0.848172  1
  Dy  Dy4  1  0.292275  0.042258  0.137909  1
  Dy  Dy5  1  0.958045  0.709494  0.361595  1
  Dy  Dy6  1  0.707676  0.959044  0.860153  1
  Dy  Dy7  1  0.039882  0.292617  0.640537  1
  Dy  Dy8  1  0.246681  0.514682  0.949918  1
  Dy  Dy9  1  0.483717  0.755416  0.548928  1
  Dy  Dy10  1  0.308391  0.538206  0.652403  1
  Dy  Dy11  1  0.692148  0.462168  0.346647  1
  Re  Re12  1  0.830897  0.640181  0.781541  1
  Re  Re13  1  0.357893  0.169823  0.718787  1
  Re  Re14  1  0.166705  0.359620  0.220383  1
  Re  Re15  1  0.138887  0.912081  0.078540  1
  Re  Re16  1  0.084645  0.863252  0.422747  1
  Re  Re17  1  0.860416  0.091687  0.919800  1
  Re  Re18  1  0.909799  0.137318  0.579018  1
  Si  Si19  1  0.907432  0.093811  0.249772  1
  Si  Si20  1  0.092948  0.906419  0.749731  1
  Si  Si21  1  0.341203  0.659257  0.250277  1
  Si  Si22  1  0.658066  0.341897  0.749276  1
  Si  Si23  1  0.996043  0.230392  0.880118  1
  Si  Si24  1  0.769881  0.000580  0.621823  1
  Si  Si25  1  0.006392  0.769886  0.119423  1
  Si  Si26  1  0.229360  0.995747  0.379340  1
  Si  Si27  1  0.611494  0.044781  0.073343  1
  Si  Si28  1  0.959024  0.384606  0.427230  1
  Si  Si29  1  0.392511  0.953546  0.923891  1
  Si  Si30  1  0.045707  0.607699  0.576431  1
  Si  Si31  1  0.380631  0.164984  0.378493  1
  Si  Si32  1  0.839048  0.616918  0.120679  1
  Si  Si33  1  0.617574  0.837676  0.622583  1
  Si  Si34  1  0.162411  0.381679  0.877682  1
  Mo  Mo35  1  0.645340  0.829414  0.279764  1
