# generated using pymatgen
data_La9DyGa6
_symmetry_space_group_name_H-M   'P 1'
_cell_length_a   7.94434100
_cell_length_b   7.94434100
_cell_length_c   15.07947300
_cell_angle_alpha   90.00000000
_cell_angle_beta   90.00000000
_cell_angle_gamma   90.00000000
_symmetry_Int_Tables_number   1
_chemical_formula_structural   La9DyGa6
_chemical_formula_sum   'La18 Dy2 Ga12'
_cell_volume   951.70405286
_cell_formula_units_Z   2
loop_
 _symmetry_equiv_pos_site_id
 _symmetry_equiv_pos_as_xyz
  1  'x, y, z'
loop_
 _atom_site_type_symbol
 _atom_site_label
 _atom_site_symmetry_multiplicity
 _atom_site_fract_x
 _atom_site_fract_y
 _atom_site_fract_z
 _atom_site_occupancy
  La  La0  1  0.499999  0.000000  0.207511  1
  La  La1  1  0.183992  0.837270  0.895020  1
  La  La2  1  0.000000  0.499999  0.292489  1
  La  La3  1  0.816009  0.162731  0.895020  1
  La  La4  1  0.316008  0.337271  0.604979  1
  La  La5  1  0.162731  0.816009  0.604979  1
  La  La6  1  0.683992  0.662730  0.604979  1
  La  La7  1  0.837270  0.183992  0.604979  1
  La  La8  1  0.662730  0.683992  0.895020  1
  La  La9  1  0.337271  0.316008  0.895020  1
  La  La10  1  0.312605  0.659507  0.102427  1
  La  La11  1  0.687395  0.340494  0.102427  1
  La  La12  1  0.187395  0.159508  0.397573  1
  La  La13  1  0.812606  0.840493  0.397573  1
  La  La14  1  0.340494  0.687395  0.397573  1
  La  La15  1  0.659507  0.312605  0.397573  1
  La  La16  1  0.840493  0.812606  0.102427  1
  La  La17  1  0.159508  0.187395  0.102427  1
  Dy  Dy18  1  0.000000  0.499999  0.775353  1
  Dy  Dy19  1  0.499999  0.000000  0.724647  1
  Ga  Ga20  1  0.000000  0.499999  0.981321  1
  Ga  Ga21  1  0.499999  0.000000  0.518680  1
  Ga  Ga22  1  0.379124  0.620875  0.750000  1
  Ga  Ga23  1  0.620875  0.379124  0.750000  1
  Ga  Ga24  1  0.879125  0.879125  0.750000  1
  Ga  Ga25  1  0.120876  0.120876  0.750000  1
  Ga  Ga26  1  0.118061  0.881940  0.250000  1
  Ga  Ga27  1  0.881940  0.118061  0.250000  1
  Ga  Ga28  1  0.618060  0.618060  0.250000  1
  Ga  Ga29  1  0.381939  0.381939  0.250000  1
  Ga  Ga30  1  0.000000  0.499999  0.498304  1
  Ga  Ga31  1  0.499999  0.000000  0.001695  1
