# generated using pymatgen
data_Ti3ZnGa2(Co5B2)2
_symmetry_space_group_name_H-M   'P 1'
_cell_length_a   8.49339906
_cell_length_b   8.49339906
_cell_length_c   2.94716500
_cell_angle_alpha   90.00000000
_cell_angle_beta   90.00000000
_cell_angle_gamma   90.36487387
_symmetry_Int_Tables_number   1
_chemical_formula_structural   Ti3ZnGa2(Co5B2)2
_chemical_formula_sum   'Ti3 Zn1 Ga2 Co10 B4'
_cell_volume   212.59776946
_cell_formula_units_Z   1
loop_
 _symmetry_equiv_pos_site_id
 _symmetry_equiv_pos_as_xyz
  1  'x, y, z'
loop_
 _atom_site_type_symbol
 _atom_site_label
 _atom_site_symmetry_multiplicity
 _atom_site_fract_x
 _atom_site_fract_y
 _atom_site_fract_z
 _atom_site_occupancy
  Ti  Ti0  1  0.325479  0.177093  0.000000  1
  Ti  Ti1  1  0.677093  0.825479  0.000000  1
  Ti  Ti2  1  0.172922  0.672922  0.000000  1
  Zn  Zn3  1  0.822691  0.322691  0.000000  1
  Ga  Ga4  1  0.001472  0.998519  0.000000  1
  Ga  Ga5  1  0.498519  0.501472  0.000000  1
  Co  Co6  1  0.499647  0.999647  0.500000  1
  Co  Co7  1  0.000190  0.500190  0.500000  1
  Co  Co8  1  0.076140  0.218578  0.500000  1
  Co  Co9  1  0.220275  0.928414  0.500000  1
  Co  Co10  1  0.779155  0.065834  0.500000  1
  Co  Co11  1  0.930774  0.780297  0.500000  1
  Co  Co12  1  0.428414  0.720275  0.500000  1
  Co  Co13  1  0.565834  0.279155  0.500000  1
  Co  Co14  1  0.718578  0.576140  0.500000  1
  Co  Co15  1  0.280297  0.430774  0.500000  1
  B  B16  1  0.622416  0.122416  0.000000  1
  B  B17  1  0.122900  0.378959  0.000000  1
  B  B18  1  0.878959  0.622900  0.000000  1
  B  B19  1  0.378247  0.878247  0.000000  1
