# generated using pymatgen
data_SrMn(Sb4Rh)3
_symmetry_space_group_name_H-M   'P 1'
_cell_length_a   8.12664277
_cell_length_b   8.12664126
_cell_length_c   8.12664159
_cell_angle_alpha   109.46071129
_cell_angle_beta   109.46071549
_cell_angle_gamma   109.46070812
_symmetry_Int_Tables_number   1
_chemical_formula_structural   SrMn(Sb4Rh)3
_chemical_formula_sum   'Sr1 Mn1 Sb12 Rh3'
_cell_volume   413.31420971
_cell_formula_units_Z   1
loop_
 _symmetry_equiv_pos_site_id
 _symmetry_equiv_pos_as_xyz
  1  'x, y, z'
loop_
 _atom_site_type_symbol
 _atom_site_label
 _atom_site_symmetry_multiplicity
 _atom_site_fract_x
 _atom_site_fract_y
 _atom_site_fract_z
 _atom_site_occupancy
  Sr  Sr0  1  0.000000  0.000000  0.000000  1
  Mn  Mn1  1  0.500000  0.500000  0.500000  1
  Sb  Sb2  1  0.167483  0.498020  0.344778  1
  Sb  Sb3  1  0.501980  0.655222  0.832517  1
  Sb  Sb4  1  0.343453  0.843878  0.186769  1
  Sb  Sb5  1  0.813231  0.656547  0.156122  1
  Sb  Sb6  1  0.655222  0.832517  0.501980  1
  Sb  Sb7  1  0.186769  0.343453  0.843878  1
  Sb  Sb8  1  0.656547  0.156122  0.813231  1
  Sb  Sb9  1  0.344778  0.167483  0.498020  1
  Sb  Sb10  1  0.498020  0.344778  0.167483  1
  Sb  Sb11  1  0.832517  0.501980  0.655222  1
  Sb  Sb12  1  0.843878  0.186769  0.343453  1
  Sb  Sb13  1  0.156122  0.813231  0.656547  1
  Rh  Rh14  1  0.500000  0.000000  0.000000  1
  Rh  Rh15  1  0.000000  0.500000  0.000000  1
  Rh  Rh16  1  0.000000  0.000000  0.500000  1
