# generated using pymatgen
data_V2CdF12
_symmetry_space_group_name_H-M   'P 1'
_cell_length_a   9.76404944
_cell_length_b   9.76404894
_cell_length_c   9.76404892
_cell_angle_alpha   131.45441410
_cell_angle_beta   131.45441369
_cell_angle_gamma   71.09209815
_symmetry_Int_Tables_number   1
_chemical_formula_structural   V2CdF12
_chemical_formula_sum   'V4 Cd2 F24'
_cell_volume   511.96778749
_cell_formula_units_Z   2
loop_
 _symmetry_equiv_pos_site_id
 _symmetry_equiv_pos_as_xyz
  1  'x, y, z'
loop_
 _atom_site_type_symbol
 _atom_site_label
 _atom_site_symmetry_multiplicity
 _atom_site_fract_x
 _atom_site_fract_y
 _atom_site_fract_z
 _atom_site_occupancy
  V  V0  1  0.779010  0.779010  0.000000  1
  V  V1  1  0.220990  0.220990  0.000000  1
  V  V2  1  0.970990  0.470990  0.500000  1
  V  V3  1  0.529010  0.029010  0.500000  1
  Cd  Cd4  1  0.750000  0.250000  0.500000  1
  Cd  Cd5  1  0.000000  0.000000  0.000000  1
  F  F6  1  0.867497  0.745040  0.199380  1
  F  F7  1  0.545659  0.668117  0.800620  1
  F  F8  1  0.418117  0.795659  0.300620  1
  F  F9  1  0.331883  0.132503  0.877543  1
  F  F10  1  0.254960  0.454341  0.122457  1
  F  F11  1  0.204341  0.504960  0.622457  1
  F  F12  1  0.651190  0.265208  0.680182  1
  F  F13  1  0.734792  0.414974  0.385982  1
  F  F14  1  0.028993  0.348810  0.614018  1
  F  F15  1  0.098810  0.278993  0.114018  1
  F  F16  1  0.164974  0.984792  0.885982  1
  F  F17  1  0.585026  0.971007  0.319818  1
  F  F18  1  0.721007  0.835026  0.819818  1
  F  F19  1  0.015208  0.901190  0.180182  1
  F  F20  1  0.307928  0.084584  0.329569  1
  F  F21  1  0.915416  0.244985  0.223344  1
  F  F22  1  0.021641  0.692072  0.776656  1
  F  F23  1  0.442072  0.271641  0.276656  1
  F  F24  1  0.994985  0.165416  0.723344  1
  F  F25  1  0.755015  0.978359  0.670431  1
  F  F26  1  0.728359  0.005015  0.170431  1
  F  F27  1  0.834584  0.557928  0.829569  1
  F  F28  1  0.495040  0.117497  0.699380  1
  F  F29  1  0.882503  0.581883  0.377543  1
