# generated using pymatgen
data_Li4P4OsPt3
_symmetry_space_group_name_H-M   'P 1'
_cell_length_a   3.91402900
_cell_length_b   6.52210701
_cell_length_c   6.89900196
_cell_angle_alpha   89.74605386
_cell_angle_beta   90.00000000
_cell_angle_gamma   90.00000000
_symmetry_Int_Tables_number   1
_chemical_formula_structural   Li4P4OsPt3
_chemical_formula_sum   'Li4 P4 Os1 Pt3'
_cell_volume   176.11403259
_cell_formula_units_Z   1
loop_
 _symmetry_equiv_pos_site_id
 _symmetry_equiv_pos_as_xyz
  1  'x, y, z'
loop_
 _atom_site_type_symbol
 _atom_site_label
 _atom_site_symmetry_multiplicity
 _atom_site_fract_x
 _atom_site_fract_y
 _atom_site_fract_z
 _atom_site_occupancy
  Li  Li0  1  0.250000  0.019651  0.829652  1
  Li  Li1  1  0.250000  0.517802  0.663088  1
  Li  Li2  1  0.750000  0.974699  0.167139  1
  Li  Li3  1  0.750000  0.475503  0.338312  1
  P  P4  1  0.250000  0.786998  0.372563  1
  P  P5  1  0.250000  0.280627  0.114452  1
  P  P6  1  0.750000  0.219064  0.643024  1
  P  P7  1  0.750000  0.707188  0.871206  1
  Os  Os8  1  0.750000  0.356096  0.945704  1
  Pt  Pt9  1  0.250000  0.159266  0.440362  1
  Pt  Pt10  1  0.250000  0.656199  0.057288  1
  Pt  Pt11  1  0.750000  0.846909  0.557209  1
