# generated using pymatgen
data_Yb2LuNpH11
_symmetry_space_group_name_H-M   'P 1'
_cell_length_a   6.35195296
_cell_length_b   6.35195387
_cell_length_c   6.35195400
_cell_angle_alpha   130.18851656
_cell_angle_beta   132.96273315
_cell_angle_gamma   70.92368958
_symmetry_Int_Tables_number   1
_chemical_formula_structural   Yb2LuNpH11
_chemical_formula_sum   'Yb2 Lu1 Np1 H11'
_cell_volume   140.31731800
_cell_formula_units_Z   1
loop_
 _symmetry_equiv_pos_site_id
 _symmetry_equiv_pos_as_xyz
  1  'x, y, z'
loop_
 _atom_site_type_symbol
 _atom_site_label
 _atom_site_symmetry_multiplicity
 _atom_site_fract_x
 _atom_site_fract_y
 _atom_site_fract_z
 _atom_site_occupancy
  Yb  Yb0  1  0.259612  0.259612  0.000000  1
  Yb  Yb1  1  0.740388  0.740388  0.000000  1
  Lu  Lu2  1  0.500000  0.000000  0.500000  1
  Np  Np3  1  0.000000  0.500000  0.500000  1
  H  H4  1  0.654425  0.120324  0.997462  1
  H  H5  1  0.345575  0.343036  0.465897  1
  H  H6  1  0.122861  0.656964  0.002538  1
  H  H7  1  0.877139  0.879676  0.534103  1
  H  H8  1  0.877139  0.343036  0.997462  1
  H  H9  1  0.654425  0.656964  0.534103  1
  H  H10  1  0.345575  0.879676  0.002538  1
  H  H11  1  0.122861  0.120324  0.465897  1
  H  H12  1  0.775645  0.275645  0.500000  1
  H  H13  1  0.500000  0.500000  0.000000  1
  H  H14  1  0.224355  0.724355  0.500000  1
