# generated using pymatgen
data_PrEu(AsPd)2
_symmetry_space_group_name_H-M   'P 1'
_cell_length_a   4.36396100
_cell_length_b   4.36395931
_cell_length_c   8.21546600
_cell_angle_alpha   90.00000000
_cell_angle_beta   90.00000000
_cell_angle_gamma   119.99999008
_symmetry_Int_Tables_number   1
_chemical_formula_structural   PrEu(AsPd)2
_chemical_formula_sum   'Pr1 Eu1 As2 Pd2'
_cell_volume   135.49536239
_cell_formula_units_Z   1
loop_
 _symmetry_equiv_pos_site_id
 _symmetry_equiv_pos_as_xyz
  1  'x, y, z'
loop_
 _atom_site_type_symbol
 _atom_site_label
 _atom_site_symmetry_multiplicity
 _atom_site_fract_x
 _atom_site_fract_y
 _atom_site_fract_z
 _atom_site_occupancy
  Pr  Pr0  1  0.000000  0.000000  0.500000  1
  Eu  Eu1  1  0.000000  0.000000  0.000000  1
  As  As2  1  0.333333  0.666667  0.746061  1
  As  As3  1  0.666667  0.333333  0.253939  1
  Pd  Pd4  1  0.333333  0.666667  0.253467  1
  Pd  Pd5  1  0.666667  0.333333  0.746533  1
