# generated using pymatgen
data_DyAl3Au
_symmetry_space_group_name_H-M   'P 1'
_cell_length_a   4.18551252
_cell_length_b   4.18551313
_cell_length_c   6.34624247
_cell_angle_alpha   70.74561322
_cell_angle_beta   70.74561499
_cell_angle_gamma   89.99999554
_symmetry_Int_Tables_number   1
_chemical_formula_structural   DyAl3Au
_chemical_formula_sum   'Dy1 Al3 Au1'
_cell_volume   98.34669212
_cell_formula_units_Z   1
loop_
 _symmetry_equiv_pos_site_id
 _symmetry_equiv_pos_as_xyz
  1  'x, y, z'
loop_
 _atom_site_type_symbol
 _atom_site_label
 _atom_site_symmetry_multiplicity
 _atom_site_fract_x
 _atom_site_fract_y
 _atom_site_fract_z
 _atom_site_occupancy
  Dy  Dy0  1  0.988811  0.988811  0.022378  1
  Al  Al1  1  0.749362  0.249362  0.501276  1
  Al  Al2  1  0.249362  0.749362  0.501276  1
  Al  Al3  1  0.396359  0.396359  0.207283  1
  Au  Au4  1  0.616106  0.616106  0.767788  1
