# generated using pymatgen
data_Be2Nb5B4
_symmetry_space_group_name_H-M   'P 1'
_cell_length_a   3.32665200
_cell_length_b   11.83413137
_cell_length_c   11.83413145
_cell_angle_alpha   164.28643439
_cell_angle_beta   90.00000000
_cell_angle_gamma   90.00000000
_symmetry_Int_Tables_number   1
_chemical_formula_structural   Be2Nb5B4
_chemical_formula_sum   'Be2 Nb5 B4'
_cell_volume   126.17528727
_cell_formula_units_Z   1
loop_
 _symmetry_equiv_pos_site_id
 _symmetry_equiv_pos_as_xyz
  1  'x, y, z'
loop_
 _atom_site_type_symbol
 _atom_site_label
 _atom_site_symmetry_multiplicity
 _atom_site_fract_x
 _atom_site_fract_y
 _atom_site_fract_z
 _atom_site_occupancy
  Be  Be0  1  0.499999  0.916731  0.083265  1
  Be  Be1  1  0.499999  0.540510  0.459486  1
  Nb  Nb2  1  0.000000  0.000019  0.999981  1
  Nb  Nb3  1  0.499999  0.803682  0.196315  1
  Nb  Nb4  1  0.000000  0.616852  0.383145  1
  Nb  Nb5  1  0.000000  0.383316  0.616681  1
  Nb  Nb6  1  0.499999  0.194853  0.805144  1
  B  B7  1  0.000000  0.727740  0.272257  1
  B  B8  1  0.499999  0.459510  0.540486  1
  B  B9  1  0.000000  0.271257  0.728740  1
  B  B10  1  0.499999  0.085514  0.914482  1
