# generated using pymatgen
data_Ho5In4CoPd
_symmetry_space_group_name_H-M   'P 1'
_cell_length_a   3.57549200
_cell_length_b   8.07716296
_cell_length_c   18.10048326
_cell_angle_alpha   90.16052643
_cell_angle_beta   90.00000000
_cell_angle_gamma   90.00000000
_symmetry_Int_Tables_number   1
_chemical_formula_structural   Ho5In4CoPd
_chemical_formula_sum   'Ho10 In8 Co2 Pd2'
_cell_volume   522.73685564
_cell_formula_units_Z   2
loop_
 _symmetry_equiv_pos_site_id
 _symmetry_equiv_pos_as_xyz
  1  'x, y, z'
loop_
 _atom_site_type_symbol
 _atom_site_label
 _atom_site_symmetry_multiplicity
 _atom_site_fract_x
 _atom_site_fract_y
 _atom_site_fract_z
 _atom_site_occupancy
  Ho  Ho0  1  0.000000  0.500000  0.500000  1
  Ho  Ho1  1  0.000000  0.000000  0.000000  1
  Ho  Ho2  1  0.000000  0.725062  0.275672  1
  Ho  Ho3  1  0.000000  0.274938  0.724328  1
  Ho  Ho4  1  0.000000  0.741435  0.780991  1
  Ho  Ho5  1  0.000000  0.258565  0.219009  1
  Ho  Ho6  1  0.000000  0.611267  0.088967  1
  Ho  Ho7  1  0.000000  0.388733  0.911033  1
  Ho  Ho8  1  0.000000  0.882885  0.584754  1
  Ho  Ho9  1  0.000000  0.117115  0.415246  1
  In  In10  1  0.500000  0.707461  0.931285  1
  In  In11  1  0.500000  0.292539  0.068715  1
  In  In12  1  0.500000  0.789788  0.430870  1
  In  In13  1  0.500000  0.210212  0.569130  1
  In  In14  1  0.500000  0.576126  0.651393  1
  In  In15  1  0.500000  0.423874  0.348607  1
  In  In16  1  0.500000  0.921146  0.149405  1
  In  In17  1  0.500000  0.078854  0.850595  1
  Co  Co18  1  0.500000  0.517743  0.194417  1
  Co  Co19  1  0.500000  0.482257  0.805583  1
  Pd  Pd20  1  0.500000  0.979542  0.697048  1
  Pd  Pd21  1  0.500000  0.020458  0.302952  1
