# generated using pymatgen
data_Lu2Sc3(GaSi)2
_symmetry_space_group_name_H-M   'P 1'
_cell_length_a   7.11946900
_cell_length_b   7.34899700
_cell_length_c   14.20379600
_cell_angle_alpha   90.00000000
_cell_angle_beta   90.00000000
_cell_angle_gamma   90.00000000
_symmetry_Int_Tables_number   1
_chemical_formula_structural   Lu2Sc3(GaSi)2
_chemical_formula_sum   'Lu8 Sc12 Ga8 Si8'
_cell_volume   743.15619013
_cell_formula_units_Z   4
loop_
 _symmetry_equiv_pos_site_id
 _symmetry_equiv_pos_as_xyz
  1  'x, y, z'
loop_
 _atom_site_type_symbol
 _atom_site_label
 _atom_site_symmetry_multiplicity
 _atom_site_fract_x
 _atom_site_fract_y
 _atom_site_fract_z
 _atom_site_occupancy
  Lu  Lu0  1  0.010587  0.176402  0.099543  1
  Lu  Lu1  1  0.989413  0.823598  0.900457  1
  Lu  Lu2  1  0.489413  0.676402  0.900457  1
  Lu  Lu3  1  0.989413  0.823598  0.599543  1
  Lu  Lu4  1  0.510587  0.323598  0.099543  1
  Lu  Lu5  1  0.010587  0.176402  0.400457  1
  Lu  Lu6  1  0.510587  0.323598  0.400457  1
  Lu  Lu7  1  0.489413  0.676402  0.599543  1
  Sc  Sc8  1  0.164257  0.503399  0.750000  1
  Sc  Sc9  1  0.835743  0.496601  0.250000  1
  Sc  Sc10  1  0.335743  0.003399  0.250000  1
  Sc  Sc11  1  0.664257  0.996601  0.750000  1
  Sc  Sc12  1  0.330452  0.173997  0.625325  1
  Sc  Sc13  1  0.669548  0.826003  0.374675  1
  Sc  Sc14  1  0.169548  0.673997  0.374675  1
  Sc  Sc15  1  0.669548  0.826003  0.125325  1
  Sc  Sc16  1  0.830452  0.326003  0.625325  1
  Sc  Sc17  1  0.330452  0.173997  0.874675  1
  Sc  Sc18  1  0.830452  0.326003  0.874675  1
  Sc  Sc19  1  0.169548  0.673997  0.125325  1
  Ga  Ga20  1  0.161799  0.464172  0.539806  1
  Ga  Ga21  1  0.838201  0.535828  0.460194  1
  Ga  Ga22  1  0.338201  0.964172  0.460194  1
  Ga  Ga23  1  0.838201  0.535828  0.039806  1
  Ga  Ga24  1  0.661799  0.035828  0.539806  1
  Ga  Ga25  1  0.161799  0.464172  0.960194  1
  Ga  Ga26  1  0.661799  0.035828  0.960194  1
  Ga  Ga27  1  0.338201  0.964172  0.039806  1
  Si  Si28  1  0.032553  0.112559  0.750000  1
  Si  Si29  1  0.967447  0.887441  0.250000  1
  Si  Si30  1  0.467447  0.612559  0.250000  1
  Si  Si31  1  0.532553  0.387441  0.750000  1
  Si  Si32  1  0.283855  0.872807  0.750000  1
  Si  Si33  1  0.716145  0.127193  0.250000  1
  Si  Si34  1  0.216145  0.372807  0.250000  1
  Si  Si35  1  0.783855  0.627193  0.750000  1
