# generated using pymatgen
data_Tb3Y7GaBi5
_symmetry_space_group_name_H-M   'P 1'
_cell_length_a   9.10636530
_cell_length_b   9.10491894
_cell_length_c   6.43827101
_cell_angle_alpha   90.00668234
_cell_angle_beta   89.99877024
_cell_angle_gamma   119.74957571
_symmetry_Int_Tables_number   1
_chemical_formula_structural   Tb3Y7GaBi5
_chemical_formula_sum   'Tb3 Y7 Ga1 Bi5'
_cell_volume   463.45911581
_cell_formula_units_Z   1
loop_
 _symmetry_equiv_pos_site_id
 _symmetry_equiv_pos_as_xyz
  1  'x, y, z'
loop_
 _atom_site_type_symbol
 _atom_site_label
 _atom_site_symmetry_multiplicity
 _atom_site_fract_x
 _atom_site_fract_y
 _atom_site_fract_z
 _atom_site_occupancy
  Tb  Tb0  1  0.335668  0.657627  0.996614  1
  Tb  Tb1  1  0.335690  0.657598  0.503403  1
  Tb  Tb2  1  0.657522  0.335714  0.503458  1
  Y  Y3  1  0.657636  0.335659  0.996584  1
  Y  Y4  1  0.749234  0.749250  0.750007  1
  Y  Y5  1  0.244913  0.014529  0.750012  1
  Y  Y6  1  0.014568  0.244944  0.750030  1
  Y  Y7  1  0.242379  0.242380  0.249941  1
  Y  Y8  1  0.758619  0.000675  0.249962  1
  Y  Y9  1  0.000792  0.758660  0.250013  1
  Ga  Ga10  1  0.392956  0.392821  0.750048  1
  Bi  Bi11  1  0.612253  0.002890  0.750066  1
  Bi  Bi12  1  0.002637  0.612122  0.750060  1
  Bi  Bi13  1  0.609657  0.609487  0.249896  1
  Bi  Bi14  1  0.390330  0.995456  0.249943  1
  Bi  Bi15  1  0.995145  0.390191  0.249964  1
