# generated using pymatgen
data_Dy5Lu(Si3Ru)8
_symmetry_space_group_name_H-M   'P 1'
_cell_length_a   10.09888253
_cell_length_b   10.09888294
_cell_length_c   8.13695465
_cell_angle_alpha   90.03725020
_cell_angle_beta   90.03724970
_cell_angle_gamma   132.50676740
_symmetry_Int_Tables_number   1
_chemical_formula_structural   Dy5Lu(Si3Ru)8
_chemical_formula_sum   'Dy5 Lu1 Si24 Ru8'
_cell_volume   611.77519372
_cell_formula_units_Z   1
loop_
 _symmetry_equiv_pos_site_id
 _symmetry_equiv_pos_as_xyz
  1  'x, y, z'
loop_
 _atom_site_type_symbol
 _atom_site_label
 _atom_site_symmetry_multiplicity
 _atom_site_fract_x
 _atom_site_fract_y
 _atom_site_fract_z
 _atom_site_occupancy
  Dy  Dy0  1  0.000000  0.000000  0.000000  1
  Dy  Dy1  1  0.502585  0.002311  0.749433  1
  Dy  Dy2  1  0.997689  0.497415  0.250567  1
  Dy  Dy3  1  0.497415  0.997689  0.250567  1
  Dy  Dy4  1  0.002311  0.502585  0.749433  1
  Lu  Lu5  1  0.500000  0.500000  0.500000  1
  Si  Si6  1  0.794368  0.205632  0.500000  1
  Si  Si7  1  0.294891  0.705109  0.000000  1
  Si  Si8  1  0.205632  0.794368  0.500000  1
  Si  Si9  1  0.705109  0.294891  0.000000  1
  Si  Si10  1  0.331870  0.331870  0.833554  1
  Si  Si11  1  0.668130  0.668130  0.166446  1
  Si  Si12  1  0.166912  0.166912  0.332851  1
  Si  Si13  1  0.833088  0.833088  0.667149  1
  Si  Si14  1  0.121787  0.887165  0.728131  1
  Si  Si15  1  0.112835  0.878213  0.271869  1
  Si  Si16  1  0.610983  0.376846  0.228986  1
  Si  Si17  1  0.623154  0.389017  0.771014  1
  Si  Si18  1  0.878213  0.112835  0.271869  1
  Si  Si19  1  0.887165  0.121787  0.728131  1
  Si  Si20  1  0.389017  0.623154  0.771014  1
  Si  Si21  1  0.376846  0.610983  0.228986  1
  Si  Si22  1  0.345361  0.111724  0.505237  1
  Si  Si23  1  0.888276  0.654639  0.494763  1
  Si  Si24  1  0.387500  0.154266  0.005338  1
  Si  Si25  1  0.845734  0.612500  0.994662  1
  Si  Si26  1  0.654639  0.888276  0.494763  1
  Si  Si27  1  0.111724  0.345361  0.505237  1
  Si  Si28  1  0.612500  0.845734  0.994662  1
  Si  Si29  1  0.154266  0.387500  0.005338  1
  Ru  Ru30  1  0.668048  0.331952  0.500000  1
  Ru  Ru31  1  0.169198  0.830802  0.000000  1
  Ru  Ru32  1  0.331952  0.668048  0.500000  1
  Ru  Ru33  1  0.830802  0.169198  0.000000  1
  Ru  Ru34  1  0.127461  0.127461  0.625421  1
  Ru  Ru35  1  0.872539  0.872539  0.374579  1
  Ru  Ru36  1  0.374733  0.374733  0.129189  1
  Ru  Ru37  1  0.625267  0.625267  0.870811  1
