# generated using pymatgen
data_Th2Cr3Ni9As7
_symmetry_space_group_name_H-M   'P 1'
_cell_length_a   9.52855600
_cell_length_b   9.52855638
_cell_length_c   3.91302000
_cell_angle_alpha   90.00000000
_cell_angle_beta   90.00000000
_cell_angle_gamma   119.99999867
_symmetry_Int_Tables_number   1
_chemical_formula_structural   Th2Cr3Ni9As7
_chemical_formula_sum   'Th2 Cr3 Ni9 As7'
_cell_volume   307.67832601
_cell_formula_units_Z   1
loop_
 _symmetry_equiv_pos_site_id
 _symmetry_equiv_pos_as_xyz
  1  'x, y, z'
loop_
 _atom_site_type_symbol
 _atom_site_label
 _atom_site_symmetry_multiplicity
 _atom_site_fract_x
 _atom_site_fract_y
 _atom_site_fract_z
 _atom_site_occupancy
  Th  Th0  1  0.333333  0.666667  0.000000  1
  Th  Th1  1  0.000000  0.000000  0.500000  1
  Cr  Cr2  1  0.776345  0.226589  0.500000  1
  Cr  Cr3  1  0.773411  0.549757  0.500000  1
  Cr  Cr4  1  0.450243  0.223655  0.500000  1
  Ni  Ni5  1  0.034461  0.268133  0.000000  1
  Ni  Ni6  1  0.731867  0.766327  0.000000  1
  Ni  Ni7  1  0.233673  0.965539  0.000000  1
  Ni  Ni8  1  0.534409  0.052281  0.000000  1
  Ni  Ni9  1  0.947719  0.482128  0.000000  1
  Ni  Ni10  1  0.517872  0.465591  0.000000  1
  Ni  Ni11  1  0.610865  0.900214  0.500000  1
  Ni  Ni12  1  0.099786  0.710650  0.500000  1
  Ni  Ni13  1  0.289350  0.389135  0.500000  1
  As  As14  1  0.770975  0.033569  0.000000  1
  As  As15  1  0.966431  0.737407  0.000000  1
  As  As16  1  0.262593  0.229025  0.000000  1
  As  As17  1  0.370501  0.932577  0.500000  1
  As  As18  1  0.067423  0.437924  0.500000  1
  As  As19  1  0.562076  0.629499  0.500000  1
  As  As20  1  0.666667  0.333333  0.000000  1
