# generated using pymatgen
data_Pr4Dy6HgBi7
_symmetry_space_group_name_H-M   'P 1'
_cell_length_a   8.42641100
_cell_length_b   8.35896100
_cell_length_c   15.68339800
_cell_angle_alpha   90.00000000
_cell_angle_beta   90.00000000
_cell_angle_gamma   90.00000000
_symmetry_Int_Tables_number   1
_chemical_formula_structural   Pr4Dy6HgBi7
_chemical_formula_sum   'Pr8 Dy12 Hg2 Bi14'
_cell_volume   1104.67646328
_cell_formula_units_Z   2
loop_
 _symmetry_equiv_pos_site_id
 _symmetry_equiv_pos_as_xyz
  1  'x, y, z'
loop_
 _atom_site_type_symbol
 _atom_site_label
 _atom_site_symmetry_multiplicity
 _atom_site_fract_x
 _atom_site_fract_y
 _atom_site_fract_z
 _atom_site_occupancy
  Pr  Pr0  1  0.521291  0.322138  0.906620  1
  Pr  Pr1  1  0.021291  0.177862  0.593380  1
  Pr  Pr2  1  0.479740  0.682575  0.402277  1
  Pr  Pr3  1  0.979740  0.817425  0.097723  1
  Pr  Pr4  1  0.479740  0.682575  0.097723  1
  Pr  Pr5  1  0.979740  0.817425  0.402277  1
  Pr  Pr6  1  0.521291  0.322138  0.593380  1
  Pr  Pr7  1  0.021291  0.177862  0.906620  1
  Dy  Dy8  1  0.353187  0.850534  0.876663  1
  Dy  Dy9  1  0.853187  0.649466  0.623337  1
  Dy  Dy10  1  0.643352  0.148175  0.374476  1
  Dy  Dy11  1  0.143352  0.351825  0.125524  1
  Dy  Dy12  1  0.643352  0.148175  0.125524  1
  Dy  Dy13  1  0.143352  0.351825  0.374476  1
  Dy  Dy14  1  0.353187  0.850534  0.623337  1
  Dy  Dy15  1  0.853187  0.649466  0.876663  1
  Dy  Dy16  1  0.187132  0.497753  0.750000  1
  Dy  Dy17  1  0.687132  0.002247  0.750000  1
  Dy  Dy18  1  0.812117  0.511642  0.250000  1
  Dy  Dy19  1  0.312117  0.988358  0.250000  1
  Hg  Hg20  1  0.666218  0.849243  0.250000  1
  Hg  Hg21  1  0.166218  0.650757  0.250000  1
  Bi  Bi22  1  0.295801  0.044039  0.046047  1
  Bi  Bi23  1  0.795801  0.455961  0.453953  1
  Bi  Bi24  1  0.704815  0.957689  0.546310  1
  Bi  Bi25  1  0.204815  0.542311  0.953690  1
  Bi  Bi26  1  0.704815  0.957689  0.953690  1
  Bi  Bi27  1  0.204815  0.542311  0.546310  1
  Bi  Bi28  1  0.295801  0.044039  0.453953  1
  Bi  Bi29  1  0.795801  0.455961  0.046047  1
  Bi  Bi30  1  0.550253  0.634284  0.750000  1
  Bi  Bi31  1  0.050253  0.865716  0.750000  1
  Bi  Bi32  1  0.447436  0.378435  0.250000  1
  Bi  Bi33  1  0.947436  0.121565  0.250000  1
  Bi  Bi34  1  0.340472  0.155580  0.750000  1
  Bi  Bi35  1  0.840472  0.344420  0.750000  1
