# generated using pymatgen
data_Eu2ZnGe2O7
_symmetry_space_group_name_H-M   'P 1'
_cell_length_a   8.24130200
_cell_length_b   8.24130200
_cell_length_c   5.37224800
_cell_angle_alpha   90.00000000
_cell_angle_beta   90.00000000
_cell_angle_gamma   90.00000000
_symmetry_Int_Tables_number   1
_chemical_formula_structural   Eu2ZnGe2O7
_chemical_formula_sum   'Eu4 Zn2 Ge4 O14'
_cell_volume   364.87802702
_cell_formula_units_Z   2
loop_
 _symmetry_equiv_pos_site_id
 _symmetry_equiv_pos_as_xyz
  1  'x, y, z'
loop_
 _atom_site_type_symbol
 _atom_site_label
 _atom_site_symmetry_multiplicity
 _atom_site_fract_x
 _atom_site_fract_y
 _atom_site_fract_z
 _atom_site_occupancy
  Eu  Eu0  1  0.666120  0.166120  0.507869  1
  Eu  Eu1  1  0.833880  0.666120  0.492131  1
  Eu  Eu2  1  0.166120  0.333880  0.492131  1
  Eu  Eu3  1  0.333880  0.833880  0.507869  1
  Zn  Zn4  1  0.000000  0.000000  0.000000  1
  Zn  Zn5  1  0.500000  0.500000  0.000000  1
  Ge  Ge6  1  0.856491  0.356491  0.952750  1
  Ge  Ge7  1  0.143509  0.643509  0.952750  1
  Ge  Ge8  1  0.643509  0.856491  0.047250  1
  Ge  Ge9  1  0.356491  0.143509  0.047250  1
  O  O10  1  0.677948  0.416850  0.787656  1
  O  O11  1  0.322052  0.583150  0.787656  1
  O  O12  1  0.416850  0.322052  0.212344  1
  O  O13  1  0.583150  0.677948  0.212344  1
  O  O14  1  0.916850  0.177948  0.787656  1
  O  O15  1  0.822052  0.916850  0.212344  1
  O  O16  1  0.177948  0.083150  0.212344  1
  O  O17  1  0.083150  0.822052  0.787656  1
  O  O18  1  0.861765  0.361765  0.279110  1
  O  O19  1  0.638235  0.861765  0.720890  1
  O  O20  1  0.500000  0.000000  0.185700  1
  O  O21  1  0.000000  0.500000  0.814300  1
  O  O22  1  0.138235  0.638235  0.279110  1
  O  O23  1  0.361765  0.138235  0.720890  1
