# generated using pymatgen
data_Tm2Fe3P7Ru8Pt
_symmetry_space_group_name_H-M   'P 1'
_cell_length_a   9.36472150
_cell_length_b   9.24483511
_cell_length_c   3.84389700
_cell_angle_alpha   90.00000000
_cell_angle_beta   90.00000000
_cell_angle_gamma   119.84078031
_symmetry_Int_Tables_number   1
_chemical_formula_structural   Tm2Fe3P7Ru8Pt
_chemical_formula_sum   'Tm2 Fe3 P7 Ru8 Pt1'
_cell_volume   288.66289290
_cell_formula_units_Z   1
loop_
 _symmetry_equiv_pos_site_id
 _symmetry_equiv_pos_as_xyz
  1  'x, y, z'
loop_
 _atom_site_type_symbol
 _atom_site_label
 _atom_site_symmetry_multiplicity
 _atom_site_fract_x
 _atom_site_fract_y
 _atom_site_fract_z
 _atom_site_occupancy
  Tm  Tm0  1  0.332363  0.666843  0.000000  1
  Tm  Tm1  1  0.002779  0.000916  0.500000  1
  Fe  Fe2  1  0.931622  0.442665  0.000000  1
  Fe  Fe3  1  0.506707  0.060480  0.000000  1
  Fe  Fe4  1  0.555571  0.492127  0.000000  1
  P  P5  1  0.981040  0.235110  0.000000  1
  P  P6  1  0.254638  0.030797  0.000000  1
  P  P7  1  0.776833  0.736174  0.000000  1
  P  P8  1  0.062886  0.614351  0.500000  1
  P  P9  1  0.535736  0.930737  0.500000  1
  P  P10  1  0.386307  0.452648  0.500000  1
  P  P11  1  0.664564  0.331027  0.000000  1
  Ru  Ru12  1  0.244559  0.272743  0.000000  1
  Ru  Ru13  1  0.027920  0.757969  0.000000  1
  Ru  Ru14  1  0.106641  0.388561  0.500000  1
  Ru  Ru15  1  0.275756  0.894253  0.500000  1
  Ru  Ru16  1  0.614226  0.723408  0.500000  1
  Ru  Ru17  1  0.753537  0.207663  0.500000  1
  Ru  Ru18  1  0.462299  0.247404  0.500000  1
  Ru  Ru19  1  0.783770  0.538995  0.500000  1
  Pt  Pt20  1  0.740250  0.975126  0.000000  1
