# generated using pymatgen
data_Ac7Nd(Tm3Pt4)4
_symmetry_space_group_name_H-M   'P 1'
_cell_length_a   7.61096522
_cell_length_b   7.68523534
_cell_length_c   15.00795500
_cell_angle_alpha   89.97310871
_cell_angle_beta   90.11075284
_cell_angle_gamma   90.07456019
_symmetry_Int_Tables_number   1
_chemical_formula_structural   Ac7Nd(Tm3Pt4)4
_chemical_formula_sum   'Ac7 Nd1 Tm12 Pt16'
_cell_volume   877.84370899
_cell_formula_units_Z   1
loop_
 _symmetry_equiv_pos_site_id
 _symmetry_equiv_pos_as_xyz
  1  'x, y, z'
loop_
 _atom_site_type_symbol
 _atom_site_label
 _atom_site_symmetry_multiplicity
 _atom_site_fract_x
 _atom_site_fract_y
 _atom_site_fract_z
 _atom_site_occupancy
  Ac  Ac0  1  0.996407  0.825084  0.903195  1
  Ac  Ac1  1  0.503716  0.325306  0.095762  1
  Ac  Ac2  1  0.003452  0.174714  0.404372  1
  Ac  Ac3  1  0.503431  0.327358  0.406238  1
  Ac  Ac4  1  0.004066  0.174893  0.095909  1
  Ac  Ac5  1  0.496310  0.675578  0.903804  1
  Ac  Ac6  1  0.997296  0.823431  0.595008  1
  Nd  Nd7  1  0.499034  0.677531  0.597576  1
  Tm  Tm8  1  0.655135  0.165329  0.624762  1
  Tm  Tm9  1  0.155549  0.333897  0.873108  1
  Tm  Tm10  1  0.343943  0.834479  0.125333  1
  Tm  Tm11  1  0.844940  0.665950  0.375697  1
  Tm  Tm12  1  0.346810  0.831990  0.376880  1
  Tm  Tm13  1  0.844803  0.665669  0.125498  1
  Tm  Tm14  1  0.654739  0.166266  0.873667  1
  Tm  Tm15  1  0.159097  0.336558  0.623896  1
  Tm  Tm16  1  0.819346  0.501007  0.747697  1
  Tm  Tm17  1  0.322080  0.997788  0.747934  1
  Tm  Tm18  1  0.178803  0.499688  0.250721  1
  Tm  Tm19  1  0.678429  0.000338  0.250617  1
  Pt  Pt20  1  0.672764  0.952040  0.457581  1
  Pt  Pt21  1  0.174023  0.544629  0.044777  1
  Pt  Pt22  1  0.325847  0.045186  0.955582  1
  Pt  Pt23  1  0.817458  0.461084  0.546027  1
  Pt  Pt24  1  0.328370  0.039177  0.545619  1
  Pt  Pt25  1  0.825597  0.455633  0.955339  1
  Pt  Pt26  1  0.674369  0.955198  0.044527  1
  Pt  Pt27  1  0.175674  0.544966  0.457392  1
  Pt  Pt28  1  0.454550  0.367992  0.748522  1
  Pt  Pt29  1  0.953522  0.134055  0.749183  1
  Pt  Pt30  1  0.546197  0.635359  0.250139  1
  Pt  Pt31  1  0.045914  0.864513  0.250673  1
  Pt  Pt32  1  0.684803  0.865433  0.747434  1
  Pt  Pt33  1  0.188472  0.632199  0.748695  1
  Pt  Pt34  1  0.312602  0.131939  0.250457  1
  Pt  Pt35  1  0.812457  0.367745  0.250381  1
