# generated using pymatgen
data_Ca9PrSi6F
_symmetry_space_group_name_H-M   'P 1'
_cell_length_a   9.13552404
_cell_length_b   9.09936806
_cell_length_c   9.12113364
_cell_angle_alpha   130.19839694
_cell_angle_beta   130.30361768
_cell_angle_gamma   72.97453153
_symmetry_Int_Tables_number   1
_chemical_formula_structural   Ca9PrSi6F
_chemical_formula_sum   'Ca9 Pr1 Si6 F1'
_cell_volume   431.42728507
_cell_formula_units_Z   1
loop_
 _symmetry_equiv_pos_site_id
 _symmetry_equiv_pos_as_xyz
  1  'x, y, z'
loop_
 _atom_site_type_symbol
 _atom_site_label
 _atom_site_symmetry_multiplicity
 _atom_site_fract_x
 _atom_site_fract_y
 _atom_site_fract_z
 _atom_site_occupancy
  Ca  Ca0  1  0.432316  0.772963  0.000000  1
  Ca  Ca1  1  0.933308  0.931289  0.645034  1
  Ca  Ca2  1  0.288274  0.286255  0.354966  1
  Ca  Ca3  1  0.711022  0.066086  0.000000  1
  Ca  Ca4  1  0.068081  0.712156  0.000000  1
  Ca  Ca5  1  0.565442  0.565741  0.336674  1
  Ca  Ca6  1  0.228766  0.229066  0.663326  1
  Ca  Ca7  1  0.254274  0.754264  0.505754  1
  Ca  Ca8  1  0.748520  0.248510  0.494246  1
  Pr  Pr9  1  0.781815  0.430773  0.000000  1
  Si  Si10  1  0.996953  0.500445  0.494888  1
  Si  Si11  1  0.502065  0.005557  0.505112  1
  Si  Si12  1  0.131297  0.359360  0.000000  1
  Si  Si13  1  0.360612  0.135611  0.000000  1
  Si  Si14  1  0.865441  0.862459  0.225783  1
  Si  Si15  1  0.639657  0.636675  0.774217  1
  F  F16  1  0.492154  0.502790  0.000000  1
