# generated using pymatgen
data_Al3V12Os
_symmetry_space_group_name_H-M   'P 1'
_cell_length_a   4.79780500
_cell_length_b   4.79916700
_cell_length_c   9.63339600
_cell_angle_alpha   90.00000000
_cell_angle_beta   90.00000000
_cell_angle_gamma   90.00000000
_symmetry_Int_Tables_number   1
_chemical_formula_structural   Al3V12Os
_chemical_formula_sum   'Al3 V12 Os1'
_cell_volume   221.81344582
_cell_formula_units_Z   1
loop_
 _symmetry_equiv_pos_site_id
 _symmetry_equiv_pos_as_xyz
  1  'x, y, z'
loop_
 _atom_site_type_symbol
 _atom_site_label
 _atom_site_symmetry_multiplicity
 _atom_site_fract_x
 _atom_site_fract_y
 _atom_site_fract_z
 _atom_site_occupancy
  Al  Al0  1  0.500000  0.500000  0.000520  1
  Al  Al1  1  0.500000  0.500000  0.499409  1
  Al  Al2  1  0.000000  0.000000  0.250125  1
  V  V3  1  0.000000  0.500000  0.120943  1
  V  V4  1  0.000000  0.500000  0.629094  1
  V  V5  1  0.500000  0.247868  0.749891  1
  V  V6  1  0.500000  0.258998  0.249884  1
  V  V7  1  0.754391  0.000000  0.995301  1
  V  V8  1  0.754325  0.000000  0.504924  1
  V  V9  1  0.000000  0.500000  0.870677  1
  V  V10  1  0.000000  0.500000  0.379149  1
  V  V11  1  0.500000  0.752132  0.749891  1
  V  V12  1  0.500000  0.741002  0.249884  1
  V  V13  1  0.245609  0.000000  0.995301  1
  V  V14  1  0.245675  0.000000  0.504924  1
  Os  Os15  1  0.000000  0.000000  0.750084  1
