# generated using pymatgen
data_LaSm7(Si3Pt)4
_symmetry_space_group_name_H-M   'P 1'
_cell_length_a   8.20894289
_cell_length_b   8.22086704
_cell_length_c   8.47288700
_cell_angle_alpha   90.00000000
_cell_angle_beta   90.00000000
_cell_angle_gamma   120.04805788
_symmetry_Int_Tables_number   1
_chemical_formula_structural   LaSm7(Si3Pt)4
_chemical_formula_sum   'La1 Sm7 Si12 Pt4'
_cell_volume   494.94436948
_cell_formula_units_Z   1
loop_
 _symmetry_equiv_pos_site_id
 _symmetry_equiv_pos_as_xyz
  1  'x, y, z'
loop_
 _atom_site_type_symbol
 _atom_site_label
 _atom_site_symmetry_multiplicity
 _atom_site_fract_x
 _atom_site_fract_y
 _atom_site_fract_z
 _atom_site_occupancy
  La  La0  1  0.000756  0.500377  0.750000  1
  Sm  Sm1  1  0.000038  0.000019  0.250000  1
  Sm  Sm2  1  0.999989  0.999995  0.750000  1
  Sm  Sm3  1  0.500286  0.499567  0.250000  1
  Sm  Sm4  1  0.500286  0.000721  0.250000  1
  Sm  Sm5  1  0.999299  0.499651  0.250000  1
  Sm  Sm6  1  0.499720  0.500275  0.750000  1
  Sm  Sm7  1  0.499720  0.999444  0.750000  1
  Si  Si8  1  0.166379  0.835385  0.498255  1
  Si  Si9  1  0.166379  0.330995  0.498255  1
  Si  Si10  1  0.668814  0.834407  0.500262  1
  Si  Si11  1  0.833597  0.164598  0.497975  1
  Si  Si12  1  0.833597  0.668998  0.497975  1
  Si  Si13  1  0.331170  0.165585  0.499740  1
  Si  Si14  1  0.833597  0.164598  0.002025  1
  Si  Si15  1  0.833597  0.668998  0.002025  1
  Si  Si16  1  0.331170  0.165585  0.000260  1
  Si  Si17  1  0.166379  0.835385  0.001745  1
  Si  Si18  1  0.166379  0.330995  0.001745  1
  Si  Si19  1  0.668814  0.834407  0.999738  1
  Pt  Pt20  1  0.334174  0.667088  0.495646  1
  Pt  Pt21  1  0.665843  0.332921  0.498689  1
  Pt  Pt22  1  0.665843  0.332921  0.001311  1
  Pt  Pt23  1  0.334174  0.667088  0.004354  1
