# generated using pymatgen
data_Er6Sc4BiPb5
_symmetry_space_group_name_H-M   'P 1'
_cell_length_a   8.86090000
_cell_length_b   8.86000028
_cell_length_c   6.30664200
_cell_angle_alpha   90.00000000
_cell_angle_beta   90.00000000
_cell_angle_gamma   120.00336672
_symmetry_Int_Tables_number   1
_chemical_formula_structural   Er6Sc4BiPb5
_chemical_formula_sum   'Er6 Sc4 Bi1 Pb5'
_cell_volume   428.77123971
_cell_formula_units_Z   1
loop_
 _symmetry_equiv_pos_site_id
 _symmetry_equiv_pos_as_xyz
  1  'x, y, z'
loop_
 _atom_site_type_symbol
 _atom_site_label
 _atom_site_symmetry_multiplicity
 _atom_site_fract_x
 _atom_site_fract_y
 _atom_site_fract_z
 _atom_site_occupancy
  Er  Er0  1  0.236743  0.000000  0.250000  1
  Er  Er1  1  0.237688  0.238146  0.750000  1
  Er  Er2  1  0.999541  0.761854  0.750000  1
  Er  Er3  1  0.002331  0.239410  0.250000  1
  Er  Er4  1  0.762922  0.760590  0.250000  1
  Er  Er5  1  0.762233  0.000000  0.750000  1
  Sc  Sc6  1  0.332474  0.665435  0.999983  1
  Sc  Sc7  1  0.667041  0.334565  0.500017  1
  Sc  Sc8  1  0.667041  0.334565  0.999983  1
  Sc  Sc9  1  0.332474  0.665435  0.500017  1
  Bi  Bi10  1  0.601310  0.000000  0.250000  1
  Pb  Pb11  1  0.600928  0.601384  0.750000  1
  Pb  Pb12  1  0.999544  0.398616  0.750000  1
  Pb  Pb13  1  0.000045  0.600850  0.250000  1
  Pb  Pb14  1  0.399196  0.399150  0.250000  1
  Pb  Pb15  1  0.398489  0.000000  0.750000  1
