# generated using pymatgen
data_Nd4Dy13Y3Pt16
_symmetry_space_group_name_H-M   'P 1'
_cell_length_a   7.50681036
_cell_length_b   7.60465606
_cell_length_c   14.82309400
_cell_angle_alpha   90.00475414
_cell_angle_beta   90.06176226
_cell_angle_gamma   89.88234673
_symmetry_Int_Tables_number   1
_chemical_formula_structural   Nd4Dy13Y3Pt16
_chemical_formula_sum   'Nd4 Dy13 Y3 Pt16'
_cell_volume   846.19940321
_cell_formula_units_Z   1
loop_
 _symmetry_equiv_pos_site_id
 _symmetry_equiv_pos_as_xyz
  1  'x, y, z'
loop_
 _atom_site_type_symbol
 _atom_site_label
 _atom_site_symmetry_multiplicity
 _atom_site_fract_x
 _atom_site_fract_y
 _atom_site_fract_z
 _atom_site_occupancy
  Nd  Nd0  1  0.500071  0.677184  0.092767  1
  Nd  Nd1  1  0.499834  0.323907  0.592734  1
  Nd  Nd2  1  0.000208  0.177506  0.908012  1
  Nd  Nd3  1  0.999720  0.175512  0.592628  1
  Dy  Dy4  1  0.681053  0.989043  0.250498  1
  Dy  Dy5  1  0.180921  0.511339  0.250832  1
  Dy  Dy6  1  0.819312  0.489017  0.750748  1
  Dy  Dy7  1  0.319797  0.011184  0.750509  1
  Dy  Dy8  1  0.655053  0.831741  0.622270  1
  Dy  Dy9  1  0.156682  0.667222  0.878305  1
  Dy  Dy10  1  0.842515  0.332745  0.377425  1
  Dy  Dy11  1  0.343368  0.167760  0.122641  1
  Dy  Dy12  1  0.341761  0.166164  0.377398  1
  Dy  Dy13  1  0.843500  0.332415  0.123655  1
  Dy  Dy14  1  0.155172  0.668047  0.622363  1
  Dy  Dy15  1  0.656921  0.832890  0.877519  1
  Dy  Dy16  1  0.997768  0.818560  0.405802  1
  Y  Y17  1  0.502094  0.320669  0.905784  1
  Y  Y18  1  0.497648  0.681047  0.405967  1
  Y  Y19  1  0.997969  0.820590  0.094716  1
  Pt  Pt20  1  0.818273  0.642303  0.251720  1
  Pt  Pt21  1  0.313750  0.859818  0.252026  1
  Pt  Pt22  1  0.683200  0.140249  0.751538  1
  Pt  Pt23  1  0.186427  0.361559  0.750692  1
  Pt  Pt24  1  0.547931  0.382628  0.251213  1
  Pt  Pt25  1  0.046159  0.115944  0.250325  1
  Pt  Pt26  1  0.952598  0.879817  0.749876  1
  Pt  Pt27  1  0.453545  0.619289  0.750804  1
  Pt  Pt28  1  0.820518  0.541004  0.539228  1
  Pt  Pt29  1  0.321418  0.966209  0.957934  1
  Pt  Pt30  1  0.684920  0.027390  0.454776  1
  Pt  Pt31  1  0.177915  0.466583  0.042828  1
  Pt  Pt32  1  0.181719  0.472891  0.454552  1
  Pt  Pt33  1  0.683078  0.035301  0.042592  1
  Pt  Pt34  1  0.320959  0.959735  0.539458  1
  Pt  Pt35  1  0.816226  0.534739  0.957858  1
