# generated using pymatgen
data_Ba2(CoN)3
_symmetry_space_group_name_H-M   'P 1'
_cell_length_a   6.70807959
_cell_length_b   6.70807942
_cell_length_c   6.78089801
_cell_angle_alpha   85.39340560
_cell_angle_beta   85.39339276
_cell_angle_gamma   115.42469616
_symmetry_Int_Tables_number   1
_chemical_formula_structural   Ba2(CoN)3
_chemical_formula_sum   'Ba4 Co6 N6'
_cell_volume   272.44480270
_cell_formula_units_Z   2
loop_
 _symmetry_equiv_pos_site_id
 _symmetry_equiv_pos_as_xyz
  1  'x, y, z'
loop_
 _atom_site_type_symbol
 _atom_site_label
 _atom_site_symmetry_multiplicity
 _atom_site_fract_x
 _atom_site_fract_y
 _atom_site_fract_z
 _atom_site_occupancy
  Ba  Ba0  1  0.850036  0.675637  0.907334  1
  Ba  Ba1  1  0.324363  0.149964  0.592666  1
  Ba  Ba2  1  0.149964  0.324363  0.092666  1
  Ba  Ba3  1  0.675637  0.850036  0.407334  1
  Co  Co4  1  0.549924  0.147123  0.093422  1
  Co  Co5  1  0.450076  0.852877  0.906578  1
  Co  Co6  1  0.852877  0.450076  0.406578  1
  Co  Co7  1  0.147123  0.549924  0.593422  1
  Co  Co8  1  0.802572  0.197428  0.750000  1
  Co  Co9  1  0.197428  0.802572  0.250000  1
  N  N10  1  0.354393  0.645607  0.750000  1
  N  N11  1  0.645607  0.354393  0.250000  1
  N  N12  1  0.025419  0.730402  0.484694  1
  N  N13  1  0.730402  0.025419  0.984694  1
  N  N14  1  0.974581  0.269598  0.515306  1
  N  N15  1  0.269598  0.974581  0.015306  1
