# generated using pymatgen
data_Tb2Dy10Os3Rh
_symmetry_space_group_name_H-M   'P 1'
_cell_length_a   6.38060602
_cell_length_b   7.35990978
_cell_length_c   9.10654700
_cell_angle_alpha   90.00000000
_cell_angle_beta   90.00000000
_cell_angle_gamma   90.21508277
_symmetry_Int_Tables_number   1
_chemical_formula_structural   Tb2Dy10Os3Rh
_chemical_formula_sum   'Tb2 Dy10 Os3 Rh1'
_cell_volume   427.64666866
_cell_formula_units_Z   1
loop_
 _symmetry_equiv_pos_site_id
 _symmetry_equiv_pos_as_xyz
  1  'x, y, z'
loop_
 _atom_site_type_symbol
 _atom_site_label
 _atom_site_symmetry_multiplicity
 _atom_site_fract_x
 _atom_site_fract_y
 _atom_site_fract_z
 _atom_site_occupancy
  Tb  Tb0  1  0.868686  0.537946  0.250000  1
  Tb  Tb1  1  0.631082  0.039906  0.250000  1
  Dy  Dy2  1  0.333254  0.672808  0.061674  1
  Dy  Dy3  1  0.170116  0.177382  0.438089  1
  Dy  Dy4  1  0.670376  0.324586  0.564082  1
  Dy  Dy5  1  0.826461  0.824380  0.933182  1
  Dy  Dy6  1  0.670376  0.324586  0.935918  1
  Dy  Dy7  1  0.826461  0.824380  0.566818  1
  Dy  Dy8  1  0.333254  0.672808  0.438326  1
  Dy  Dy9  1  0.170116  0.177382  0.061911  1
  Dy  Dy10  1  0.130401  0.461975  0.750000  1
  Dy  Dy11  1  0.368336  0.961714  0.750000  1
  Os  Os12  1  0.459093  0.383369  0.250000  1
  Os  Os13  1  0.961572  0.115781  0.750000  1
  Os  Os14  1  0.538540  0.616835  0.750000  1
  Rh  Rh15  1  0.041875  0.884161  0.250000  1
