# generated using pymatgen
data_LaPr7(TcO6)4
_symmetry_space_group_name_H-M   'P 1'
_cell_length_a   10.26263051
_cell_length_b   10.26648711
_cell_length_c   5.66083481
_cell_angle_alpha   75.19815094
_cell_angle_beta   75.25188839
_cell_angle_gamma   69.30828914
_symmetry_Int_Tables_number   1
_chemical_formula_structural   LaPr7(TcO6)4
_chemical_formula_sum   'La1 Pr7 Tc4 O24'
_cell_volume   530.46827980
_cell_formula_units_Z   1
loop_
 _symmetry_equiv_pos_site_id
 _symmetry_equiv_pos_as_xyz
  1  'x, y, z'
loop_
 _atom_site_type_symbol
 _atom_site_label
 _atom_site_symmetry_multiplicity
 _atom_site_fract_x
 _atom_site_fract_y
 _atom_site_fract_z
 _atom_site_occupancy
  La  La0  1  0.060772  0.286216  0.625154  1
  Pr  Pr1  1  0.938507  0.713424  0.372188  1
  Pr  Pr2  1  0.713136  0.938596  0.872667  1
  Pr  Pr3  1  0.371170  0.628882  0.249968  1
  Pr  Pr4  1  0.888521  0.110598  0.250418  1
  Pr  Pr5  1  0.111189  0.888150  0.750214  1
  Pr  Pr6  1  0.628681  0.371209  0.750047  1
  Pr  Pr7  1  0.287469  0.060169  0.126634  1
  Tc  Tc8  1  0.800068  0.505181  0.051536  1
  Tc  Tc9  1  0.504885  0.800671  0.551298  1
  Tc  Tc10  1  0.495653  0.199103  0.448261  1
  Tc  Tc11  1  0.199656  0.495570  0.948019  1
  O  O12  1  0.889094  0.924329  0.074052  1
  O  O13  1  0.924240  0.889134  0.574224  1
  O  O14  1  0.528050  0.927627  0.264978  1
  O  O15  1  0.786181  0.675271  0.126953  1
  O  O16  1  0.927473  0.528869  0.766967  1
  O  O17  1  0.674963  0.787119  0.625883  1
  O  O18  1  0.822593  0.387525  0.348600  1
  O  O19  1  0.387588  0.823189  0.847830  1
  O  O20  1  0.617675  0.540326  0.021243  1
  O  O21  1  0.311762  0.837844  0.409160  1
  O  O22  1  0.539416  0.618329  0.521721  1
  O  O23  1  0.837187  0.312043  0.910643  1
  O  O24  1  0.162152  0.688822  0.091002  1
  O  O25  1  0.460442  0.381594  0.478401  1
  O  O26  1  0.688499  0.161994  0.591349  1
  O  O27  1  0.382013  0.460965  0.978677  1
  O  O28  1  0.613114  0.176648  0.151908  1
  O  O29  1  0.177375  0.612612  0.651117  1
  O  O30  1  0.326393  0.212318  0.371112  1
  O  O31  1  0.071331  0.474035  0.232331  1
  O  O32  1  0.214334  0.324660  0.877573  1
  O  O33  1  0.472089  0.072216  0.734694  1
  O  O34  1  0.076182  0.109671  0.426499  1
  O  O35  1  0.110148  0.075090  0.926675  1
