# generated using pymatgen
data_Tm(Ni2B)6
_symmetry_space_group_name_H-M   'P 1'
_cell_length_a   5.99257904
_cell_length_b   5.99257913
_cell_length_c   5.99257907
_cell_angle_alpha   104.38970028
_cell_angle_beta   104.38970415
_cell_angle_gamma   104.38970630
_symmetry_Int_Tables_number   1
_chemical_formula_structural   Tm(Ni2B)6
_chemical_formula_sum   'Tm1 Ni12 B6'
_cell_volume   190.54857412
_cell_formula_units_Z   1
loop_
 _symmetry_equiv_pos_site_id
 _symmetry_equiv_pos_as_xyz
  1  'x, y, z'
loop_
 _atom_site_type_symbol
 _atom_site_label
 _atom_site_symmetry_multiplicity
 _atom_site_fract_x
 _atom_site_fract_y
 _atom_site_fract_z
 _atom_site_occupancy
  Tm  Tm0  1  0.000000  0.000000  0.000000  1
  Ni  Ni1  1  0.129767  0.870233  0.500000  1
  Ni  Ni2  1  0.500000  0.129767  0.870233  1
  Ni  Ni3  1  0.870233  0.500000  0.129767  1
  Ni  Ni4  1  0.500000  0.870233  0.129767  1
  Ni  Ni5  1  0.129767  0.500000  0.870233  1
  Ni  Ni6  1  0.870233  0.129767  0.500000  1
  Ni  Ni7  1  0.548305  0.814238  0.548305  1
  Ni  Ni8  1  0.548305  0.548305  0.814238  1
  Ni  Ni9  1  0.814238  0.548305  0.548305  1
  Ni  Ni10  1  0.451695  0.185762  0.451695  1
  Ni  Ni11  1  0.451695  0.451695  0.185762  1
  Ni  Ni12  1  0.185762  0.451695  0.451695  1
  B  B13  1  0.762951  0.325183  0.762951  1
  B  B14  1  0.762951  0.762951  0.325183  1
  B  B15  1  0.325183  0.762951  0.762951  1
  B  B16  1  0.237049  0.674817  0.237049  1
  B  B17  1  0.237049  0.237049  0.674817  1
  B  B18  1  0.674817  0.237049  0.237049  1
