# generated using pymatgen
data_Ba2Sr2As2O
_symmetry_space_group_name_H-M   'P 1'
_cell_length_a   9.31098114
_cell_length_b   9.31098096
_cell_length_c   9.31098067
_cell_angle_alpha   149.05000394
_cell_angle_beta   149.05000417
_cell_angle_gamma   44.33770413
_symmetry_Int_Tables_number   1
_chemical_formula_structural   Ba2Sr2As2O
_chemical_formula_sum   'Ba2 Sr2 As2 O1'
_cell_volume   212.87400675
_cell_formula_units_Z   1
loop_
 _symmetry_equiv_pos_site_id
 _symmetry_equiv_pos_as_xyz
  1  'x, y, z'
loop_
 _atom_site_type_symbol
 _atom_site_label
 _atom_site_symmetry_multiplicity
 _atom_site_fract_x
 _atom_site_fract_y
 _atom_site_fract_z
 _atom_site_occupancy
  Ba  Ba0  1  0.672482  0.672482  0.000000  1
  Ba  Ba1  1  0.327518  0.327518  0.000000  1
  Sr  Sr2  1  0.500000  0.000000  0.500000  1
  Sr  Sr3  1  0.000000  0.500000  0.500000  1
  As  As4  1  0.869166  0.869166  0.000000  1
  As  As5  1  0.130834  0.130834  0.000000  1
  O  O6  1  0.500000  0.500000  0.000000  1
