# generated using pymatgen
data_Tm12Cd2Fe2Tc
_symmetry_space_group_name_H-M   'P 1'
_cell_length_a   8.22567463
_cell_length_b   8.22567430
_cell_length_c   8.22567576
_cell_angle_alpha   108.50549279
_cell_angle_beta   108.50549813
_cell_angle_gamma   111.42043441
_symmetry_Int_Tables_number   1
_chemical_formula_structural   Tm12Cd2Fe2Tc
_chemical_formula_sum   'Tm12 Cd2 Fe2 Tc1'
_cell_volume   428.06935470
_cell_formula_units_Z   1
loop_
 _symmetry_equiv_pos_site_id
 _symmetry_equiv_pos_as_xyz
  1  'x, y, z'
loop_
 _atom_site_type_symbol
 _atom_site_label
 _atom_site_symmetry_multiplicity
 _atom_site_fract_x
 _atom_site_fract_y
 _atom_site_fract_z
 _atom_site_occupancy
  Tm  Tm0  1  0.193308  0.432334  0.239026  1
  Tm  Tm1  1  0.806692  0.567666  0.760974  1
  Tm  Tm2  1  0.193308  0.954283  0.760974  1
  Tm  Tm3  1  0.954283  0.193308  0.760974  1
  Tm  Tm4  1  0.806692  0.045717  0.239026  1
  Tm  Tm5  1  0.045717  0.806692  0.239026  1
  Tm  Tm6  1  0.432334  0.193308  0.239026  1
  Tm  Tm7  1  0.567666  0.806692  0.760974  1
  Tm  Tm8  1  0.307998  0.307998  0.615997  1
  Tm  Tm9  1  0.692002  0.692002  0.384003  1
  Tm  Tm10  1  0.692002  0.307998  0.000000  1
  Tm  Tm11  1  0.307998  0.692002  0.000000  1
  Cd  Cd12  1  0.000000  0.500000  0.500000  1
  Cd  Cd13  1  0.500000  0.000000  0.500000  1
  Fe  Fe14  1  0.383043  0.383043  0.000000  1
  Fe  Fe15  1  0.616957  0.616957  0.000000  1
  Tc  Tc16  1  0.000000  0.000000  0.000000  1
