# generated using pymatgen
data_Nd8Tm2Si5Ag
_symmetry_space_group_name_H-M   'P 1'
_cell_length_a   7.61217995
_cell_length_b   7.61218143
_cell_length_c   9.24907300
_cell_angle_alpha   114.29975258
_cell_angle_beta   114.29975762
_cell_angle_gamma   89.99999713
_symmetry_Int_Tables_number   1
_chemical_formula_structural   Nd8Tm2Si5Ag
_chemical_formula_sum   'Nd8 Tm2 Si5 Ag1'
_cell_volume   435.83454787
_cell_formula_units_Z   1
loop_
 _symmetry_equiv_pos_site_id
 _symmetry_equiv_pos_as_xyz
  1  'x, y, z'
loop_
 _atom_site_type_symbol
 _atom_site_label
 _atom_site_symmetry_multiplicity
 _atom_site_fract_x
 _atom_site_fract_y
 _atom_site_fract_z
 _atom_site_occupancy
  Nd  Nd0  1  0.970286  0.825440  0.282289  1
  Nd  Nd1  1  0.312004  0.456848  0.282289  1
  Nd  Nd2  1  0.825440  0.312004  0.282289  1
  Nd  Nd3  1  0.456848  0.970286  0.282289  1
  Nd  Nd4  1  0.043152  0.187996  0.717711  1
  Nd  Nd5  1  0.674560  0.529714  0.717711  1
  Nd  Nd6  1  0.187996  0.674560  0.717711  1
  Nd  Nd7  1  0.529714  0.043152  0.717711  1
  Tm  Tm8  1  0.507116  0.507116  0.014232  1
  Tm  Tm9  1  0.992884  0.992884  0.985768  1
  Si  Si10  1  0.250000  0.250000  0.500000  1
  Si  Si11  1  0.619088  0.880912  0.000000  1
  Si  Si12  1  0.380912  0.119088  0.000000  1
  Si  Si13  1  0.880912  0.380912  0.000000  1
  Si  Si14  1  0.119088  0.619088  0.000000  1
  Ag  Ag15  1  0.750000  0.750000  0.500000  1
