# generated using pymatgen
data_LiPr2Si4(PPd10)2
_symmetry_space_group_name_H-M   'P 1'
_cell_length_a   8.71148345
_cell_length_b   8.71148388
_cell_length_c   8.72585000
_cell_angle_alpha   59.94543317
_cell_angle_beta   59.94543150
_cell_angle_gamma   60.10913353
_symmetry_Int_Tables_number   1
_chemical_formula_structural   LiPr2Si4(PPd10)2
_chemical_formula_sum   'Li1 Pr2 Si4 P2 Pd20'
_cell_volume   468.24659344
_cell_formula_units_Z   1
loop_
 _symmetry_equiv_pos_site_id
 _symmetry_equiv_pos_as_xyz
  1  'x, y, z'
loop_
 _atom_site_type_symbol
 _atom_site_label
 _atom_site_symmetry_multiplicity
 _atom_site_fract_x
 _atom_site_fract_y
 _atom_site_fract_z
 _atom_site_occupancy
  Li  Li0  1  0.000000  0.000000  0.000000  1
  Pr  Pr1  1  0.250000  0.250000  0.250000  1
  Pr  Pr2  1  0.750000  0.750000  0.750000  1
  Si  Si3  1  0.737293  0.262707  0.262707  1
  Si  Si4  1  0.262707  0.737293  0.737293  1
  Si  Si5  1  0.262707  0.737293  0.262707  1
  Si  Si6  1  0.737293  0.262707  0.737293  1
  P  P7  1  0.262572  0.262572  0.737428  1
  P  P8  1  0.737428  0.737428  0.262572  1
  Pd  Pd9  1  0.385570  0.385570  0.387282  1
  Pd  Pd10  1  0.614430  0.614430  0.612718  1
  Pd  Pd11  1  0.385570  0.385570  0.841580  1
  Pd  Pd12  1  0.387282  0.841580  0.385570  1
  Pd  Pd13  1  0.614430  0.614430  0.158420  1
  Pd  Pd14  1  0.612718  0.158420  0.614430  1
  Pd  Pd15  1  0.841580  0.387282  0.385570  1
  Pd  Pd16  1  0.158420  0.612718  0.614430  1
  Pd  Pd17  1  0.344296  0.001773  0.998227  1
  Pd  Pd18  1  0.655704  0.998227  0.001773  1
  Pd  Pd19  1  0.001773  0.344296  0.655704  1
  Pd  Pd20  1  0.998227  0.655704  0.344296  1
  Pd  Pd21  1  0.001773  0.344296  0.998227  1
  Pd  Pd22  1  0.655704  0.998227  0.344296  1
  Pd  Pd23  1  0.998227  0.655704  0.001773  1
  Pd  Pd24  1  0.344296  0.001773  0.655704  1
  Pd  Pd25  1  0.000000  0.000000  0.345553  1
  Pd  Pd26  1  0.000000  0.000000  0.654447  1
  Pd  Pd27  1  0.654447  0.345553  0.000000  1
  Pd  Pd28  1  0.345553  0.654447  0.000000  1
