# generated using pymatgen
data_Pr8Si12AgPt3
_symmetry_space_group_name_H-M   'P 1'
_cell_length_a   8.29304800
_cell_length_b   8.29304829
_cell_length_c   8.69556500
_cell_angle_alpha   90.00000000
_cell_angle_beta   90.00000000
_cell_angle_gamma   120.00000682
_symmetry_Int_Tables_number   1
_chemical_formula_structural   Pr8Si12AgPt3
_chemical_formula_sum   'Pr8 Si12 Ag1 Pt3'
_cell_volume   517.91296270
_cell_formula_units_Z   1
loop_
 _symmetry_equiv_pos_site_id
 _symmetry_equiv_pos_as_xyz
  1  'x, y, z'
loop_
 _atom_site_type_symbol
 _atom_site_label
 _atom_site_symmetry_multiplicity
 _atom_site_fract_x
 _atom_site_fract_y
 _atom_site_fract_z
 _atom_site_occupancy
  Pr  Pr0  1  0.498083  0.501917  0.747760  1
  Pr  Pr1  1  0.498897  0.501103  0.252185  1
  Pr  Pr2  1  0.003836  0.501917  0.747760  1
  Pr  Pr3  1  0.002205  0.501103  0.252185  1
  Pr  Pr4  1  0.498083  0.996164  0.747760  1
  Pr  Pr5  1  0.498897  0.997795  0.252185  1
  Pr  Pr6  1  0.000000  0.000000  0.749531  1
  Pr  Pr7  1  0.000000  0.000000  0.250567  1
  Si  Si8  1  0.838142  0.161858  0.000638  1
  Si  Si9  1  0.167040  0.832960  0.999429  1
  Si  Si10  1  0.323715  0.161858  0.000638  1
  Si  Si11  1  0.166041  0.833959  0.500496  1
  Si  Si12  1  0.665921  0.832960  0.999429  1
  Si  Si13  1  0.833784  0.166216  0.499573  1
  Si  Si14  1  0.838142  0.676285  0.000638  1
  Si  Si15  1  0.667920  0.833959  0.500496  1
  Si  Si16  1  0.167040  0.334079  0.999429  1
  Si  Si17  1  0.332431  0.166216  0.499573  1
  Si  Si18  1  0.166041  0.332080  0.500496  1
  Si  Si19  1  0.833784  0.667569  0.499573  1
  Ag  Ag20  1  0.666667  0.333333  0.997977  1
  Pt  Pt21  1  0.333333  0.666667  0.001706  1
  Pt  Pt22  1  0.333333  0.666667  0.498283  1
  Pt  Pt23  1  0.666667  0.333333  0.501692  1
