# generated using pymatgen
data_Th6MgCd22P
_symmetry_space_group_name_H-M   'P 1'
_cell_length_a   10.04820456
_cell_length_b   10.04820443
_cell_length_c   10.04820300
_cell_angle_alpha   59.99999484
_cell_angle_beta   59.99999527
_cell_angle_gamma   59.99999451
_symmetry_Int_Tables_number   1
_chemical_formula_structural   Th6MgCd22P
_chemical_formula_sum   'Th6 Mg1 Cd22 P1'
_cell_volume   717.38168079
_cell_formula_units_Z   1
loop_
 _symmetry_equiv_pos_site_id
 _symmetry_equiv_pos_as_xyz
  1  'x, y, z'
loop_
 _atom_site_type_symbol
 _atom_site_label
 _atom_site_symmetry_multiplicity
 _atom_site_fract_x
 _atom_site_fract_y
 _atom_site_fract_z
 _atom_site_occupancy
  Th  Th0  1  0.798095  0.798095  0.201905  1
  Th  Th1  1  0.201905  0.798095  0.201905  1
  Th  Th2  1  0.798095  0.201905  0.201905  1
  Th  Th3  1  0.201905  0.201905  0.798095  1
  Th  Th4  1  0.798095  0.201905  0.798095  1
  Th  Th5  1  0.201905  0.798095  0.798095  1
  Mg  Mg6  1  0.500000  0.500000  0.500000  1
  Cd  Cd7  1  0.833453  0.833453  0.499640  1
  Cd  Cd8  1  0.833453  0.499640  0.833453  1
  Cd  Cd9  1  0.499640  0.833453  0.833453  1
  Cd  Cd10  1  0.833453  0.833453  0.833453  1
  Cd  Cd11  1  0.166547  0.166547  0.500360  1
  Cd  Cd12  1  0.166547  0.500360  0.166547  1
  Cd  Cd13  1  0.500360  0.166547  0.166547  1
  Cd  Cd14  1  0.166547  0.166547  0.166547  1
  Cd  Cd15  1  0.620229  0.620229  0.139312  1
  Cd  Cd16  1  0.620229  0.139312  0.620229  1
  Cd  Cd17  1  0.139312  0.620229  0.620229  1
  Cd  Cd18  1  0.620229  0.620229  0.620229  1
  Cd  Cd19  1  0.379771  0.379771  0.860688  1
  Cd  Cd20  1  0.379771  0.860688  0.379771  1
  Cd  Cd21  1  0.860688  0.379771  0.379771  1
  Cd  Cd22  1  0.379771  0.379771  0.379771  1
  Cd  Cd23  1  0.000000  0.000000  0.500000  1
  Cd  Cd24  1  0.500000  0.000000  0.500000  1
  Cd  Cd25  1  0.000000  0.500000  0.500000  1
  Cd  Cd26  1  0.500000  0.500000  0.000000  1
  Cd  Cd27  1  0.000000  0.500000  0.000000  1
  Cd  Cd28  1  0.500000  0.000000  0.000000  1
  P  P29  1  0.000000  0.000000  0.000000  1
