# generated using pymatgen
data_Y3In3Ni2Ag
_symmetry_space_group_name_H-M   'P 1'
_cell_length_a   7.74953800
_cell_length_b   7.74953769
_cell_length_c   3.72392900
_cell_angle_alpha   90.00000000
_cell_angle_beta   90.00000000
_cell_angle_gamma   119.99999277
_symmetry_Int_Tables_number   1
_chemical_formula_structural   Y3In3Ni2Ag
_chemical_formula_sum   'Y3 In3 Ni2 Ag1'
_cell_volume   193.67950334
_cell_formula_units_Z   1
loop_
 _symmetry_equiv_pos_site_id
 _symmetry_equiv_pos_as_xyz
  1  'x, y, z'
loop_
 _atom_site_type_symbol
 _atom_site_label
 _atom_site_symmetry_multiplicity
 _atom_site_fract_x
 _atom_site_fract_y
 _atom_site_fract_z
 _atom_site_occupancy
  Y  Y0  1  0.025866  0.607281  0.500000  1
  Y  Y1  1  0.581414  0.974134  0.500000  1
  Y  Y2  1  0.392719  0.418586  0.500000  1
  In  In3  1  0.995203  0.250051  0.000000  1
  In  In4  1  0.254848  0.004797  0.000000  1
  In  In5  1  0.749949  0.745152  0.000000  1
  Ni  Ni6  1  0.000000  0.000000  0.500000  1
  Ni  Ni7  1  0.333333  0.666667  0.000000  1
  Ag  Ag8  1  0.666667  0.333333  0.000000  1
