# generated using pymatgen
data_PrHf2Al7Cu2
_symmetry_space_group_name_H-M   'P 1'
_cell_length_a   8.94436892
_cell_length_b   8.94436798
_cell_length_c   8.94436923
_cell_angle_alpha   34.77647367
_cell_angle_beta   34.77648221
_cell_angle_gamma   34.77647611
_symmetry_Int_Tables_number   1
_chemical_formula_structural   PrHf2Al7Cu2
_chemical_formula_sum   'Pr1 Hf2 Al7 Cu2'
_cell_volume   207.77831396
_cell_formula_units_Z   1
loop_
 _symmetry_equiv_pos_site_id
 _symmetry_equiv_pos_as_xyz
  1  'x, y, z'
loop_
 _atom_site_type_symbol
 _atom_site_label
 _atom_site_symmetry_multiplicity
 _atom_site_fract_x
 _atom_site_fract_y
 _atom_site_fract_z
 _atom_site_occupancy
  Pr  Pr0  1  0.000000  0.000000  0.000000  1
  Hf  Hf1  1  0.855498  0.855498  0.855498  1
  Hf  Hf2  1  0.144502  0.144502  0.144502  1
  Al  Al3  1  0.413691  0.413691  0.923773  1
  Al  Al4  1  0.923773  0.413691  0.413691  1
  Al  Al5  1  0.413691  0.923773  0.413691  1
  Al  Al6  1  0.500000  0.500000  0.500000  1
  Al  Al7  1  0.586309  0.076227  0.586309  1
  Al  Al8  1  0.076227  0.586309  0.586309  1
  Al  Al9  1  0.586309  0.586309  0.076227  1
  Cu  Cu10  1  0.665573  0.665573  0.665573  1
  Cu  Cu11  1  0.334427  0.334427  0.334427  1
