# generated using pymatgen
data_PrMn2P6BrN12
_symmetry_space_group_name_H-M   'P 1'
_cell_length_a   7.41145591
_cell_length_b   7.40621467
_cell_length_c   7.41145694
_cell_angle_alpha   109.66468482
_cell_angle_beta   109.43075576
_cell_angle_gamma   109.66467315
_symmetry_Int_Tables_number   1
_chemical_formula_structural   PrMn2P6BrN12
_chemical_formula_sum   'Pr1 Mn2 P6 Br1 N12'
_cell_volume   311.82348712
_cell_formula_units_Z   1
loop_
 _symmetry_equiv_pos_site_id
 _symmetry_equiv_pos_as_xyz
  1  'x, y, z'
loop_
 _atom_site_type_symbol
 _atom_site_label
 _atom_site_symmetry_multiplicity
 _atom_site_fract_x
 _atom_site_fract_y
 _atom_site_fract_z
 _atom_site_occupancy
  Pr  Pr0  1  0.013309  0.336549  0.013309  1
  Mn  Mn1  1  0.003154  0.008197  0.391501  1
  Mn  Mn2  1  0.391501  0.008197  0.003154  1
  P  P3  1  0.498122  0.260676  0.745557  1
  P  P4  1  0.249775  0.755574  0.499152  1
  P  P5  1  0.743284  0.507165  0.259064  1
  P  P6  1  0.745557  0.260676  0.498122  1
  P  P7  1  0.499152  0.755574  0.249775  1
  P  P8  1  0.259064  0.507165  0.743284  1
  Br  Br9  1  0.008273  0.936764  0.008273  1
  N  N10  1  0.387202  0.686793  0.387202  1
  N  N11  1  0.698164  0.422960  0.419344  1
  N  N12  1  0.419344  0.422960  0.698164  1
  N  N13  1  0.711222  0.285339  0.711222  1
  N  N14  1  0.992909  0.581196  0.295664  1
  N  N15  1  0.295664  0.581196  0.992909  1
  N  N16  1  0.283269  0.004940  0.573142  1
  N  N17  1  0.998795  0.289966  0.578009  1
  N  N18  1  0.717435  0.726602  0.293654  1
  N  N19  1  0.573142  0.004940  0.283269  1
  N  N20  1  0.293654  0.726602  0.717435  1
  N  N21  1  0.578009  0.289966  0.998795  1
