# generated using pymatgen
data_Pr2Th2Re16Si7Ge
_symmetry_space_group_name_H-M   'P 1'
_cell_length_a   4.17690900
_cell_length_b   7.32163497
_cell_length_c   15.69687575
_cell_angle_alpha   90.25150501
_cell_angle_beta   90.00000000
_cell_angle_gamma   90.00000000
_symmetry_Int_Tables_number   1
_chemical_formula_structural   Pr2Th2Re16Si7Ge
_chemical_formula_sum   'Pr2 Th2 Re16 Si7 Ge1'
_cell_volume   480.03413685
_cell_formula_units_Z   1
loop_
 _symmetry_equiv_pos_site_id
 _symmetry_equiv_pos_as_xyz
  1  'x, y, z'
loop_
 _atom_site_type_symbol
 _atom_site_label
 _atom_site_symmetry_multiplicity
 _atom_site_fract_x
 _atom_site_fract_y
 _atom_site_fract_z
 _atom_site_occupancy
  Pr  Pr0  1  0.000000  0.585491  0.118216  1
  Pr  Pr1  1  0.000000  0.416557  0.881342  1
  Th  Th2  1  0.500000  0.085185  0.381419  1
  Th  Th3  1  0.500000  0.914727  0.618731  1
  Re  Re4  1  0.000000  0.132652  0.053329  1
  Re  Re5  1  0.000000  0.861118  0.947234  1
  Re  Re6  1  0.500000  0.640570  0.449186  1
  Re  Re7  1  0.500000  0.359422  0.550995  1
  Re  Re8  1  0.000000  0.737508  0.321330  1
  Re  Re9  1  0.000000  0.261921  0.678930  1
  Re  Re10  1  0.500000  0.232926  0.181173  1
  Re  Re11  1  0.500000  0.763994  0.819709  1
  Re  Re12  1  0.000000  0.430729  0.419961  1
  Re  Re13  1  0.000000  0.569369  0.580192  1
  Re  Re14  1  0.500000  0.932490  0.080519  1
  Re  Re15  1  0.500000  0.062606  0.918950  1
  Re  Re16  1  0.000000  0.997830  0.207565  1
  Re  Re17  1  0.000000  0.001070  0.793083  1
  Re  Re18  1  0.500000  0.499041  0.294227  1
  Re  Re19  1  0.500000  0.500487  0.705683  1
  Si  Si20  1  0.000000  0.828056  0.474747  1
  Si  Si21  1  0.000000  0.172024  0.525342  1
  Si  Si22  1  0.500000  0.677317  0.973684  1
  Si  Si23  1  0.000000  0.303991  0.273457  1
  Si  Si24  1  0.000000  0.695853  0.726711  1
  Si  Si25  1  0.500000  0.799074  0.225339  1
  Si  Si26  1  0.500000  0.200892  0.774754  1
  Ge  Ge27  1  0.500000  0.337099  0.024192  1
