# generated using pymatgen
data_Nd3Si2BiO10
_symmetry_space_group_name_H-M   'P 1'
_cell_length_a   7.37945500
_cell_length_b   6.93986946
_cell_length_c   9.38038220
_cell_angle_alpha   71.42347447
_cell_angle_beta   90.00000000
_cell_angle_gamma   90.00000000
_symmetry_Int_Tables_number   1
_chemical_formula_structural   Nd3Si2BiO10
_chemical_formula_sum   'Nd6 Si4 Bi2 O20'
_cell_volume   455.36347624
_cell_formula_units_Z   2
loop_
 _symmetry_equiv_pos_site_id
 _symmetry_equiv_pos_as_xyz
  1  'x, y, z'
loop_
 _atom_site_type_symbol
 _atom_site_label
 _atom_site_symmetry_multiplicity
 _atom_site_fract_x
 _atom_site_fract_y
 _atom_site_fract_z
 _atom_site_occupancy
  Nd  Nd0  1  0.656295  0.095964  0.606618  1
  Nd  Nd1  1  0.845468  0.592252  0.610333  1
  Nd  Nd2  1  0.156295  0.404036  0.393382  1
  Nd  Nd3  1  0.345468  0.907748  0.389667  1
  Nd  Nd4  1  0.877572  0.731481  0.977313  1
  Nd  Nd5  1  0.377572  0.768519  0.022687  1
  Si  Si6  1  0.080120  0.039211  0.700354  1
  Si  Si7  1  0.580120  0.460789  0.299646  1
  Si  Si8  1  0.417151  0.546140  0.702651  1
  Si  Si9  1  0.917151  0.953860  0.297349  1
  Bi  Bi10  1  0.631652  0.218516  0.979856  1
  Bi  Bi11  1  0.131652  0.281484  0.020144  1
  O  O12  1  0.568066  0.364013  0.709948  1
  O  O13  1  0.357749  0.509738  0.879510  1
  O  O14  1  0.380699  0.047185  0.117226  1
  O  O15  1  0.857749  0.990262  0.120490  1
  O  O16  1  0.248832  0.057809  0.586064  1
  O  O17  1  0.747701  0.941373  0.409654  1
  O  O18  1  0.040000  0.745722  0.366025  1
  O  O19  1  0.137365  0.976224  0.879265  1
  O  O20  1  0.461397  0.248724  0.365263  1
  O  O21  1  0.626505  0.958884  0.882670  1
  O  O22  1  0.068066  0.135987  0.290052  1
  O  O23  1  0.126505  0.541116  0.117330  1
  O  O24  1  0.748832  0.442191  0.413936  1
  O  O25  1  0.540000  0.754278  0.633975  1
  O  O26  1  0.961397  0.251276  0.634737  1
  O  O27  1  0.923427  0.865263  0.702705  1
  O  O28  1  0.637365  0.523776  0.120735  1
  O  O29  1  0.880699  0.452815  0.882774  1
  O  O30  1  0.423427  0.634737  0.297295  1
  O  O31  1  0.247701  0.558627  0.590346  1
