# generated using pymatgen
data_Pd5Pb3O14
_symmetry_space_group_name_H-M   'P 1'
_cell_length_a   7.36314372
_cell_length_b   7.36314261
_cell_length_c   7.17742600
_cell_angle_alpha   59.14030565
_cell_angle_beta   59.14031082
_cell_angle_gamma   60.00000332
_symmetry_Int_Tables_number   1
_chemical_formula_structural   Pd5Pb3O14
_chemical_formula_sum   'Pd5 Pb3 O14'
_cell_volume   271.52695552
_cell_formula_units_Z   1
loop_
 _symmetry_equiv_pos_site_id
 _symmetry_equiv_pos_as_xyz
  1  'x, y, z'
loop_
 _atom_site_type_symbol
 _atom_site_label
 _atom_site_symmetry_multiplicity
 _atom_site_fract_x
 _atom_site_fract_y
 _atom_site_fract_z
 _atom_site_occupancy
  Pd  Pd0  1  0.125000  0.125000  0.625000  1
  Pd  Pd1  1  0.125000  0.625000  0.625000  1
  Pd  Pd2  1  0.625000  0.125000  0.625000  1
  Pd  Pd3  1  0.625000  0.625000  0.125000  1
  Pd  Pd4  1  0.625000  0.625000  0.625000  1
  Pb  Pb5  1  0.625000  0.125000  0.125000  1
  Pb  Pb6  1  0.125000  0.625000  0.125000  1
  Pb  Pb7  1  0.125000  0.125000  0.125000  1
  O  O8  1  0.712460  0.712460  0.286196  1
  O  O9  1  0.291845  0.291845  0.698946  1
  O  O10  1  0.717366  0.291845  0.698946  1
  O  O11  1  0.288884  0.712460  0.286196  1
  O  O12  1  0.291845  0.717366  0.698946  1
  O  O13  1  0.712460  0.288884  0.286196  1
  O  O14  1  0.537540  0.537540  0.963804  1
  O  O15  1  0.958155  0.958155  0.551054  1
  O  O16  1  0.532634  0.958155  0.551054  1
  O  O17  1  0.961116  0.537540  0.963804  1
  O  O18  1  0.958155  0.532634  0.551054  1
  O  O19  1  0.537540  0.961116  0.963804  1
  O  O20  1  0.239958  0.239958  0.280128  1
  O  O21  1  0.010042  0.010042  0.969872  1
