# generated using pymatgen
data_Hf8Si16Mo11W
_symmetry_space_group_name_H-M   'P 1'
_cell_length_a   6.58097508
_cell_length_b   6.76279111
_cell_length_c   12.61206300
_cell_angle_alpha   90.00000000
_cell_angle_beta   90.00000000
_cell_angle_gamma   90.06568683
_symmetry_Int_Tables_number   1
_chemical_formula_structural   Hf8Si16Mo11W
_chemical_formula_sum   'Hf8 Si16 Mo11 W1'
_cell_volume   561.30907735
_cell_formula_units_Z   1
loop_
 _symmetry_equiv_pos_site_id
 _symmetry_equiv_pos_as_xyz
  1  'x, y, z'
loop_
 _atom_site_type_symbol
 _atom_site_label
 _atom_site_symmetry_multiplicity
 _atom_site_fract_x
 _atom_site_fract_y
 _atom_site_fract_z
 _atom_site_occupancy
  Hf  Hf0  1  0.992754  0.172061  0.092365  1
  Hf  Hf1  1  0.007960  0.827204  0.907240  1
  Hf  Hf2  1  0.506084  0.671883  0.907062  1
  Hf  Hf3  1  0.007960  0.827204  0.592760  1
  Hf  Hf4  1  0.493117  0.327638  0.092654  1
  Hf  Hf5  1  0.992754  0.172061  0.407635  1
  Hf  Hf6  1  0.493117  0.327638  0.407346  1
  Hf  Hf7  1  0.506084  0.671883  0.592938  1
  Si  Si8  1  0.031177  0.121059  0.750000  1
  Si  Si9  1  0.968437  0.878056  0.250000  1
  Si  Si10  1  0.468603  0.622121  0.250000  1
  Si  Si11  1  0.532780  0.377184  0.750000  1
  Si  Si12  1  0.301892  0.862505  0.750000  1
  Si  Si13  1  0.698663  0.138365  0.250000  1
  Si  Si14  1  0.198340  0.361608  0.250000  1
  Si  Si15  1  0.800522  0.639474  0.750000  1
  Si  Si16  1  0.167238  0.459659  0.542681  1
  Si  Si17  1  0.832616  0.540330  0.456752  1
  Si  Si18  1  0.332691  0.959963  0.456770  1
  Si  Si19  1  0.832616  0.540330  0.043248  1
  Si  Si20  1  0.667397  0.040043  0.543475  1
  Si  Si21  1  0.167238  0.459659  0.957319  1
  Si  Si22  1  0.667397  0.040043  0.956525  1
  Si  Si23  1  0.332691  0.959963  0.043230  1
  Mo  Mo24  1  0.831906  0.486085  0.250000  1
  Mo  Mo25  1  0.332002  0.014534  0.250000  1
  Mo  Mo26  1  0.667907  0.986049  0.750000  1
  Mo  Mo27  1  0.329198  0.165135  0.623505  1
  Mo  Mo28  1  0.670166  0.835550  0.376826  1
  Mo  Mo29  1  0.170071  0.664309  0.376618  1
  Mo  Mo30  1  0.670166  0.835550  0.123174  1
  Mo  Mo31  1  0.830831  0.336220  0.623397  1
  Mo  Mo32  1  0.329198  0.165135  0.876495  1
  Mo  Mo33  1  0.830831  0.336220  0.876603  1
  Mo  Mo34  1  0.170071  0.664309  0.123382  1
  W  W35  1  0.167522  0.512970  0.750000  1
