# generated using pymatgen
data_ErTmPa2(NiGe)4
_symmetry_space_group_name_H-M   'P 1'
_cell_length_a   4.23299000
_cell_length_b   6.97351567
_cell_length_c   7.17798849
_cell_angle_alpha   89.64709704
_cell_angle_beta   90.00000000
_cell_angle_gamma   90.00000000
_symmetry_Int_Tables_number   1
_chemical_formula_structural   ErTmPa2(NiGe)4
_chemical_formula_sum   'Er1 Tm1 Pa2 Ni4 Ge4'
_cell_volume   211.88174602
_cell_formula_units_Z   1
loop_
 _symmetry_equiv_pos_site_id
 _symmetry_equiv_pos_as_xyz
  1  'x, y, z'
loop_
 _atom_site_type_symbol
 _atom_site_label
 _atom_site_symmetry_multiplicity
 _atom_site_fract_x
 _atom_site_fract_y
 _atom_site_fract_z
 _atom_site_occupancy
  Er  Er0  1  0.750000  0.009016  0.709000  1
  Tm  Tm1  1  0.250000  0.990846  0.289901  1
  Pa  Pa2  1  0.250000  0.489644  0.208918  1
  Pa  Pa3  1  0.750000  0.510444  0.791275  1
  Ni  Ni4  1  0.750000  0.298851  0.418684  1
  Ni  Ni5  1  0.250000  0.206981  0.923317  1
  Ni  Ni6  1  0.750000  0.793691  0.077608  1
  Ni  Ni7  1  0.250000  0.700920  0.580926  1
  Ge  Ge8  1  0.250000  0.299133  0.590821  1
  Ge  Ge9  1  0.750000  0.200919  0.089849  1
  Ge  Ge10  1  0.250000  0.798629  0.910684  1
  Ge  Ge11  1  0.750000  0.700925  0.409016  1
