# generated using pymatgen
data_Nd3Ni6As6Pd2Pt
_symmetry_space_group_name_H-M   'P 1'
_cell_length_a   3.95102100
_cell_length_b   8.16451915
_cell_length_c   9.95081108
_cell_angle_alpha   105.12041081
_cell_angle_beta   90.00000000
_cell_angle_gamma   104.00240879
_symmetry_Int_Tables_number   1
_chemical_formula_structural   Nd3Ni6As6Pd2Pt
_chemical_formula_sum   'Nd3 Ni6 As6 Pd2 Pt1'
_cell_volume   299.99087649
_cell_formula_units_Z   1
loop_
 _symmetry_equiv_pos_site_id
 _symmetry_equiv_pos_as_xyz
  1  'x, y, z'
loop_
 _atom_site_type_symbol
 _atom_site_label
 _atom_site_symmetry_multiplicity
 _atom_site_fract_x
 _atom_site_fract_y
 _atom_site_fract_z
 _atom_site_occupancy
  Nd  Nd0  1  0.848624  0.697246  0.309159  1
  Nd  Nd1  1  0.151376  0.302754  0.690841  1
  Nd  Nd2  1  0.000000  0.000000  0.000000  1
  Ni  Ni3  1  0.950025  0.900051  0.668803  1
  Ni  Ni4  1  0.049975  0.099949  0.331197  1
  Ni  Ni5  1  0.784760  0.569521  0.610386  1
  Ni  Ni6  1  0.215240  0.430479  0.389614  1
  Ni  Ni7  1  0.371921  0.743842  0.790475  1
  Ni  Ni8  1  0.628079  0.256158  0.209525  1
  As  As9  1  0.801659  0.603320  0.853761  1
  As  As10  1  0.198341  0.396680  0.146239  1
  As  As11  1  0.525627  0.051255  0.779916  1
  As  As12  1  0.474373  0.948745  0.220084  1
  As  As13  1  0.648050  0.296102  0.450060  1
  As  As14  1  0.351950  0.703898  0.549940  1
  Pd  Pd15  1  0.672388  0.344776  0.963875  1
  Pd  Pd16  1  0.327612  0.655224  0.036125  1
  Pt  Pt17  1  0.500000  0.000000  0.500000  1
