# generated using pymatgen
data_Na4CaTeO6
_symmetry_space_group_name_H-M   'P 1'
_cell_length_a   5.77922496
_cell_length_b   5.77922543
_cell_length_c   5.82409482
_cell_angle_alpha   100.04004429
_cell_angle_beta   100.04004304
_cell_angle_gamma   119.70800984
_symmetry_Int_Tables_number   1
_chemical_formula_structural   Na4CaTeO6
_chemical_formula_sum   'Na4 Ca1 Te1 O6'
_cell_volume   158.44724586
_cell_formula_units_Z   1
loop_
 _symmetry_equiv_pos_site_id
 _symmetry_equiv_pos_as_xyz
  1  'x, y, z'
loop_
 _atom_site_type_symbol
 _atom_site_label
 _atom_site_symmetry_multiplicity
 _atom_site_fract_x
 _atom_site_fract_y
 _atom_site_fract_z
 _atom_site_occupancy
  Na  Na0  1  0.499310  0.500690  0.000000  1
  Na  Na1  1  0.007615  0.992385  0.500000  1
  Na  Na2  1  0.660133  0.339868  0.500000  1
  Na  Na3  1  0.334313  0.665687  0.500000  1
  Ca  Ca4  1  0.833277  0.166724  0.000000  1
  Te  Te5  1  0.166892  0.833108  0.000000  1
  O  O6  1  0.960340  0.619044  0.202420  1
  O  O7  1  0.228158  0.181358  0.213191  1
  O  O8  1  0.523583  0.913250  0.213442  1
  O  O9  1  0.086750  0.476417  0.786558  1
  O  O10  1  0.818642  0.771842  0.786809  1
  O  O11  1  0.380957  0.039660  0.797580  1
