# generated using pymatgen
data_TbY3Zr4(IrPt)2
_symmetry_space_group_name_H-M   'P 1'
_cell_length_a   4.70371600
_cell_length_b   7.13725571
_cell_length_c   8.21661796
_cell_angle_alpha   90.07923019
_cell_angle_beta   90.00000000
_cell_angle_gamma   90.00000000
_symmetry_Int_Tables_number   1
_chemical_formula_structural   TbY3Zr4(IrPt)2
_chemical_formula_sum   'Tb1 Y3 Zr4 Ir2 Pt2'
_cell_volume   275.84494395
_cell_formula_units_Z   1
loop_
 _symmetry_equiv_pos_site_id
 _symmetry_equiv_pos_as_xyz
  1  'x, y, z'
loop_
 _atom_site_type_symbol
 _atom_site_label
 _atom_site_symmetry_multiplicity
 _atom_site_fract_x
 _atom_site_fract_y
 _atom_site_fract_z
 _atom_site_occupancy
  Tb  Tb0  1  0.250000  0.516787  0.821320  1
  Y  Y1  1  0.250000  0.017011  0.678937  1
  Y  Y2  1  0.750000  0.985508  0.324193  1
  Y  Y3  1  0.750000  0.485368  0.176198  1
  Zr  Zr4  1  0.250000  0.141935  0.083120  1
  Zr  Zr5  1  0.250000  0.641470  0.416895  1
  Zr  Zr6  1  0.750000  0.853323  0.923407  1
  Zr  Zr7  1  0.750000  0.353467  0.576400  1
  Ir  Ir8  1  0.250000  0.272276  0.412096  1
  Ir  Ir9  1  0.250000  0.772116  0.087462  1
  Pt  Pt10  1  0.750000  0.730536  0.592386  1
  Pt  Pt11  1  0.750000  0.230201  0.907587  1
