# generated using pymatgen
data_Zr16Ir3Pd5N4
_symmetry_space_group_name_H-M   'P 1'
_cell_length_a   8.86452619
_cell_length_b   8.87128606
_cell_length_c   8.87128600
_cell_angle_alpha   60.00000022
_cell_angle_beta   59.97477124
_cell_angle_gamma   59.97477710
_symmetry_Int_Tables_number   1
_chemical_formula_structural   Zr16Ir3Pd5N4
_chemical_formula_sum   'Zr16 Ir3 Pd5 N4'
_cell_volume   493.11475535
_cell_formula_units_Z   1
loop_
 _symmetry_equiv_pos_site_id
 _symmetry_equiv_pos_as_xyz
  1  'x, y, z'
loop_
 _atom_site_type_symbol
 _atom_site_label
 _atom_site_symmetry_multiplicity
 _atom_site_fract_x
 _atom_site_fract_y
 _atom_site_fract_z
 _atom_site_occupancy
  Zr  Zr0  1  0.110599  0.629800  0.629800  1
  Zr  Zr1  1  0.630545  0.114108  0.627673  1
  Zr  Zr2  1  0.630545  0.627673  0.114108  1
  Zr  Zr3  1  0.630545  0.627673  0.627673  1
  Zr  Zr4  1  0.817695  0.818181  0.182062  1
  Zr  Zr5  1  0.178460  0.184496  0.818522  1
  Zr  Zr6  1  0.817695  0.182062  0.818181  1
  Zr  Zr7  1  0.178460  0.818522  0.184496  1
  Zr  Zr8  1  0.178460  0.818522  0.818522  1
  Zr  Zr9  1  0.817695  0.182062  0.182062  1
  Zr  Zr10  1  0.431721  0.431147  0.068566  1
  Zr  Zr11  1  0.066518  0.067750  0.432866  1
  Zr  Zr12  1  0.431721  0.068566  0.431147  1
  Zr  Zr13  1  0.066518  0.432866  0.067750  1
  Zr  Zr14  1  0.066518  0.432866  0.432866  1
  Zr  Zr15  1  0.431721  0.068566  0.068566  1
  Ir  Ir16  1  0.845174  0.463962  0.845432  1
  Ir  Ir17  1  0.845174  0.845432  0.463962  1
  Ir  Ir18  1  0.845174  0.845432  0.845432  1
  Pd  Pd19  1  0.763910  0.412030  0.412030  1
  Pd  Pd20  1  0.411989  0.764488  0.411762  1
  Pd  Pd21  1  0.411989  0.411762  0.764488  1
  Pd  Pd22  1  0.411989  0.411762  0.411762  1
  Pd  Pd23  1  0.475024  0.841658  0.841658  1
  N  N24  1  0.624131  0.125290  0.125290  1
  N  N25  1  0.126677  0.623000  0.125162  1
  N  N26  1  0.126677  0.125162  0.623000  1
  N  N27  1  0.126677  0.125162  0.125162  1
