# generated using pymatgen
data_Cd10Pd2Au
_symmetry_space_group_name_H-M   'P 1'
_cell_length_a   8.79042808
_cell_length_b   8.79042786
_cell_length_c   8.76231222
_cell_angle_alpha   70.61441739
_cell_angle_beta   70.61441263
_cell_angle_gamma   109.58533236
_symmetry_Int_Tables_number   1
_chemical_formula_structural   Cd10Pd2Au
_chemical_formula_sum   'Cd20 Pd4 Au2'
_cell_volume   521.58072832
_cell_formula_units_Z   2
loop_
 _symmetry_equiv_pos_site_id
 _symmetry_equiv_pos_as_xyz
  1  'x, y, z'
loop_
 _atom_site_type_symbol
 _atom_site_label
 _atom_site_symmetry_multiplicity
 _atom_site_fract_x
 _atom_site_fract_y
 _atom_site_fract_z
 _atom_site_occupancy
  Cd  Cd0  1  0.005694  0.005694  0.790861  1
  Cd  Cd1  1  0.784472  0.784472  0.216518  1
  Cd  Cd2  1  0.212818  0.999179  0.993951  1
  Cd  Cd3  1  0.999179  0.212818  0.993951  1
  Cd  Cd4  1  0.258049  0.258049  0.395469  1
  Cd  Cd5  1  0.007770  0.747224  0.647663  1
  Cd  Cd6  1  0.747224  0.007770  0.647663  1
  Cd  Cd7  1  0.649896  0.649896  0.618598  1
  Cd  Cd8  1  0.376338  0.641796  0.354294  1
  Cd  Cd9  1  0.641796  0.376338  0.354294  1
  Cd  Cd10  1  0.354826  0.744067  0.986950  1
  Cd  Cd11  1  0.615814  0.258305  0.734042  1
  Cd  Cd12  1  0.352827  0.004036  0.261681  1
  Cd  Cd13  1  0.744067  0.354826  0.986950  1
  Cd  Cd14  1  0.004036  0.352827  0.261681  1
  Cd  Cd15  1  0.258305  0.615814  0.734042  1
  Cd  Cd16  1  0.644783  0.644783  0.998861  1
  Cd  Cd17  1  0.000845  0.642973  0.360224  1
  Cd  Cd18  1  0.642973  0.000845  0.360224  1
  Cd  Cd19  1  0.353049  0.353049  0.004465  1
  Pd  Pd20  1  0.999278  0.999278  0.341552  1
  Pd  Pd21  1  0.351324  0.351324  0.657794  1
  Pd  Pd22  1  0.648466  0.990642  0.010677  1
  Pd  Pd23  1  0.990642  0.648466  0.010677  1
  Au  Au24  1  0.997488  0.358042  0.638460  1
  Au  Au25  1  0.358042  0.997488  0.638460  1
