# generated using pymatgen
data_Nd2U(GaIr)3
_symmetry_space_group_name_H-M   'P 1'
_cell_length_a   7.26502479
_cell_length_b   7.37705190
_cell_length_c   3.92773000
_cell_angle_alpha   90.00000000
_cell_angle_beta   90.00000000
_cell_angle_gamma   120.50389091
_symmetry_Int_Tables_number   1
_chemical_formula_structural   Nd2U(GaIr)3
_chemical_formula_sum   'Nd2 U1 Ga3 Ir3'
_cell_volume   181.36963556
_cell_formula_units_Z   1
loop_
 _symmetry_equiv_pos_site_id
 _symmetry_equiv_pos_as_xyz
  1  'x, y, z'
loop_
 _atom_site_type_symbol
 _atom_site_label
 _atom_site_symmetry_multiplicity
 _atom_site_fract_x
 _atom_site_fract_y
 _atom_site_fract_z
 _atom_site_occupancy
  Nd  Nd0  1  0.589319  0.002681  0.500001  1
  Nd  Nd1  1  0.410717  0.413358  0.500001  1
  U  U2  1  0.999967  0.584823  0.500001  1
  Ga  Ga3  1  0.248878  0.002097  0.000000  1
  Ga  Ga4  1  0.999984  0.234780  0.000000  1
  Ga  Ga5  1  0.751206  0.753284  0.000000  1
  Ir  Ir6  1  0.711418  0.370681  0.000000  1
  Ir  Ir7  1  0.288618  0.659272  0.000000  1
  Ir  Ir8  1  0.999991  0.979125  0.500001  1
