# generated using pymatgen
data_DyH5Ru
_symmetry_space_group_name_H-M   'P 1'
_cell_length_a   4.37792900
_cell_length_b   4.70644500
_cell_length_c   11.59032900
_cell_angle_alpha   90.00000000
_cell_angle_beta   90.00000000
_cell_angle_gamma   90.00000000
_symmetry_Int_Tables_number   1
_chemical_formula_structural   DyH5Ru
_chemical_formula_sum   'Dy4 H20 Ru4'
_cell_volume   238.81272586
_cell_formula_units_Z   4
loop_
 _symmetry_equiv_pos_site_id
 _symmetry_equiv_pos_as_xyz
  1  'x, y, z'
loop_
 _atom_site_type_symbol
 _atom_site_label
 _atom_site_symmetry_multiplicity
 _atom_site_fract_x
 _atom_site_fract_y
 _atom_site_fract_z
 _atom_site_occupancy
  Dy  Dy0  1  0.275148  0.161614  0.649736  1
  Dy  Dy1  1  0.775148  0.338386  0.350264  1
  Dy  Dy2  1  0.224852  0.838386  0.149736  1
  Dy  Dy3  1  0.724852  0.661614  0.850264  1
  H  H4  1  0.532656  0.389853  0.514630  1
  H  H5  1  0.032656  0.110147  0.485370  1
  H  H6  1  0.967344  0.610147  0.014630  1
  H  H7  1  0.467344  0.889853  0.985370  1
  H  H8  1  0.153494  0.926693  0.818673  1
  H  H9  1  0.653494  0.573307  0.181327  1
  H  H10  1  0.346506  0.073307  0.318673  1
  H  H11  1  0.846506  0.426693  0.681327  1
  H  H12  1  0.199851  0.443009  0.827733  1
  H  H13  1  0.699851  0.056991  0.172267  1
  H  H14  1  0.300149  0.556991  0.327733  1
  H  H15  1  0.800149  0.943009  0.672267  1
  H  H16  1  0.623158  0.156415  0.824115  1
  H  H17  1  0.123158  0.343585  0.175885  1
  H  H18  1  0.876842  0.843585  0.324115  1
  H  H19  1  0.376842  0.656415  0.675885  1
  H  H20  1  0.985674  0.083036  0.997602  1
  H  H21  1  0.485674  0.416964  0.002398  1
  H  H22  1  0.514326  0.916964  0.497602  1
  H  H23  1  0.014326  0.583036  0.502398  1
  Ru  Ru24  1  0.318949  0.158468  0.909655  1
  Ru  Ru25  1  0.818949  0.341532  0.090345  1
  Ru  Ru26  1  0.181051  0.841532  0.409655  1
  Ru  Ru27  1  0.681051  0.658468  0.590345  1
