# generated using pymatgen
data_Tb3CeNi4(SnH)4
_symmetry_space_group_name_H-M   'P 1'
_cell_length_a   4.31253700
_cell_length_b   7.14968644
_cell_length_c   8.30591850
_cell_angle_alpha   90.04009814
_cell_angle_beta   90.00000000
_cell_angle_gamma   90.00000000
_symmetry_Int_Tables_number   1
_chemical_formula_structural   Tb3CeNi4(SnH)4
_chemical_formula_sum   'Tb3 Ce1 Ni4 Sn4 H4'
_cell_volume   256.09870896
_cell_formula_units_Z   1
loop_
 _symmetry_equiv_pos_site_id
 _symmetry_equiv_pos_as_xyz
  1  'x, y, z'
loop_
 _atom_site_type_symbol
 _atom_site_label
 _atom_site_symmetry_multiplicity
 _atom_site_fract_x
 _atom_site_fract_y
 _atom_site_fract_z
 _atom_site_occupancy
  Tb  Tb0  1  0.750000  0.513885  0.812246  1
  Tb  Tb1  1  0.250000  0.486407  0.186585  1
  Tb  Tb2  1  0.250000  0.986218  0.314132  1
  Ce  Ce3  1  0.750000  0.012422  0.691365  1
  Ni  Ni4  1  0.750000  0.276997  0.393263  1
  Ni  Ni5  1  0.250000  0.722024  0.604469  1
  Ni  Ni6  1  0.250000  0.224202  0.893844  1
  Ni  Ni7  1  0.750000  0.776042  0.103310  1
  Sn  Sn8  1  0.750000  0.160469  0.074086  1
  Sn  Sn9  1  0.250000  0.840147  0.932206  1
  Sn  Sn10  1  0.250000  0.340712  0.569715  1
  Sn  Sn11  1  0.750000  0.659704  0.427221  1
  H  H12  1  0.250000  0.945597  0.578867  1
  H  H13  1  0.750000  0.054034  0.418930  1
  H  H14  1  0.750000  0.554560  0.078125  1
  H  H15  1  0.250000  0.446580  0.921636  1
