# generated using pymatgen
data_Sm4CrB16Ru3
_symmetry_space_group_name_H-M   'P 1'
_cell_length_a   3.58807600
_cell_length_b   6.01854926
_cell_length_c   11.64586795
_cell_angle_alpha   89.79887420
_cell_angle_beta   90.00000000
_cell_angle_gamma   90.00000000
_symmetry_Int_Tables_number   1
_chemical_formula_structural   Sm4CrB16Ru3
_chemical_formula_sum   'Sm4 Cr1 B16 Ru3'
_cell_volume   251.49111062
_cell_formula_units_Z   1
loop_
 _symmetry_equiv_pos_site_id
 _symmetry_equiv_pos_as_xyz
  1  'x, y, z'
loop_
 _atom_site_type_symbol
 _atom_site_label
 _atom_site_symmetry_multiplicity
 _atom_site_fract_x
 _atom_site_fract_y
 _atom_site_fract_z
 _atom_site_occupancy
  Sm  Sm0  1  0.000000  0.624859  0.349831  1
  Sm  Sm1  1  0.000000  0.374812  0.650558  1
  Sm  Sm2  1  0.000000  0.126230  0.149683  1
  Sm  Sm3  1  0.000000  0.873284  0.848889  1
  Cr  Cr4  1  0.000000  0.867913  0.587356  1
  B  B5  1  0.500000  0.783844  0.185043  1
  B  B6  1  0.500000  0.217219  0.814814  1
  B  B7  1  0.500000  0.282793  0.316381  1
  B  B8  1  0.500000  0.717551  0.683995  1
  B  B9  1  0.500000  0.861902  0.030857  1
  B  B10  1  0.500000  0.138287  0.968621  1
  B  B11  1  0.500000  0.361467  0.468571  1
  B  B12  1  0.500000  0.639237  0.531872  1
  B  B13  1  0.500000  0.888382  0.454205  1
  B  B14  1  0.500000  0.112113  0.545636  1
  B  B15  1  0.500000  0.388442  0.045886  1
  B  B16  1  0.500000  0.611953  0.953976  1
  B  B17  1  0.500000  0.974778  0.310058  1
  B  B18  1  0.500000  0.024769  0.689541  1
  B  B19  1  0.500000  0.472507  0.190401  1
  B  B20  1  0.500000  0.526642  0.809351  1
  Ru  Ru21  1  0.000000  0.638825  0.092194  1
  Ru  Ru22  1  0.000000  0.362261  0.909500  1
  Ru  Ru23  1  0.000000  0.129930  0.412780  1
