# generated using pymatgen
data_Zr4TiV3P4
_symmetry_space_group_name_H-M   'P 1'
_cell_length_a   3.52149300
_cell_length_b   6.68868114
_cell_length_c   8.00380038
_cell_angle_alpha   89.93287272
_cell_angle_beta   90.00000000
_cell_angle_gamma   90.00000000
_symmetry_Int_Tables_number   1
_chemical_formula_structural   Zr4TiV3P4
_chemical_formula_sum   'Zr4 Ti1 V3 P4'
_cell_volume   188.52253588
_cell_formula_units_Z   1
loop_
 _symmetry_equiv_pos_site_id
 _symmetry_equiv_pos_as_xyz
  1  'x, y, z'
loop_
 _atom_site_type_symbol
 _atom_site_label
 _atom_site_symmetry_multiplicity
 _atom_site_fract_x
 _atom_site_fract_y
 _atom_site_fract_z
 _atom_site_occupancy
  Zr  Zr0  1  0.250000  0.035171  0.827264  1
  Zr  Zr1  1  0.750000  0.958952  0.169894  1
  Zr  Zr2  1  0.250000  0.540786  0.667743  1
  Zr  Zr3  1  0.750000  0.461740  0.331978  1
  Ti  Ti4  1  0.750000  0.369536  0.941009  1
  V  V5  1  0.250000  0.635425  0.060378  1
  V  V6  1  0.750000  0.869688  0.556695  1
  V  V7  1  0.250000  0.128314  0.441989  1
  P  P8  1  0.250000  0.762899  0.364844  1
  P  P9  1  0.750000  0.236535  0.632811  1
  P  P10  1  0.250000  0.262285  0.141092  1
  P  P11  1  0.750000  0.738668  0.864303  1
