# generated using pymatgen
data_La5Yb3GePd24
_symmetry_space_group_name_H-M   'P 1'
_cell_length_a   8.47788371
_cell_length_b   8.47788371
_cell_length_c   8.47173871
_cell_angle_alpha   89.96680336
_cell_angle_beta   90.03319664
_cell_angle_gamma   90.15098447
_symmetry_Int_Tables_number   1
_chemical_formula_structural   La5Yb3GePd24
_chemical_formula_sum   'La5 Yb3 Ge1 Pd24'
_cell_volume   608.89976979
_cell_formula_units_Z   1
loop_
 _symmetry_equiv_pos_site_id
 _symmetry_equiv_pos_as_xyz
  1  'x, y, z'
loop_
 _atom_site_type_symbol
 _atom_site_label
 _atom_site_symmetry_multiplicity
 _atom_site_fract_x
 _atom_site_fract_y
 _atom_site_fract_z
 _atom_site_occupancy
  La  La0  1  0.253166  0.253344  0.253248  1
  La  La1  1  0.746761  0.746892  0.746719  1
  La  La2  1  0.746656  0.746834  0.253248  1
  La  La3  1  0.747272  0.252728  0.747929  1
  La  La4  1  0.253108  0.253239  0.746719  1
  Yb  Yb5  1  0.251995  0.748005  0.251382  1
  Yb  Yb6  1  0.251462  0.748538  0.749025  1
  Yb  Yb7  1  0.748510  0.251490  0.251013  1
  Ge  Ge8  1  0.000364  0.999636  0.000117  1
  Pd  Pd9  1  0.261208  0.504517  0.999748  1
  Pd  Pd10  1  0.739172  0.497762  0.002828  1
  Pd  Pd11  1  0.996111  0.261030  0.497644  1
  Pd  Pd12  1  0.502238  0.260828  0.002828  1
  Pd  Pd13  1  0.006305  0.738581  0.499882  1
  Pd  Pd14  1  0.495483  0.738792  0.999748  1
  Pd  Pd15  1  0.499752  0.000171  0.261162  1
  Pd  Pd16  1  0.261419  0.993695  0.499882  1
  Pd  Pd17  1  0.497592  0.997104  0.739114  1
  Pd  Pd18  1  0.738970  0.003889  0.497644  1
  Pd  Pd19  1  0.999829  0.500248  0.261162  1
  Pd  Pd20  1  0.002896  0.502408  0.739114  1
  Pd  Pd21  1  0.253526  0.506264  0.500216  1
  Pd  Pd22  1  0.746260  0.496321  0.497116  1
  Pd  Pd23  1  0.503679  0.253740  0.497116  1
  Pd  Pd24  1  0.493736  0.746474  0.500216  1
  Pd  Pd25  1  0.500030  0.499970  0.253406  1
  Pd  Pd26  1  0.496998  0.503002  0.746384  1
  Pd  Pd27  1  0.291949  0.993655  0.000065  1
  Pd  Pd28  1  0.706866  0.003202  0.003078  1
  Pd  Pd29  1  0.996798  0.293134  0.003078  1
  Pd  Pd30  1  0.006345  0.708051  0.000065  1
  Pd  Pd31  1  0.000323  0.999677  0.292817  1
  Pd  Pd32  1  0.003224  0.996776  0.706289  1
