# generated using pymatgen
data_Li6AlGe5Pt12
_symmetry_space_group_name_H-M   'P 1'
_cell_length_a   4.00773400
_cell_length_b   7.04252300
_cell_length_c   11.99516300
_cell_angle_alpha   89.99998709
_cell_angle_beta   89.99970422
_cell_angle_gamma   90.00003057
_symmetry_Int_Tables_number   1
_chemical_formula_structural   Li6AlGe5Pt12
_chemical_formula_sum   'Li6 Al1 Ge5 Pt12'
_cell_volume   338.55818428
_cell_formula_units_Z   1
loop_
 _symmetry_equiv_pos_site_id
 _symmetry_equiv_pos_as_xyz
  1  'x, y, z'
loop_
 _atom_site_type_symbol
 _atom_site_label
 _atom_site_symmetry_multiplicity
 _atom_site_fract_x
 _atom_site_fract_y
 _atom_site_fract_z
 _atom_site_occupancy
  Li  Li0  1  0.000001  0.999830  0.000273  1
  Li  Li1  1  0.499854  0.500179  0.166840  1
  Li  Li2  1  0.999824  0.999825  0.333330  1
  Li  Li3  1  0.499998  0.500178  0.499798  1
  Li  Li4  1  0.000162  0.999830  0.666395  1
  Li  Li5  1  0.500167  0.500169  0.833347  1
  Al  Al6  1  0.500100  0.999908  0.833329  1
  Ge  Ge7  1  0.999995  0.499989  0.999810  1
  Ge  Ge8  1  0.499888  0.000021  0.165793  1
  Ge  Ge9  1  0.999883  0.499980  0.333324  1
  Ge  Ge10  1  0.499997  0.000017  0.500886  1
  Ge  Ge11  1  0.000115  0.499988  0.666871  1
  Pt  Pt12  1  0.500000  0.248377  0.999589  1
  Pt  Pt13  1  0.500001  0.751644  0.999579  1
  Pt  Pt14  1  0.999943  0.250492  0.166324  1
  Pt  Pt15  1  0.999944  0.749510  0.166317  1
  Pt  Pt16  1  0.499927  0.248778  0.333329  1
  Pt  Pt17  1  0.499926  0.751231  0.333329  1
  Pt  Pt18  1  0.999993  0.250496  0.500341  1
  Pt  Pt19  1  0.999993  0.749505  0.500349  1
  Pt  Pt20  1  0.500065  0.248402  0.667088  1
  Pt  Pt21  1  0.500065  0.751618  0.667097  1
  Pt  Pt22  1  0.000079  0.248153  0.833331  1
  Pt  Pt23  1  0.000078  0.751887  0.833330  1
