# generated using pymatgen
data_Pr3V(Ga3Pd)8
_symmetry_space_group_name_H-M   'P 1'
_cell_length_a   8.55890449
_cell_length_b   8.55890501
_cell_length_c   8.55890525
_cell_angle_alpha   90.01886555
_cell_angle_beta   90.01886589
_cell_angle_gamma   90.01887002
_symmetry_Int_Tables_number   1
_chemical_formula_structural   Pr3V(Ga3Pd)8
_chemical_formula_sum   'Pr3 V1 Ga24 Pd8'
_cell_volume   626.98122317
_cell_formula_units_Z   1
loop_
 _symmetry_equiv_pos_site_id
 _symmetry_equiv_pos_as_xyz
  1  'x, y, z'
loop_
 _atom_site_type_symbol
 _atom_site_label
 _atom_site_symmetry_multiplicity
 _atom_site_fract_x
 _atom_site_fract_y
 _atom_site_fract_z
 _atom_site_occupancy
  Pr  Pr0  1  0.000000  0.500000  0.000000  1
  Pr  Pr1  1  0.500000  0.000000  0.000000  1
  Pr  Pr2  1  0.000000  0.000000  0.500000  1
  V  V3  1  0.500000  0.500000  0.500000  1
  Ga  Ga4  1  0.989219  0.642931  0.642931  1
  Ga  Ga5  1  0.642931  0.642931  0.989219  1
  Ga  Ga6  1  0.642931  0.989219  0.642931  1
  Ga  Ga7  1  0.010781  0.357069  0.357069  1
  Ga  Ga8  1  0.357069  0.357069  0.010781  1
  Ga  Ga9  1  0.357069  0.010781  0.357069  1
  Ga  Ga10  1  0.733115  0.500000  0.266885  1
  Ga  Ga11  1  0.266885  0.500000  0.733115  1
  Ga  Ga12  1  0.500000  0.266885  0.733115  1
  Ga  Ga13  1  0.500000  0.733115  0.266885  1
  Ga  Ga14  1  0.266885  0.733115  0.500000  1
  Ga  Ga15  1  0.733115  0.266885  0.500000  1
  Ga  Ga16  1  0.838786  0.143282  0.838786  1
  Ga  Ga17  1  0.143282  0.838786  0.838786  1
  Ga  Ga18  1  0.838786  0.838786  0.143282  1
  Ga  Ga19  1  0.161214  0.856718  0.161214  1
  Ga  Ga20  1  0.856718  0.161214  0.161214  1
  Ga  Ga21  1  0.161214  0.161214  0.856718  1
  Ga  Ga22  1  0.724731  0.488840  0.724731  1
  Ga  Ga23  1  0.488840  0.724731  0.724731  1
  Ga  Ga24  1  0.724731  0.724731  0.488840  1
  Ga  Ga25  1  0.275269  0.511160  0.275269  1
  Ga  Ga26  1  0.511160  0.275269  0.275269  1
  Ga  Ga27  1  0.275269  0.275269  0.511160  1
  Pd  Pd28  1  0.837001  0.837001  0.837001  1
  Pd  Pd29  1  0.162999  0.162999  0.162999  1
  Pd  Pd30  1  0.663621  0.336379  0.000000  1
  Pd  Pd31  1  0.000000  0.336379  0.663621  1
  Pd  Pd32  1  0.336379  0.000000  0.663621  1
  Pd  Pd33  1  0.336379  0.663621  0.000000  1
  Pd  Pd34  1  0.000000  0.663621  0.336379  1
  Pd  Pd35  1  0.663621  0.000000  0.336379  1
