# generated using pymatgen
data_Tb4Sc4B24IrRh3
_symmetry_space_group_name_H-M   'P 1'
_cell_length_a   3.56452400
_cell_length_b   9.02668719
_cell_length_c   11.39680324
_cell_angle_alpha   89.97659810
_cell_angle_beta   90.00000000
_cell_angle_gamma   90.00000000
_symmetry_Int_Tables_number   1
_chemical_formula_structural   Tb4Sc4B24IrRh3
_chemical_formula_sum   'Tb4 Sc4 B24 Ir1 Rh3'
_cell_volume   366.70172249
_cell_formula_units_Z   1
loop_
 _symmetry_equiv_pos_site_id
 _symmetry_equiv_pos_as_xyz
  1  'x, y, z'
loop_
 _atom_site_type_symbol
 _atom_site_label
 _atom_site_symmetry_multiplicity
 _atom_site_fract_x
 _atom_site_fract_y
 _atom_site_fract_z
 _atom_site_occupancy
  Tb  Tb0  1  0.500000  0.320007  0.414158  1
  Tb  Tb1  1  0.500000  0.679607  0.586669  1
  Tb  Tb2  1  0.500000  0.179246  0.913987  1
  Tb  Tb3  1  0.500000  0.821074  0.085315  1
  Sc  Sc4  1  0.500000  0.444448  0.124513  1
  Sc  Sc5  1  0.500000  0.555435  0.875027  1
  Sc  Sc6  1  0.500000  0.055179  0.625078  1
  Sc  Sc7  1  0.500000  0.945228  0.375249  1
  B  B8  1  0.000000  0.099645  0.473202  1
  B  B9  1  0.000000  0.900407  0.526896  1
  B  B10  1  0.000000  0.400087  0.973047  1
  B  B11  1  0.000000  0.599721  0.026800  1
  B  B12  1  0.000000  0.130144  0.318557  1
  B  B13  1  0.000000  0.869918  0.681712  1
  B  B14  1  0.000000  0.370267  0.818300  1
  B  B15  1  0.000000  0.629753  0.181538  1
  B  B16  1  0.000000  0.054749  0.066040  1
  B  B17  1  0.000000  0.945095  0.933843  1
  B  B18  1  0.000000  0.444863  0.566290  1
  B  B19  1  0.000000  0.554876  0.433771  1
  B  B20  1  0.000000  0.481978  0.285005  1
  B  B21  1  0.000000  0.517954  0.715073  1
  B  B22  1  0.000000  0.017845  0.784993  1
  B  B23  1  0.000000  0.982299  0.214844  1
  B  B24  1  0.000000  0.254004  0.080834  1
  B  B25  1  0.000000  0.745959  0.919190  1
  B  B26  1  0.000000  0.245739  0.580818  1
  B  B27  1  0.000000  0.754251  0.419367  1
  B  B28  1  0.000000  0.295651  0.235468  1
  B  B29  1  0.000000  0.704064  0.764588  1
  B  B30  1  0.000000  0.204061  0.735260  1
  B  B31  1  0.000000  0.795975  0.264738  1
  Ir  Ir32  1  0.500000  0.642055  0.318146  1
  Rh  Rh33  1  0.500000  0.141793  0.182299  1
  Rh  Rh34  1  0.500000  0.858000  0.817779  1
  Rh  Rh35  1  0.500000  0.358621  0.681605  1
