# generated using pymatgen
data_Sm6SiGeI6
_symmetry_space_group_name_H-M   'P 1'
_cell_length_a   10.71486565
_cell_length_b   10.71486564
_cell_length_c   10.68165956
_cell_angle_alpha   109.48489249
_cell_angle_beta   109.48489016
_cell_angle_gamma   109.56954873
_symmetry_Int_Tables_number   1
_chemical_formula_structural   Sm6SiGeI6
_chemical_formula_sum   'Sm12 Si2 Ge2 I12'
_cell_volume   942.57229644
_cell_formula_units_Z   2
loop_
 _symmetry_equiv_pos_site_id
 _symmetry_equiv_pos_as_xyz
  1  'x, y, z'
loop_
 _atom_site_type_symbol
 _atom_site_label
 _atom_site_symmetry_multiplicity
 _atom_site_fract_x
 _atom_site_fract_y
 _atom_site_fract_z
 _atom_site_occupancy
  Sm  Sm0  1  0.464100  0.484390  0.230043  1
  Sm  Sm1  1  0.754348  0.234057  0.269957  1
  Sm  Sm2  1  0.754237  0.020043  0.484455  1
  Sm  Sm3  1  0.230218  0.464412  0.484455  1
  Sm  Sm4  1  0.265943  0.745652  0.230043  1
  Sm  Sm5  1  0.035588  0.269782  0.015545  1
  Sm  Sm6  1  0.015610  0.035900  0.269957  1
  Sm  Sm7  1  0.479957  0.745763  0.015545  1
  Sm  Sm8  1  0.483389  0.233389  0.466777  1
  Sm  Sm9  1  0.019076  0.480924  0.750000  1
  Sm  Sm10  1  0.266611  0.016611  0.033223  1
  Sm  Sm11  1  0.230924  0.269076  0.750000  1
  Si  Si12  1  0.999955  0.249955  0.499910  1
  Si  Si13  1  0.250045  0.500045  0.000090  1
  Ge  Ge14  1  0.249990  0.250010  0.250000  1
  Ge  Ge15  1  0.500010  0.999990  0.250000  1
  I  I16  1  0.250220  0.757350  0.743067  1
  I  I17  1  0.514282  0.507153  0.756933  1
  I  I18  1  0.985944  0.743149  0.993010  1
  I  I19  1  0.742650  0.249780  0.756933  1
  I  I20  1  0.992847  0.985718  0.743067  1
  I  I21  1  0.250140  0.992934  0.506990  1
  I  I22  1  0.756851  0.514056  0.506990  1
  I  I23  1  0.507066  0.249860  0.993010  1
  I  I24  1  0.757163  0.742837  0.250000  1
  I  I25  1  0.742960  0.992960  0.985920  1
  I  I26  1  0.992837  0.507163  0.250000  1
  I  I27  1  0.507040  0.757040  0.514080  1
