# generated using pymatgen
data_Tm2NbAl3
_symmetry_space_group_name_H-M   'P 1'
_cell_length_a   5.55995654
_cell_length_b   5.55995645
_cell_length_c   5.55995589
_cell_angle_alpha   60.83625645
_cell_angle_beta   60.83625334
_cell_angle_gamma   60.83626766
_symmetry_Int_Tables_number   1
_chemical_formula_structural   Tm2NbAl3
_chemical_formula_sum   'Tm2 Nb1 Al3'
_cell_volume   123.82619811
_cell_formula_units_Z   1
loop_
 _symmetry_equiv_pos_site_id
 _symmetry_equiv_pos_as_xyz
  1  'x, y, z'
loop_
 _atom_site_type_symbol
 _atom_site_label
 _atom_site_symmetry_multiplicity
 _atom_site_fract_x
 _atom_site_fract_y
 _atom_site_fract_z
 _atom_site_occupancy
  Tm  Tm0  1  0.628404  0.628404  0.628404  1
  Tm  Tm1  1  0.371596  0.371596  0.371596  1
  Nb  Nb2  1  0.000000  0.000000  0.000000  1
  Al  Al3  1  0.000000  0.500000  0.000000  1
  Al  Al4  1  0.500000  0.000000  0.000000  1
  Al  Al5  1  0.000000  0.000000  0.500000  1
