# generated using pymatgen
data_ErAg(PS3)2
_symmetry_space_group_name_H-M   'P 1'
_cell_length_a   6.33312400
_cell_length_b   6.33312327
_cell_length_c   14.39587300
_cell_angle_alpha   90.00000000
_cell_angle_beta   90.00000000
_cell_angle_gamma   119.99999338
_symmetry_Int_Tables_number   1
_chemical_formula_structural   ErAg(PS3)2
_chemical_formula_sum   'Er2 Ag2 P4 S12'
_cell_volume   500.03983117
_cell_formula_units_Z   2
loop_
 _symmetry_equiv_pos_site_id
 _symmetry_equiv_pos_as_xyz
  1  'x, y, z'
loop_
 _atom_site_type_symbol
 _atom_site_label
 _atom_site_symmetry_multiplicity
 _atom_site_fract_x
 _atom_site_fract_y
 _atom_site_fract_z
 _atom_site_occupancy
  Er  Er0  1  0.000000  0.000000  0.250000  1
  Er  Er1  1  0.000000  0.000000  0.750000  1
  Ag  Ag2  1  0.666667  0.333333  0.250000  1
  Ag  Ag3  1  0.333333  0.666667  0.750000  1
  P  P4  1  0.666667  0.333333  0.671860  1
  P  P5  1  0.666667  0.333333  0.828140  1
  P  P6  1  0.333333  0.666667  0.328140  1
  P  P7  1  0.333333  0.666667  0.171860  1
  S  S8  1  0.967653  0.319470  0.869051  1
  S  S9  1  0.351816  0.319470  0.630949  1
  S  S10  1  0.967653  0.648184  0.630949  1
  S  S11  1  0.680530  0.032347  0.630949  1
  S  S12  1  0.319470  0.351816  0.130949  1
  S  S13  1  0.648184  0.967653  0.130949  1
  S  S14  1  0.032347  0.680530  0.130949  1
  S  S15  1  0.648184  0.680530  0.369051  1
  S  S16  1  0.032347  0.351816  0.369051  1
  S  S17  1  0.319470  0.967653  0.369051  1
  S  S18  1  0.680530  0.648184  0.869051  1
  S  S19  1  0.351816  0.032347  0.869051  1
