# generated using pymatgen
data_LaPr4DyU4O20
_symmetry_space_group_name_H-M   'P 1'
_cell_length_a   6.78765903
_cell_length_b   7.72263525
_cell_length_c   8.65374887
_cell_angle_alpha   101.66549816
_cell_angle_beta   97.73014509
_cell_angle_gamma   107.10344440
_symmetry_Int_Tables_number   1
_chemical_formula_structural   LaPr4DyU4O20
_chemical_formula_sum   'La1 Pr4 Dy1 U4 O20'
_cell_volume   415.38416926
_cell_formula_units_Z   1
loop_
 _symmetry_equiv_pos_site_id
 _symmetry_equiv_pos_as_xyz
  1  'x, y, z'
loop_
 _atom_site_type_symbol
 _atom_site_label
 _atom_site_symmetry_multiplicity
 _atom_site_fract_x
 _atom_site_fract_y
 _atom_site_fract_z
 _atom_site_occupancy
  La  La0  1  0.000000  0.500000  0.500000  1
  Pr  Pr1  1  0.612268  0.703904  0.699936  1
  Pr  Pr2  1  0.387732  0.296096  0.300064  1
  Pr  Pr3  1  0.199191  0.898282  0.893260  1
  Pr  Pr4  1  0.800809  0.101718  0.106740  1
  Dy  Dy5  1  0.000000  0.000000  0.500000  1
  U  U6  1  0.402095  0.804931  0.301824  1
  U  U7  1  0.198365  0.401123  0.901428  1
  U  U8  1  0.801635  0.598877  0.098572  1
  U  U9  1  0.597905  0.195069  0.698176  1
  O  O10  1  0.437477  0.535226  0.132105  1
  O  O11  1  0.557130  0.993997  0.837080  1
  O  O12  1  0.273501  0.151339  0.741149  1
  O  O13  1  0.362781  0.601579  0.436917  1
  O  O14  1  0.054230  0.734100  0.325385  1
  O  O15  1  0.442870  0.006003  0.162920  1
  O  O16  1  0.151060  0.190037  0.028596  1
  O  O17  1  0.562523  0.464774  0.867895  1
  O  O18  1  0.856199  0.341883  0.949077  1
  O  O19  1  0.255975  0.601084  0.765445  1
  O  O20  1  0.955065  0.780282  0.646528  1
  O  O21  1  0.352786  0.055401  0.455261  1
  O  O22  1  0.647214  0.944599  0.544739  1
  O  O23  1  0.044935  0.219718  0.353472  1
  O  O24  1  0.744025  0.398916  0.234555  1
  O  O25  1  0.143801  0.658117  0.050923  1
  O  O26  1  0.848940  0.809963  0.971404  1
  O  O27  1  0.945770  0.265900  0.674615  1
  O  O28  1  0.637219  0.398421  0.563083  1
  O  O29  1  0.726499  0.848661  0.258851  1
