# generated using pymatgen
data_Hf6Nb4Ga4SiGe
_symmetry_space_group_name_H-M   'P 1'
_cell_length_a   7.93425070
_cell_length_b   7.91954007
_cell_length_c   5.43001500
_cell_angle_alpha   90.00000000
_cell_angle_beta   90.00000000
_cell_angle_gamma   119.98558466
_symmetry_Int_Tables_number   1
_chemical_formula_structural   Hf6Nb4Ga4SiGe
_chemical_formula_sum   'Hf6 Nb4 Ga4 Si1 Ge1'
_cell_volume   295.52934206
_cell_formula_units_Z   1
loop_
 _symmetry_equiv_pos_site_id
 _symmetry_equiv_pos_as_xyz
  1  'x, y, z'
loop_
 _atom_site_type_symbol
 _atom_site_label
 _atom_site_symmetry_multiplicity
 _atom_site_fract_x
 _atom_site_fract_y
 _atom_site_fract_z
 _atom_site_occupancy
  Hf  Hf0  1  0.748024  0.750685  0.250000  1
  Hf  Hf1  1  0.747370  0.000809  0.750000  1
  Hf  Hf2  1  0.996372  0.245750  0.250000  1
  Hf  Hf3  1  0.248866  0.249776  0.750000  1
  Hf  Hf4  1  0.251542  0.999127  0.250000  1
  Hf  Hf5  1  0.999819  0.751611  0.750000  1
  Nb  Nb6  1  0.665525  0.330407  0.001433  1
  Nb  Nb7  1  0.665525  0.330407  0.498567  1
  Nb  Nb8  1  0.338069  0.670606  0.498657  1
  Nb  Nb9  1  0.338069  0.670606  0.001343  1
  Ga  Ga10  1  0.002060  0.398810  0.750000  1
  Ga  Ga11  1  0.000782  0.603386  0.250000  1
  Ga  Ga12  1  0.392877  0.393433  0.250000  1
  Ga  Ga13  1  0.394000  0.999984  0.750000  1
  Si  Si14  1  0.605564  0.001095  0.250000  1
  Ge  Ge15  1  0.605537  0.603509  0.750000  1
