# generated using pymatgen
data_Tb3Ho5(ScSn4)2
_symmetry_space_group_name_H-M   'P 1'
_cell_length_a   7.88929800
_cell_length_b   8.08430615
_cell_length_c   15.32887509
_cell_angle_alpha   90.04103525
_cell_angle_beta   90.00000000
_cell_angle_gamma   90.00000000
_symmetry_Int_Tables_number   1
_chemical_formula_structural   Tb3Ho5(ScSn4)2
_chemical_formula_sum   'Tb6 Ho10 Sc4 Sn16'
_cell_volume   977.66774371
_cell_formula_units_Z   2
loop_
 _symmetry_equiv_pos_site_id
 _symmetry_equiv_pos_as_xyz
  1  'x, y, z'
loop_
 _atom_site_type_symbol
 _atom_site_label
 _atom_site_symmetry_multiplicity
 _atom_site_fract_x
 _atom_site_fract_y
 _atom_site_fract_z
 _atom_site_occupancy
  Tb  Tb0  1  0.485151  0.678940  0.405673  1
  Tb  Tb1  1  0.985151  0.821060  0.094327  1
  Tb  Tb2  1  0.483437  0.676991  0.094725  1
  Tb  Tb3  1  0.983437  0.823009  0.405275  1
  Tb  Tb4  1  0.514224  0.321928  0.595717  1
  Tb  Tb5  1  0.014224  0.178072  0.904283  1
  Ho  Ho6  1  0.355929  0.837897  0.875091  1
  Ho  Ho7  1  0.855929  0.662103  0.624909  1
  Ho  Ho8  1  0.640524  0.160898  0.376138  1
  Ho  Ho9  1  0.140524  0.339102  0.123862  1
  Ho  Ho10  1  0.641528  0.161972  0.124273  1
  Ho  Ho11  1  0.141528  0.338028  0.375727  1
  Ho  Ho12  1  0.360324  0.838758  0.625242  1
  Ho  Ho13  1  0.860324  0.661242  0.874758  1
  Ho  Ho14  1  0.520516  0.321609  0.902688  1
  Ho  Ho15  1  0.020516  0.178391  0.597312  1
  Sc  Sc16  1  0.190000  0.502450  0.749858  1
  Sc  Sc17  1  0.690000  0.997550  0.750142  1
  Sc  Sc18  1  0.808898  0.497108  0.249557  1
  Sc  Sc19  1  0.308898  0.002892  0.250443  1
  Sn  Sn20  1  0.303264  0.039473  0.042656  1
  Sn  Sn21  1  0.803264  0.460527  0.457344  1
  Sn  Sn22  1  0.701361  0.965051  0.544686  1
  Sn  Sn23  1  0.201361  0.534949  0.955314  1
  Sn  Sn24  1  0.695599  0.960311  0.956315  1
  Sn  Sn25  1  0.195599  0.539689  0.543685  1
  Sn  Sn26  1  0.300472  0.039903  0.458600  1
  Sn  Sn27  1  0.800472  0.460097  0.041400  1
  Sn  Sn28  1  0.551025  0.616493  0.750586  1
  Sn  Sn29  1  0.051025  0.883507  0.749414  1
  Sn  Sn30  1  0.447732  0.382210  0.250330  1
  Sn  Sn31  1  0.947732  0.117790  0.249670  1
  Sn  Sn32  1  0.326966  0.154275  0.750842  1
  Sn  Sn33  1  0.826966  0.345725  0.749158  1
  Sn  Sn34  1  0.673047  0.846212  0.249812  1
  Sn  Sn35  1  0.173047  0.653788  0.250188  1
