# generated using pymatgen
data_Au(IBr4)3
_symmetry_space_group_name_H-M   'P 1'
_cell_length_a   22.22304900
_cell_length_b   7.51565172
_cell_length_c   9.88757382
_cell_angle_alpha   63.16828667
_cell_angle_beta   90.00000000
_cell_angle_gamma   90.00000000
_symmetry_Int_Tables_number   1
_chemical_formula_structural   Au(IBr4)3
_chemical_formula_sum   'Au2 I6 Br24'
_cell_volume   1473.63016115
_cell_formula_units_Z   2
loop_
 _symmetry_equiv_pos_site_id
 _symmetry_equiv_pos_as_xyz
  1  'x, y, z'
loop_
 _atom_site_type_symbol
 _atom_site_label
 _atom_site_symmetry_multiplicity
 _atom_site_fract_x
 _atom_site_fract_y
 _atom_site_fract_z
 _atom_site_occupancy
  Au  Au0  1  0.460212  0.264376  0.760261  1
  Au  Au1  1  0.960212  0.735624  0.739739  1
  I  I2  1  0.716352  0.625068  0.213348  1
  I  I3  1  0.216352  0.374932  0.286652  1
  I  I4  1  0.284602  0.373167  0.786071  1
  I  I5  1  0.784602  0.626833  0.713929  1
  I  I6  1  0.531224  0.740337  0.241819  1
  I  I7  1  0.031224  0.259663  0.258181  1
  Br  Br8  1  0.770556  0.317533  0.215216  1
  Br  Br9  1  0.270556  0.682467  0.284784  1
  Br  Br10  1  0.234046  0.683869  0.784704  1
  Br  Br11  1  0.734046  0.316131  0.715296  1
  Br  Br12  1  0.814721  0.823639  0.204068  1
  Br  Br13  1  0.314721  0.176361  0.295932  1
  Br  Br14  1  0.188172  0.170734  0.795826  1
  Br  Br15  1  0.688172  0.829266  0.704174  1
  Br  Br16  1  0.902486  0.454939  0.731095  1
  Br  Br17  1  0.402486  0.545061  0.768905  1
  Br  Br18  1  0.104573  0.567083  0.270886  1
  Br  Br19  1  0.604573  0.432917  0.229114  1
  Br  Br20  1  0.052742  0.548377  0.766129  1
  Br  Br21  1  0.552742  0.451623  0.733871  1
  Br  Br22  1  0.936487  0.475282  0.227934  1
  Br  Br23  1  0.436487  0.524718  0.272066  1
  Br  Br24  1  0.017484  0.008145  0.747394  1
  Br  Br25  1  0.517484  0.991855  0.752606  1
  Br  Br26  1  0.975425  0.958564  0.254628  1
  Br  Br27  1  0.475425  0.041436  0.245372  1
  Br  Br28  1  0.866104  0.932078  0.712563  1
  Br  Br29  1  0.366104  0.067922  0.787437  1
  Br  Br30  1  0.144812  0.056832  0.290759  1
  Br  Br31  1  0.644812  0.943168  0.209241  1
