# generated using pymatgen
data_Pu3In(SO4)6
_symmetry_space_group_name_H-M   'P 1'
_cell_length_a   9.06249683
_cell_length_b   9.06249686
_cell_length_c   9.67076900
_cell_angle_alpha   117.94028011
_cell_angle_beta   62.05971981
_cell_angle_gamma   120.00000284
_symmetry_Int_Tables_number   1
_chemical_formula_structural   Pu3In(SO4)6
_chemical_formula_sum   'Pu3 In1 S6 O24'
_cell_volume   578.47292776
_cell_formula_units_Z   1
loop_
 _symmetry_equiv_pos_site_id
 _symmetry_equiv_pos_as_xyz
  1  'x, y, z'
loop_
 _atom_site_type_symbol
 _atom_site_label
 _atom_site_symmetry_multiplicity
 _atom_site_fract_x
 _atom_site_fract_y
 _atom_site_fract_z
 _atom_site_occupancy
  Pu  Pu0  1  0.644950  0.355051  0.065154  1
  Pu  Pu1  1  0.853468  0.146533  0.439598  1
  Pu  Pu2  1  0.140261  0.859740  0.579218  1
  In  In3  1  0.348213  0.651788  0.955363  1
  S  S4  1  0.238038  0.019222  0.240181  1
  S  S5  1  0.980777  0.458997  0.240181  1
  S  S6  1  0.541003  0.761961  0.240181  1
  S  S7  1  0.461018  0.274082  0.757843  1
  S  S8  1  0.055220  0.538982  0.757843  1
  S  S9  1  0.725918  0.944780  0.757843  1
  O  O10  1  0.154655  0.476899  0.106012  1
  O  O11  1  0.523100  0.783766  0.106012  1
  O  O12  1  0.216234  0.845344  0.106012  1
  O  O13  1  0.426659  0.144137  0.204912  1
  O  O14  1  0.855863  0.487434  0.204912  1
  O  O15  1  0.512566  0.573341  0.204912  1
  O  O16  1  0.121478  0.097594  0.252152  1
  O  O17  1  0.902405  0.276036  0.252152  1
  O  O18  1  0.723964  0.878522  0.252152  1
  O  O19  1  0.183440  0.990464  0.399292  1
  O  O20  1  0.009537  0.592268  0.399292  1
  O  O21  1  0.407732  0.816560  0.399292  1
  O  O22  1  0.604104  0.233055  0.601700  1
  O  O23  1  0.027252  0.395896  0.601700  1
  O  O24  1  0.766944  0.972747  0.601700  1
  O  O25  1  0.282356  0.151098  0.736776  1
  O  O26  1  0.131965  0.717644  0.736776  1
  O  O27  1  0.848904  0.868035  0.736776  1
  O  O28  1  0.483994  0.462656  0.798117  1
  O  O29  1  0.180545  0.516006  0.798117  1
  O  O30  1  0.537343  0.819453  0.798117  1
  O  O31  1  0.749877  0.119609  0.889906  1
  O  O32  1  0.479825  0.250123  0.889906  1
  O  O33  1  0.880391  0.520176  0.889906  1
