# generated using pymatgen
data_Ac12Ga3SnI12
_symmetry_space_group_name_H-M   'P 1'
_cell_length_a   11.58975182
_cell_length_b   11.58975198
_cell_length_c   11.45439600
_cell_angle_alpha   109.23481082
_cell_angle_beta   109.23481109
_cell_angle_gamma   109.70659175
_symmetry_Int_Tables_number   1
_chemical_formula_structural   Ac12Ga3SnI12
_chemical_formula_sum   'Ac12 Ga3 Sn1 I12'
_cell_volume   1187.83844181
_cell_formula_units_Z   1
loop_
 _symmetry_equiv_pos_site_id
 _symmetry_equiv_pos_as_xyz
  1  'x, y, z'
loop_
 _atom_site_type_symbol
 _atom_site_label
 _atom_site_symmetry_multiplicity
 _atom_site_fract_x
 _atom_site_fract_y
 _atom_site_fract_z
 _atom_site_occupancy
  Ac  Ac0  1  0.028312  0.264147  0.014165  1
  Ac  Ac1  1  0.760934  0.017585  0.495542  1
  Ac  Ac2  1  0.256623  0.739036  0.234644  1
  Ac  Ac3  1  0.482485  0.739111  0.004475  1
  Ac  Ac4  1  0.760935  0.243346  0.265386  1
  Ac  Ac5  1  0.014822  0.485050  0.749932  1
  Ac  Ac6  1  0.235900  0.264145  0.750048  1
  Ac  Ac7  1  0.482471  0.243370  0.477995  1
  Ac  Ac8  1  0.470205  0.485097  0.235110  1
  Ac  Ac9  1  0.256622  0.017594  0.021988  1
  Ac  Ac10  1  0.014839  0.029788  0.264892  1
  Ac  Ac11  1  0.235902  0.471738  0.485835  1
  Ga  Ga12  1  0.249939  0.499857  0.999964  1
  Ga  Ga13  1  0.249912  0.250103  0.249982  1
  Ga  Ga14  1  0.000098  0.250048  0.500047  1
  Sn  Sn15  1  0.500011  0.000002  0.250005  1
  I  I16  1  0.756161  0.743826  0.249983  1
  I  I17  1  0.991708  0.508301  0.250004  1
  I  I18  1  0.249890  0.757453  0.743018  1
  I  I19  1  0.756157  0.512327  0.506175  1
  I  I20  1  0.507577  0.250123  0.993122  1
  I  I21  1  0.742542  0.992408  0.985548  1
  I  I22  1  0.991707  0.983404  0.741702  1
  I  I23  1  0.516588  0.508295  0.758294  1
  I  I24  1  0.249888  0.992436  0.506869  1
  I  I25  1  0.742538  0.250130  0.756989  1
  I  I26  1  0.507572  0.757448  0.514454  1
  I  I27  1  0.987664  0.743831  0.993831  1
