# generated using pymatgen
data_TlAg5Se3
_symmetry_space_group_name_H-M   'P 1'
_cell_length_a   13.99119800
_cell_length_b   13.99123285
_cell_length_c   8.35401000
_cell_angle_alpha   90.00000000
_cell_angle_beta   90.00000000
_cell_angle_gamma   120.00013986
_symmetry_Int_Tables_number   1
_chemical_formula_structural   TlAg5Se3
_chemical_formula_sum   'Tl6 Ag30 Se18'
_cell_volume   1416.23687300
_cell_formula_units_Z   6
loop_
 _symmetry_equiv_pos_site_id
 _symmetry_equiv_pos_as_xyz
  1  'x, y, z'
loop_
 _atom_site_type_symbol
 _atom_site_label
 _atom_site_symmetry_multiplicity
 _atom_site_fract_x
 _atom_site_fract_y
 _atom_site_fract_z
 _atom_site_occupancy
  Tl  Tl0  1  0.666667  0.333332  0.248145  1
  Tl  Tl1  1  0.333332  0.666666  0.249907  1
  Tl  Tl2  1  0.000000  0.000000  0.251624  1
  Tl  Tl3  1  0.000000  0.000000  0.748374  1
  Tl  Tl4  1  0.333332  0.666666  0.750094  1
  Tl  Tl5  1  0.666667  0.333332  0.751855  1
  Ag  Ag6  1  0.331646  0.032070  0.000000  1
  Ag  Ag7  1  0.967932  0.299579  0.000000  1
  Ag  Ag8  1  0.327720  0.368325  0.000000  1
  Ag  Ag9  1  0.700427  0.668357  0.000000  1
  Ag  Ag10  1  0.040600  0.672276  0.000000  1
  Ag  Ag11  1  0.631676  0.959397  0.000000  1
  Ag  Ag12  1  0.518219  0.518903  0.249806  1
  Ag  Ag13  1  0.000685  0.481782  0.249806  1
  Ag  Ag14  1  0.481093  0.999313  0.249806  1
  Ag  Ag15  1  0.796233  0.129603  0.250017  1
  Ag  Ag16  1  0.333366  0.203770  0.250017  1
  Ag  Ag17  1  0.870401  0.666626  0.250019  1
  Ag  Ag18  1  0.148256  0.334023  0.250175  1
  Ag  Ag19  1  0.185764  0.851744  0.250171  1
  Ag  Ag20  1  0.665985  0.814240  0.250176  1
  Ag  Ag21  1  0.335234  0.033777  0.500000  1
  Ag  Ag22  1  0.966222  0.301459  0.500000  1
  Ag  Ag23  1  0.338793  0.373699  0.500000  1
  Ag  Ag24  1  0.034909  0.661199  0.500000  1
  Ag  Ag25  1  0.698540  0.664768  0.500000  1
  Ag  Ag26  1  0.626301  0.965097  0.500000  1
  Ag  Ag27  1  0.665985  0.814240  0.749825  1
  Ag  Ag28  1  0.185764  0.851744  0.749829  1
  Ag  Ag29  1  0.148256  0.334023  0.749825  1
  Ag  Ag30  1  0.870401  0.666626  0.749982  1
  Ag  Ag31  1  0.796233  0.129603  0.749984  1
  Ag  Ag32  1  0.333366  0.203770  0.749984  1
  Ag  Ag33  1  0.481093  0.999313  0.750194  1
  Ag  Ag34  1  0.000685  0.481782  0.750195  1
  Ag  Ag35  1  0.518219  0.518903  0.750194  1
  Se  Se36  1  0.748469  0.199557  0.000000  1
  Se  Se37  1  0.110441  0.217731  0.000000  1
  Se  Se38  1  0.451086  0.251529  0.000000  1
  Se  Se39  1  0.118161  0.532487  0.000000  1
  Se  Se40  1  0.800440  0.548911  0.000000  1
  Se  Se41  1  0.467517  0.585676  0.000000  1
  Se  Se42  1  0.107276  0.889554  0.000000  1
  Se  Se43  1  0.782279  0.892724  0.000000  1
  Se  Se44  1  0.414326  0.881840  0.000000  1
  Se  Se45  1  0.866396  0.082003  0.500000  1
  Se  Se46  1  0.559563  0.115646  0.500000  1
  Se  Se47  1  0.215605  0.133604  0.500000  1
  Se  Se48  1  0.199228  0.451562  0.500000  1
  Se  Se49  1  0.556081  0.440435  0.500000  1
  Se  Se50  1  0.884352  0.443916  0.500000  1
  Se  Se51  1  0.548441  0.747667  0.500000  1
  Se  Se52  1  0.917999  0.784391  0.500000  1
  Se  Se53  1  0.252335  0.800774  0.500000  1
