# generated using pymatgen
data_Nd3Dy(SeO3)6
_symmetry_space_group_name_H-M   'P 1'
_cell_length_a   7.30234559
_cell_length_b   8.34903233
_cell_length_c   9.28338766
_cell_angle_alpha   70.95212666
_cell_angle_beta   70.06601662
_cell_angle_gamma   66.16157804
_symmetry_Int_Tables_number   1
_chemical_formula_structural   Nd3Dy(SeO3)6
_chemical_formula_sum   'Nd3 Dy1 Se6 O18'
_cell_volume   474.83671732
_cell_formula_units_Z   1
loop_
 _symmetry_equiv_pos_site_id
 _symmetry_equiv_pos_as_xyz
  1  'x, y, z'
loop_
 _atom_site_type_symbol
 _atom_site_label
 _atom_site_symmetry_multiplicity
 _atom_site_fract_x
 _atom_site_fract_y
 _atom_site_fract_z
 _atom_site_occupancy
  Nd  Nd0  1  0.258874  0.266524  0.198299  1
  Nd  Nd1  1  0.335492  0.728300  0.589750  1
  Nd  Nd2  1  0.667853  0.266580  0.411589  1
  Dy  Dy3  1  0.740699  0.736996  0.801285  1
  Se  Se4  1  0.111570  0.241273  0.584988  1
  Se  Se5  1  0.428663  0.772902  0.196685  1
  Se  Se6  1  0.149500  0.755765  0.961168  1
  Se  Se7  1  0.848473  0.256229  0.031495  1
  Se  Se8  1  0.574662  0.218910  0.802325  1
  Se  Se9  1  0.886947  0.755703  0.422333  1
  O  O10  1  0.154046  0.019336  0.655209  1
  O  O11  1  0.166117  0.577109  0.116047  1
  O  O12  1  0.025815  0.708480  0.560755  1
  O  O13  1  0.339002  0.250499  0.441855  1
  O  O14  1  0.060798  0.701185  0.836494  1
  O  O15  1  0.597431  0.288180  0.147058  1
  O  O16  1  0.355594  0.205173  0.942197  1
  O  O17  1  0.366261  0.936909  0.299860  1
  O  O18  1  0.518154  0.593986  0.346013  1
  O  O19  1  0.489111  0.398594  0.652201  1
  O  O20  1  0.642204  0.052093  0.700598  1
  O  O21  1  0.642603  0.789884  0.049843  1
  O  O22  1  0.404220  0.714181  0.848666  1
  O  O23  1  0.933087  0.304528  0.161477  1
  O  O24  1  0.660026  0.750666  0.567612  1
  O  O25  1  0.969503  0.292397  0.447439  1
  O  O26  1  0.825859  0.440684  0.881815  1
  O  O27  1  0.847436  0.976934  0.344945  1
