# generated using pymatgen
data_Pr8Hg2PtRh
_symmetry_space_group_name_H-M   'P 1'
_cell_length_a   10.03707571
_cell_length_b   10.03707546
_cell_length_c   10.04851300
_cell_angle_alpha   59.96229420
_cell_angle_beta   59.96229503
_cell_angle_gamma   59.97282353
_symmetry_Int_Tables_number   1
_chemical_formula_structural   Pr8Hg2PtRh
_chemical_formula_sum   'Pr16 Hg4 Pt2 Rh2'
_cell_volume   715.26054161
_cell_formula_units_Z   2
loop_
 _symmetry_equiv_pos_site_id
 _symmetry_equiv_pos_as_xyz
  1  'x, y, z'
loop_
 _atom_site_type_symbol
 _atom_site_label
 _atom_site_symmetry_multiplicity
 _atom_site_fract_x
 _atom_site_fract_y
 _atom_site_fract_z
 _atom_site_occupancy
  Pr  Pr0  1  0.349849  0.349849  0.354257  1
  Pr  Pr1  1  0.349849  0.349849  0.946046  1
  Pr  Pr2  1  0.347883  0.949686  0.351216  1
  Pr  Pr3  1  0.949686  0.347883  0.351216  1
  Pr  Pr4  1  0.813234  0.190006  0.191371  1
  Pr  Pr5  1  0.190006  0.813234  0.805389  1
  Pr  Pr6  1  0.190006  0.813234  0.191371  1
  Pr  Pr7  1  0.813234  0.190006  0.805389  1
  Pr  Pr8  1  0.189948  0.189948  0.810052  1
  Pr  Pr9  1  0.808045  0.808045  0.191955  1
  Pr  Pr10  1  0.936494  0.561938  0.564379  1
  Pr  Pr11  1  0.561938  0.936494  0.937189  1
  Pr  Pr12  1  0.561938  0.936494  0.564379  1
  Pr  Pr13  1  0.936494  0.561938  0.937189  1
  Pr  Pr14  1  0.561756  0.561756  0.938244  1
  Pr  Pr15  1  0.936091  0.936091  0.563909  1
  Hg  Hg16  1  0.583939  0.583939  0.582700  1
  Hg  Hg17  1  0.583939  0.583939  0.249420  1
  Hg  Hg18  1  0.585087  0.247733  0.583589  1
  Hg  Hg19  1  0.247733  0.585087  0.583589  1
  Pt  Pt20  1  0.144850  0.571078  0.142036  1
  Pt  Pt21  1  0.571078  0.144850  0.142036  1
  Rh  Rh22  1  0.143461  0.143461  0.141277  1
  Rh  Rh23  1  0.143461  0.143461  0.571801  1
