# generated using pymatgen
data_Sm3ThGa20Pd11
_symmetry_space_group_name_H-M   'P 1'
_cell_length_a   4.30572143
_cell_length_b   10.97951840
_cell_length_c   13.68749000
_cell_angle_alpha   81.50634294
_cell_angle_beta   80.95055465
_cell_angle_gamma   78.69219340
_symmetry_Int_Tables_number   1
_chemical_formula_structural   Sm3ThGa20Pd11
_chemical_formula_sum   'Sm3 Th1 Ga20 Pd11'
_cell_volume   622.03462742
_cell_formula_units_Z   1
loop_
 _symmetry_equiv_pos_site_id
 _symmetry_equiv_pos_as_xyz
  1  'x, y, z'
loop_
 _atom_site_type_symbol
 _atom_site_label
 _atom_site_symmetry_multiplicity
 _atom_site_fract_x
 _atom_site_fract_y
 _atom_site_fract_z
 _atom_site_occupancy
  Sm  Sm0  1  0.878458  0.909824  0.335744  1
  Sm  Sm1  1  0.773374  0.631339  0.821071  1
  Sm  Sm2  1  0.227079  0.367961  0.178709  1
  Th  Th3  1  0.120995  0.089197  0.665576  1
  Ga  Ga4  1  0.006764  0.074887  0.914606  1
  Ga  Ga5  1  0.992409  0.923982  0.088982  1
  Ga  Ga6  1  0.063279  0.677539  0.193582  1
  Ga  Ga7  1  0.934765  0.325069  0.807163  1
  Ga  Ga8  1  0.103254  0.342396  0.453176  1
  Ga  Ga9  1  0.896176  0.659669  0.545907  1
  Ga  Ga10  1  0.199596  0.604739  0.992373  1
  Ga  Ga11  1  0.800465  0.395161  0.007295  1
  Ga  Ga12  1  0.259252  0.781922  0.698868  1
  Ga  Ga13  1  0.743856  0.214485  0.299643  1
  Ga  Ga14  1  0.303200  0.895388  0.497936  1
  Ga  Ga15  1  0.698395  0.103529  0.499273  1
  Ga  Ga16  1  0.387677  0.525839  0.698940  1
  Ga  Ga17  1  0.612140  0.474626  0.301248  1
  Ga  Ga18  1  0.397087  0.201657  0.002070  1
  Ga  Ga19  1  0.603754  0.797615  0.997748  1
  Ga  Ga20  1  0.541403  0.291913  0.625982  1
  Ga  Ga21  1  0.457509  0.712818  0.371829  1
  Ga  Ga22  1  0.636196  0.931010  0.798499  1
  Ga  Ga23  1  0.362684  0.065922  0.205314  1
  Pd  Pd24  1  0.498744  0.502229  0.500001  1
  Pd  Pd25  1  0.028200  0.573483  0.372280  1
  Pd  Pd26  1  0.971571  0.427552  0.627362  1
  Pd  Pd27  1  0.139252  0.837005  0.888656  1
  Pd  Pd28  1  0.861488  0.162213  0.110172  1
  Pd  Pd29  1  0.240209  0.128119  0.392699  1
  Pd  Pd30  1  0.758686  0.873206  0.609105  1
  Pd  Pd31  1  0.346777  0.416057  0.891039  1
  Pd  Pd32  1  0.653836  0.582709  0.108645  1
  Pd  Pd33  1  0.506895  0.170355  0.815929  1
  Pd  Pd34  1  0.494573  0.828580  0.182575  1
