# generated using pymatgen
data_CaSm3(CdPt)4
_symmetry_space_group_name_H-M   'P 1'
_cell_length_a   4.26709000
_cell_length_b   7.28680374
_cell_length_c   8.80494353
_cell_angle_alpha   90.26583411
_cell_angle_beta   90.00000000
_cell_angle_gamma   90.00000000
_symmetry_Int_Tables_number   1
_chemical_formula_structural   CaSm3(CdPt)4
_chemical_formula_sum   'Ca1 Sm3 Cd4 Pt4'
_cell_volume   273.77310162
_cell_formula_units_Z   1
loop_
 _symmetry_equiv_pos_site_id
 _symmetry_equiv_pos_as_xyz
  1  'x, y, z'
loop_
 _atom_site_type_symbol
 _atom_site_label
 _atom_site_symmetry_multiplicity
 _atom_site_fract_x
 _atom_site_fract_y
 _atom_site_fract_z
 _atom_site_occupancy
  Ca  Ca0  1  0.750000  0.455221  0.817725  1
  Sm  Sm1  1  0.250000  0.043785  0.322929  1
  Sm  Sm2  1  0.250000  0.544530  0.175317  1
  Sm  Sm3  1  0.750000  0.952004  0.680480  1
  Cd  Cd4  1  0.250000  0.144898  0.938972  1
  Cd  Cd5  1  0.250000  0.634193  0.562310  1
  Cd  Cd6  1  0.750000  0.863203  0.061245  1
  Cd  Cd7  1  0.750000  0.364121  0.440903  1
  Pt  Pt8  1  0.250000  0.232749  0.625028  1
  Pt  Pt9  1  0.250000  0.750223  0.870502  1
  Pt  Pt10  1  0.750000  0.758419  0.370311  1
  Pt  Pt11  1  0.750000  0.256655  0.134279  1
