# generated using pymatgen
data_Y3Zr(Nb3Si4)2
_symmetry_space_group_name_H-M   'P 1'
_cell_length_a   7.02670023
_cell_length_b   7.03482422
_cell_length_c   12.99750500
_cell_angle_alpha   90.00000000
_cell_angle_beta   90.00000000
_cell_angle_gamma   89.97082672
_symmetry_Int_Tables_number   1
_chemical_formula_structural   Y3Zr(Nb3Si4)2
_chemical_formula_sum   'Y6 Zr2 Nb12 Si16'
_cell_volume   642.48739769
_cell_formula_units_Z   2
loop_
 _symmetry_equiv_pos_site_id
 _symmetry_equiv_pos_as_xyz
  1  'x, y, z'
loop_
 _atom_site_type_symbol
 _atom_site_label
 _atom_site_symmetry_multiplicity
 _atom_site_fract_x
 _atom_site_fract_y
 _atom_site_fract_z
 _atom_site_occupancy
  Y  Y0  1  0.996421  0.338892  0.218721  1
  Y  Y1  1  0.003579  0.661108  0.718721  1
  Y  Y2  1  0.158710  0.497962  0.467335  1
  Y  Y3  1  0.502669  0.840850  0.031124  1
  Y  Y4  1  0.841290  0.502038  0.967335  1
  Y  Y5  1  0.497331  0.159150  0.531124  1
  Zr  Zr6  1  0.345359  0.005303  0.783213  1
  Zr  Zr7  1  0.654641  0.994697  0.283213  1
  Nb  Nb8  1  0.173003  0.169989  0.000337  1
  Nb  Nb9  1  0.826997  0.830011  0.500337  1
  Nb  Nb10  1  0.331951  0.671680  0.250215  1
  Nb  Nb11  1  0.668049  0.328320  0.750215  1
  Nb  Nb12  1  0.153661  0.993989  0.374968  1
  Nb  Nb13  1  0.846339  0.006011  0.874968  1
  Nb  Nb14  1  0.503998  0.655015  0.626476  1
  Nb  Nb15  1  0.346597  0.493013  0.873543  1
  Nb  Nb16  1  0.496002  0.344985  0.126476  1
  Nb  Nb17  1  0.653403  0.506987  0.373543  1
  Nb  Nb18  1  0.992214  0.151137  0.624819  1
  Nb  Nb19  1  0.007786  0.848863  0.124819  1
  Si  Si20  1  0.298794  0.044066  0.187386  1
  Si  Si21  1  0.701206  0.955934  0.687386  1
  Si  Si22  1  0.455603  0.795050  0.435859  1
  Si  Si23  1  0.207368  0.545397  0.063126  1
  Si  Si24  1  0.544397  0.204950  0.935859  1
  Si  Si25  1  0.792632  0.454603  0.563126  1
  Si  Si26  1  0.046612  0.291870  0.813343  1
  Si  Si27  1  0.953388  0.708130  0.313343  1
  Si  Si28  1  0.370536  0.290845  0.317993  1
  Si  Si29  1  0.629464  0.709155  0.817993  1
  Si  Si30  1  0.205427  0.868173  0.569137  1
  Si  Si31  1  0.136387  0.799151  0.929208  1
  Si  Si32  1  0.794573  0.131827  0.069137  1
  Si  Si33  1  0.863613  0.200849  0.429208  1
  Si  Si34  1  0.294662  0.363268  0.683197  1
  Si  Si35  1  0.705338  0.636732  0.183197  1
