# generated using pymatgen
data_KRb2In(AsS2)6
_symmetry_space_group_name_H-M   'P 1'
_cell_length_a   9.56633700
_cell_length_b   9.56633650
_cell_length_c   7.97665900
_cell_angle_alpha   90.00000000
_cell_angle_beta   90.00000000
_cell_angle_gamma   120.00000518
_symmetry_Int_Tables_number   1
_chemical_formula_structural   KRb2In(AsS2)6
_chemical_formula_sum   'K1 Rb2 In1 As6 S12'
_cell_volume   632.18322104
_cell_formula_units_Z   1
loop_
 _symmetry_equiv_pos_site_id
 _symmetry_equiv_pos_as_xyz
  1  'x, y, z'
loop_
 _atom_site_type_symbol
 _atom_site_label
 _atom_site_symmetry_multiplicity
 _atom_site_fract_x
 _atom_site_fract_y
 _atom_site_fract_z
 _atom_site_occupancy
  K  K0  1  0.000000  0.000000  0.000000  1
  Rb  Rb1  1  0.333333  0.666667  0.846002  1
  Rb  Rb2  1  0.666667  0.333333  0.153998  1
  In  In3  1  0.000000  0.000000  0.500000  1
  As  As4  1  0.279021  0.830320  0.382294  1
  As  As5  1  0.169680  0.448702  0.382294  1
  As  As6  1  0.551298  0.720979  0.382294  1
  As  As7  1  0.720979  0.169680  0.617706  1
  As  As8  1  0.830320  0.551298  0.617706  1
  As  As9  1  0.448702  0.279021  0.617706  1
  S  S10  1  0.236417  0.026987  0.296720  1
  S  S11  1  0.973013  0.209432  0.296720  1
  S  S12  1  0.790568  0.763583  0.296720  1
  S  S13  1  0.763583  0.973013  0.703280  1
  S  S14  1  0.026987  0.790568  0.703280  1
  S  S15  1  0.209432  0.236417  0.703280  1
  S  S16  1  0.512096  0.905486  0.225909  1
  S  S17  1  0.094514  0.606611  0.225909  1
  S  S18  1  0.393389  0.487904  0.225909  1
  S  S19  1  0.487904  0.094514  0.774091  1
  S  S20  1  0.905486  0.393389  0.774091  1
  S  S21  1  0.606611  0.512096  0.774091  1
