# generated using pymatgen
data_Tm8MnOsI8
_symmetry_space_group_name_H-M   'P 1'
_cell_length_a   11.29978297
_cell_length_b   11.29978409
_cell_length_c   6.03318217
_cell_angle_alpha   89.44941774
_cell_angle_beta   89.44941888
_cell_angle_gamma   88.85892906
_symmetry_Int_Tables_number   1
_chemical_formula_structural   Tm8MnOsI8
_chemical_formula_sum   'Tm8 Mn1 Os1 I8'
_cell_volume   770.12501751
_cell_formula_units_Z   1
loop_
 _symmetry_equiv_pos_site_id
 _symmetry_equiv_pos_as_xyz
  1  'x, y, z'
loop_
 _atom_site_type_symbol
 _atom_site_label
 _atom_site_symmetry_multiplicity
 _atom_site_fract_x
 _atom_site_fract_y
 _atom_site_fract_z
 _atom_site_occupancy
  Tm  Tm0  1  0.193730  0.918306  0.001455  1
  Tm  Tm1  1  0.806314  0.081675  0.007885  1
  Tm  Tm2  1  0.081694  0.806270  0.498545  1
  Tm  Tm3  1  0.918325  0.193686  0.492115  1
  Tm  Tm4  1  0.808923  0.923094  0.500439  1
  Tm  Tm5  1  0.191036  0.076871  0.489728  1
  Tm  Tm6  1  0.076906  0.191077  0.999561  1
  Tm  Tm7  1  0.923129  0.808964  0.010272  1
  Mn  Mn8  1  0.000222  0.999778  0.250000  1
  Os  Os9  1  0.999830  0.000170  0.750000  1
  I  I10  1  0.354506  0.848900  0.504896  1
  I  I11  1  0.645221  0.151030  0.489514  1
  I  I12  1  0.151100  0.645494  0.995104  1
  I  I13  1  0.848970  0.354779  0.010486  1
  I  I14  1  0.351014  0.144114  0.999236  1
  I  I15  1  0.649019  0.855825  0.006666  1
  I  I16  1  0.855886  0.648986  0.500764  1
  I  I17  1  0.144175  0.350981  0.493334  1
