# generated using pymatgen
data_DyTh2(GaNi)3
_symmetry_space_group_name_H-M   'P 1'
_cell_length_a   7.06482795
_cell_length_b   6.98548844
_cell_length_c   3.97820600
_cell_angle_alpha   90.00000000
_cell_angle_beta   90.00000000
_cell_angle_gamma   119.62920731
_symmetry_Int_Tables_number   1
_chemical_formula_structural   DyTh2(GaNi)3
_chemical_formula_sum   'Dy1 Th2 Ga3 Ni3'
_cell_volume   170.65807780
_cell_formula_units_Z   1
loop_
 _symmetry_equiv_pos_site_id
 _symmetry_equiv_pos_as_xyz
  1  'x, y, z'
loop_
 _atom_site_type_symbol
 _atom_site_label
 _atom_site_symmetry_multiplicity
 _atom_site_fract_x
 _atom_site_fract_y
 _atom_site_fract_z
 _atom_site_occupancy
  Dy  Dy0  1  0.000000  0.413829  0.500000  1
  Th  Th1  1  0.582226  0.580858  0.500000  1
  Th  Th2  1  0.417774  0.998632  0.500000  1
  Ga  Ga3  1  0.000000  0.756574  0.000000  1
  Ga  Ga4  1  0.229122  0.237776  0.000000  1
  Ga  Ga5  1  0.770878  0.008654  0.000000  1
  Ni  Ni6  1  0.341250  0.674327  0.000000  1
  Ni  Ni7  1  0.658750  0.333075  0.000000  1
  Ni  Ni8  1  0.000000  0.996274  0.500000  1
