# generated using pymatgen
data_HfTh3(Co4P3)2
_symmetry_space_group_name_H-M   'P 1'
_cell_length_a   3.83318200
_cell_length_b   10.83508000
_cell_length_c   12.57438100
_cell_angle_alpha   90.00000000
_cell_angle_beta   90.00000000
_cell_angle_gamma   90.00000000
_symmetry_Int_Tables_number   1
_chemical_formula_structural   HfTh3(Co4P3)2
_chemical_formula_sum   'Hf2 Th6 Co16 P12'
_cell_volume   522.24967400
_cell_formula_units_Z   2
loop_
 _symmetry_equiv_pos_site_id
 _symmetry_equiv_pos_as_xyz
  1  'x, y, z'
loop_
 _atom_site_type_symbol
 _atom_site_label
 _atom_site_symmetry_multiplicity
 _atom_site_fract_x
 _atom_site_fract_y
 _atom_site_fract_z
 _atom_site_occupancy
  Hf  Hf0  1  0.500000  0.500000  0.152017  1
  Hf  Hf1  1  0.000000  0.000000  0.847983  1
  Th  Th2  1  0.000000  0.500000  0.528579  1
  Th  Th3  1  0.500000  0.000000  0.471421  1
  Th  Th4  1  0.500000  0.820438  0.206361  1
  Th  Th5  1  0.500000  0.179562  0.206361  1
  Th  Th6  1  0.000000  0.679562  0.793639  1
  Th  Th7  1  0.000000  0.320438  0.793639  1
  Co  Co8  1  0.500000  0.500000  0.703162  1
  Co  Co9  1  0.000000  0.000000  0.296838  1
  Co  Co10  1  0.000000  0.500000  0.985972  1
  Co  Co11  1  0.500000  0.000000  0.014028  1
  Co  Co12  1  0.500000  0.332303  0.993128  1
  Co  Co13  1  0.500000  0.667697  0.993128  1
  Co  Co14  1  0.000000  0.167697  0.006872  1
  Co  Co15  1  0.000000  0.832303  0.006872  1
  Co  Co16  1  0.500000  0.298381  0.431568  1
  Co  Co17  1  0.500000  0.701619  0.431568  1
  Co  Co18  1  0.000000  0.201619  0.568432  1
  Co  Co19  1  0.000000  0.798381  0.568432  1
  Co  Co20  1  0.500000  0.879185  0.707621  1
  Co  Co21  1  0.500000  0.120815  0.707621  1
  Co  Co22  1  0.000000  0.620815  0.292379  1
  Co  Co23  1  0.000000  0.379185  0.292379  1
  P  P24  1  0.500000  0.500000  0.887971  1
  P  P25  1  0.000000  0.000000  0.112029  1
  P  P26  1  0.500000  0.500000  0.354945  1
  P  P27  1  0.000000  0.000000  0.645055  1
  P  P28  1  0.500000  0.304443  0.613033  1
  P  P29  1  0.500000  0.695557  0.613033  1
  P  P30  1  0.000000  0.195557  0.386967  1
  P  P31  1  0.000000  0.804443  0.386967  1
  P  P32  1  0.500000  0.841837  0.898640  1
  P  P33  1  0.500000  0.158163  0.898640  1
  P  P34  1  0.000000  0.658163  0.101360  1
  P  P35  1  0.000000  0.341837  0.101360  1
