# generated using pymatgen
data_La4Pr6IrRh3
_symmetry_space_group_name_H-M   'P 1'
_cell_length_a   9.26346543
_cell_length_b   9.24117540
_cell_length_c   7.36231855
_cell_angle_alpha   84.17381836
_cell_angle_beta   84.08066190
_cell_angle_gamma   42.59370315
_symmetry_Int_Tables_number   1
_chemical_formula_structural   La4Pr6IrRh3
_chemical_formula_sum   'La4 Pr6 Ir1 Rh3'
_cell_volume   423.97147407
_cell_formula_units_Z   1
loop_
 _symmetry_equiv_pos_site_id
 _symmetry_equiv_pos_as_xyz
  1  'x, y, z'
loop_
 _atom_site_type_symbol
 _atom_site_label
 _atom_site_symmetry_multiplicity
 _atom_site_fract_x
 _atom_site_fract_y
 _atom_site_fract_z
 _atom_site_occupancy
  La  La0  1  0.012137  0.799623  0.915035  1
  La  La1  1  0.202294  0.986499  0.585601  1
  La  La2  1  0.985867  0.201548  0.086008  1
  La  La3  1  0.798502  0.012875  0.415377  1
  Pr  Pr4  1  0.354452  0.213946  0.818650  1
  Pr  Pr5  1  0.787205  0.644045  0.681374  1
  Pr  Pr6  1  0.645203  0.788801  0.180782  1
  Pr  Pr7  1  0.214854  0.353662  0.317785  1
  Pr  Pr8  1  0.571896  0.427929  0.751352  1
  Pr  Pr9  1  0.428780  0.570488  0.249405  1
  Ir  Ir10  1  0.598017  0.179753  0.079668  1
  Rh  Rh11  1  0.179137  0.600551  0.580252  1
  Rh  Rh12  1  0.399387  0.822265  0.919246  1
  Rh  Rh13  1  0.822267  0.398017  0.419464  1
