# generated using pymatgen
data_Ta2TiNb(CoSi)4
_symmetry_space_group_name_H-M   'P 1'
_cell_length_a   6.20017059
_cell_length_b   3.65334600
_cell_length_c   7.01081836
_cell_angle_alpha   90.00000000
_cell_angle_beta   89.89457710
_cell_angle_gamma   90.00000000
_symmetry_Int_Tables_number   1
_chemical_formula_structural   Ta2TiNb(CoSi)4
_chemical_formula_sum   'Ta2 Ti1 Nb1 Co4 Si4'
_cell_volume   158.80436088
_cell_formula_units_Z   1
loop_
 _symmetry_equiv_pos_site_id
 _symmetry_equiv_pos_as_xyz
  1  'x, y, z'
loop_
 _atom_site_type_symbol
 _atom_site_label
 _atom_site_symmetry_multiplicity
 _atom_site_fract_x
 _atom_site_fract_y
 _atom_site_fract_z
 _atom_site_occupancy
  Ta  Ta0  1  0.518964  0.250000  0.680872  1
  Ta  Ta1  1  0.478341  0.750000  0.320306  1
  Ti  Ti2  1  0.019436  0.250000  0.817561  1
  Nb  Nb3  1  0.979744  0.750000  0.180245  1
  Co  Co4  1  0.144387  0.250000  0.438822  1
  Co  Co5  1  0.641379  0.250000  0.062141  1
  Co  Co6  1  0.856612  0.750000  0.565672  1
  Co  Co7  1  0.359567  0.750000  0.935323  1
  Si  Si8  1  0.776440  0.250000  0.382653  1
  Si  Si9  1  0.273458  0.250000  0.113760  1
  Si  Si10  1  0.221850  0.750000  0.620856  1
  Si  Si11  1  0.729821  0.750000  0.881788  1
