# generated using pymatgen
data_Ba4NaSr2CaBi12
_symmetry_space_group_name_H-M   'P 1'
_cell_length_a   6.96849211
_cell_length_b   7.04997848
_cell_length_c   15.18381900
_cell_angle_alpha   90.00000000
_cell_angle_beta   90.00000000
_cell_angle_gamma   87.26222059
_symmetry_Int_Tables_number   1
_chemical_formula_structural   Ba4NaSr2CaBi12
_chemical_formula_sum   'Ba4 Na1 Sr2 Ca1 Bi12'
_cell_volume   745.09497441
_cell_formula_units_Z   1
loop_
 _symmetry_equiv_pos_site_id
 _symmetry_equiv_pos_as_xyz
  1  'x, y, z'
loop_
 _atom_site_type_symbol
 _atom_site_label
 _atom_site_symmetry_multiplicity
 _atom_site_fract_x
 _atom_site_fract_y
 _atom_site_fract_z
 _atom_site_occupancy
  Ba  Ba0  1  0.526621  0.510464  0.233135  1
  Ba  Ba1  1  0.471222  0.488266  0.766827  1
  Ba  Ba2  1  0.973379  0.989536  0.233135  1
  Ba  Ba3  1  0.028778  0.011734  0.766827  1
  Na  Na4  1  0.250000  0.250000  0.997222  1
  Sr  Sr5  1  0.750000  0.250000  0.501680  1
  Sr  Sr6  1  0.250000  0.750000  0.498919  1
  Ca  Ca7  1  0.750000  0.750000  0.999983  1
  Bi  Bi8  1  0.750000  0.750000  0.439930  1
  Bi  Bi9  1  0.250000  0.250000  0.559943  1
  Bi  Bi10  1  0.750000  0.250000  0.026775  1
  Bi  Bi11  1  0.250000  0.750000  0.975920  1
  Bi  Bi12  1  0.029074  0.506611  0.144789  1
  Bi  Bi13  1  0.978228  0.485525  0.854489  1
  Bi  Bi14  1  0.068644  0.431798  0.350417  1
  Bi  Bi15  1  0.431356  0.068202  0.350417  1
  Bi  Bi16  1  0.928081  0.572321  0.650156  1
  Bi  Bi17  1  0.571919  0.927679  0.650156  1
  Bi  Bi18  1  0.470926  0.993389  0.144789  1
  Bi  Bi19  1  0.521772  0.014475  0.854489  1
