# generated using pymatgen
data_RbBe2Br5
_symmetry_space_group_name_H-M   'P 1'
_cell_length_a   11.48405493
_cell_length_b   11.48405551
_cell_length_c   11.48405500
_cell_angle_alpha   59.99999858
_cell_angle_beta   59.99999692
_cell_angle_gamma   59.99999960
_symmetry_Int_Tables_number   1
_chemical_formula_structural   RbBe2Br5
_chemical_formula_sum   'Rb4 Be8 Br20'
_cell_volume   1070.95394252
_cell_formula_units_Z   4
loop_
 _symmetry_equiv_pos_site_id
 _symmetry_equiv_pos_as_xyz
  1  'x, y, z'
loop_
 _atom_site_type_symbol
 _atom_site_label
 _atom_site_symmetry_multiplicity
 _atom_site_fract_x
 _atom_site_fract_y
 _atom_site_fract_z
 _atom_site_occupancy
  Rb  Rb0  1  0.125000  0.625000  0.625000  1
  Rb  Rb1  1  0.625000  0.125000  0.625000  1
  Rb  Rb2  1  0.625000  0.625000  0.125000  1
  Rb  Rb3  1  0.625000  0.625000  0.625000  1
  Be  Be4  1  0.015542  0.328152  0.328152  1
  Be  Be5  1  0.328152  0.015542  0.328152  1
  Be  Be6  1  0.328152  0.328152  0.015542  1
  Be  Be7  1  0.328152  0.328152  0.328152  1
  Be  Be8  1  0.234458  0.921848  0.921848  1
  Be  Be9  1  0.921848  0.234458  0.921848  1
  Be  Be10  1  0.921848  0.921848  0.234458  1
  Be  Be11  1  0.921848  0.921848  0.921848  1
  Br  Br12  1  0.092057  0.092057  0.407943  1
  Br  Br13  1  0.407943  0.407943  0.092057  1
  Br  Br14  1  0.092057  0.407943  0.092057  1
  Br  Br15  1  0.407943  0.092057  0.407943  1
  Br  Br16  1  0.407943  0.092057  0.092057  1
  Br  Br17  1  0.092057  0.407943  0.407943  1
  Br  Br18  1  0.157943  0.157943  0.842057  1
  Br  Br19  1  0.842057  0.842057  0.157943  1
  Br  Br20  1  0.157943  0.842057  0.157943  1
  Br  Br21  1  0.842057  0.157943  0.842057  1
  Br  Br22  1  0.842057  0.157943  0.157943  1
  Br  Br23  1  0.157943  0.842057  0.842057  1
  Br  Br24  1  0.784481  0.405172  0.405172  1
  Br  Br25  1  0.405172  0.784481  0.405172  1
  Br  Br26  1  0.405172  0.405172  0.784481  1
  Br  Br27  1  0.405172  0.405172  0.405172  1
  Br  Br28  1  0.465519  0.844828  0.844828  1
  Br  Br29  1  0.844828  0.465519  0.844828  1
  Br  Br30  1  0.844828  0.844828  0.465519  1
  Br  Br31  1  0.844828  0.844828  0.844828  1
