# generated using pymatgen
data_Dy5MgScP12Ir17
_symmetry_space_group_name_H-M   'P 1'
_cell_length_a   12.67485386
_cell_length_b   12.90805231
_cell_length_c   3.97111600
_cell_angle_alpha   90.00000000
_cell_angle_beta   90.00000000
_cell_angle_gamma   119.85951537
_symmetry_Int_Tables_number   1
_chemical_formula_structural   Dy5MgScP12Ir17
_chemical_formula_sum   'Dy5 Mg1 Sc1 P12 Ir17'
_cell_volume   563.45590915
_cell_formula_units_Z   1
loop_
 _symmetry_equiv_pos_site_id
 _symmetry_equiv_pos_as_xyz
  1  'x, y, z'
loop_
 _atom_site_type_symbol
 _atom_site_label
 _atom_site_symmetry_multiplicity
 _atom_site_fract_x
 _atom_site_fract_y
 _atom_site_fract_z
 _atom_site_occupancy
  Dy  Dy0  1  0.330102  0.662337  0.500000  1
  Dy  Dy1  1  0.670296  0.336963  0.500000  1
  Dy  Dy2  1  0.002592  0.813787  0.000000  1
  Dy  Dy3  1  0.187244  0.187300  0.000000  1
  Dy  Dy4  1  0.811854  0.002863  0.000000  1
  Mg  Mg5  1  0.552093  0.555554  0.500000  1
  Sc  Sc6  1  0.998739  0.442276  0.500000  1
  P  P7  1  0.002296  0.644929  0.500000  1
  P  P8  1  0.359203  0.353290  0.500000  1
  P  P9  1  0.642250  0.998400  0.500000  1
  P  P10  1  0.514087  0.687163  0.000000  1
  P  P11  1  0.309065  0.824742  0.000000  1
  P  P12  1  0.166296  0.480378  0.000000  1
  P  P13  1  0.484727  0.177028  0.000000  1
  P  P14  1  0.686412  0.518704  0.000000  1
  P  P15  1  0.829973  0.315378  0.000000  1
  P  P16  1  0.999272  0.174743  0.500000  1
  P  P17  1  0.822528  0.823563  0.500000  1
  P  P18  1  0.179794  0.999599  0.500000  1
  Ir  Ir19  1  0.505939  0.867041  0.000000  1
  Ir  Ir20  1  0.127386  0.641357  0.000000  1
  Ir  Ir21  1  0.357857  0.495895  0.000000  1
  Ir  Ir22  1  0.485810  0.360143  0.000000  1
  Ir  Ir23  1  0.865051  0.508904  0.000000  1
  Ir  Ir24  1  0.638654  0.135156  0.000000  1
  Ir  Ir25  1  0.462465  0.999909  0.500000  1
  Ir  Ir26  1  0.996433  0.277461  0.000000  1
  Ir  Ir27  1  0.718255  0.722154  0.000000  1
  Ir  Ir28  1  0.287094  0.999381  0.000000  1
  Ir  Ir29  1  0.622605  0.806697  0.500000  1
  Ir  Ir30  1  0.201803  0.824966  0.500000  1
  Ir  Ir31  1  0.179840  0.366303  0.500000  1
  Ir  Ir32  1  0.379057  0.174374  0.500000  1
  Ir  Ir33  1  0.807708  0.631601  0.500000  1
  Ir  Ir34  1  0.814253  0.191202  0.500000  1
  Ir  Ir35  1  0.000967  0.998457  0.500000  1
