# generated using pymatgen
data_Tb2Ho14MgNi4Ag3
_symmetry_space_group_name_H-M   'P 1'
_cell_length_a   9.45665125
_cell_length_b   9.44096054
_cell_length_c   9.43872900
_cell_angle_alpha   60.00782218
_cell_angle_beta   60.06267644
_cell_angle_gamma   60.20452423
_symmetry_Int_Tables_number   1
_chemical_formula_structural   Tb2Ho14MgNi4Ag3
_chemical_formula_sum   'Tb2 Ho14 Mg1 Ni4 Ag3'
_cell_volume   597.10480983
_cell_formula_units_Z   1
loop_
 _symmetry_equiv_pos_site_id
 _symmetry_equiv_pos_as_xyz
  1  'x, y, z'
loop_
 _atom_site_type_symbol
 _atom_site_label
 _atom_site_symmetry_multiplicity
 _atom_site_fract_x
 _atom_site_fract_y
 _atom_site_fract_z
 _atom_site_occupancy
  Tb  Tb0  1  0.600571  0.204572  0.597428  1
  Tb  Tb1  1  0.193488  0.603673  0.601419  1
  Ho  Ho2  1  0.183688  0.815361  0.815017  1
  Ho  Ho3  1  0.813309  0.185762  0.185325  1
  Ho  Ho4  1  0.813309  0.185762  0.815604  1
  Ho  Ho5  1  0.183688  0.815361  0.185934  1
  Ho  Ho6  1  0.813365  0.815440  0.185598  1
  Ho  Ho7  1  0.183253  0.186149  0.815299  1
  Ho  Ho8  1  0.058921  0.439425  0.440680  1
  Ho  Ho9  1  0.435936  0.062191  0.063505  1
  Ho  Ho10  1  0.435936  0.062191  0.438369  1
  Ho  Ho11  1  0.058921  0.439425  0.060975  1
  Ho  Ho12  1  0.436753  0.438011  0.062618  1
  Ho  Ho13  1  0.059778  0.060972  0.439626  1
  Ho  Ho14  1  0.598708  0.597973  0.596067  1
  Ho  Ho15  1  0.598708  0.597973  0.207251  1
  Mg  Mg16  1  0.536292  0.820456  0.821627  1
  Ni  Ni17  1  0.391166  0.394093  0.392902  1
  Ni  Ni18  1  0.391166  0.394093  0.821841  1
  Ni  Ni19  1  0.391170  0.822268  0.393282  1
  Ni  Ni20  1  0.823023  0.393015  0.391982  1
  Ag  Ag21  1  0.832980  0.834028  0.834599  1
  Ag  Ag22  1  0.832980  0.834028  0.498395  1
  Ag  Ag23  1  0.832894  0.497780  0.834664  1
