# generated using pymatgen
data_Ac4Mg4AgIr3
_symmetry_space_group_name_H-M   'P 1'
_cell_length_a   4.35366200
_cell_length_b   7.66431552
_cell_length_c   9.10174807
_cell_angle_alpha   89.04275004
_cell_angle_beta   90.00000000
_cell_angle_gamma   90.00000000
_symmetry_Int_Tables_number   1
_chemical_formula_structural   Ac4Mg4AgIr3
_chemical_formula_sum   'Ac4 Mg4 Ag1 Ir3'
_cell_volume   303.66328075
_cell_formula_units_Z   1
loop_
 _symmetry_equiv_pos_site_id
 _symmetry_equiv_pos_as_xyz
  1  'x, y, z'
loop_
 _atom_site_type_symbol
 _atom_site_label
 _atom_site_symmetry_multiplicity
 _atom_site_fract_x
 _atom_site_fract_y
 _atom_site_fract_z
 _atom_site_occupancy
  Ac  Ac0  1  0.250000  0.536322  0.184098  1
  Ac  Ac1  1  0.750000  0.473601  0.834531  1
  Ac  Ac2  1  0.750000  0.944280  0.685461  1
  Ac  Ac3  1  0.250000  0.026371  0.307859  1
  Mg  Mg4  1  0.250000  0.641576  0.553378  1
  Mg  Mg5  1  0.750000  0.372884  0.432941  1
  Mg  Mg6  1  0.750000  0.868152  0.056017  1
  Mg  Mg7  1  0.250000  0.128851  0.950269  1
  Ag  Ag8  1  0.250000  0.268497  0.620371  1
  Ir  Ir9  1  0.250000  0.760546  0.872984  1
  Ir  Ir10  1  0.750000  0.240163  0.126240  1
  Ir  Ir11  1  0.750000  0.738757  0.375853  1
