# generated using pymatgen
data_Yb2Er(Si3Pd10)2
_symmetry_space_group_name_H-M   'P 1'
_cell_length_a   8.70851729
_cell_length_b   8.70851768
_cell_length_c   8.70851700
_cell_angle_alpha   59.99999880
_cell_angle_beta   59.99999731
_cell_angle_gamma   60.00000189
_symmetry_Int_Tables_number   1
_chemical_formula_structural   Yb2Er(Si3Pd10)2
_chemical_formula_sum   'Yb2 Er1 Si6 Pd20'
_cell_volume   467.00083409
_cell_formula_units_Z   1
loop_
 _symmetry_equiv_pos_site_id
 _symmetry_equiv_pos_as_xyz
  1  'x, y, z'
loop_
 _atom_site_type_symbol
 _atom_site_label
 _atom_site_symmetry_multiplicity
 _atom_site_fract_x
 _atom_site_fract_y
 _atom_site_fract_z
 _atom_site_occupancy
  Yb  Yb0  1  0.250000  0.250000  0.250000  1
  Yb  Yb1  1  0.750000  0.750000  0.750000  1
  Er  Er2  1  0.000000  0.000000  0.000000  1
  Si  Si3  1  0.730961  0.269039  0.269039  1
  Si  Si4  1  0.269039  0.730961  0.730961  1
  Si  Si5  1  0.269039  0.730961  0.269039  1
  Si  Si6  1  0.730961  0.269039  0.730961  1
  Si  Si7  1  0.269039  0.269039  0.730961  1
  Si  Si8  1  0.730961  0.730961  0.269039  1
  Pd  Pd9  1  0.383139  0.383139  0.383139  1
  Pd  Pd10  1  0.616861  0.616861  0.616861  1
  Pd  Pd11  1  0.383139  0.383139  0.850583  1
  Pd  Pd12  1  0.383139  0.850583  0.383139  1
  Pd  Pd13  1  0.616861  0.616861  0.149417  1
  Pd  Pd14  1  0.616861  0.149417  0.616861  1
  Pd  Pd15  1  0.850583  0.383139  0.383139  1
  Pd  Pd16  1  0.149417  0.616861  0.616861  1
  Pd  Pd17  1  0.343541  0.000000  0.000000  1
  Pd  Pd18  1  0.656459  0.000000  0.000000  1
  Pd  Pd19  1  0.000000  0.343541  0.656459  1
  Pd  Pd20  1  0.000000  0.656459  0.343541  1
  Pd  Pd21  1  0.000000  0.343541  0.000000  1
  Pd  Pd22  1  0.656459  0.000000  0.343541  1
  Pd  Pd23  1  0.000000  0.656459  0.000000  1
  Pd  Pd24  1  0.343541  0.000000  0.656459  1
  Pd  Pd25  1  0.000000  0.000000  0.343541  1
  Pd  Pd26  1  0.000000  0.000000  0.656459  1
  Pd  Pd27  1  0.656459  0.343541  0.000000  1
  Pd  Pd28  1  0.343541  0.656459  0.000000  1
