# generated using pymatgen
data_Na16TiSiP8
_symmetry_space_group_name_H-M   'P 1'
_cell_length_a   9.46580733
_cell_length_b   9.46580668
_cell_length_c   9.46580800
_cell_angle_alpha   60.00000236
_cell_angle_beta   60.00000465
_cell_angle_gamma   60.00000283
_symmetry_Int_Tables_number   1
_chemical_formula_structural   Na16TiSiP8
_chemical_formula_sum   'Na16 Ti1 Si1 P8'
_cell_volume   599.73309711
_cell_formula_units_Z   1
loop_
 _symmetry_equiv_pos_site_id
 _symmetry_equiv_pos_as_xyz
  1  'x, y, z'
loop_
 _atom_site_type_symbol
 _atom_site_label
 _atom_site_symmetry_multiplicity
 _atom_site_fract_x
 _atom_site_fract_y
 _atom_site_fract_z
 _atom_site_occupancy
  Na  Na0  1  0.626822  0.626822  0.119536  1
  Na  Na1  1  0.626822  0.119536  0.626822  1
  Na  Na2  1  0.119536  0.626822  0.626822  1
  Na  Na3  1  0.626822  0.626822  0.626822  1
  Na  Na4  1  0.030679  0.469321  0.469321  1
  Na  Na5  1  0.774451  0.225549  0.225549  1
  Na  Na6  1  0.469321  0.030679  0.469321  1
  Na  Na7  1  0.469321  0.469321  0.030679  1
  Na  Na8  1  0.030679  0.030679  0.469321  1
  Na  Na9  1  0.030679  0.469321  0.030679  1
  Na  Na10  1  0.469321  0.030679  0.030679  1
  Na  Na11  1  0.774451  0.225549  0.774451  1
  Na  Na12  1  0.225549  0.774451  0.225549  1
  Na  Na13  1  0.225549  0.225549  0.774451  1
  Na  Na14  1  0.774451  0.774451  0.225549  1
  Na  Na15  1  0.225549  0.774451  0.774451  1
  Ti  Ti16  1  0.500000  0.500000  0.500000  1
  Si  Si17  1  0.750000  0.750000  0.750000  1
  P  P18  1  0.850929  0.850929  0.447214  1
  P  P19  1  0.850929  0.447214  0.850929  1
  P  P20  1  0.395551  0.395551  0.813346  1
  P  P21  1  0.395551  0.813346  0.395551  1
  P  P22  1  0.813346  0.395551  0.395551  1
  P  P23  1  0.850929  0.850929  0.850929  1
  P  P24  1  0.447214  0.850929  0.850929  1
  P  P25  1  0.395551  0.395551  0.395551  1
