# generated using pymatgen
data_Tm8Nb11Si16W
_symmetry_space_group_name_H-M   'P 1'
_cell_length_a   6.81616489
_cell_length_b   7.02575312
_cell_length_c   13.33374400
_cell_angle_alpha   90.00000000
_cell_angle_beta   90.00000000
_cell_angle_gamma   90.01847057
_symmetry_Int_Tables_number   1
_chemical_formula_structural   Tm8Nb11Si16W
_chemical_formula_sum   'Tm8 Nb11 Si16 W1'
_cell_volume   638.53552320
_cell_formula_units_Z   1
loop_
 _symmetry_equiv_pos_site_id
 _symmetry_equiv_pos_as_xyz
  1  'x, y, z'
loop_
 _atom_site_type_symbol
 _atom_site_label
 _atom_site_symmetry_multiplicity
 _atom_site_fract_x
 _atom_site_fract_y
 _atom_site_fract_z
 _atom_site_occupancy
  Tm  Tm0  1  0.004536  0.172719  0.095671  1
  Tm  Tm1  1  0.995590  0.827778  0.904023  1
  Tm  Tm2  1  0.496251  0.673048  0.903994  1
  Tm  Tm3  1  0.995590  0.827778  0.595977  1
  Tm  Tm4  1  0.504661  0.327367  0.095907  1
  Tm  Tm5  1  0.004536  0.172719  0.404329  1
  Tm  Tm6  1  0.504661  0.327367  0.404093  1
  Tm  Tm7  1  0.496251  0.673048  0.596006  1
  Nb  Nb8  1  0.160893  0.493106  0.750000  1
  Nb  Nb9  1  0.839443  0.506253  0.250000  1
  Nb  Nb10  1  0.339703  0.992877  0.250000  1
  Nb  Nb11  1  0.334629  0.173424  0.625940  1
  Nb  Nb12  1  0.664520  0.825021  0.375113  1
  Nb  Nb13  1  0.164873  0.675043  0.374685  1
  Nb  Nb14  1  0.664520  0.825021  0.124887  1
  Nb  Nb15  1  0.834707  0.325231  0.625952  1
  Nb  Nb16  1  0.334629  0.173424  0.874060  1
  Nb  Nb17  1  0.834707  0.325231  0.874048  1
  Nb  Nb18  1  0.164873  0.675043  0.125315  1
  Si  Si19  1  0.035111  0.119800  0.750000  1
  Si  Si20  1  0.961002  0.878316  0.250000  1
  Si  Si21  1  0.461872  0.620505  0.250000  1
  Si  Si22  1  0.539136  0.377286  0.750000  1
  Si  Si23  1  0.297342  0.871274  0.750000  1
  Si  Si24  1  0.707400  0.128933  0.250000  1
  Si  Si25  1  0.207007  0.370344  0.250000  1
  Si  Si26  1  0.793111  0.633124  0.750000  1
  Si  Si27  1  0.163147  0.464235  0.540655  1
  Si  Si28  1  0.836924  0.535802  0.459256  1
  Si  Si29  1  0.336364  0.963954  0.459618  1
  Si  Si30  1  0.836924  0.535802  0.040744  1
  Si  Si31  1  0.662954  0.036519  0.541934  1
  Si  Si32  1  0.163147  0.464235  0.959345  1
  Si  Si33  1  0.662954  0.036519  0.958066  1
  Si  Si34  1  0.336364  0.963954  0.040382  1
  W  W35  1  0.659669  0.007904  0.750000  1
