# generated using pymatgen
data_Nd5YHo10(CdIr)4
_symmetry_space_group_name_H-M   'P 1'
_cell_length_a   9.70321689
_cell_length_b   9.70659853
_cell_length_c   9.70659759
_cell_angle_alpha   59.94986299
_cell_angle_beta   60.01151723
_cell_angle_gamma   60.01152543
_symmetry_Int_Tables_number   1
_chemical_formula_structural   Nd5YHo10(CdIr)4
_chemical_formula_sum   'Nd5 Y1 Ho10 Cd4 Ir4'
_cell_volume   646.31696499
_cell_formula_units_Z   1
loop_
 _symmetry_equiv_pos_site_id
 _symmetry_equiv_pos_as_xyz
  1  'x, y, z'
loop_
 _atom_site_type_symbol
 _atom_site_label
 _atom_site_symmetry_multiplicity
 _atom_site_fract_x
 _atom_site_fract_y
 _atom_site_fract_z
 _atom_site_occupancy
  Nd  Nd0  1  0.558917  0.941083  0.941083  1
  Nd  Nd1  1  0.560608  0.939653  0.558954  1
  Nd  Nd2  1  0.940785  0.558954  0.939653  1
  Nd  Nd3  1  0.560608  0.558954  0.939653  1
  Nd  Nd4  1  0.940785  0.939653  0.558954  1
  Y  Y5  1  0.941865  0.558135  0.558135  1
  Ho  Ho6  1  0.346714  0.348049  0.348049  1
  Ho  Ho7  1  0.346908  0.348762  0.957422  1
  Ho  Ho8  1  0.346908  0.957422  0.348762  1
  Ho  Ho9  1  0.957186  0.348049  0.348049  1
  Ho  Ho10  1  0.812500  0.187500  0.187500  1
  Ho  Ho11  1  0.187333  0.812667  0.812667  1
  Ho  Ho12  1  0.187689  0.811554  0.187757  1
  Ho  Ho13  1  0.813000  0.187757  0.811554  1
  Ho  Ho14  1  0.187689  0.187757  0.811554  1
  Ho  Ho15  1  0.813000  0.811554  0.187757  1
  Cd  Cd16  1  0.580899  0.579215  0.579215  1
  Cd  Cd17  1  0.579443  0.579655  0.261460  1
  Cd  Cd18  1  0.579443  0.261460  0.579655  1
  Cd  Cd19  1  0.260672  0.579215  0.579215  1
  Ir  Ir20  1  0.140898  0.141619  0.141619  1
  Ir  Ir21  1  0.140145  0.143754  0.575955  1
  Ir  Ir22  1  0.140145  0.575955  0.143754  1
  Ir  Ir23  1  0.575862  0.141619  0.141619  1
