# generated using pymatgen
data_Y2Tc3Ru
_symmetry_space_group_name_H-M   'P 1'
_cell_length_a   5.28349100
_cell_length_b   5.28349175
_cell_length_c   9.19092000
_cell_angle_alpha   90.00000000
_cell_angle_beta   90.00000000
_cell_angle_gamma   120.00000159
_symmetry_Int_Tables_number   1
_chemical_formula_structural   Y2Tc3Ru
_chemical_formula_sum   'Y4 Tc6 Ru2'
_cell_volume   222.19363606
_cell_formula_units_Z   2
loop_
 _symmetry_equiv_pos_site_id
 _symmetry_equiv_pos_as_xyz
  1  'x, y, z'
loop_
 _atom_site_type_symbol
 _atom_site_label
 _atom_site_symmetry_multiplicity
 _atom_site_fract_x
 _atom_site_fract_y
 _atom_site_fract_z
 _atom_site_occupancy
  Y  Y0  1  0.333333  0.666667  0.437831  1
  Y  Y1  1  0.666667  0.333333  0.562169  1
  Y  Y2  1  0.666667  0.333333  0.937831  1
  Y  Y3  1  0.333333  0.666667  0.062169  1
  Tc  Tc4  1  0.171068  0.342136  0.750000  1
  Tc  Tc5  1  0.171068  0.828932  0.750000  1
  Tc  Tc6  1  0.342136  0.171068  0.250000  1
  Tc  Tc7  1  0.828932  0.657864  0.250000  1
  Tc  Tc8  1  0.657864  0.828932  0.750000  1
  Tc  Tc9  1  0.828932  0.171068  0.250000  1
  Ru  Ru10  1  0.000000  0.000000  0.000000  1
  Ru  Ru11  1  0.000000  0.000000  0.500000  1
