# generated using pymatgen
data_Sc4Mn5Cr3(CoP)12
_symmetry_space_group_name_H-M   'P 1'
_cell_length_a   3.54996900
_cell_length_b   10.25428536
_cell_length_c   11.86938939
_cell_angle_alpha   90.02981882
_cell_angle_beta   90.00000000
_cell_angle_gamma   90.00000000
_symmetry_Int_Tables_number   1
_chemical_formula_structural   Sc4Mn5Cr3(CoP)12
_chemical_formula_sum   'Sc4 Mn5 Cr3 Co12 P12'
_cell_volume   432.07414409
_cell_formula_units_Z   1
loop_
 _symmetry_equiv_pos_site_id
 _symmetry_equiv_pos_as_xyz
  1  'x, y, z'
loop_
 _atom_site_type_symbol
 _atom_site_label
 _atom_site_symmetry_multiplicity
 _atom_site_fract_x
 _atom_site_fract_y
 _atom_site_fract_z
 _atom_site_occupancy
  Sc  Sc0  1  0.250000  0.583158  0.708613  1
  Sc  Sc1  1  0.250000  0.917169  0.208639  1
  Sc  Sc2  1  0.750000  0.418191  0.290658  1
  Sc  Sc3  1  0.750000  0.081637  0.791962  1
  Mn  Mn4  1  0.750000  0.214568  0.509816  1
  Mn  Mn5  1  0.250000  0.406538  0.490284  1
  Mn  Mn6  1  0.250000  0.091894  0.990509  1
  Mn  Mn7  1  0.750000  0.591945  0.509880  1
  Mn  Mn8  1  0.750000  0.907249  0.010114  1
  Cr  Cr9  1  0.250000  0.709694  0.989134  1
  Cr  Cr10  1  0.250000  0.788359  0.489758  1
  Cr  Cr11  1  0.750000  0.289716  0.010386  1
  Co  Co12  1  0.250000  0.222638  0.177499  1
  Co  Co13  1  0.250000  0.276906  0.677815  1
  Co  Co14  1  0.750000  0.777163  0.822196  1
  Co  Co15  1  0.750000  0.722832  0.322306  1
  Co  Co16  1  0.250000  0.883590  0.697586  1
  Co  Co17  1  0.250000  0.615702  0.197580  1
  Co  Co18  1  0.750000  0.116716  0.303015  1
  Co  Co19  1  0.750000  0.383968  0.802310  1
  Co  Co20  1  0.250000  0.463822  0.933855  1
  Co  Co21  1  0.250000  0.036191  0.433145  1
  Co  Co22  1  0.750000  0.535996  0.065869  1
  Co  Co23  1  0.750000  0.964865  0.566687  1
  P  P24  1  0.250000  0.419640  0.115649  1
  P  P25  1  0.250000  0.080151  0.615474  1
  P  P26  1  0.750000  0.580224  0.883952  1
  P  P27  1  0.750000  0.919826  0.384931  1
  P  P28  1  0.250000  0.263322  0.866638  1
  P  P29  1  0.250000  0.235771  0.365723  1
  P  P30  1  0.750000  0.735951  0.133678  1
  P  P31  1  0.750000  0.764345  0.633115  1
  P  P32  1  0.250000  0.595378  0.382887  1
  P  P33  1  0.250000  0.903519  0.882571  1
  P  P34  1  0.750000  0.405198  0.618073  1
  P  P35  1  0.750000  0.096168  0.117693  1
