# generated using pymatgen
data_Ac5C2I9
_symmetry_space_group_name_H-M   'P 1'
_cell_length_a   8.39558040
_cell_length_b   10.59054401
_cell_length_c   15.05573878
_cell_angle_alpha   80.01086617
_cell_angle_beta   80.70428471
_cell_angle_gamma   85.28155162
_symmetry_Int_Tables_number   1
_chemical_formula_structural   Ac5C2I9
_chemical_formula_sum   'Ac10 C4 I18'
_cell_volume   1299.02841449
_cell_formula_units_Z   2
loop_
 _symmetry_equiv_pos_site_id
 _symmetry_equiv_pos_as_xyz
  1  'x, y, z'
loop_
 _atom_site_type_symbol
 _atom_site_label
 _atom_site_symmetry_multiplicity
 _atom_site_fract_x
 _atom_site_fract_y
 _atom_site_fract_z
 _atom_site_occupancy
  Ac  Ac0  1  0.776243  0.366081  0.259462  1
  Ac  Ac1  1  0.159755  0.530588  0.304640  1
  Ac  Ac2  1  0.237882  0.337560  0.081546  1
  Ac  Ac3  1  0.948058  0.034796  0.175876  1
  Ac  Ac4  1  0.823784  0.854487  0.638238  1
  Ac  Ac5  1  0.223757  0.633919  0.740538  1
  Ac  Ac6  1  0.762118  0.662440  0.918454  1
  Ac  Ac7  1  0.176216  0.145513  0.361762  1
  Ac  Ac8  1  0.840245  0.469412  0.695360  1
  Ac  Ac9  1  0.051942  0.965204  0.824124  1
  C  C10  1  0.958459  0.775005  0.781608  1
  C  C11  1  0.092221  0.343620  0.243294  1
  C  C12  1  0.907779  0.656380  0.756706  1
  C  C13  1  0.041541  0.224995  0.218392  1
  I  I14  1  0.244811  0.863075  0.272389  1
  I  I15  1  0.804768  0.005639  0.411109  1
  I  I16  1  0.902467  0.351856  0.472233  1
  I  I17  1  0.463060  0.848515  0.799148  1
  I  I18  1  0.575547  0.651391  0.576521  1
  I  I19  1  0.514522  0.447161  0.863891  1
  I  I20  1  0.195232  0.994361  0.588891  1
  I  I21  1  0.756363  0.940988  0.001772  1
  I  I22  1  0.188650  0.319830  0.733150  1
  I  I23  1  0.097533  0.648144  0.527767  1
  I  I24  1  0.811350  0.680170  0.266850  1
  I  I25  1  0.424453  0.348609  0.423479  1
  I  I26  1  0.243637  0.059012  0.998228  1
  I  I27  1  0.485478  0.552839  0.136109  1
  I  I28  1  0.128518  0.652498  0.987560  1
  I  I29  1  0.871482  0.347502  0.012440  1
  I  I30  1  0.536940  0.151485  0.200852  1
  I  I31  1  0.755189  0.136925  0.727611  1
