# generated using pymatgen
data_Lu2BIrPt5
_symmetry_space_group_name_H-M   'P 1'
_cell_length_a   5.89127268
_cell_length_b   5.87405932
_cell_length_c   5.87405830
_cell_angle_alpha   60.19398204
_cell_angle_beta   59.90301693
_cell_angle_gamma   59.90301758
_symmetry_Int_Tables_number   1
_chemical_formula_structural   Lu2BIrPt5
_chemical_formula_sum   'Lu2 B1 Ir1 Pt5'
_cell_volume   143.73524723
_cell_formula_units_Z   1
loop_
 _symmetry_equiv_pos_site_id
 _symmetry_equiv_pos_as_xyz
  1  'x, y, z'
loop_
 _atom_site_type_symbol
 _atom_site_label
 _atom_site_symmetry_multiplicity
 _atom_site_fract_x
 _atom_site_fract_y
 _atom_site_fract_z
 _atom_site_occupancy
  Lu  Lu0  1  0.749385  0.750615  0.750615  1
  Lu  Lu1  1  0.249385  0.250615  0.250615  1
  B  B2  1  0.005135  0.994865  0.994865  1
  Ir  Ir3  1  0.255255  0.744745  0.744745  1
  Pt  Pt4  1  0.741106  0.743152  0.258894  1
  Pt  Pt5  1  0.256848  0.743152  0.258894  1
  Pt  Pt6  1  0.744931  0.255069  0.255069  1
  Pt  Pt7  1  0.256848  0.258894  0.743152  1
  Pt  Pt8  1  0.741106  0.258894  0.743152  1
