# generated using pymatgen
data_NdHo5(CoSn6)2
_symmetry_space_group_name_H-M   'P 1'
_cell_length_a   8.49136525
_cell_length_b   8.49136635
_cell_length_c   13.16958886
_cell_angle_alpha   89.91385889
_cell_angle_beta   90.08614112
_cell_angle_gamma   148.83161200
_symmetry_Int_Tables_number   1
_chemical_formula_structural   NdHo5(CoSn6)2
_chemical_formula_sum   'Nd1 Ho5 Co2 Sn12'
_cell_volume   491.45447632
_cell_formula_units_Z   1
loop_
 _symmetry_equiv_pos_site_id
 _symmetry_equiv_pos_as_xyz
  1  'x, y, z'
loop_
 _atom_site_type_symbol
 _atom_site_label
 _atom_site_symmetry_multiplicity
 _atom_site_fract_x
 _atom_site_fract_y
 _atom_site_fract_z
 _atom_site_occupancy
  Nd  Nd0  1  0.900316  0.099684  0.405676  1
  Ho  Ho1  1  0.898479  0.101521  0.093027  1
  Ho  Ho2  1  0.101658  0.898342  0.594917  1
  Ho  Ho3  1  0.900284  0.099716  0.751710  1
  Ho  Ho4  1  0.100848  0.899152  0.906323  1
  Ho  Ho5  1  0.100188  0.899812  0.248714  1
  Co  Co6  1  0.298993  0.701007  0.249358  1
  Co  Co7  1  0.700090  0.299910  0.750240  1
  Sn  Sn8  1  0.756014  0.243986  0.572810  1
  Sn  Sn9  1  0.428569  0.571431  0.578725  1
  Sn  Sn10  1  0.573177  0.426823  0.424053  1
  Sn  Sn11  1  0.733132  0.266868  0.248925  1
  Sn  Sn12  1  0.265914  0.734086  0.750399  1
  Sn  Sn13  1  0.243679  0.756321  0.071073  1
  Sn  Sn14  1  0.242846  0.757154  0.428399  1
  Sn  Sn15  1  0.572592  0.427408  0.074768  1
  Sn  Sn16  1  0.454436  0.545564  0.246539  1
  Sn  Sn17  1  0.545953  0.454047  0.750983  1
  Sn  Sn18  1  0.755999  0.244001  0.928314  1
  Sn  Sn19  1  0.426832  0.573168  0.925046  1
