# generated using pymatgen
data_Tb12Os2PdPt
_symmetry_space_group_name_H-M   'P 1'
_cell_length_a   6.41578246
_cell_length_b   7.23612052
_cell_length_c   9.43200400
_cell_angle_alpha   90.00000000
_cell_angle_beta   90.00000000
_cell_angle_gamma   89.91425112
_symmetry_Int_Tables_number   1
_chemical_formula_structural   Tb12Os2PdPt
_chemical_formula_sum   'Tb12 Os2 Pd1 Pt1'
_cell_volume   437.88383348
_cell_formula_units_Z   1
loop_
 _symmetry_equiv_pos_site_id
 _symmetry_equiv_pos_as_xyz
  1  'x, y, z'
loop_
 _atom_site_type_symbol
 _atom_site_label
 _atom_site_symmetry_multiplicity
 _atom_site_fract_x
 _atom_site_fract_y
 _atom_site_fract_z
 _atom_site_occupancy
  Tb  Tb0  1  0.635508  0.027465  0.250000  1
  Tb  Tb1  1  0.374215  0.962036  0.750000  1
  Tb  Tb2  1  0.132433  0.470259  0.750000  1
  Tb  Tb3  1  0.876693  0.538914  0.250000  1
  Tb  Tb4  1  0.168838  0.171865  0.063277  1
  Tb  Tb5  1  0.825042  0.819281  0.940938  1
  Tb  Tb6  1  0.672682  0.326800  0.934981  1
  Tb  Tb7  1  0.825042  0.819281  0.559062  1
  Tb  Tb8  1  0.325517  0.682502  0.057928  1
  Tb  Tb9  1  0.168838  0.171865  0.436723  1
  Tb  Tb10  1  0.325517  0.682502  0.442072  1
  Tb  Tb11  1  0.672682  0.326800  0.565019  1
  Os  Os12  1  0.548720  0.615425  0.750000  1
  Os  Os13  1  0.049879  0.884261  0.250000  1
  Pd  Pd14  1  0.447605  0.387994  0.250000  1
  Pt  Pt15  1  0.950786  0.112748  0.750000  1
