# generated using pymatgen
data_Er14Lu2Al3ZnRh4
_symmetry_space_group_name_H-M   'P 1'
_cell_length_a   9.43083591
_cell_length_b   9.41836408
_cell_length_c   9.42259023
_cell_angle_alpha   59.94721923
_cell_angle_beta   59.86139945
_cell_angle_gamma   59.83966697
_symmetry_Int_Tables_number   1
_chemical_formula_structural   Er14Lu2Al3ZnRh4
_chemical_formula_sum   'Er14 Lu2 Al3 Zn1 Rh4'
_cell_volume   590.23279064
_cell_formula_units_Z   1
loop_
 _symmetry_equiv_pos_site_id
 _symmetry_equiv_pos_as_xyz
  1  'x, y, z'
loop_
 _atom_site_type_symbol
 _atom_site_label
 _atom_site_symmetry_multiplicity
 _atom_site_fract_x
 _atom_site_fract_y
 _atom_site_fract_z
 _atom_site_occupancy
  Er  Er0  1  0.434761  0.062030  0.435041  1
  Er  Er1  1  0.064348  0.434540  0.062908  1
  Er  Er2  1  0.644767  0.060528  0.645248  1
  Er  Er3  1  0.193644  0.806896  0.807848  1
  Er  Er4  1  0.064971  0.060224  0.436442  1
  Er  Er5  1  0.807186  0.193682  0.193430  1
  Er  Er6  1  0.806447  0.805886  0.194625  1
  Er  Er7  1  0.645378  0.645238  0.059588  1
  Er  Er8  1  0.648422  0.647819  0.650204  1
  Er  Er9  1  0.064649  0.433663  0.437817  1
  Er  Er10  1  0.060938  0.644937  0.645776  1
  Er  Er11  1  0.805858  0.195165  0.806269  1
  Er  Er12  1  0.436205  0.432590  0.065291  1
  Er  Er13  1  0.192007  0.808652  0.191493  1
  Lu  Lu14  1  0.194761  0.194256  0.806163  1
  Lu  Lu15  1  0.437324  0.059813  0.062566  1
  Al  Al16  1  0.422509  0.424009  0.733063  1
  Al  Al17  1  0.732475  0.424073  0.422700  1
  Al  Al18  1  0.421939  0.423123  0.421920  1
  Zn  Zn19  1  0.420527  0.740881  0.420298  1
  Rh  Rh20  1  0.860522  0.426094  0.857405  1
  Rh  Rh21  1  0.857814  0.857613  0.427866  1
  Rh  Rh22  1  0.426335  0.860846  0.858088  1
  Rh  Rh23  1  0.856216  0.857445  0.857955  1
