# generated using pymatgen
data_Ho2ErZr2Sn3O
_symmetry_space_group_name_H-M   'P 1'
_cell_length_a   8.72701000
_cell_length_b   8.72690884
_cell_length_c   6.02724500
_cell_angle_alpha   90.00000000
_cell_angle_beta   90.00000000
_cell_angle_gamma   119.99960944
_symmetry_Int_Tables_number   1
_chemical_formula_structural   Ho2ErZr2Sn3O
_chemical_formula_sum   'Ho4 Er2 Zr4 Sn6 O2'
_cell_volume   397.53658212
_cell_formula_units_Z   2
loop_
 _symmetry_equiv_pos_site_id
 _symmetry_equiv_pos_as_xyz
  1  'x, y, z'
loop_
 _atom_site_type_symbol
 _atom_site_label
 _atom_site_symmetry_multiplicity
 _atom_site_fract_x
 _atom_site_fract_y
 _atom_site_fract_z
 _atom_site_occupancy
  Ho  Ho0  1  0.999893  0.773135  0.750000  1
  Ho  Ho1  1  0.999893  0.226759  0.250000  1
  Ho  Ho2  1  0.226856  0.226868  0.750000  1
  Ho  Ho3  1  0.226856  0.999988  0.250000  1
  Er  Er4  1  0.773809  0.773962  0.250000  1
  Er  Er5  1  0.773809  0.999847  0.750000  1
  Zr  Zr6  1  0.333402  0.666701  0.000000  1
  Zr  Zr7  1  0.333402  0.666701  0.500000  1
  Zr  Zr8  1  0.666713  0.333356  0.000000  1
  Zr  Zr9  1  0.666713  0.333356  0.500000  1
  Sn  Sn10  1  0.999377  0.593950  0.250000  1
  Sn  Sn11  1  0.999377  0.405427  0.750000  1
  Sn  Sn12  1  0.406520  0.406473  0.250000  1
  Sn  Sn13  1  0.594322  0.594924  0.750000  1
  Sn  Sn14  1  0.406520  0.000046  0.750000  1
  Sn  Sn15  1  0.594322  0.999398  0.250000  1
  O  O16  1  0.999108  0.999554  0.000000  1
  O  O17  1  0.999108  0.999554  0.500000  1
