# generated using pymatgen
data_Hf17Fe4Pt3
_symmetry_space_group_name_H-M   'P 1'
_cell_length_a   8.62739829
_cell_length_b   8.62739929
_cell_length_c   8.62739800
_cell_angle_alpha   59.90136928
_cell_angle_beta   59.90136543
_cell_angle_gamma   59.90137408
_symmetry_Int_Tables_number   1
_chemical_formula_structural   Hf17Fe4Pt3
_chemical_formula_sum   'Hf17 Fe4 Pt3'
_cell_volume   453.05583097
_cell_formula_units_Z   1
loop_
 _symmetry_equiv_pos_site_id
 _symmetry_equiv_pos_as_xyz
  1  'x, y, z'
loop_
 _atom_site_type_symbol
 _atom_site_label
 _atom_site_symmetry_multiplicity
 _atom_site_fract_x
 _atom_site_fract_y
 _atom_site_fract_z
 _atom_site_occupancy
  Hf  Hf0  1  0.209383  0.595682  0.595682  1
  Hf  Hf1  1  0.595682  0.209383  0.595682  1
  Hf  Hf2  1  0.595682  0.595682  0.209383  1
  Hf  Hf3  1  0.606132  0.606132  0.606132  1
  Hf  Hf4  1  0.813030  0.813030  0.179542  1
  Hf  Hf5  1  0.187994  0.187994  0.812791  1
  Hf  Hf6  1  0.813030  0.179542  0.813030  1
  Hf  Hf7  1  0.187994  0.812791  0.187994  1
  Hf  Hf8  1  0.179542  0.813030  0.813030  1
  Hf  Hf9  1  0.812791  0.187994  0.187994  1
  Hf  Hf10  1  0.448034  0.448034  0.051166  1
  Hf  Hf11  1  0.060593  0.060593  0.443998  1
  Hf  Hf12  1  0.448034  0.051166  0.448034  1
  Hf  Hf13  1  0.060593  0.443998  0.060593  1
  Hf  Hf14  1  0.051166  0.448034  0.448034  1
  Hf  Hf15  1  0.443998  0.060593  0.060593  1
  Hf  Hf16  1  0.822933  0.822933  0.822933  1
  Fe  Fe17  1  0.827792  0.393037  0.393037  1
  Fe  Fe18  1  0.393037  0.827792  0.393037  1
  Fe  Fe19  1  0.393037  0.393037  0.827792  1
  Fe  Fe20  1  0.388105  0.388105  0.388105  1
  Pt  Pt21  1  0.483615  0.838902  0.838902  1
  Pt  Pt22  1  0.838902  0.483615  0.838902  1
  Pt  Pt23  1  0.838902  0.838902  0.483615  1
