# generated using pymatgen
data_LiSbMoO6
_symmetry_space_group_name_H-M   'P 1'
_cell_length_a   4.74996200
_cell_length_b   5.06401800
_cell_length_c   17.75129000
_cell_angle_alpha   90.00000000
_cell_angle_beta   90.00000000
_cell_angle_gamma   90.00000000
_symmetry_Int_Tables_number   1
_chemical_formula_structural   LiSbMoO6
_chemical_formula_sum   'Li4 Sb4 Mo4 O24'
_cell_volume   426.98763147
_cell_formula_units_Z   4
loop_
 _symmetry_equiv_pos_site_id
 _symmetry_equiv_pos_as_xyz
  1  'x, y, z'
loop_
 _atom_site_type_symbol
 _atom_site_label
 _atom_site_symmetry_multiplicity
 _atom_site_fract_x
 _atom_site_fract_y
 _atom_site_fract_z
 _atom_site_occupancy
  Li  Li0  1  0.000000  0.750000  0.051054  1
  Li  Li1  1  0.500000  0.250000  0.448946  1
  Li  Li2  1  0.000000  0.250000  0.948946  1
  Li  Li3  1  0.500000  0.750000  0.551054  1
  Sb  Sb4  1  0.000000  0.750000  0.718619  1
  Sb  Sb5  1  0.000000  0.250000  0.281381  1
  Sb  Sb6  1  0.500000  0.750000  0.218619  1
  Sb  Sb7  1  0.500000  0.250000  0.781381  1
  Mo  Mo8  1  0.500000  0.250000  0.101708  1
  Mo  Mo9  1  0.000000  0.250000  0.601708  1
  Mo  Mo10  1  0.500000  0.750000  0.898292  1
  Mo  Mo11  1  0.000000  0.750000  0.398292  1
  O  O12  1  0.295617  0.560705  0.134884  1
  O  O13  1  0.743281  0.922871  0.793384  1
  O  O14  1  0.243281  0.077129  0.706616  1
  O  O15  1  0.756719  0.422871  0.706616  1
  O  O16  1  0.256719  0.577129  0.793384  1
  O  O17  1  0.256719  0.077129  0.206616  1
  O  O18  1  0.756719  0.922871  0.293384  1
  O  O19  1  0.243281  0.577129  0.293384  1
  O  O20  1  0.795617  0.439295  0.365116  1
  O  O21  1  0.295617  0.060705  0.865116  1
  O  O22  1  0.704383  0.939295  0.134884  1
  O  O23  1  0.204383  0.060705  0.365116  1
  O  O24  1  0.204383  0.560705  0.634884  1
  O  O25  1  0.704383  0.439295  0.865116  1
  O  O26  1  0.752957  0.392105  0.042101  1
  O  O27  1  0.795617  0.939295  0.634884  1
  O  O28  1  0.752957  0.892105  0.957899  1
  O  O29  1  0.252957  0.607895  0.457899  1
  O  O30  1  0.747043  0.892105  0.457899  1
  O  O31  1  0.247043  0.107895  0.042101  1
  O  O32  1  0.247043  0.607895  0.957899  1
  O  O33  1  0.747043  0.392105  0.542101  1
  O  O34  1  0.252957  0.107895  0.542101  1
  O  O35  1  0.743281  0.422871  0.206616  1
