# generated using pymatgen
data_Tb7Ho5Co6Sn
_symmetry_space_group_name_H-M   'P 1'
_cell_length_a   8.36862061
_cell_length_b   8.36597764
_cell_length_c   8.36862124
_cell_angle_alpha   109.45537989
_cell_angle_beta   109.62008341
_cell_angle_gamma   109.35106868
_symmetry_Int_Tables_number   1
_chemical_formula_structural   Tb7Ho5Co6Sn
_chemical_formula_sum   'Tb7 Ho5 Co6 Sn1'
_cell_volume   450.95351356
_cell_formula_units_Z   1
loop_
 _symmetry_equiv_pos_site_id
 _symmetry_equiv_pos_as_xyz
  1  'x, y, z'
loop_
 _atom_site_type_symbol
 _atom_site_label
 _atom_site_symmetry_multiplicity
 _atom_site_fract_x
 _atom_site_fract_y
 _atom_site_fract_z
 _atom_site_occupancy
  Tb  Tb0  1  0.303588  0.497830  0.194242  1
  Tb  Tb1  1  0.696511  0.890585  0.194072  1
  Tb  Tb2  1  0.303788  0.109457  0.805670  1
  Tb  Tb3  1  0.503207  0.805101  0.697603  1
  Tb  Tb4  1  0.497130  0.194549  0.303573  1
  Tb  Tb5  1  0.107496  0.805101  0.301895  1
  Tb  Tb6  1  0.890977  0.194549  0.697418  1
  Ho  Ho7  1  0.806167  0.695656  0.502661  1
  Ho  Ho8  1  0.193896  0.304520  0.497982  1
  Ho  Ho9  1  0.192996  0.695656  0.889490  1
  Ho  Ho10  1  0.806536  0.304520  0.110623  1
  Ho  Ho11  1  0.695862  0.501642  0.805779  1
  Co  Co12  1  0.887119  0.388194  0.501074  1
  Co  Co13  1  0.112782  0.612814  0.500033  1
  Co  Co14  1  0.387527  0.500634  0.885943  1
  Co  Co15  1  0.614691  0.500634  0.113108  1
  Co  Co16  1  0.499539  0.886507  0.386968  1
  Co  Co17  1  0.499812  0.113098  0.613286  1
  Sn  Sn18  1  0.000375  0.998953  0.998578  1
