# generated using pymatgen
data_PrGaSiIr3
_symmetry_space_group_name_H-M   'P 1'
_cell_length_a   6.80072623
_cell_length_b   6.79050762
_cell_length_c   6.80072649
_cell_angle_alpha   130.93184461
_cell_angle_beta   112.42393809
_cell_angle_gamma   87.95487290
_symmetry_Int_Tables_number   1
_chemical_formula_structural   PrGaSiIr3
_chemical_formula_sum   'Pr2 Ga2 Si2 Ir6'
_cell_volume   208.75408740
_cell_formula_units_Z   2
loop_
 _symmetry_equiv_pos_site_id
 _symmetry_equiv_pos_as_xyz
  1  'x, y, z'
loop_
 _atom_site_type_symbol
 _atom_site_label
 _atom_site_symmetry_multiplicity
 _atom_site_fract_x
 _atom_site_fract_y
 _atom_site_fract_z
 _atom_site_occupancy
  Pr  Pr0  1  0.250074  0.982346  0.732273  1
  Pr  Pr1  1  0.749926  0.017654  0.267727  1
  Ga  Ga2  1  0.073792  0.298796  0.225004  1
  Ga  Ga3  1  0.926208  0.701204  0.774996  1
  Si  Si4  1  0.408162  0.635862  0.227700  1
  Si  Si5  1  0.591838  0.364138  0.772300  1
  Ir  Ir6  1  0.500000  0.500000  0.500000  1
  Ir  Ir7  1  0.000000  0.500000  0.000000  1
  Ir  Ir8  1  0.283209  0.000000  0.283209  1
  Ir  Ir9  1  0.716791  0.000000  0.716791  1
  Ir  Ir10  1  0.257341  0.500000  0.757341  1
  Ir  Ir11  1  0.742659  0.500000  0.242659  1
