# generated using pymatgen
data_Tb5Er7InCo4Pt
_symmetry_space_group_name_H-M   'P 1'
_cell_length_a   8.27746384
_cell_length_b   8.28131133
_cell_length_c   8.27746367
_cell_angle_alpha   110.84005910
_cell_angle_beta   110.67129268
_cell_angle_gamma   106.91381611
_symmetry_Int_Tables_number   1
_chemical_formula_structural   Tb5Er7InCo4Pt
_chemical_formula_sum   'Tb5 Er7 In1 Co4 Pt1'
_cell_volume   436.24061002
_cell_formula_units_Z   1
loop_
 _symmetry_equiv_pos_site_id
 _symmetry_equiv_pos_as_xyz
  1  'x, y, z'
loop_
 _atom_site_type_symbol
 _atom_site_label
 _atom_site_symmetry_multiplicity
 _atom_site_fract_x
 _atom_site_fract_y
 _atom_site_fract_z
 _atom_site_occupancy
  Tb  Tb0  1  0.186406  0.289621  0.477197  1
  Tb  Tb1  1  0.814416  0.710187  0.523623  1
  Tb  Tb2  1  0.186564  0.710187  0.895770  1
  Tb  Tb3  1  0.812424  0.289621  0.103216  1
  Tb  Tb4  1  0.315242  0.619953  0.304711  1
  Er  Er5  1  0.684231  0.378161  0.693929  1
  Er  Er6  1  0.316128  0.010658  0.694530  1
  Er  Er7  1  0.684654  0.990962  0.306309  1
  Er  Er8  1  0.413271  0.214641  0.197525  1
  Er  Er9  1  0.587167  0.784835  0.803459  1
  Er  Er10  1  0.017116  0.214641  0.801370  1
  Er  Er11  1  0.981376  0.784835  0.197668  1
  In  In12  1  0.500253  0.499015  0.998762  1
  Co  Co13  1  0.112084  0.612779  0.500695  1
  Co  Co14  1  0.887397  0.387059  0.499662  1
  Co  Co15  1  0.379074  0.001302  0.379199  1
  Co  Co16  1  0.622104  0.001302  0.622228  1
  Pt  Pt17  1  0.000094  0.000242  0.000147  1
