# generated using pymatgen
data_Na87MnCd14
_symmetry_space_group_name_H-M   'P 1'
_cell_length_a   16.72433149
_cell_length_b   16.72433157
_cell_length_c   16.72433200
_cell_angle_alpha   60.00177533
_cell_angle_beta   60.00177516
_cell_angle_gamma   60.00177626
_symmetry_Int_Tables_number   1
_chemical_formula_structural   Na87MnCd14
_chemical_formula_sum   'Na87 Mn1 Cd14'
_cell_volume   3307.87280235
_cell_formula_units_Z   1
loop_
 _symmetry_equiv_pos_site_id
 _symmetry_equiv_pos_as_xyz
  1  'x, y, z'
loop_
 _atom_site_type_symbol
 _atom_site_label
 _atom_site_symmetry_multiplicity
 _atom_site_fract_x
 _atom_site_fract_y
 _atom_site_fract_z
 _atom_site_occupancy
  Na  Na0  1  0.715176  0.473786  0.099193  1
  Na  Na1  1  0.473786  0.715176  0.099193  1
  Na  Na2  1  0.480149  0.480149  0.135504  1
  Na  Na3  1  0.898677  0.485106  0.136871  1
  Na  Na4  1  0.485106  0.898677  0.136871  1
  Na  Na5  1  0.356476  0.143063  0.143626  1
  Na  Na6  1  0.143063  0.356476  0.143626  1
  Na  Na7  1  0.356180  0.356180  0.143813  1
  Na  Na8  1  0.944298  0.944298  0.166467  1
  Na  Na9  1  0.812581  0.187243  0.187534  1
  Na  Na10  1  0.187243  0.812581  0.187534  1
  Na  Na11  1  0.810485  0.810485  0.184930  1
  Na  Na12  1  0.568951  0.216515  0.216649  1
  Na  Na13  1  0.216515  0.568951  0.216649  1
  Na  Na14  1  0.998691  0.568705  0.216806  1
  Na  Na15  1  0.568705  0.998691  0.216806  1
  Na  Na16  1  0.997425  0.217224  0.216508  1
  Na  Na17  1  0.217224  0.997425  0.216508  1
  Na  Na18  1  0.565435  0.565435  0.310032  1
  Na  Na19  1  0.979707  0.979707  0.335913  1
  Na  Na20  1  0.980038  0.704616  0.335768  1
  Na  Na21  1  0.704616  0.980038  0.335768  1
  Na  Na22  1  0.559326  0.339176  0.339408  1
  Na  Na23  1  0.339176  0.559326  0.339408  1
  Na  Na24  1  0.761565  0.562632  0.333579  1
  Na  Na25  1  0.562632  0.761565  0.333579  1
  Na  Na26  1  0.762199  0.338271  0.340172  1
  Na  Na27  1  0.338271  0.762199  0.340172  1
  Na  Na28  1  0.143748  0.143748  0.355858  1
  Na  Na29  1  0.356224  0.143792  0.356243  1
  Na  Na30  1  0.143792  0.356224  0.356243  1
  Na  Na31  1  0.716475  0.716475  0.469112  1
  Na  Na32  1  0.716172  0.098445  0.470011  1
  Na  Na33  1  0.098445  0.716172  0.470011  1
  Na  Na34  1  0.903661  0.480114  0.479684  1
  Na  Na35  1  0.480114  0.903661  0.479684  1
  Na  Na36  1  0.480154  0.135627  0.479986  1
  Na  Na37  1  0.135627  0.480154  0.479986  1
  Na  Na38  1  0.903443  0.135762  0.480389  1
  Na  Na39  1  0.135762  0.903443  0.480389  1
  Na  Na40  1  0.836727  0.836727  0.490612  1
  Na  Na41  1  0.761471  0.339770  0.558662  1
  Na  Na42  1  0.339770  0.761471  0.558662  1
  Na  Na43  1  0.339307  0.339307  0.559146  1
  Na  Na44  1  0.558988  0.558988  0.558556  1
  Na  Na45  1  0.560802  0.319269  0.560560  1
  Na  Na46  1  0.319269  0.560802  0.560560  1
  Na  Na47  1  0.997297  0.216518  0.569422  1
  Na  Na48  1  0.216518  0.997297  0.569422  1
  Na  Na49  1  0.216505  0.216505  0.568997  1
  Na  Na50  1  0.694156  0.694156  0.694449  1
  Na  Na51  1  0.918142  0.694051  0.694492  1
  Na  Na52  1  0.694051  0.918142  0.694492  1
  Na  Na53  1  0.979211  0.979211  0.705078  1
  Na  Na54  1  0.980278  0.336066  0.704312  1
  Na  Na55  1  0.336066  0.980278  0.704312  1
  Na  Na56  1  0.715829  0.469748  0.716069  1
  Na  Na57  1  0.469748  0.715829  0.716069  1
  Na  Na58  1  0.715820  0.098909  0.715554  1
  Na  Na59  1  0.098909  0.715820  0.715554  1
  Na  Na60  1  0.470237  0.099267  0.714935  1
  Na  Na61  1  0.099267  0.470237  0.714935  1
  Na  Na62  1  0.339853  0.339853  0.761799  1
  Na  Na63  1  0.559284  0.339394  0.761529  1
  Na  Na64  1  0.339394  0.559284  0.761529  1
  Na  Na65  1  0.812224  0.186329  0.812732  1
  Na  Na66  1  0.186329  0.812224  0.812732  1
  Na  Na67  1  0.187073  0.187073  0.812789  1
  Na  Na68  1  0.835469  0.835469  0.840237  1
  Na  Na69  1  0.836192  0.490843  0.836815  1
  Na  Na70  1  0.490843  0.836192  0.836815  1
  Na  Na71  1  0.480030  0.480030  0.903929  1
  Na  Na72  1  0.481348  0.134904  0.903900  1
  Na  Na73  1  0.134904  0.481348  0.903900  1
  Na  Na74  1  0.693120  0.693120  0.922442  1
  Na  Na75  1  0.944537  0.166353  0.944795  1
  Na  Na76  1  0.166353  0.944537  0.944795  1
  Na  Na77  1  0.944680  0.944680  0.944461  1
  Na  Na78  1  0.979270  0.335982  0.980187  1
  Na  Na79  1  0.335982  0.979270  0.980187  1
  Na  Na80  1  0.704334  0.336101  0.980785  1
  Na  Na81  1  0.336101  0.704334  0.980785  1
  Na  Na82  1  0.973563  0.706054  0.983389  1
  Na  Na83  1  0.706054  0.973563  0.983389  1
  Na  Na84  1  0.216427  0.216427  0.998215  1
  Na  Na85  1  0.569523  0.215772  0.997667  1
  Na  Na86  1  0.215772  0.569523  0.997667  1
  Mn  Mn87  1  0.716364  0.716364  0.094439  1
  Cd  Cd88  1  0.757199  0.081168  0.081473  1
  Cd  Cd89  1  0.081168  0.757199  0.081473  1
  Cd  Cd90  1  0.080860  0.080860  0.081314  1
  Cd  Cd91  1  0.950838  0.349605  0.349336  1
  Cd  Cd92  1  0.349605  0.950838  0.349336  1
  Cd  Cd93  1  0.349793  0.349793  0.349634  1
  Cd  Cd94  1  0.915134  0.584340  0.584344  1
  Cd  Cd95  1  0.584340  0.915134  0.584344  1
  Cd  Cd96  1  0.915752  0.915752  0.583854  1
  Cd  Cd97  1  0.080685  0.080685  0.758107  1
  Cd  Cd98  1  0.584372  0.584372  0.914886  1
  Cd  Cd99  1  0.912772  0.587195  0.918868  1
  Cd  Cd100  1  0.587195  0.912772  0.918868  1
  Cd  Cd101  1  0.349914  0.349914  0.951257  1
