# generated using pymatgen
data_Th3Si6(Pd3Rh2)4
_symmetry_space_group_name_H-M   'P 1'
_cell_length_a   8.73060772
_cell_length_b   8.73060850
_cell_length_c   8.73060700
_cell_angle_alpha   60.00000191
_cell_angle_beta   59.99999895
_cell_angle_gamma   59.99999788
_symmetry_Int_Tables_number   1
_chemical_formula_structural   Th3Si6(Pd3Rh2)4
_chemical_formula_sum   'Th3 Si6 Pd12 Rh8'
_cell_volume   470.56370518
_cell_formula_units_Z   1
loop_
 _symmetry_equiv_pos_site_id
 _symmetry_equiv_pos_as_xyz
  1  'x, y, z'
loop_
 _atom_site_type_symbol
 _atom_site_label
 _atom_site_symmetry_multiplicity
 _atom_site_fract_x
 _atom_site_fract_y
 _atom_site_fract_z
 _atom_site_occupancy
  Th  Th0  1  0.250000  0.250000  0.250000  1
  Th  Th1  1  0.750000  0.750000  0.750000  1
  Th  Th2  1  0.000000  0.000000  0.000000  1
  Si  Si3  1  0.719982  0.280018  0.280018  1
  Si  Si4  1  0.280018  0.719982  0.719982  1
  Si  Si5  1  0.280018  0.719982  0.280018  1
  Si  Si6  1  0.719982  0.280018  0.719982  1
  Si  Si7  1  0.280018  0.280018  0.719982  1
  Si  Si8  1  0.719982  0.719982  0.280018  1
  Pd  Pd9  1  0.342286  0.000000  0.000000  1
  Pd  Pd10  1  0.657714  0.000000  0.000000  1
  Pd  Pd11  1  0.000000  0.342286  0.657714  1
  Pd  Pd12  1  0.000000  0.657714  0.342286  1
  Pd  Pd13  1  0.000000  0.342286  0.000000  1
  Pd  Pd14  1  0.657714  0.000000  0.342286  1
  Pd  Pd15  1  0.000000  0.657714  0.000000  1
  Pd  Pd16  1  0.342286  0.000000  0.657714  1
  Pd  Pd17  1  0.000000  0.000000  0.342286  1
  Pd  Pd18  1  0.000000  0.000000  0.657714  1
  Pd  Pd19  1  0.657714  0.342286  0.000000  1
  Pd  Pd20  1  0.342286  0.657714  0.000000  1
  Rh  Rh21  1  0.382320  0.382320  0.382320  1
  Rh  Rh22  1  0.617680  0.617680  0.617680  1
  Rh  Rh23  1  0.382320  0.382320  0.853041  1
  Rh  Rh24  1  0.382320  0.853041  0.382320  1
  Rh  Rh25  1  0.617680  0.617680  0.146959  1
  Rh  Rh26  1  0.617680  0.146959  0.617680  1
  Rh  Rh27  1  0.853041  0.382320  0.382320  1
  Rh  Rh28  1  0.146959  0.617680  0.617680  1
