# generated using pymatgen
data_BaTmTh2(AsPt)4
_symmetry_space_group_name_H-M   'P 1'
_cell_length_a   4.34602800
_cell_length_b   4.34602707
_cell_length_c   16.58104400
_cell_angle_alpha   90.00000000
_cell_angle_beta   90.00000000
_cell_angle_gamma   120.00002232
_symmetry_Int_Tables_number   1
_chemical_formula_structural   BaTmTh2(AsPt)4
_chemical_formula_sum   'Ba1 Tm1 Th2 As4 Pt4'
_cell_volume   271.22352289
_cell_formula_units_Z   1
loop_
 _symmetry_equiv_pos_site_id
 _symmetry_equiv_pos_as_xyz
  1  'x, y, z'
loop_
 _atom_site_type_symbol
 _atom_site_label
 _atom_site_symmetry_multiplicity
 _atom_site_fract_x
 _atom_site_fract_y
 _atom_site_fract_z
 _atom_site_occupancy
  Ba  Ba0  1  0.000000  0.000000  0.250000  1
  Tm  Tm1  1  0.000000  0.000000  0.750000  1
  Th  Th2  1  0.000000  0.000000  0.515248  1
  Th  Th3  1  0.000000  0.000000  0.984752  1
  As  As4  1  0.333333  0.666667  0.872803  1
  As  As5  1  0.666667  0.333333  0.110811  1
  As  As6  1  0.666667  0.333333  0.389189  1
  As  As7  1  0.333333  0.666667  0.627197  1
  Pt  Pt8  1  0.333333  0.666667  0.411700  1
  Pt  Pt9  1  0.666667  0.333333  0.654680  1
  Pt  Pt10  1  0.666667  0.333333  0.845320  1
  Pt  Pt11  1  0.333333  0.666667  0.088300  1
