# generated using pymatgen
data_Gd2MoCl12
_symmetry_space_group_name_H-M   'P 1'
_cell_length_a   6.93872407
_cell_length_b   6.93834344
_cell_length_c   12.56005516
_cell_angle_alpha   90.01278682
_cell_angle_beta   89.98385745
_cell_angle_gamma   119.99698058
_symmetry_Int_Tables_number   1
_chemical_formula_structural   Gd2MoCl12
_chemical_formula_sum   'Gd2 Mo1 Cl12'
_cell_volume   523.68578093
_cell_formula_units_Z   1
loop_
 _symmetry_equiv_pos_site_id
 _symmetry_equiv_pos_as_xyz
  1  'x, y, z'
loop_
 _atom_site_type_symbol
 _atom_site_label
 _atom_site_symmetry_multiplicity
 _atom_site_fract_x
 _atom_site_fract_y
 _atom_site_fract_z
 _atom_site_occupancy
  Gd  Gd0  1  0.666682  0.333341  0.999947  1
  Gd  Gd1  1  0.333313  0.666659  0.000056  1
  Mo  Mo2  1  0.000002  0.000001  0.500000  1
  Cl  Cl3  1  0.645608  0.000007  0.117516  1
  Cl  Cl4  1  0.354347  0.354344  0.117513  1
  Cl  Cl5  1  0.999914  0.645687  0.117545  1
  Cl  Cl6  1  0.272546  0.272605  0.605918  1
  Cl  Cl7  1  0.999980  0.727321  0.605888  1
  Cl  Cl8  1  0.727374  0.000037  0.605916  1
  Cl  Cl9  1  0.000022  0.272680  0.394112  1
  Cl  Cl10  1  0.272631  0.999963  0.394083  1
  Cl  Cl11  1  0.727457  0.727395  0.394081  1
  Cl  Cl12  1  0.354389  0.999993  0.882484  1
  Cl  Cl13  1  0.645651  0.645657  0.882486  1
  Cl  Cl14  1  0.000082  0.354311  0.882456  1
