# generated using pymatgen
data_Dy3HoMn16(FeP3)4
_symmetry_space_group_name_H-M   'P 1'
_cell_length_a   3.59520400
_cell_length_b   10.58842401
_cell_length_c   12.21774801
_cell_angle_alpha   89.99625119
_cell_angle_beta   90.00000000
_cell_angle_gamma   90.00000000
_symmetry_Int_Tables_number   1
_chemical_formula_structural   Dy3HoMn16(FeP3)4
_chemical_formula_sum   'Dy3 Ho1 Mn16 Fe4 P12'
_cell_volume   465.09966296
_cell_formula_units_Z   1
loop_
 _symmetry_equiv_pos_site_id
 _symmetry_equiv_pos_as_xyz
  1  'x, y, z'
loop_
 _atom_site_type_symbol
 _atom_site_label
 _atom_site_symmetry_multiplicity
 _atom_site_fract_x
 _atom_site_fract_y
 _atom_site_fract_z
 _atom_site_occupancy
  Dy  Dy0  1  0.250000  0.916340  0.208160  1
  Dy  Dy1  1  0.750000  0.416384  0.291800  1
  Dy  Dy2  1  0.750000  0.083684  0.791884  1
  Ho  Ho3  1  0.250000  0.583584  0.708229  1
  Mn  Mn4  1  0.250000  0.710696  0.986334  1
  Mn  Mn5  1  0.250000  0.789161  0.486394  1
  Mn  Mn6  1  0.750000  0.289098  0.013777  1
  Mn  Mn7  1  0.750000  0.211023  0.513871  1
  Mn  Mn8  1  0.250000  0.408509  0.493123  1
  Mn  Mn9  1  0.250000  0.091787  0.992723  1
  Mn  Mn10  1  0.750000  0.591518  0.507426  1
  Mn  Mn11  1  0.750000  0.908533  0.007254  1
  Mn  Mn12  1  0.250000  0.217983  0.175408  1
  Mn  Mn13  1  0.250000  0.282389  0.675649  1
  Mn  Mn14  1  0.750000  0.781910  0.824213  1
  Mn  Mn15  1  0.750000  0.717866  0.324311  1
  Mn  Mn16  1  0.250000  0.877229  0.697476  1
  Mn  Mn17  1  0.250000  0.622408  0.197500  1
  Mn  Mn18  1  0.750000  0.122490  0.302300  1
  Mn  Mn19  1  0.750000  0.377512  0.802315  1
  Fe  Fe20  1  0.250000  0.463329  0.931645  1
  Fe  Fe21  1  0.250000  0.036766  0.431964  1
  Fe  Fe22  1  0.750000  0.536916  0.068014  1
  Fe  Fe23  1  0.750000  0.962863  0.568244  1
  P  P24  1  0.250000  0.421621  0.110030  1
  P  P25  1  0.250000  0.078309  0.610123  1
  P  P26  1  0.750000  0.578447  0.889495  1
  P  P27  1  0.750000  0.921600  0.389881  1
  P  P28  1  0.250000  0.264898  0.872101  1
  P  P29  1  0.250000  0.235269  0.372190  1
  P  P30  1  0.750000  0.735221  0.127850  1
  P  P31  1  0.750000  0.764273  0.628083  1
  P  P32  1  0.250000  0.593570  0.386259  1
  P  P33  1  0.250000  0.906361  0.886219  1
  P  P34  1  0.750000  0.406884  0.613959  1
  P  P35  1  0.750000  0.093568  0.113795  1
