# generated using pymatgen
data_Zr4MnNiOs6
_symmetry_space_group_name_H-M   'P 1'
_cell_length_a   5.12187194
_cell_length_b   5.24655973
_cell_length_c   8.53624500
_cell_angle_alpha   90.00000000
_cell_angle_beta   90.00000000
_cell_angle_gamma   120.80862566
_symmetry_Int_Tables_number   1
_chemical_formula_structural   Zr4MnNiOs6
_chemical_formula_sum   'Zr4 Mn1 Ni1 Os6'
_cell_volume   197.01718729
_cell_formula_units_Z   1
loop_
 _symmetry_equiv_pos_site_id
 _symmetry_equiv_pos_as_xyz
  1  'x, y, z'
loop_
 _atom_site_type_symbol
 _atom_site_label
 _atom_site_symmetry_multiplicity
 _atom_site_fract_x
 _atom_site_fract_y
 _atom_site_fract_z
 _atom_site_occupancy
  Zr  Zr0  1  0.340117  0.670059  0.064753  1
  Zr  Zr1  1  0.664754  0.332377  0.565994  1
  Zr  Zr2  1  0.664754  0.332377  0.934006  1
  Zr  Zr3  1  0.340117  0.670059  0.435247  1
  Mn  Mn4  1  0.332692  0.166346  0.250000  1
  Ni  Ni5  1  0.659149  0.829574  0.750000  1
  Os  Os6  1  0.007634  0.003817  0.500530  1
  Os  Os7  1  0.007634  0.003817  0.999470  1
  Os  Os8  1  0.165222  0.342646  0.750000  1
  Os  Os9  1  0.826353  0.174669  0.250000  1
  Os  Os10  1  0.826353  0.651685  0.250000  1
  Os  Os11  1  0.165222  0.822575  0.750000  1
