# generated using pymatgen
data_Nd3Sm7Be3Si15Au2
_symmetry_space_group_name_H-M   'P 1'
_cell_length_a   4.15951605
_cell_length_b   4.15824254
_cell_length_c   35.00862400
_cell_angle_alpha   86.58056892
_cell_angle_beta   86.55303856
_cell_angle_gamma   89.99832209
_symmetry_Int_Tables_number   1
_chemical_formula_structural   Nd3Sm7Be3Si15Au2
_chemical_formula_sum   'Nd3 Sm7 Be3 Si15 Au2'
_cell_volume   603.34346486
_cell_formula_units_Z   1
loop_
 _symmetry_equiv_pos_site_id
 _symmetry_equiv_pos_as_xyz
  1  'x, y, z'
loop_
 _atom_site_type_symbol
 _atom_site_label
 _atom_site_symmetry_multiplicity
 _atom_site_fract_x
 _atom_site_fract_y
 _atom_site_fract_z
 _atom_site_occupancy
  Nd  Nd0  1  0.948117  0.448247  0.103598  1
  Nd  Nd1  1  0.350644  0.850691  0.298698  1
  Nd  Nd2  1  0.753261  0.253469  0.493534  1
  Sm  Sm3  1  0.149274  0.649929  0.700797  1
  Sm  Sm4  1  0.545827  0.045992  0.908188  1
  Sm  Sm5  1  0.997753  0.997476  0.004963  1
  Sm  Sm6  1  0.399879  0.399681  0.200542  1
  Sm  Sm7  1  0.802071  0.801847  0.395970  1
  Sm  Sm8  1  0.204561  0.203974  0.591659  1
  Sm  Sm9  1  0.600891  0.600635  0.798059  1
  Be  Be10  1  0.465187  0.965433  0.069219  1
  Be  Be11  1  0.867701  0.367847  0.264605  1
  Be  Be12  1  0.269811  0.770016  0.459856  1
  Si  Si13  1  0.667245  0.167332  0.665131  1
  Si  Si14  1  0.063319  0.564138  0.872021  1
  Si  Si15  1  0.915766  0.916150  0.168094  1
  Si  Si16  1  0.318106  0.318707  0.363299  1
  Si  Si17  1  0.720063  0.720703  0.559256  1
  Si  Si18  1  0.116690  0.116587  0.766619  1
  Si  Si19  1  0.513343  0.513519  0.972904  1
  Si  Si20  1  0.433393  0.933117  0.133305  1
  Si  Si21  1  0.835732  0.335291  0.328612  1
  Si  Si22  1  0.238167  0.737851  0.523784  1
  Si  Si23  1  0.633859  0.134254  0.732260  1
  Si  Si24  1  0.030694  0.530465  0.938951  1
  Si  Si25  1  0.480168  0.479865  0.040142  1
  Si  Si26  1  0.882611  0.882430  0.235289  1
  Si  Si27  1  0.284836  0.284582  0.430518  1
  Au  Au28  1  0.685618  0.685182  0.629213  1
  Au  Au29  1  0.082616  0.081793  0.836515  1
