# generated using pymatgen
data_Th3AgPd11Au
_symmetry_space_group_name_H-M   'P 1'
_cell_length_a   5.89249900
_cell_length_b   5.89004526
_cell_length_c   9.72959200
_cell_angle_alpha   90.00000000
_cell_angle_beta   90.00000000
_cell_angle_gamma   120.01378732
_symmetry_Int_Tables_number   1
_chemical_formula_structural   Th3AgPd11Au
_chemical_formula_sum   'Th3 Ag1 Pd11 Au1'
_cell_volume   292.40382972
_cell_formula_units_Z   1
loop_
 _symmetry_equiv_pos_site_id
 _symmetry_equiv_pos_as_xyz
  1  'x, y, z'
loop_
 _atom_site_type_symbol
 _atom_site_label
 _atom_site_symmetry_multiplicity
 _atom_site_fract_x
 _atom_site_fract_y
 _atom_site_fract_z
 _atom_site_occupancy
  Th  Th0  1  0.004057  0.008115  0.496921  1
  Th  Th1  1  0.004057  0.008115  0.003079  1
  Th  Th2  1  0.668056  0.336112  0.750000  1
  Ag  Ag3  1  0.331433  0.662866  0.250000  1
  Pd  Pd4  1  0.500773  0.504289  0.498312  1
  Pd  Pd5  1  0.499245  0.998488  0.498058  1
  Pd  Pd6  1  0.003516  0.504289  0.498312  1
  Pd  Pd7  1  0.500773  0.504289  0.001688  1
  Pd  Pd8  1  0.499245  0.998488  0.001942  1
  Pd  Pd9  1  0.003516  0.504289  0.001688  1
  Pd  Pd10  1  0.339327  0.162509  0.250000  1
  Pd  Pd11  1  0.823182  0.162509  0.250000  1
  Pd  Pd12  1  0.176737  0.353472  0.750000  1
  Pd  Pd13  1  0.656257  0.831076  0.750000  1
  Pd  Pd14  1  0.174821  0.831076  0.750000  1
  Au  Au15  1  0.815008  0.630015  0.250000  1
