# generated using pymatgen
data_LiY6Er13(Cd3Ru)2
_symmetry_space_group_name_H-M   'P 1'
_cell_length_a   9.51598400
_cell_length_b   9.51598410
_cell_length_c   9.71128300
_cell_angle_alpha   90.00000000
_cell_angle_beta   90.00000000
_cell_angle_gamma   119.99999966
_symmetry_Int_Tables_number   1
_chemical_formula_structural   LiY6Er13(Cd3Ru)2
_chemical_formula_sum   'Li1 Y6 Er13 Cd6 Ru2'
_cell_volume   761.57846351
_cell_formula_units_Z   1
loop_
 _symmetry_equiv_pos_site_id
 _symmetry_equiv_pos_as_xyz
  1  'x, y, z'
loop_
 _atom_site_type_symbol
 _atom_site_label
 _atom_site_symmetry_multiplicity
 _atom_site_fract_x
 _atom_site_fract_y
 _atom_site_fract_z
 _atom_site_occupancy
  Li  Li0  1  0.000000  0.000000  0.500000  1
  Y  Y1  1  0.541030  0.458970  0.251925  1
  Y  Y2  1  0.541030  0.082058  0.251925  1
  Y  Y3  1  0.917942  0.458970  0.251925  1
  Y  Y4  1  0.458970  0.541030  0.748075  1
  Y  Y5  1  0.458970  0.917942  0.748075  1
  Y  Y6  1  0.082058  0.541030  0.748075  1
  Er  Er7  1  0.000000  0.000000  0.000000  1
  Er  Er8  1  0.208828  0.791172  0.440705  1
  Er  Er9  1  0.208828  0.417656  0.440705  1
  Er  Er10  1  0.582344  0.791172  0.440705  1
  Er  Er11  1  0.791172  0.208828  0.559295  1
  Er  Er12  1  0.791172  0.582344  0.559295  1
  Er  Er13  1  0.417656  0.208828  0.559295  1
  Er  Er14  1  0.789259  0.210741  0.941843  1
  Er  Er15  1  0.789259  0.578516  0.941843  1
  Er  Er16  1  0.421484  0.210741  0.941843  1
  Er  Er17  1  0.210741  0.789259  0.058157  1
  Er  Er18  1  0.210741  0.421484  0.058157  1
  Er  Er19  1  0.578516  0.789259  0.058157  1
  Cd  Cd20  1  0.888870  0.111130  0.259233  1
  Cd  Cd21  1  0.888870  0.777742  0.259233  1
  Cd  Cd22  1  0.222258  0.111130  0.259233  1
  Cd  Cd23  1  0.111130  0.888870  0.740767  1
  Cd  Cd24  1  0.111130  0.222258  0.740767  1
  Cd  Cd25  1  0.777742  0.888870  0.740767  1
  Ru  Ru26  1  0.333333  0.666667  0.249928  1
  Ru  Ru27  1  0.666667  0.333333  0.750072  1
