# generated using pymatgen
data_Ho4Tc3NiB16
_symmetry_space_group_name_H-M   'P 1'
_cell_length_a   3.55636700
_cell_length_b   5.94093803
_cell_length_c   11.51674035
_cell_angle_alpha   90.00800675
_cell_angle_beta   90.00000000
_cell_angle_gamma   90.00000000
_symmetry_Int_Tables_number   1
_chemical_formula_structural   Ho4Tc3NiB16
_chemical_formula_sum   'Ho4 Tc3 Ni1 B16'
_cell_volume   243.32748413
_cell_formula_units_Z   1
loop_
 _symmetry_equiv_pos_site_id
 _symmetry_equiv_pos_as_xyz
  1  'x, y, z'
loop_
 _atom_site_type_symbol
 _atom_site_label
 _atom_site_symmetry_multiplicity
 _atom_site_fract_x
 _atom_site_fract_y
 _atom_site_fract_z
 _atom_site_occupancy
  Ho  Ho0  1  0.000000  0.628463  0.351414  1
  Ho  Ho1  1  0.000000  0.373153  0.646421  1
  Ho  Ho2  1  0.000000  0.128115  0.152859  1
  Ho  Ho3  1  0.000000  0.872394  0.847366  1
  Tc  Tc4  1  0.000000  0.631780  0.085692  1
  Tc  Tc5  1  0.000000  0.367030  0.912363  1
  Tc  Tc6  1  0.000000  0.131620  0.414679  1
  Ni  Ni7  1  0.000000  0.860010  0.595445  1
  B  B8  1  0.500000  0.786717  0.185834  1
  B  B9  1  0.500000  0.211746  0.813217  1
  B  B10  1  0.500000  0.286720  0.315373  1
  B  B11  1  0.500000  0.714903  0.682851  1
  B  B12  1  0.500000  0.864993  0.030896  1
  B  B13  1  0.500000  0.134881  0.968182  1
  B  B14  1  0.500000  0.366482  0.469609  1
  B  B15  1  0.500000  0.638807  0.532184  1
  B  B16  1  0.500000  0.886983  0.452108  1
  B  B17  1  0.500000  0.113664  0.546921  1
  B  B18  1  0.500000  0.386240  0.046984  1
  B  B19  1  0.500000  0.613727  0.951797  1
  B  B20  1  0.500000  0.975415  0.307721  1
  B  B21  1  0.500000  0.023457  0.691405  1
  B  B22  1  0.500000  0.477254  0.192908  1
  B  B23  1  0.500000  0.525443  0.805770  1
