# generated using pymatgen
data_LiLa(CuPd)2
_symmetry_space_group_name_H-M   'P 1'
_cell_length_a   5.12336963
_cell_length_b   5.24865392
_cell_length_c   5.24865400
_cell_angle_alpha   63.30239401
_cell_angle_beta   60.78651351
_cell_angle_gamma   60.78651993
_symmetry_Int_Tables_number   1
_chemical_formula_structural   LiLa(CuPd)2
_chemical_formula_sum   'Li1 La1 Cu2 Pd2'
_cell_volume   103.31015076
_cell_formula_units_Z   1
loop_
 _symmetry_equiv_pos_site_id
 _symmetry_equiv_pos_as_xyz
  1  'x, y, z'
loop_
 _atom_site_type_symbol
 _atom_site_label
 _atom_site_symmetry_multiplicity
 _atom_site_fract_x
 _atom_site_fract_y
 _atom_site_fract_z
 _atom_site_occupancy
  Li  Li0  1  0.241438  0.258562  0.258562  1
  La  La1  1  0.998215  0.001785  0.001785  1
  Cu  Cu2  1  0.129372  0.620242  0.620242  1
  Cu  Cu3  1  0.630143  0.620242  0.620242  1
  Pd  Pd4  1  0.625415  0.623134  0.126036  1
  Pd  Pd5  1  0.625415  0.126036  0.623134  1
