# generated using pymatgen
data_Tb4Ho5Tm11Bi12
_symmetry_space_group_name_H-M   'P 1'
_cell_length_a   8.20256965
_cell_length_b   9.44699107
_cell_length_c   11.95828600
_cell_angle_alpha   89.99964823
_cell_angle_beta   89.97710284
_cell_angle_gamma   89.99323741
_symmetry_Int_Tables_number   1
_chemical_formula_structural   Tb4Ho5Tm11Bi12
_chemical_formula_sum   'Tb4 Ho5 Tm11 Bi12'
_cell_volume   926.64274525
_cell_formula_units_Z   1
loop_
 _symmetry_equiv_pos_site_id
 _symmetry_equiv_pos_as_xyz
  1  'x, y, z'
loop_
 _atom_site_type_symbol
 _atom_site_label
 _atom_site_symmetry_multiplicity
 _atom_site_fract_x
 _atom_site_fract_y
 _atom_site_fract_z
 _atom_site_occupancy
  Tb  Tb0  1  0.312749  0.250001  0.218438  1
  Tb  Tb1  1  0.812595  0.250021  0.281591  1
  Tb  Tb2  1  0.687348  0.750168  0.781458  1
  Tb  Tb3  1  0.187359  0.750020  0.718365  1
  Ho  Ho4  1  0.352310  0.750153  0.216918  1
  Ho  Ho5  1  0.852665  0.750194  0.283332  1
  Ho  Ho6  1  0.647663  0.250102  0.783115  1
  Ho  Ho7  1  0.147501  0.250060  0.716860  1
  Ho  Ho8  1  0.692330  0.564742  0.059069  1
  Tm  Tm9  1  0.192529  0.934510  0.441002  1
  Tm  Tm10  1  0.307364  0.065457  0.940900  1
  Tm  Tm11  1  0.807480  0.434510  0.559055  1
  Tm  Tm12  1  0.307566  0.434498  0.940972  1
  Tm  Tm13  1  0.807436  0.065470  0.559010  1
  Tm  Tm14  1  0.692455  0.934597  0.059072  1
  Tm  Tm15  1  0.192516  0.565498  0.440987  1
  Tm  Tm16  1  0.476281  0.250057  0.488801  1
  Tm  Tm17  1  0.976364  0.249984  0.011183  1
  Tm  Tm18  1  0.523786  0.750018  0.511234  1
  Tm  Tm19  1  0.024066  0.750151  0.988714  1
  Bi  Bi20  1  0.404860  0.750281  0.957880  1
  Bi  Bi21  1  0.905054  0.749994  0.542013  1
  Bi  Bi22  1  0.594695  0.249068  0.041905  1
  Bi  Bi23  1  0.094969  0.250007  0.458008  1
  Bi  Bi24  1  0.565195  0.995136  0.326405  1
  Bi  Bi25  1  0.065416  0.504969  0.173751  1
  Bi  Bi26  1  0.434700  0.495096  0.673628  1
  Bi  Bi27  1  0.934820  0.004998  0.826300  1
  Bi  Bi28  1  0.434768  0.004973  0.673652  1
  Bi  Bi29  1  0.934777  0.495129  0.826223  1
  Bi  Bi30  1  0.565138  0.504980  0.326449  1
  Bi  Bi31  1  0.065250  0.995160  0.173705  1
