# generated using pymatgen
data_ScPa3Se20
_symmetry_space_group_name_H-M   'P 1'
_cell_length_a   4.03885172
_cell_length_b   9.80571066
_cell_length_c   17.39775048
_cell_angle_alpha   90.56927962
_cell_angle_beta   90.11431467
_cell_angle_gamma   93.65393732
_symmetry_Int_Tables_number   1
_chemical_formula_structural   ScPa3Se20
_chemical_formula_sum   'Sc1 Pa3 Se20'
_cell_volume   687.58025108
_cell_formula_units_Z   1
loop_
 _symmetry_equiv_pos_site_id
 _symmetry_equiv_pos_as_xyz
  1  'x, y, z'
loop_
 _atom_site_type_symbol
 _atom_site_label
 _atom_site_symmetry_multiplicity
 _atom_site_fract_x
 _atom_site_fract_y
 _atom_site_fract_z
 _atom_site_occupancy
  Sc  Sc0  1  0.352773  0.252276  0.600967  1
  Pa  Pa1  1  0.656684  0.744121  0.424504  1
  Pa  Pa2  1  0.890808  0.756107  0.923297  1
  Pa  Pa3  1  0.117113  0.246296  0.073343  1
  Se  Se4  1  0.643414  0.421672  0.155392  1
  Se  Se5  1  0.375466  0.722631  0.039085  1
  Se  Se6  1  0.165302  0.742966  0.533929  1
  Se  Se7  1  0.170638  0.924242  0.350557  1
  Se  Se8  1  0.991871  0.997293  0.001065  1
  Se  Se9  1  0.610644  0.757356  0.763404  1
  Se  Se10  1  0.625219  0.274889  0.961206  1
  Se  Se11  1  0.062960  0.252800  0.742056  1
  Se  Se12  1  0.501578  0.447637  0.486291  1
  Se  Se13  1  0.474576  0.053118  0.483393  1
  Se  Se14  1  0.365618  0.579012  0.844057  1
  Se  Se15  1  0.016115  0.506082  0.001675  1
  Se  Se16  1  0.121047  0.570820  0.345123  1
  Se  Se17  1  0.409948  0.930938  0.847979  1
  Se  Se18  1  0.830164  0.078300  0.656303  1
  Se  Se19  1  0.896629  0.742904  0.264890  1
  Se  Se20  1  0.599324  0.069852  0.149996  1
  Se  Se21  1  0.879498  0.425620  0.658215  1
  Se  Se22  1  0.854733  0.255054  0.459424  1
  Se  Se23  1  0.387879  0.242810  0.233845  1
