# generated using pymatgen
data_Nd3YIn3Au10
_symmetry_space_group_name_H-M   'P 1'
_cell_length_a   8.69652200
_cell_length_b   8.69652353
_cell_length_c   10.40667600
_cell_angle_alpha   90.00000000
_cell_angle_beta   90.00000000
_cell_angle_gamma   108.18008314
_symmetry_Int_Tables_number   1
_chemical_formula_structural   Nd3YIn3Au10
_chemical_formula_sum   'Nd6 Y2 In6 Au20'
_cell_volume   747.76260833
_cell_formula_units_Z   2
loop_
 _symmetry_equiv_pos_site_id
 _symmetry_equiv_pos_as_xyz
  1  'x, y, z'
loop_
 _atom_site_type_symbol
 _atom_site_label
 _atom_site_symmetry_multiplicity
 _atom_site_fract_x
 _atom_site_fract_y
 _atom_site_fract_z
 _atom_site_occupancy
  Nd  Nd0  1  0.800634  0.800976  0.299318  1
  Nd  Nd1  1  0.300634  0.300976  0.200682  1
  Nd  Nd2  1  0.799345  0.200655  0.500000  1
  Nd  Nd3  1  0.299345  0.700655  0.000000  1
  Nd  Nd4  1  0.699024  0.699366  0.799318  1
  Nd  Nd5  1  0.199024  0.199366  0.700682  1
  Y  Y6  1  0.699206  0.300794  0.000000  1
  Y  Y7  1  0.199206  0.800794  0.500000  1
  In  In8  1  0.518339  0.019804  0.249329  1
  In  In9  1  0.980196  0.481661  0.750671  1
  In  In10  1  0.003023  0.996977  0.000000  1
  In  In11  1  0.018339  0.519804  0.250671  1
  In  In12  1  0.480196  0.981661  0.749329  1
  In  In13  1  0.503023  0.496977  0.500000  1
  Au  Au14  1  0.157534  0.434532  0.476932  1
  Au  Au15  1  0.904671  0.904346  0.595330  1
  Au  Au16  1  0.565468  0.842466  0.523068  1
  Au  Au17  1  0.888295  0.171169  0.207218  1
  Au  Au18  1  0.388295  0.671169  0.292782  1
  Au  Au19  1  0.668310  0.386731  0.287458  1
  Au  Au20  1  0.404671  0.404346  0.904670  1
  Au  Au21  1  0.928943  0.650740  0.020812  1
  Au  Au22  1  0.328831  0.611705  0.707218  1
  Au  Au23  1  0.349260  0.071057  0.979188  1
  Au  Au24  1  0.595654  0.595329  0.095330  1
  Au  Au25  1  0.657534  0.934532  0.023068  1
  Au  Au26  1  0.095654  0.095329  0.404670  1
  Au  Au27  1  0.613269  0.331690  0.712542  1
  Au  Au28  1  0.113269  0.831690  0.787458  1
  Au  Au29  1  0.065468  0.342466  0.976932  1
  Au  Au30  1  0.849260  0.571057  0.520812  1
  Au  Au31  1  0.168310  0.886731  0.212542  1
  Au  Au32  1  0.428943  0.150740  0.479188  1
  Au  Au33  1  0.828831  0.111705  0.792782  1
