# generated using pymatgen
data_LaYb4Ge12Ir19
_symmetry_space_group_name_H-M   'P 1'
_cell_length_a   13.14750916
_cell_length_b   13.14750872
_cell_length_c   4.06736200
_cell_angle_alpha   90.00000000
_cell_angle_beta   90.00000000
_cell_angle_gamma   120.01796255
_symmetry_Int_Tables_number   1
_chemical_formula_structural   LaYb4Ge12Ir19
_chemical_formula_sum   'La1 Yb4 Ge12 Ir19'
_cell_volume   608.76793797
_cell_formula_units_Z   1
loop_
 _symmetry_equiv_pos_site_id
 _symmetry_equiv_pos_as_xyz
  1  'x, y, z'
loop_
 _atom_site_type_symbol
 _atom_site_label
 _atom_site_symmetry_multiplicity
 _atom_site_fract_x
 _atom_site_fract_y
 _atom_site_fract_z
 _atom_site_occupancy
  La  La0  1  0.178480  0.178480  0.500000  1
  Yb  Yb1  1  0.334363  0.666700  0.000000  1
  Yb  Yb2  1  0.666700  0.334363  0.000000  1
  Yb  Yb3  1  0.817372  0.998495  0.500000  1
  Yb  Yb4  1  0.998495  0.817372  0.500000  1
  Ge  Ge5  1  0.818155  0.818155  0.000000  1
  Ge  Ge6  1  0.180884  0.994071  0.000000  1
  Ge  Ge7  1  0.994071  0.180884  0.000000  1
  Ge  Ge8  1  0.316611  0.828636  0.500000  1
  Ge  Ge9  1  0.170245  0.486799  0.500000  1
  Ge  Ge10  1  0.514770  0.684898  0.500000  1
  Ge  Ge11  1  0.828636  0.316611  0.500000  1
  Ge  Ge12  1  0.486799  0.170245  0.500000  1
  Ge  Ge13  1  0.684898  0.514770  0.500000  1
  Ge  Ge14  1  0.366951  0.366951  0.000000  1
  Ge  Ge15  1  0.636476  0.999858  0.000000  1
  Ge  Ge16  1  0.999858  0.636476  0.000000  1
  Ir  Ir17  1  0.198119  0.816333  0.000000  1
  Ir  Ir18  1  0.180586  0.378614  0.000000  1
  Ir  Ir19  1  0.620922  0.802805  0.000000  1
  Ir  Ir20  1  0.816333  0.198119  0.000000  1
  Ir  Ir21  1  0.378614  0.180586  0.000000  1
  Ir  Ir22  1  0.802805  0.620922  0.000000  1
  Ir  Ir23  1  0.712484  0.712484  0.500000  1
  Ir  Ir24  1  0.289585  0.999161  0.500000  1
  Ir  Ir25  1  0.999161  0.289585  0.500000  1
  Ir  Ir26  1  0.124345  0.642070  0.500000  1
  Ir  Ir27  1  0.358447  0.483426  0.500000  1
  Ir  Ir28  1  0.518482  0.876529  0.500000  1
  Ir  Ir29  1  0.642070  0.124345  0.500000  1
  Ir  Ir30  1  0.483426  0.358447  0.500000  1
  Ir  Ir31  1  0.876529  0.518482  0.500000  1
  Ir  Ir32  1  0.553243  0.553243  0.000000  1
  Ir  Ir33  1  0.448966  0.001286  0.000000  1
  Ir  Ir34  1  0.001286  0.448966  0.000000  1
  Ir  Ir35  1  0.000834  0.000834  0.000000  1
