# generated using pymatgen
data_Ta16Be3AlTe16
_symmetry_space_group_name_H-M   'P 1'
_cell_length_a   4.79108900
_cell_length_b   11.16856382
_cell_length_c   19.42665700
_cell_angle_alpha   90.02233189
_cell_angle_beta   90.00000000
_cell_angle_gamma   90.00000000
_symmetry_Int_Tables_number   1
_chemical_formula_structural   Ta16Be3AlTe16
_chemical_formula_sum   'Ta16 Be3 Al1 Te16'
_cell_volume   1039.51224160
_cell_formula_units_Z   1
loop_
 _symmetry_equiv_pos_site_id
 _symmetry_equiv_pos_as_xyz
  1  'x, y, z'
loop_
 _atom_site_type_symbol
 _atom_site_label
 _atom_site_symmetry_multiplicity
 _atom_site_fract_x
 _atom_site_fract_y
 _atom_site_fract_z
 _atom_site_occupancy
  Ta  Ta0  1  0.500551  0.559605  0.389692  1
  Ta  Ta1  1  0.500551  0.440395  0.610308  1
  Ta  Ta2  1  0.506006  0.062225  0.114507  1
  Ta  Ta3  1  0.506006  0.937775  0.885493  1
  Ta  Ta4  1  0.499473  0.692274  0.534505  1
  Ta  Ta5  1  0.499473  0.307726  0.465495  1
  Ta  Ta6  1  0.507245  0.199472  0.964289  1
  Ta  Ta7  1  0.507245  0.800528  0.035711  1
  Ta  Ta8  1  0.000198  0.678272  0.446180  1
  Ta  Ta9  1  0.000198  0.321728  0.553820  1
  Ta  Ta10  1  0.992356  0.185526  0.055802  1
  Ta  Ta11  1  0.992356  0.814474  0.944198  1
  Ta  Ta12  1  0.999825  0.406550  0.397710  1
  Ta  Ta13  1  0.999825  0.593450  0.602290  1
  Ta  Ta14  1  0.994601  0.902823  0.106416  1
  Ta  Ta15  1  0.994601  0.097177  0.893584  1
  Be  Be16  1  0.250042  0.500000  0.500000  1
  Be  Be17  1  0.750062  0.000000  0.000000  1
  Be  Be18  1  0.749983  0.500000  0.500000  1
  Al  Al19  1  0.248912  0.000000  0.000000  1
  Te  Te20  1  0.999489  0.838345  0.560483  1
  Te  Te21  1  0.999489  0.161655  0.439517  1
  Te  Te22  1  0.000771  0.341664  0.938775  1
  Te  Te23  1  0.000771  0.658336  0.061225  1
  Te  Te24  1  0.500027  0.335577  0.319818  1
  Te  Te25  1  0.500027  0.664423  0.680182  1
  Te  Te26  1  0.500056  0.834370  0.181907  1
  Te  Te27  1  0.500056  0.165630  0.818093  1
  Te  Te28  1  0.500293  0.813419  0.405414  1
  Te  Te29  1  0.500293  0.186581  0.594586  1
  Te  Te30  1  0.499171  0.316762  0.095576  1
  Te  Te31  1  0.499171  0.683238  0.904424  1
  Te  Te32  1  0.000309  0.605184  0.305869  1
  Te  Te33  1  0.000309  0.394816  0.694131  1
  Te  Te34  1  0.000129  0.106492  0.195911  1
  Te  Te35  1  0.000129  0.893508  0.804089  1
