# generated using pymatgen
data_Tm3In3SnRh2
_symmetry_space_group_name_H-M   'P 1'
_cell_length_a   7.83378400
_cell_length_b   7.83378404
_cell_length_c   3.78254100
_cell_angle_alpha   90.00000000
_cell_angle_beta   90.00000000
_cell_angle_gamma   119.99999982
_symmetry_Int_Tables_number   1
_chemical_formula_structural   Tm3In3SnRh2
_chemical_formula_sum   'Tm3 In3 Sn1 Rh2'
_cell_volume   201.02842227
_cell_formula_units_Z   1
loop_
 _symmetry_equiv_pos_site_id
 _symmetry_equiv_pos_as_xyz
  1  'x, y, z'
loop_
 _atom_site_type_symbol
 _atom_site_label
 _atom_site_symmetry_multiplicity
 _atom_site_fract_x
 _atom_site_fract_y
 _atom_site_fract_z
 _atom_site_occupancy
  Tm  Tm0  1  0.968861  0.384888  0.500000  1
  Tm  Tm1  1  0.615112  0.583973  0.500000  1
  Tm  Tm2  1  0.416027  0.031139  0.500000  1
  In  In3  1  0.259436  0.250675  0.000000  1
  In  In4  1  0.991239  0.740564  0.000000  1
  In  In5  1  0.749325  0.008761  0.000000  1
  Sn  Sn6  1  0.333333  0.666667  0.000000  1
  Rh  Rh7  1  0.000000  0.000000  0.500000  1
  Rh  Rh8  1  0.666667  0.333333  0.000000  1
