# generated using pymatgen
data_Ho3TmMg2(B2Rh5)2
_symmetry_space_group_name_H-M   'P 1'
_cell_length_a   9.61105585
_cell_length_b   9.61100785
_cell_length_c   3.17943200
_cell_angle_alpha   90.00000000
_cell_angle_beta   90.00000000
_cell_angle_gamma   89.91178231
_symmetry_Int_Tables_number   1
_chemical_formula_structural   Ho3TmMg2(B2Rh5)2
_chemical_formula_sum   'Ho3 Tm1 Mg2 B4 Rh10'
_cell_volume   293.68993215
_cell_formula_units_Z   1
loop_
 _symmetry_equiv_pos_site_id
 _symmetry_equiv_pos_as_xyz
  1  'x, y, z'
loop_
 _atom_site_type_symbol
 _atom_site_label
 _atom_site_symmetry_multiplicity
 _atom_site_fract_x
 _atom_site_fract_y
 _atom_site_fract_z
 _atom_site_occupancy
  Ho  Ho0  1  0.675498  0.175463  0.000000  1
  Ho  Ho1  1  0.324536  0.824503  0.000000  1
  Ho  Ho2  1  0.175596  0.324403  0.000000  1
  Tm  Tm3  1  0.824310  0.675690  0.000000  1
  Mg  Mg4  1  0.999902  0.999805  0.000000  1
  Mg  Mg5  1  0.500209  0.500104  0.000000  1
  B  B6  1  0.122620  0.622933  0.000000  1
  B  B7  1  0.877067  0.377380  0.000000  1
  B  B8  1  0.623006  0.876996  0.000000  1
  B  B9  1  0.377329  0.122667  0.000000  1
  Rh  Rh10  1  0.500019  0.999982  0.500000  1
  Rh  Rh11  1  0.999281  0.500715  0.500000  1
  Rh  Rh12  1  0.223534  0.070553  0.500000  1
  Rh  Rh13  1  0.776748  0.928476  0.500000  1
  Rh  Rh14  1  0.069739  0.776063  0.500000  1
  Rh  Rh15  1  0.723931  0.430254  0.500000  1
  Rh  Rh16  1  0.929436  0.223734  0.500000  1
  Rh  Rh17  1  0.276265  0.570559  0.500000  1
  Rh  Rh18  1  0.571528  0.723254  0.500000  1
  Rh  Rh19  1  0.429448  0.276467  0.500000  1
