# generated using pymatgen
data_Ce3Cd3AgPtAu
_symmetry_space_group_name_H-M   'P 1'
_cell_length_a   7.98627700
_cell_length_b   7.98627655
_cell_length_c   3.91947700
_cell_angle_alpha   90.00000000
_cell_angle_beta   90.00000000
_cell_angle_gamma   119.99998388
_symmetry_Int_Tables_number   1
_chemical_formula_structural   Ce3Cd3AgPtAu
_chemical_formula_sum   'Ce3 Cd3 Ag1 Pt1 Au1'
_cell_volume   216.49483368
_cell_formula_units_Z   1
loop_
 _symmetry_equiv_pos_site_id
 _symmetry_equiv_pos_as_xyz
  1  'x, y, z'
loop_
 _atom_site_type_symbol
 _atom_site_label
 _atom_site_symmetry_multiplicity
 _atom_site_fract_x
 _atom_site_fract_y
 _atom_site_fract_z
 _atom_site_occupancy
  Ce  Ce0  1  0.407675  0.421514  0.000000  1
  Ce  Ce1  1  0.578486  0.986162  0.000000  1
  Ce  Ce2  1  0.013838  0.592325  0.000000  1
  Cd  Cd3  1  0.743799  0.741606  0.500000  1
  Cd  Cd4  1  0.258394  0.002193  0.500000  1
  Cd  Cd5  1  0.997807  0.256201  0.500000  1
  Ag  Ag6  1  0.000000  0.000000  0.000000  1
  Pt  Pt7  1  0.333333  0.666667  0.500000  1
  Au  Au8  1  0.666667  0.333333  0.500000  1
