# generated using pymatgen
data_HoTm15(ScIr3)4
_symmetry_space_group_name_H-M   'P 1'
_cell_length_a   10.66010107
_cell_length_b   10.65840609
_cell_length_c   6.22020300
_cell_angle_alpha   90.00726787
_cell_angle_beta   90.00656262
_cell_angle_gamma   90.00112805
_symmetry_Int_Tables_number   1
_chemical_formula_structural   HoTm15(ScIr3)4
_chemical_formula_sum   'Ho1 Tm15 Sc4 Ir12'
_cell_volume   706.73750213
_cell_formula_units_Z   1
loop_
 _symmetry_equiv_pos_site_id
 _symmetry_equiv_pos_as_xyz
  1  'x, y, z'
loop_
 _atom_site_type_symbol
 _atom_site_label
 _atom_site_symmetry_multiplicity
 _atom_site_fract_x
 _atom_site_fract_y
 _atom_site_fract_z
 _atom_site_occupancy
  Ho  Ho0  1  0.288204  0.086113  0.376203  1
  Tm  Tm1  1  0.288714  0.913883  0.876620  1
  Tm  Tm2  1  0.711520  0.085972  0.876657  1
  Tm  Tm3  1  0.711425  0.914038  0.376610  1
  Tm  Tm4  1  0.585989  0.788449  0.876604  1
  Tm  Tm5  1  0.586164  0.211411  0.376642  1
  Tm  Tm6  1  0.414236  0.788407  0.376658  1
  Tm  Tm7  1  0.414294  0.211493  0.876657  1
  Tm  Tm8  1  0.211405  0.414151  0.623413  1
  Tm  Tm9  1  0.211397  0.585916  0.123319  1
  Tm  Tm10  1  0.788567  0.414141  0.123351  1
  Tm  Tm11  1  0.788597  0.585906  0.623286  1
  Tm  Tm12  1  0.914058  0.711383  0.123379  1
  Tm  Tm13  1  0.914094  0.288618  0.623225  1
  Tm  Tm14  1  0.085872  0.711392  0.623484  1
  Tm  Tm15  1  0.085579  0.288888  0.123166  1
  Sc  Sc16  1  0.999718  0.999863  0.500242  1
  Sc  Sc17  1  0.999988  0.999947  0.999919  1
  Sc  Sc18  1  0.499998  0.500062  0.999952  1
  Sc  Sc19  1  0.500006  0.499998  0.500141  1
  Ir  Ir20  1  0.850911  0.149082  0.250036  1
  Ir  Ir21  1  0.850854  0.850892  0.750008  1
  Ir  Ir22  1  0.148760  0.149213  0.750950  1
  Ir  Ir23  1  0.148745  0.850379  0.249694  1
  Ir  Ir24  1  0.649098  0.350989  0.749995  1
  Ir  Ir25  1  0.649065  0.649083  0.250039  1
  Ir  Ir26  1  0.351057  0.351534  0.249695  1
  Ir  Ir27  1  0.350952  0.649057  0.749988  1
  Ir  Ir28  1  0.500437  0.999780  0.122640  1
  Ir  Ir29  1  0.500434  0.999826  0.623238  1
  Ir  Ir30  1  0.999905  0.500038  0.877047  1
  Ir  Ir31  1  0.999959  0.500100  0.377144  1
