# generated using pymatgen
data_Ce3ThBeNiB20
_symmetry_space_group_name_H-M   'P 1'
_cell_length_a   4.15817100
_cell_length_b   5.59622531
_cell_length_c   11.08814912
_cell_angle_alpha   89.85340199
_cell_angle_beta   90.00000000
_cell_angle_gamma   90.00000000
_symmetry_Int_Tables_number   1
_chemical_formula_structural   Ce3ThBeNiB20
_chemical_formula_sum   'Ce3 Th1 Be1 Ni1 B20'
_cell_volume   258.02107073
_cell_formula_units_Z   1
loop_
 _symmetry_equiv_pos_site_id
 _symmetry_equiv_pos_as_xyz
  1  'x, y, z'
loop_
 _atom_site_type_symbol
 _atom_site_label
 _atom_site_symmetry_multiplicity
 _atom_site_fract_x
 _atom_site_fract_y
 _atom_site_fract_z
 _atom_site_occupancy
  Ce  Ce0  1  0.500000  0.311645  0.860524  1
  Ce  Ce1  1  0.500000  0.688590  0.137413  1
  Ce  Ce2  1  0.500000  0.805034  0.635141  1
  Th  Th3  1  0.500000  0.194767  0.366265  1
  Be  Be4  1  0.000000  0.502287  0.501258  1
  Ni  Ni5  1  0.000000  0.999747  0.999747  1
  B  B6  1  0.000000  0.127881  0.539369  1
  B  B7  1  0.000000  0.872036  0.461240  1
  B  B8  1  0.000000  0.625548  0.959088  1
  B  B9  1  0.000000  0.374258  0.040448  1
  B  B10  1  0.000000  0.159540  0.696276  1
  B  B11  1  0.000000  0.840074  0.303692  1
  B  B12  1  0.300874  0.200364  0.114343  1
  B  B13  1  0.301007  0.799065  0.884994  1
  B  B14  1  0.699741  0.697810  0.389635  1
  B  B15  1  0.699680  0.302064  0.611065  1
  B  B16  1  0.698993  0.799065  0.884994  1
  B  B17  1  0.699126  0.200364  0.114343  1
  B  B18  1  0.300320  0.302064  0.611065  1
  B  B19  1  0.300259  0.697810  0.389635  1
  B  B20  1  0.000000  0.030518  0.188651  1
  B  B21  1  0.000000  0.968938  0.810950  1
  B  B22  1  0.000000  0.529606  0.315648  1
  B  B23  1  0.000000  0.470674  0.684760  1
  B  B24  1  0.000000  0.343161  0.198587  1
  B  B25  1  0.000000  0.657088  0.800871  1
