# generated using pymatgen
data_La4TmTl3
_symmetry_space_group_name_H-M   'P 1'
_cell_length_a   9.43822770
_cell_length_b   9.43814168
_cell_length_c   9.43822837
_cell_angle_alpha   96.95021217
_cell_angle_beta   96.95552473
_cell_angle_gamma   139.27960950
_symmetry_Int_Tables_number   1
_chemical_formula_structural   La4TmTl3
_chemical_formula_sum   'La8 Tm2 Tl6'
_cell_volume   514.21009318
_cell_formula_units_Z   2
loop_
 _symmetry_equiv_pos_site_id
 _symmetry_equiv_pos_as_xyz
  1  'x, y, z'
loop_
 _atom_site_type_symbol
 _atom_site_label
 _atom_site_symmetry_multiplicity
 _atom_site_fract_x
 _atom_site_fract_y
 _atom_site_fract_z
 _atom_site_occupancy
  La  La0  1  0.909557  0.221232  0.130767  1
  La  La1  1  0.221245  0.090480  0.311709  1
  La  La2  1  0.778755  0.909520  0.688291  1
  La  La3  1  0.090443  0.778768  0.869233  1
  La  La4  1  0.721229  0.409520  0.130764  1
  La  La5  1  0.278771  0.590480  0.869236  1
  La  La6  1  0.590464  0.721232  0.311675  1
  La  La7  1  0.409536  0.278768  0.688325  1
  Tm  Tm8  1  0.749996  0.250000  0.499996  1
  Tm  Tm9  1  0.250004  0.750000  0.500004  1
  Tl  Tl10  1  0.749998  0.750000  0.999998  1
  Tl  Tl11  1  0.250002  0.250000  0.000002  1
  Tl  Tl12  1  0.846893  0.653104  0.499996  1
  Tl  Tl13  1  0.653108  0.153104  0.806211  1
  Tl  Tl14  1  0.346892  0.846896  0.193789  1
  Tl  Tl15  1  0.153107  0.346896  0.500004  1
