# generated using pymatgen
data_Tb8NiHg2Rh
_symmetry_space_group_name_H-M   'P 1'
_cell_length_a   9.56200028
_cell_length_b   9.55449332
_cell_length_c   9.56200037
_cell_angle_alpha   60.02597891
_cell_angle_beta   60.29660380
_cell_angle_gamma   60.02596992
_symmetry_Int_Tables_number   1
_chemical_formula_structural   Tb8NiHg2Rh
_chemical_formula_sum   'Tb16 Ni2 Hg4 Rh2'
_cell_volume   619.33467156
_cell_formula_units_Z   2
loop_
 _symmetry_equiv_pos_site_id
 _symmetry_equiv_pos_as_xyz
  1  'x, y, z'
loop_
 _atom_site_type_symbol
 _atom_site_label
 _atom_site_symmetry_multiplicity
 _atom_site_fract_x
 _atom_site_fract_y
 _atom_site_fract_z
 _atom_site_occupancy
  Tb  Tb0  1  0.810108  0.810295  0.187527  1
  Tb  Tb1  1  0.810261  0.189739  0.810261  1
  Tb  Tb2  1  0.187527  0.192070  0.810108  1
  Tb  Tb3  1  0.651274  0.050753  0.651274  1
  Tb  Tb4  1  0.062632  0.063455  0.436030  1
  Tb  Tb5  1  0.436030  0.437882  0.062632  1
  Tb  Tb6  1  0.651274  0.646698  0.651274  1
  Tb  Tb7  1  0.810108  0.192070  0.187527  1
  Tb  Tb8  1  0.187527  0.810295  0.810108  1
  Tb  Tb9  1  0.052848  0.648261  0.650630  1
  Tb  Tb10  1  0.436030  0.063455  0.062632  1
  Tb  Tb11  1  0.437298  0.062702  0.437298  1
  Tb  Tb12  1  0.063781  0.436219  0.063781  1
  Tb  Tb13  1  0.650630  0.648261  0.052848  1
  Tb  Tb14  1  0.189082  0.810918  0.189082  1
  Tb  Tb15  1  0.062632  0.437882  0.436030  1
  Ni  Ni16  1  0.857449  0.429173  0.857449  1
  Ni  Ni17  1  0.857449  0.855928  0.857449  1
  Hg  Hg18  1  0.415212  0.415821  0.415212  1
  Hg  Hg19  1  0.414788  0.415000  0.755211  1
  Hg  Hg20  1  0.415212  0.753754  0.415212  1
  Hg  Hg21  1  0.755211  0.415000  0.414788  1
  Rh  Rh22  1  0.857498  0.857182  0.428138  1
  Rh  Rh23  1  0.428138  0.857182  0.857498  1
