# generated using pymatgen
data_TbSm7Sc11Si16Ag
_symmetry_space_group_name_H-M   'P 1'
_cell_length_a   7.11893838
_cell_length_b   7.46980480
_cell_length_c   14.15076256
_cell_angle_alpha   89.95100998
_cell_angle_beta   89.97744563
_cell_angle_gamma   89.86240089
_symmetry_Int_Tables_number   1
_chemical_formula_structural   TbSm7Sc11Si16Ag
_chemical_formula_sum   'Tb1 Sm7 Sc11 Si16 Ag1'
_cell_volume   752.49373104
_cell_formula_units_Z   1
loop_
 _symmetry_equiv_pos_site_id
 _symmetry_equiv_pos_as_xyz
  1  'x, y, z'
loop_
 _atom_site_type_symbol
 _atom_site_label
 _atom_site_symmetry_multiplicity
 _atom_site_fract_x
 _atom_site_fract_y
 _atom_site_fract_z
 _atom_site_occupancy
  Tb  Tb0  1  0.011789  0.173768  0.097579  1
  Sm  Sm1  1  0.990315  0.816823  0.899993  1
  Sm  Sm2  1  0.481532  0.672962  0.899897  1
  Sm  Sm3  1  0.990366  0.816882  0.600267  1
  Sm  Sm4  1  0.511816  0.324955  0.097254  1
  Sm  Sm5  1  0.011448  0.172712  0.403048  1
  Sm  Sm6  1  0.511801  0.325122  0.402619  1
  Sm  Sm7  1  0.481700  0.673130  0.600306  1
  Sc  Sc8  1  0.839469  0.499016  0.249742  1
  Sc  Sc9  1  0.339893  0.001130  0.249812  1
  Sc  Sc10  1  0.658436  0.000943  0.750023  1
  Sc  Sc11  1  0.326612  0.183413  0.625950  1
  Sc  Sc12  1  0.671444  0.823316  0.375099  1
  Sc  Sc13  1  0.171337  0.678117  0.373909  1
  Sc  Sc14  1  0.671525  0.823559  0.124719  1
  Sc  Sc15  1  0.835297  0.327544  0.625988  1
  Sc  Sc16  1  0.326454  0.183504  0.874153  1
  Sc  Sc17  1  0.835449  0.327172  0.874099  1
  Sc  Sc18  1  0.171171  0.678338  0.125909  1
  Si  Si19  1  0.030012  0.108027  0.750069  1
  Si  Si20  1  0.968202  0.882353  0.249531  1
  Si  Si21  1  0.467348  0.621696  0.249915  1
  Si  Si22  1  0.540056  0.380097  0.750037  1
  Si  Si23  1  0.289568  0.893991  0.750023  1
  Si  Si24  1  0.713429  0.121864  0.249284  1
  Si  Si25  1  0.211195  0.376647  0.249447  1
  Si  Si26  1  0.776918  0.622930  0.750051  1
  Si  Si27  1  0.156785  0.459668  0.531780  1
  Si  Si28  1  0.846325  0.536097  0.461272  1
  Si  Si29  1  0.347662  0.964209  0.462362  1
  Si  Si30  1  0.846693  0.534927  0.039064  1
  Si  Si31  1  0.655280  0.034420  0.540452  1
  Si  Si32  1  0.156464  0.458265  0.968700  1
  Si  Si33  1  0.655660  0.034655  0.959647  1
  Si  Si34  1  0.346042  0.965011  0.037994  1
  Ag  Ag35  1  0.154505  0.502738  0.750005  1
