# generated using pymatgen
data_Ac(AsRh)2
_symmetry_space_group_name_H-M   'P 1'
_cell_length_a   4.39749700
_cell_length_b   4.39749700
_cell_length_c   10.22251700
_cell_angle_alpha   90.00000000
_cell_angle_beta   90.00000000
_cell_angle_gamma   90.00000000
_symmetry_Int_Tables_number   1
_chemical_formula_structural   Ac(AsRh)2
_chemical_formula_sum   'Ac2 As4 Rh4'
_cell_volume   197.68282792
_cell_formula_units_Z   2
loop_
 _symmetry_equiv_pos_site_id
 _symmetry_equiv_pos_as_xyz
  1  'x, y, z'
loop_
 _atom_site_type_symbol
 _atom_site_label
 _atom_site_symmetry_multiplicity
 _atom_site_fract_x
 _atom_site_fract_y
 _atom_site_fract_z
 _atom_site_occupancy
  Ac  Ac0  1  0.000000  0.500000  0.253548  1
  Ac  Ac1  1  0.500000  0.000000  0.746452  1
  As  As2  1  0.000000  0.000000  0.500000  1
  As  As3  1  0.500000  0.500000  0.500000  1
  As  As4  1  0.000000  0.500000  0.864783  1
  As  As5  1  0.500000  0.000000  0.135217  1
  Rh  Rh6  1  0.000000  0.000000  0.000000  1
  Rh  Rh7  1  0.500000  0.500000  0.000000  1
  Rh  Rh8  1  0.000000  0.500000  0.617695  1
  Rh  Rh9  1  0.500000  0.000000  0.382305  1
