# generated using pymatgen
data_Ti8MnBe7
_symmetry_space_group_name_H-M   'P 1'
_cell_length_a   5.88935900
_cell_length_b   5.88935900
_cell_length_c   5.88935900
_cell_angle_alpha   90.00000000
_cell_angle_beta   90.00000000
_cell_angle_gamma   90.00000000
_symmetry_Int_Tables_number   1
_chemical_formula_structural   Ti8MnBe7
_chemical_formula_sum   'Ti8 Mn1 Be7'
_cell_volume   204.26976335
_cell_formula_units_Z   1
loop_
 _symmetry_equiv_pos_site_id
 _symmetry_equiv_pos_as_xyz
  1  'x, y, z'
loop_
 _atom_site_type_symbol
 _atom_site_label
 _atom_site_symmetry_multiplicity
 _atom_site_fract_x
 _atom_site_fract_y
 _atom_site_fract_z
 _atom_site_occupancy
  Ti  Ti0  1  0.750503  0.750503  0.750503  1
  Ti  Ti1  1  0.249497  0.750503  0.750503  1
  Ti  Ti2  1  0.249497  0.249497  0.249497  1
  Ti  Ti3  1  0.750503  0.249497  0.750503  1
  Ti  Ti4  1  0.750503  0.750503  0.249497  1
  Ti  Ti5  1  0.750503  0.249497  0.249497  1
  Ti  Ti6  1  0.249497  0.249497  0.750503  1
  Ti  Ti7  1  0.249497  0.750503  0.249497  1
  Mn  Mn8  1  0.000000  0.000000  0.000000  1
  Be  Be9  1  0.000000  0.500000  0.500000  1
  Be  Be10  1  0.500000  0.000000  0.000000  1
  Be  Be11  1  0.500000  0.500000  0.000000  1
  Be  Be12  1  0.500000  0.000000  0.500000  1
  Be  Be13  1  0.000000  0.000000  0.500000  1
  Be  Be14  1  0.500000  0.500000  0.500000  1
  Be  Be15  1  0.000000  0.500000  0.000000  1
