# generated using pymatgen
data_Lu12Ni4AgSn
_symmetry_space_group_name_H-M   'P 1'
_cell_length_a   8.18458451
_cell_length_b   8.18458478
_cell_length_c   8.18458378
_cell_angle_alpha   112.16079536
_cell_angle_beta   109.76614275
_cell_angle_gamma   106.53558383
_symmetry_Int_Tables_number   1
_chemical_formula_structural   Lu12Ni4AgSn
_chemical_formula_sum   'Lu12 Ni4 Ag1 Sn1'
_cell_volume   421.03404477
_cell_formula_units_Z   1
loop_
 _symmetry_equiv_pos_site_id
 _symmetry_equiv_pos_as_xyz
  1  'x, y, z'
loop_
 _atom_site_type_symbol
 _atom_site_label
 _atom_site_symmetry_multiplicity
 _atom_site_fract_x
 _atom_site_fract_y
 _atom_site_fract_z
 _atom_site_occupancy
  Lu  Lu0  1  0.675747  0.869307  0.193560  1
  Lu  Lu1  1  0.324253  0.517814  0.193560  1
  Lu  Lu2  1  0.818629  0.788117  0.606745  1
  Lu  Lu3  1  0.181371  0.788117  0.969488  1
  Lu  Lu4  1  0.818629  0.211883  0.030512  1
  Lu  Lu5  1  0.181371  0.211883  0.393255  1
  Lu  Lu6  1  0.675747  0.482186  0.806440  1
  Lu  Lu7  1  0.324253  0.130693  0.806440  1
  Lu  Lu8  1  0.569255  0.270583  0.298671  1
  Lu  Lu9  1  0.430745  0.729417  0.701329  1
  Lu  Lu10  1  0.028088  0.729417  0.298671  1
  Lu  Lu11  1  0.971912  0.270583  0.701329  1
  Ni  Ni12  1  0.351596  0.500000  0.851596  1
  Ni  Ni13  1  0.648404  0.500000  0.148404  1
  Ni  Ni14  1  0.875356  0.875356  0.000000  1
  Ni  Ni15  1  0.124644  0.124644  0.000000  1
  Ag  Ag16  1  0.000000  0.500000  0.500000  1
  Sn  Sn17  1  0.500000  0.000000  0.500000  1
