# generated using pymatgen
data_Dy3Tm5In3Fe
_symmetry_space_group_name_H-M   'P 1'
_cell_length_a   10.25339300
_cell_length_b   10.25339291
_cell_length_c   6.95265200
_cell_angle_alpha   90.00000000
_cell_angle_beta   90.00000000
_cell_angle_gamma   119.99999706
_symmetry_Int_Tables_number   1
_chemical_formula_structural   Dy3Tm5In3Fe
_chemical_formula_sum   'Dy6 Tm10 In6 Fe2'
_cell_volume   633.01840956
_cell_formula_units_Z   2
loop_
 _symmetry_equiv_pos_site_id
 _symmetry_equiv_pos_as_xyz
  1  'x, y, z'
loop_
 _atom_site_type_symbol
 _atom_site_label
 _atom_site_symmetry_multiplicity
 _atom_site_fract_x
 _atom_site_fract_y
 _atom_site_fract_z
 _atom_site_occupancy
  Dy  Dy0  1  0.534012  0.068024  0.513502  1
  Dy  Dy1  1  0.931976  0.465988  0.513502  1
  Dy  Dy2  1  0.534012  0.465988  0.513502  1
  Dy  Dy3  1  0.465988  0.931976  0.013502  1
  Dy  Dy4  1  0.068024  0.534012  0.013502  1
  Dy  Dy5  1  0.465988  0.534012  0.013502  1
  Tm  Tm6  1  0.178620  0.357241  0.720647  1
  Tm  Tm7  1  0.642759  0.821380  0.720647  1
  Tm  Tm8  1  0.178620  0.821380  0.720647  1
  Tm  Tm9  1  0.821380  0.642759  0.220647  1
  Tm  Tm10  1  0.357241  0.178620  0.220647  1
  Tm  Tm11  1  0.821380  0.178620  0.220647  1
  Tm  Tm12  1  0.666667  0.333333  0.903003  1
  Tm  Tm13  1  0.333333  0.666667  0.403003  1
  Tm  Tm14  1  0.000000  0.000000  0.501053  1
  Tm  Tm15  1  0.000000  0.000000  0.001053  1
  In  In16  1  0.837305  0.674608  0.760980  1
  In  In17  1  0.325392  0.162695  0.760980  1
  In  In18  1  0.837305  0.162695  0.760980  1
  In  In19  1  0.162695  0.325392  0.260980  1
  In  In20  1  0.674608  0.837305  0.260980  1
  In  In21  1  0.162695  0.837305  0.260980  1
  Fe  Fe22  1  0.666667  0.333333  0.289556  1
  Fe  Fe23  1  0.333333  0.666667  0.789556  1
