# generated using pymatgen
data_Sr2AlIn(Ga2Au3)2
_symmetry_space_group_name_H-M   'P 1'
_cell_length_a   4.51573800
_cell_length_b   7.48487300
_cell_length_c   8.80190600
_cell_angle_alpha   90.00000000
_cell_angle_beta   90.00000000
_cell_angle_gamma   90.00000000
_symmetry_Int_Tables_number   1
_chemical_formula_structural   Sr2AlIn(Ga2Au3)2
_chemical_formula_sum   'Sr2 Al1 In1 Ga4 Au6'
_cell_volume   297.50200607
_cell_formula_units_Z   1
loop_
 _symmetry_equiv_pos_site_id
 _symmetry_equiv_pos_as_xyz
  1  'x, y, z'
loop_
 _atom_site_type_symbol
 _atom_site_label
 _atom_site_symmetry_multiplicity
 _atom_site_fract_x
 _atom_site_fract_y
 _atom_site_fract_z
 _atom_site_occupancy
  Sr  Sr0  1  0.500000  0.000000  0.749607  1
  Sr  Sr1  1  0.000000  0.500000  0.260337  1
  Al  Al2  1  0.000000  0.000000  0.375090  1
  In  In3  1  0.500000  0.500000  0.623548  1
  Ga  Ga4  1  0.000000  0.309765  0.887800  1
  Ga  Ga5  1  0.500000  0.189927  0.108338  1
  Ga  Ga6  1  0.000000  0.690235  0.887800  1
  Ga  Ga7  1  0.500000  0.810073  0.108338  1
  Au  Au8  1  0.000000  0.740061  0.594279  1
  Au  Au9  1  0.500000  0.798479  0.398857  1
  Au  Au10  1  0.500000  0.500000  0.957898  1
  Au  Au11  1  0.000000  0.000000  0.054972  1
  Au  Au12  1  0.500000  0.201521  0.398857  1
  Au  Au13  1  0.000000  0.259939  0.594279  1
