# generated using pymatgen
data_KNdSnI6
_symmetry_space_group_name_H-M   'P 1'
_cell_length_a   8.90054612
_cell_length_b   8.90018376
_cell_length_c   8.90033276
_cell_angle_alpha   55.26439907
_cell_angle_beta   55.26497749
_cell_angle_gamma   55.26485372
_symmetry_Int_Tables_number   1
_chemical_formula_structural   KNdSnI6
_chemical_formula_sum   'K1 Nd1 Sn1 I6'
_cell_volume   443.68057600
_cell_formula_units_Z   1
loop_
 _symmetry_equiv_pos_site_id
 _symmetry_equiv_pos_as_xyz
  1  'x, y, z'
loop_
 _atom_site_type_symbol
 _atom_site_label
 _atom_site_symmetry_multiplicity
 _atom_site_fract_x
 _atom_site_fract_y
 _atom_site_fract_z
 _atom_site_occupancy
  K  K0  1  0.670276  0.670257  0.670270  1
  Nd  Nd1  1  0.999769  0.999775  0.999779  1
  Sn  Sn2  1  0.331571  0.331574  0.331570  1
  I  I3  1  0.218325  0.596229  0.943314  1
  I  I4  1  0.596222  0.943322  0.218320  1
  I  I5  1  0.943328  0.218320  0.596209  1
  I  I6  1  0.750025  0.371804  0.118695  1
  I  I7  1  0.371797  0.118700  0.750026  1
  I  I8  1  0.118689  0.750019  0.371816  1
