# generated using pymatgen
data_Li2Ho3Er(ScSi2)4
_symmetry_space_group_name_H-M   'P 1'
_cell_length_a   6.86376305
_cell_length_b   7.39283213
_cell_length_c   14.04239025
_cell_angle_alpha   89.98091640
_cell_angle_beta   90.00989851
_cell_angle_gamma   89.98939899
_symmetry_Int_Tables_number   1
_chemical_formula_structural   Li2Ho3Er(ScSi2)4
_chemical_formula_sum   'Li4 Ho6 Er2 Sc8 Si16'
_cell_volume   712.54800407
_cell_formula_units_Z   2
loop_
 _symmetry_equiv_pos_site_id
 _symmetry_equiv_pos_as_xyz
  1  'x, y, z'
loop_
 _atom_site_type_symbol
 _atom_site_label
 _atom_site_symmetry_multiplicity
 _atom_site_fract_x
 _atom_site_fract_y
 _atom_site_fract_z
 _atom_site_occupancy
  Li  Li0  1  0.158794  0.508317  0.749987  1
  Li  Li1  1  0.841206  0.491683  0.250013  1
  Li  Li2  1  0.341248  0.008324  0.250014  1
  Li  Li3  1  0.658752  0.991676  0.749986  1
  Ho  Ho4  1  0.012961  0.182626  0.098448  1
  Ho  Ho5  1  0.987039  0.817374  0.901552  1
  Ho  Ho6  1  0.487041  0.682616  0.901586  1
  Ho  Ho7  1  0.987046  0.817347  0.598442  1
  Ho  Ho8  1  0.512959  0.317384  0.098414  1
  Ho  Ho9  1  0.012954  0.182653  0.401558  1
  Er  Er10  1  0.512950  0.317308  0.401538  1
  Er  Er11  1  0.487050  0.682692  0.598462  1
  Sc  Sc12  1  0.329762  0.179018  0.626811  1
  Sc  Sc13  1  0.670238  0.820982  0.373189  1
  Sc  Sc14  1  0.170359  0.678956  0.373180  1
  Sc  Sc15  1  0.670268  0.821013  0.126838  1
  Sc  Sc16  1  0.829641  0.321044  0.626820  1
  Sc  Sc17  1  0.329732  0.178987  0.873162  1
  Sc  Sc18  1  0.829702  0.321022  0.873156  1
  Sc  Sc19  1  0.170298  0.678978  0.126844  1
  Si  Si20  1  0.029171  0.101224  0.749989  1
  Si  Si21  1  0.970829  0.898776  0.250011  1
  Si  Si22  1  0.470885  0.601137  0.250062  1
  Si  Si23  1  0.529115  0.398863  0.749938  1
  Si  Si24  1  0.282045  0.878606  0.749935  1
  Si  Si25  1  0.717955  0.121394  0.250065  1
  Si  Si26  1  0.218176  0.378637  0.250072  1
  Si  Si27  1  0.781824  0.621363  0.749928  1
  Si  Si28  1  0.159744  0.463482  0.535279  1
  Si  Si29  1  0.840256  0.536518  0.464721  1
  Si  Si30  1  0.340583  0.963427  0.464770  1
  Si  Si31  1  0.840497  0.536591  0.035239  1
  Si  Si32  1  0.659417  0.036573  0.535230  1
  Si  Si33  1  0.159503  0.463409  0.964761  1
  Si  Si34  1  0.659495  0.036578  0.964759  1
  Si  Si35  1  0.340505  0.963422  0.035241  1
