# generated using pymatgen
data_Sc8Fe8Si13As
_symmetry_space_group_name_H-M   'P 1'
_cell_length_a   9.58479075
_cell_length_b   9.58485555
_cell_length_c   9.58479114
_cell_angle_alpha   93.93990149
_cell_angle_beta   93.93875396
_cell_angle_gamma   149.60902976
_symmetry_Int_Tables_number   1
_chemical_formula_structural   Sc8Fe8Si13As
_chemical_formula_sum   'Sc8 Fe8 Si13 As1'
_cell_volume   429.89184500
_cell_formula_units_Z   1
loop_
 _symmetry_equiv_pos_site_id
 _symmetry_equiv_pos_as_xyz
  1  'x, y, z'
loop_
 _atom_site_type_symbol
 _atom_site_label
 _atom_site_symmetry_multiplicity
 _atom_site_fract_x
 _atom_site_fract_y
 _atom_site_fract_z
 _atom_site_occupancy
  Sc  Sc0  1  0.694908  0.497283  0.197632  1
  Sc  Sc1  1  0.497231  0.694881  0.197650  1
  Sc  Sc2  1  0.497260  0.299656  0.802396  1
  Sc  Sc3  1  0.299650  0.497283  0.802375  1
  Sc  Sc4  1  0.863261  0.863264  0.721808  1
  Sc  Sc5  1  0.141458  0.863264  0.000004  1
  Sc  Sc6  1  0.863273  0.141456  0.000005  1
  Sc  Sc7  1  0.141451  0.141456  0.278182  1
  Fe  Fe8  1  0.102782  0.897650  0.500333  1
  Fe  Fe9  1  0.897695  0.397292  0.794844  1
  Fe  Fe10  1  0.602462  0.102831  0.205218  1
  Fe  Fe11  1  0.102868  0.602425  0.205168  1
  Fe  Fe12  1  0.602447  0.397292  0.499597  1
  Fe  Fe13  1  0.397317  0.897650  0.794867  1
  Fe  Fe14  1  0.897614  0.102831  0.500369  1
  Fe  Fe15  1  0.397258  0.602425  0.499557  1
  Si  Si16  1  0.250596  0.250588  0.999992  1
  Si  Si17  1  0.091318  0.500974  0.590259  1
  Si  Si18  1  0.500577  0.090857  0.590280  1
  Si  Si19  1  0.500792  0.910464  0.409674  1
  Si  Si20  1  0.910714  0.500974  0.409657  1
  Si  Si21  1  0.700556  0.998450  0.702023  1
  Si  Si22  1  0.998911  0.701016  0.702105  1
  Si  Si23  1  0.710522  0.710607  0.419405  1
  Si  Si24  1  0.291202  0.710607  0.000085  1
  Si  Si25  1  0.296426  0.998450  0.297894  1
  Si  Si26  1  0.710433  0.291003  0.000080  1
  Si  Si27  1  0.290924  0.291003  0.580571  1
  Si  Si28  1  0.998642  0.296620  0.297978  1
  As  As29  1  0.749455  0.749448  0.999993  1
