# generated using pymatgen
data_TbDyPa2(Al3Rh)6
_symmetry_space_group_name_H-M   'P 1'
_cell_length_a   7.59949400
_cell_length_b   7.59924888
_cell_length_c   9.40092300
_cell_angle_alpha   90.00000000
_cell_angle_beta   90.00000000
_cell_angle_gamma   119.59446406
_symmetry_Int_Tables_number   1
_chemical_formula_structural   TbDyPa2(Al3Rh)6
_chemical_formula_sum   'Tb1 Dy1 Pa2 Al18 Rh6'
_cell_volume   472.08122525
_cell_formula_units_Z   1
loop_
 _symmetry_equiv_pos_site_id
 _symmetry_equiv_pos_as_xyz
  1  'x, y, z'
loop_
 _atom_site_type_symbol
 _atom_site_label
 _atom_site_symmetry_multiplicity
 _atom_site_fract_x
 _atom_site_fract_y
 _atom_site_fract_z
 _atom_site_occupancy
  Tb  Tb0  1  0.329561  0.006424  0.750000  1
  Dy  Dy1  1  0.670492  0.993583  0.250000  1
  Pa  Pa2  1  0.997121  0.671530  0.250000  1
  Pa  Pa3  1  0.002883  0.328497  0.750000  1
  Al  Al4  1  0.130087  0.126825  0.250000  1
  Al  Al5  1  0.869717  0.873105  0.750000  1
  Al  Al6  1  0.000272  0.332489  0.077317  1
  Al  Al7  1  0.999537  0.667327  0.922784  1
  Al  Al8  1  0.999537  0.667327  0.577216  1
  Al  Al9  1  0.337858  0.002582  0.424672  1
  Al  Al10  1  0.000272  0.332489  0.422683  1
  Al  Al11  1  0.662332  0.997444  0.575062  1
  Al  Al12  1  0.662332  0.997444  0.924938  1
  Al  Al13  1  0.337858  0.002582  0.075328  1
  Al  Al14  1  0.334635  0.333285  0.551821  1
  Al  Al15  1  0.665367  0.666870  0.448057  1
  Al  Al16  1  0.665367  0.666870  0.051943  1
  Al  Al17  1  0.334635  0.333285  0.948179  1
  Al  Al18  1  0.340175  0.549122  0.250000  1
  Al  Al19  1  0.659968  0.451098  0.750000  1
  Al  Al20  1  0.550252  0.342406  0.250000  1
  Al  Al21  1  0.449814  0.657508  0.750000  1
  Rh  Rh22  1  0.675246  0.329319  0.999779  1
  Rh  Rh23  1  0.324829  0.670662  0.000352  1
  Rh  Rh24  1  0.324829  0.670662  0.499648  1
  Rh  Rh25  1  0.675246  0.329319  0.500221  1
  Rh  Rh26  1  0.999888  0.999974  0.000080  1
  Rh  Rh27  1  0.999888  0.999974  0.499920  1
