# generated using pymatgen
data_TbDy3(YSb)6
_symmetry_space_group_name_H-M   'P 1'
_cell_length_a   9.02818100
_cell_length_b   9.02818017
_cell_length_c   6.28718500
_cell_angle_alpha   90.00000000
_cell_angle_beta   90.00000000
_cell_angle_gamma   119.99999206
_symmetry_Int_Tables_number   1
_chemical_formula_structural   TbDy3(YSb)6
_chemical_formula_sum   'Tb1 Dy3 Y6 Sb6'
_cell_volume   443.80008466
_cell_formula_units_Z   1
loop_
 _symmetry_equiv_pos_site_id
 _symmetry_equiv_pos_as_xyz
  1  'x, y, z'
loop_
 _atom_site_type_symbol
 _atom_site_label
 _atom_site_symmetry_multiplicity
 _atom_site_fract_x
 _atom_site_fract_y
 _atom_site_fract_z
 _atom_site_occupancy
  Tb  Tb0  1  0.333333  0.666667  0.000000  1
  Dy  Dy1  1  0.333333  0.666667  0.500000  1
  Dy  Dy2  1  0.666667  0.333333  0.000000  1
  Dy  Dy3  1  0.666667  0.333333  0.500000  1
  Y  Y4  1  0.999995  0.752716  0.749988  1
  Y  Y5  1  0.999995  0.247279  0.250012  1
  Y  Y6  1  0.752721  0.752716  0.250012  1
  Y  Y7  1  0.752721  0.000005  0.749988  1
  Y  Y8  1  0.247284  0.247279  0.749988  1
  Y  Y9  1  0.247284  0.000005  0.250012  1
  Sb  Sb10  1  0.387936  0.000083  0.749927  1
  Sb  Sb11  1  0.387936  0.387853  0.250073  1
  Sb  Sb12  1  0.999917  0.612064  0.250073  1
  Sb  Sb13  1  0.999917  0.387853  0.749927  1
  Sb  Sb14  1  0.612147  0.612064  0.749927  1
  Sb  Sb15  1  0.612147  0.000083  0.250073  1
