# generated using pymatgen
data_TbDy2Cd3Sn2Au
_symmetry_space_group_name_H-M   'P 1'
_cell_length_a   7.49257700
_cell_length_b   7.49397244
_cell_length_c   4.54061100
_cell_angle_alpha   90.00000000
_cell_angle_beta   90.00000000
_cell_angle_gamma   119.99384488
_symmetry_Int_Tables_number   1
_chemical_formula_structural   TbDy2Cd3Sn2Au
_chemical_formula_sum   'Tb1 Dy2 Cd3 Sn2 Au1'
_cell_volume   220.80818505
_cell_formula_units_Z   1
loop_
 _symmetry_equiv_pos_site_id
 _symmetry_equiv_pos_as_xyz
  1  'x, y, z'
loop_
 _atom_site_type_symbol
 _atom_site_label
 _atom_site_symmetry_multiplicity
 _atom_site_fract_x
 _atom_site_fract_y
 _atom_site_fract_z
 _atom_site_occupancy
  Tb  Tb0  1  0.593997  0.000000  0.000000  1
  Dy  Dy1  1  0.999993  0.594076  0.000000  1
  Dy  Dy2  1  0.405917  0.405924  0.000000  1
  Cd  Cd3  1  0.240376  0.000000  0.500000  1
  Cd  Cd4  1  0.000037  0.240433  0.500000  1
  Cd  Cd5  1  0.759604  0.759567  0.500000  1
  Sn  Sn6  1  0.333245  0.666536  0.500000  1
  Sn  Sn7  1  0.666710  0.333464  0.500000  1
  Au  Au8  1  0.000120  0.000000  0.000000  1
