# generated using pymatgen
data_Tb4CuNi3Hg2
_symmetry_space_group_name_H-M   'P 1'
_cell_length_a   7.39794429
_cell_length_b   7.39794396
_cell_length_c   3.65603200
_cell_angle_alpha   90.00000000
_cell_angle_beta   90.00000000
_cell_angle_gamma   89.69211175
_symmetry_Int_Tables_number   1
_chemical_formula_structural   Tb4CuNi3Hg2
_chemical_formula_sum   'Tb4 Cu1 Ni3 Hg2'
_cell_volume   200.09019695
_cell_formula_units_Z   1
loop_
 _symmetry_equiv_pos_site_id
 _symmetry_equiv_pos_as_xyz
  1  'x, y, z'
loop_
 _atom_site_type_symbol
 _atom_site_label
 _atom_site_symmetry_multiplicity
 _atom_site_fract_x
 _atom_site_fract_y
 _atom_site_fract_z
 _atom_site_occupancy
  Tb  Tb0  1  0.678177  0.178177  0.500000  1
  Tb  Tb1  1  0.332753  0.832753  0.500000  1
  Tb  Tb2  1  0.173977  0.312960  0.500000  1
  Tb  Tb3  1  0.812960  0.673977  0.500000  1
  Cu  Cu4  1  0.118247  0.618247  0.000000  1
  Ni  Ni5  1  0.882821  0.382821  0.000000  1
  Ni  Ni6  1  0.620941  0.884087  0.000000  1
  Ni  Ni7  1  0.384087  0.120941  0.000000  1
  Hg  Hg8  1  0.999182  0.996855  0.000000  1
  Hg  Hg9  1  0.496855  0.499182  0.000000  1
