# generated using pymatgen
data_SrLuSi7Ir12
_symmetry_space_group_name_H-M   'P 1'
_cell_length_a   9.79385500
_cell_length_b   9.79385505
_cell_length_c   3.89485500
_cell_angle_alpha   90.00000000
_cell_angle_beta   90.00000000
_cell_angle_gamma   120.00000321
_symmetry_Int_Tables_number   1
_chemical_formula_structural   SrLuSi7Ir12
_chemical_formula_sum   'Sr1 Lu1 Si7 Ir12'
_cell_volume   323.54094811
_cell_formula_units_Z   1
loop_
 _symmetry_equiv_pos_site_id
 _symmetry_equiv_pos_as_xyz
  1  'x, y, z'
loop_
 _atom_site_type_symbol
 _atom_site_label
 _atom_site_symmetry_multiplicity
 _atom_site_fract_x
 _atom_site_fract_y
 _atom_site_fract_z
 _atom_site_occupancy
  Sr  Sr0  1  0.666667  0.333333  0.250151  1
  Lu  Lu1  1  0.333333  0.666667  0.750064  1
  Si  Si2  1  0.000000  0.000000  0.502180  1
  Si  Si3  1  0.291244  0.886115  0.248813  1
  Si  Si4  1  0.594871  0.708756  0.248813  1
  Si  Si5  1  0.113885  0.405129  0.248813  1
  Si  Si6  1  0.711724  0.114360  0.750578  1
  Si  Si7  1  0.402635  0.288276  0.750578  1
  Si  Si8  1  0.885640  0.597365  0.750578  1
  Ir  Ir9  1  0.260398  0.116457  0.253509  1
  Ir  Ir10  1  0.856059  0.739602  0.253509  1
  Ir  Ir11  1  0.883543  0.143941  0.253509  1
  Ir  Ir12  1  0.740203  0.884879  0.745640  1
  Ir  Ir13  1  0.144675  0.259797  0.745640  1
  Ir  Ir14  1  0.115121  0.855325  0.745640  1
  Ir  Ir15  1  0.068242  0.622792  0.249109  1
  Ir  Ir16  1  0.554551  0.931758  0.249109  1
  Ir  Ir17  1  0.377208  0.445449  0.249109  1
  Ir  Ir18  1  0.946423  0.385874  0.751553  1
  Ir  Ir19  1  0.439451  0.053577  0.751553  1
  Ir  Ir20  1  0.614126  0.560549  0.751553  1
