# generated using pymatgen
data_Li2Yb11Pr5(MgRu2)2
_symmetry_space_group_name_H-M   'P 1'
_cell_length_a   10.06964164
_cell_length_b   9.91718720
_cell_length_c   9.94355035
_cell_angle_alpha   60.05739813
_cell_angle_beta   60.72038662
_cell_angle_gamma   60.53907088
_symmetry_Int_Tables_number   1
_chemical_formula_structural   Li2Yb11Pr5(MgRu2)2
_chemical_formula_sum   'Li2 Yb11 Pr5 Mg2 Ru4'
_cell_volume   709.06690551
_cell_formula_units_Z   1
loop_
 _symmetry_equiv_pos_site_id
 _symmetry_equiv_pos_as_xyz
  1  'x, y, z'
loop_
 _atom_site_type_symbol
 _atom_site_label
 _atom_site_symmetry_multiplicity
 _atom_site_fract_x
 _atom_site_fract_y
 _atom_site_fract_z
 _atom_site_occupancy
  Li  Li0  1  0.421660  0.424752  0.424463  1
  Li  Li1  1  0.422899  0.727049  0.424736  1
  Yb  Yb2  1  0.046245  0.452834  0.451241  1
  Yb  Yb3  1  0.188893  0.812884  0.185307  1
  Yb  Yb4  1  0.657884  0.660201  0.659893  1
  Yb  Yb5  1  0.451517  0.451405  0.047949  1
  Yb  Yb6  1  0.046877  0.452290  0.051021  1
  Yb  Yb7  1  0.449822  0.047564  0.049157  1
  Yb  Yb8  1  0.047669  0.050817  0.451250  1
  Yb  Yb9  1  0.658374  0.662144  0.020159  1
  Yb  Yb10  1  0.658868  0.019199  0.661494  1
  Yb  Yb11  1  0.190748  0.810458  0.811664  1
  Yb  Yb12  1  0.451133  0.047929  0.453278  1
  Pr  Pr13  1  0.195428  0.185335  0.809427  1
  Pr  Pr14  1  0.022495  0.660426  0.660787  1
  Pr  Pr15  1  0.805182  0.813643  0.189564  1
  Pr  Pr16  1  0.809818  0.187299  0.191079  1
  Pr  Pr17  1  0.805816  0.189331  0.813191  1
  Mg  Mg18  1  0.728875  0.424631  0.421901  1
  Mg  Mg19  1  0.419094  0.425126  0.729297  1
  Ru  Ru20  1  0.870927  0.861495  0.865817  1
  Ru  Ru21  1  0.404233  0.871849  0.863344  1
  Ru  Ru22  1  0.873983  0.399713  0.863190  1
  Ru  Ru23  1  0.871559  0.861623  0.400791  1
