# generated using pymatgen
data_Sm3Mg3Ag2Ru
_symmetry_space_group_name_H-M   'P 1'
_cell_length_a   7.88343600
_cell_length_b   7.88343563
_cell_length_c   3.98107400
_cell_angle_alpha   90.00000000
_cell_angle_beta   90.00000000
_cell_angle_gamma   120.00000041
_symmetry_Int_Tables_number   1
_chemical_formula_structural   Sm3Mg3Ag2Ru
_chemical_formula_sum   'Sm3 Mg3 Ag2 Ru1'
_cell_volume   214.27028760
_cell_formula_units_Z   1
loop_
 _symmetry_equiv_pos_site_id
 _symmetry_equiv_pos_as_xyz
  1  'x, y, z'
loop_
 _atom_site_type_symbol
 _atom_site_label
 _atom_site_symmetry_multiplicity
 _atom_site_fract_x
 _atom_site_fract_y
 _atom_site_fract_z
 _atom_site_occupancy
  Sm  Sm0  1  0.034002  0.432240  0.500000  1
  Sm  Sm1  1  0.567760  0.601762  0.500000  1
  Sm  Sm2  1  0.398238  0.965998  0.500000  1
  Mg  Mg3  1  0.998417  0.746514  0.000000  1
  Mg  Mg4  1  0.253486  0.251904  0.000000  1
  Mg  Mg5  1  0.748096  0.001583  0.000000  1
  Ag  Ag6  1  0.666667  0.333333  0.000000  1
  Ag  Ag7  1  0.000000  0.000000  0.500000  1
  Ru  Ru8  1  0.333333  0.666667  0.000000  1
