# generated using pymatgen
data_K2BeS2
_symmetry_space_group_name_H-M   'P 1'
_cell_length_a   7.64816539
_cell_length_b   7.64816598
_cell_length_c   7.64816539
_cell_angle_alpha   135.38453351
_cell_angle_beta   128.74026216
_cell_angle_gamma   70.26761135
_symmetry_Int_Tables_number   1
_chemical_formula_structural   K2BeS2
_chemical_formula_sum   'K4 Be2 S4'
_cell_volume   240.28744880
_cell_formula_units_Z   2
loop_
 _symmetry_equiv_pos_site_id
 _symmetry_equiv_pos_as_xyz
  1  'x, y, z'
loop_
 _atom_site_type_symbol
 _atom_site_label
 _atom_site_symmetry_multiplicity
 _atom_site_fract_x
 _atom_site_fract_y
 _atom_site_fract_z
 _atom_site_occupancy
  K  K0  1  0.186513  0.354086  0.832427  1
  K  K1  1  0.813487  0.645914  0.167573  1
  K  K2  1  0.521658  0.854086  0.667573  1
  K  K3  1  0.478342  0.145914  0.332427  1
  Be  Be4  1  0.000000  0.750000  0.750000  1
  Be  Be5  1  0.000000  0.250000  0.250000  1
  S  S6  1  0.737056  0.406246  0.330809  1
  S  S7  1  0.262944  0.593754  0.669191  1
  S  S8  1  0.924563  0.093754  0.830809  1
  S  S9  1  0.075437  0.906246  0.169191  1
