# generated using pymatgen
data_Tb3Mg3TlAgIr
_symmetry_space_group_name_H-M   'P 1'
_cell_length_a   8.03922900
_cell_length_b   8.03922778
_cell_length_c   3.85256000
_cell_angle_alpha   90.00000000
_cell_angle_beta   90.00000000
_cell_angle_gamma   119.99999267
_symmetry_Int_Tables_number   1
_chemical_formula_structural   Tb3Mg3TlAgIr
_chemical_formula_sum   'Tb3 Mg3 Tl1 Ag1 Ir1'
_cell_volume   215.62981428
_cell_formula_units_Z   1
loop_
 _symmetry_equiv_pos_site_id
 _symmetry_equiv_pos_as_xyz
  1  'x, y, z'
loop_
 _atom_site_type_symbol
 _atom_site_label
 _atom_site_symmetry_multiplicity
 _atom_site_fract_x
 _atom_site_fract_y
 _atom_site_fract_z
 _atom_site_occupancy
  Tb  Tb0  1  0.565948  0.958977  0.000000  1
  Tb  Tb1  1  0.041023  0.606971  0.000000  1
  Tb  Tb2  1  0.393029  0.434052  0.000000  1
  Mg  Mg3  1  0.251191  0.998092  0.500000  1
  Mg  Mg4  1  0.001908  0.253099  0.500000  1
  Mg  Mg5  1  0.746901  0.748809  0.500000  1
  Tl  Tl6  1  0.666667  0.333333  0.500000  1
  Ag  Ag7  1  0.000000  0.000000  0.000000  1
  Ir  Ir8  1  0.333333  0.666667  0.500000  1
