# generated using pymatgen
data_Ba2Li(CuP2)2
_symmetry_space_group_name_H-M   'P 1'
_cell_length_a   8.49849871
_cell_length_b   8.49849846
_cell_length_c   8.49849802
_cell_angle_alpha   136.89000236
_cell_angle_beta   112.09615159
_cell_angle_gamma   83.90340078
_symmetry_Int_Tables_number   1
_chemical_formula_structural   Ba2Li(CuP2)2
_chemical_formula_sum   'Ba4 Li2 Cu4 P8'
_cell_volume   374.66452464
_cell_formula_units_Z   2
loop_
 _symmetry_equiv_pos_site_id
 _symmetry_equiv_pos_as_xyz
  1  'x, y, z'
loop_
 _atom_site_type_symbol
 _atom_site_label
 _atom_site_symmetry_multiplicity
 _atom_site_fract_x
 _atom_site_fract_y
 _atom_site_fract_z
 _atom_site_occupancy
  Ba  Ba0  1  0.092066  0.890371  0.201696  1
  Ba  Ba1  1  0.907934  0.109629  0.798304  1
  Ba  Ba2  1  0.311326  0.609629  0.701696  1
  Ba  Ba3  1  0.688674  0.390371  0.298304  1
  Li  Li4  1  0.500000  0.750000  0.250000  1
  Li  Li5  1  0.500000  0.250000  0.750000  1
  Cu  Cu6  1  0.280330  0.030330  0.750000  1
  Cu  Cu7  1  0.719670  0.469670  0.750000  1
  Cu  Cu8  1  0.280330  0.530330  0.250000  1
  Cu  Cu9  1  0.719670  0.969670  0.250000  1
  P  P10  1  0.488212  0.128148  0.360064  1
  P  P11  1  0.511788  0.871852  0.639936  1
  P  P12  1  0.231916  0.371852  0.860064  1
  P  P13  1  0.768084  0.628148  0.139936  1
  P  P14  1  0.966842  0.338070  0.628772  1
  P  P15  1  0.033158  0.661930  0.371228  1
  P  P16  1  0.709298  0.838070  0.871228  1
  P  P17  1  0.290702  0.161930  0.128772  1
