# generated using pymatgen
data_HoLu19(CoSb2)4
_symmetry_space_group_name_H-M   'P 1'
_cell_length_a   7.68090125
_cell_length_b   8.67291600
_cell_length_c   11.92926838
_cell_angle_alpha   90.00000000
_cell_angle_beta   90.02896085
_cell_angle_gamma   90.00000000
_symmetry_Int_Tables_number   1
_chemical_formula_structural   HoLu19(CoSb2)4
_chemical_formula_sum   'Ho1 Lu19 Co4 Sb8'
_cell_volume   794.67778995
_cell_formula_units_Z   1
loop_
 _symmetry_equiv_pos_site_id
 _symmetry_equiv_pos_as_xyz
  1  'x, y, z'
loop_
 _atom_site_type_symbol
 _atom_site_label
 _atom_site_symmetry_multiplicity
 _atom_site_fract_x
 _atom_site_fract_y
 _atom_site_fract_z
 _atom_site_occupancy
  Ho  Ho0  1  0.877195  0.750000  0.807534  1
  Lu  Lu1  1  0.156820  0.750000  0.203786  1
  Lu  Lu2  1  0.656934  0.250000  0.296230  1
  Lu  Lu3  1  0.843149  0.250000  0.796135  1
  Lu  Lu4  1  0.343502  0.750000  0.703685  1
  Lu  Lu5  1  0.449634  0.750000  0.998073  1
  Lu  Lu6  1  0.949751  0.250000  0.501755  1
  Lu  Lu7  1  0.550035  0.250000  0.001974  1
  Lu  Lu8  1  0.050578  0.750000  0.497945  1
  Lu  Lu9  1  0.621631  0.750000  0.308684  1
  Lu  Lu10  1  0.121674  0.250000  0.191415  1
  Lu  Lu11  1  0.378310  0.250000  0.691364  1
  Lu  Lu12  1  0.824259  0.962825  0.065683  1
  Lu  Lu13  1  0.324299  0.037700  0.434819  1
  Lu  Lu14  1  0.176182  0.461485  0.935077  1
  Lu  Lu15  1  0.675529  0.537507  0.565037  1
  Lu  Lu16  1  0.176182  0.038515  0.935077  1
  Lu  Lu17  1  0.675529  0.962493  0.565037  1
  Lu  Lu18  1  0.824259  0.537175  0.065683  1
  Lu  Lu19  1  0.324299  0.462300  0.434819  1
  Co  Co20  1  0.430897  0.750000  0.490327  1
  Co  Co21  1  0.930853  0.250000  0.009749  1
  Co  Co22  1  0.569176  0.250000  0.509648  1
  Co  Co23  1  0.069687  0.750000  0.990910  1
  Sb  Sb24  1  0.931285  0.991492  0.327579  1
  Sb  Sb25  1  0.431331  0.008400  0.172428  1
  Sb  Sb26  1  0.069397  0.490959  0.672155  1
  Sb  Sb27  1  0.567805  0.507898  0.827615  1
  Sb  Sb28  1  0.069397  0.009041  0.672155  1
  Sb  Sb29  1  0.567805  0.992102  0.827615  1
  Sb  Sb30  1  0.931285  0.508508  0.327579  1
  Sb  Sb31  1  0.431331  0.491600  0.172428  1
