# generated using pymatgen
data_Y5Er15GaBi11
_symmetry_space_group_name_H-M   'P 1'
_cell_length_a   8.20613424
_cell_length_b   9.46361200
_cell_length_c   12.03801700
_cell_angle_alpha   90.00000000
_cell_angle_beta   90.29564298
_cell_angle_gamma   90.00000000
_symmetry_Int_Tables_number   1
_chemical_formula_structural   Y5Er15GaBi11
_chemical_formula_sum   'Y5 Er15 Ga1 Bi11'
_cell_volume   934.85598834
_cell_formula_units_Z   1
loop_
 _symmetry_equiv_pos_site_id
 _symmetry_equiv_pos_as_xyz
  1  'x, y, z'
loop_
 _atom_site_type_symbol
 _atom_site_label
 _atom_site_symmetry_multiplicity
 _atom_site_fract_x
 _atom_site_fract_y
 _atom_site_fract_z
 _atom_site_occupancy
  Y  Y0  1  0.810978  0.250000  0.280622  1
  Y  Y1  1  0.313555  0.250000  0.219487  1
  Y  Y2  1  0.851770  0.750000  0.285646  1
  Y  Y3  1  0.650207  0.250000  0.784911  1
  Y  Y4  1  0.148970  0.250000  0.716329  1
  Er  Er5  1  0.035768  0.750000  0.989779  1
  Er  Er6  1  0.526679  0.750000  0.512102  1
  Er  Er7  1  0.979059  0.250000  0.008909  1
  Er  Er8  1  0.474768  0.250000  0.489239  1
  Er  Er9  1  0.193593  0.750000  0.722824  1
  Er  Er10  1  0.672072  0.750000  0.790298  1
  Er  Er11  1  0.309178  0.450646  0.940910  1
  Er  Er12  1  0.806625  0.064134  0.558984  1
  Er  Er13  1  0.683736  0.928816  0.054429  1
  Er  Er14  1  0.193841  0.565109  0.439153  1
  Er  Er15  1  0.683736  0.571184  0.054429  1
  Er  Er16  1  0.193841  0.934891  0.439153  1
  Er  Er17  1  0.309178  0.049354  0.940910  1
  Er  Er18  1  0.806625  0.435866  0.558984  1
  Er  Er19  1  0.354954  0.750000  0.205556  1
  Ga  Ga20  1  0.407810  0.750000  0.961460  1
  Bi  Bi21  1  0.436128  0.003529  0.674359  1
  Bi  Bi22  1  0.935583  0.499325  0.825405  1
  Bi  Bi23  1  0.563467  0.505271  0.326489  1
  Bi  Bi24  1  0.063488  0.996533  0.173710  1
  Bi  Bi25  1  0.563467  0.994729  0.326489  1
  Bi  Bi26  1  0.063488  0.503467  0.173710  1
  Bi  Bi27  1  0.436128  0.496471  0.674359  1
  Bi  Bi28  1  0.935583  0.000675  0.825405  1
  Bi  Bi29  1  0.910430  0.750000  0.546148  1
  Bi  Bi30  1  0.592766  0.250000  0.042107  1
  Bi  Bi31  1  0.092532  0.250000  0.457709  1
