# generated using pymatgen
data_La5PrDy10(CdIr)4
_symmetry_space_group_name_H-M   'P 1'
_cell_length_a   9.82377265
_cell_length_b   9.82377252
_cell_length_c   9.83645300
_cell_angle_alpha   59.95728828
_cell_angle_beta   59.95728872
_cell_angle_gamma   59.81610209
_symmetry_Int_Tables_number   1
_chemical_formula_structural   La5PrDy10(CdIr)4
_chemical_formula_sum   'La5 Pr1 Dy10 Cd4 Ir4'
_cell_volume   669.87381729
_cell_formula_units_Z   1
loop_
 _symmetry_equiv_pos_site_id
 _symmetry_equiv_pos_as_xyz
  1  'x, y, z'
loop_
 _atom_site_type_symbol
 _atom_site_label
 _atom_site_symmetry_multiplicity
 _atom_site_fract_x
 _atom_site_fract_y
 _atom_site_fract_z
 _atom_site_occupancy
  La  La0  1  0.942879  0.557308  0.557429  1
  La  La1  1  0.557308  0.942879  0.942384  1
  La  La2  1  0.557308  0.942879  0.557429  1
  La  La3  1  0.942879  0.557308  0.942384  1
  La  La4  1  0.557505  0.557505  0.942495  1
  Pr  Pr5  1  0.943417  0.943417  0.556583  1
  Dy  Dy6  1  0.347021  0.347021  0.346127  1
  Dy  Dy7  1  0.347021  0.347021  0.959831  1
  Dy  Dy8  1  0.346308  0.959420  0.347136  1
  Dy  Dy9  1  0.959420  0.346308  0.347136  1
  Dy  Dy10  1  0.812770  0.185846  0.188468  1
  Dy  Dy11  1  0.185846  0.812770  0.812915  1
  Dy  Dy12  1  0.185846  0.812770  0.188468  1
  Dy  Dy13  1  0.812770  0.185846  0.812915  1
  Dy  Dy14  1  0.186696  0.186696  0.813304  1
  Dy  Dy15  1  0.813133  0.813133  0.186867  1
  Cd  Cd16  1  0.578569  0.578569  0.578894  1
  Cd  Cd17  1  0.578569  0.578569  0.263965  1
  Cd  Cd18  1  0.579612  0.263089  0.578649  1
  Cd  Cd19  1  0.263089  0.579612  0.578649  1
  Ir  Ir20  1  0.141713  0.141713  0.140340  1
  Ir  Ir21  1  0.141713  0.141713  0.576234  1
  Ir  Ir22  1  0.141681  0.576922  0.140698  1
  Ir  Ir23  1  0.576922  0.141681  0.140698  1
