# generated using pymatgen
data_Sr4NiH12Au
_symmetry_space_group_name_H-M   'P 1'
_cell_length_a   7.35713320
_cell_length_b   7.35713241
_cell_length_c   5.59813564
_cell_angle_alpha   90.00972088
_cell_angle_beta   90.00971003
_cell_angle_gamma   135.31129016
_symmetry_Int_Tables_number   1
_chemical_formula_structural   Sr4NiH12Au
_chemical_formula_sum   'Sr4 Ni1 H12 Au1'
_cell_volume   213.09495239
_cell_formula_units_Z   1
loop_
 _symmetry_equiv_pos_site_id
 _symmetry_equiv_pos_as_xyz
  1  'x, y, z'
loop_
 _atom_site_type_symbol
 _atom_site_label
 _atom_site_symmetry_multiplicity
 _atom_site_fract_x
 _atom_site_fract_y
 _atom_site_fract_z
 _atom_site_occupancy
  Sr  Sr0  1  0.145102  0.854898  0.500000  1
  Sr  Sr1  1  0.644630  0.355370  0.000000  1
  Sr  Sr2  1  0.854898  0.145102  0.500000  1
  Sr  Sr3  1  0.355370  0.644630  0.000000  1
  Ni  Ni4  1  0.500000  0.500000  0.500000  1
  H  H5  1  0.999840  0.500057  0.750867  1
  H  H6  1  0.499943  0.000160  0.249133  1
  H  H7  1  0.000160  0.499943  0.249133  1
  H  H8  1  0.500057  0.999840  0.750867  1
  H  H9  1  0.386559  0.613441  0.500000  1
  H  H10  1  0.876951  0.123049  0.000000  1
  H  H11  1  0.613441  0.386559  0.500000  1
  H  H12  1  0.123049  0.876951  0.000000  1
  H  H13  1  0.295607  0.295607  0.705674  1
  H  H14  1  0.704393  0.704393  0.294326  1
  H  H15  1  0.294614  0.294614  0.294223  1
  H  H16  1  0.705386  0.705386  0.705777  1
  Au  Au17  1  0.000000  0.000000  0.000000  1
