# generated using pymatgen
data_Y4Sn3Ge3Ir7
_symmetry_space_group_name_H-M   'P 1'
_cell_length_a   7.43200666
_cell_length_b   7.43200666
_cell_length_c   7.49904000
_cell_angle_alpha   109.65403410
_cell_angle_beta   109.65403409
_cell_angle_gamma   109.28778630
_symmetry_Int_Tables_number   1
_chemical_formula_structural   Y4Sn3Ge3Ir7
_chemical_formula_sum   'Y4 Sn3 Ge3 Ir7'
_cell_volume   318.13478912
_cell_formula_units_Z   1
loop_
 _symmetry_equiv_pos_site_id
 _symmetry_equiv_pos_as_xyz
  1  'x, y, z'
loop_
 _atom_site_type_symbol
 _atom_site_label
 _atom_site_symmetry_multiplicity
 _atom_site_fract_x
 _atom_site_fract_y
 _atom_site_fract_z
 _atom_site_occupancy
  Y  Y0  1  0.000000  0.000000  0.551736  1
  Y  Y1  1  0.000000  0.474301  0.989831  1
  Y  Y2  1  0.474301  0.000000  0.989831  1
  Y  Y3  1  0.525699  0.525699  0.515530  1
  Sn  Sn4  1  0.707844  0.707844  0.016178  1
  Sn  Sn5  1  0.292156  0.000000  0.308334  1
  Sn  Sn6  1  0.000000  0.292156  0.308334  1
  Ge  Ge7  1  0.338460  0.338460  0.009779  1
  Ge  Ge8  1  0.661540  0.000000  0.671319  1
  Ge  Ge9  1  0.000000  0.661540  0.671319  1
  Ir  Ir10  1  0.744256  0.245423  0.498164  1
  Ir  Ir11  1  0.754577  0.498833  0.252741  1
  Ir  Ir12  1  0.501167  0.255744  0.753907  1
  Ir  Ir13  1  0.255744  0.501167  0.753907  1
  Ir  Ir14  1  0.245423  0.744256  0.498164  1
  Ir  Ir15  1  0.498833  0.754577  0.252741  1
  Ir  Ir16  1  0.000000  0.000000  0.958185  1
