# generated using pymatgen
data_Ho5Ta2BiO14
_symmetry_space_group_name_H-M   'P 1'
_cell_length_a   6.50686533
_cell_length_b   6.50686516
_cell_length_c   7.48866865
_cell_angle_alpha   90.10335439
_cell_angle_beta   89.89663995
_cell_angle_gamma   108.13055743
_symmetry_Int_Tables_number   1
_chemical_formula_structural   Ho5Ta2BiO14
_chemical_formula_sum   'Ho5 Ta2 Bi1 O14'
_cell_volume   301.32190041
_cell_formula_units_Z   1
loop_
 _symmetry_equiv_pos_site_id
 _symmetry_equiv_pos_as_xyz
  1  'x, y, z'
loop_
 _atom_site_type_symbol
 _atom_site_label
 _atom_site_symmetry_multiplicity
 _atom_site_fract_x
 _atom_site_fract_y
 _atom_site_fract_z
 _atom_site_occupancy
  Ho  Ho0  1  0.457450  0.457450  0.000000  1
  Ho  Ho1  1  0.999584  0.535912  0.238166  1
  Ho  Ho2  1  0.999916  0.465046  0.743953  1
  Ho  Ho3  1  0.535912  0.999584  0.761834  1
  Ho  Ho4  1  0.465046  0.999916  0.256047  1
  Ta  Ta5  1  0.006080  0.006080  0.500000  1
  Ta  Ta6  1  0.997436  0.997436  0.000000  1
  Bi  Bi7  1  0.537844  0.537844  0.500000  1
  O  O8  1  0.932223  0.068606  0.749782  1
  O  O9  1  0.068606  0.932223  0.250218  1
  O  O10  1  0.356956  0.644298  0.238493  1
  O  O11  1  0.644298  0.356956  0.761507  1
  O  O12  1  0.367677  0.634552  0.762477  1
  O  O13  1  0.634552  0.367677  0.237523  1
  O  O14  1  0.327733  0.081685  0.976007  1
  O  O15  1  0.671450  0.919211  0.475164  1
  O  O16  1  0.305203  0.041382  0.546900  1
  O  O17  1  0.694891  0.954863  0.045577  1
  O  O18  1  0.041382  0.305203  0.453100  1
  O  O19  1  0.954863  0.694891  0.954423  1
  O  O20  1  0.919211  0.671450  0.524836  1
  O  O21  1  0.081685  0.327733  0.023993  1
