# generated using pymatgen
data_Tb7Y9Cd4NiIr3
_symmetry_space_group_name_H-M   'P 1'
_cell_length_a   9.62969509
_cell_length_b   9.66906475
_cell_length_c   9.67709305
_cell_angle_alpha   59.87524144
_cell_angle_beta   59.76804233
_cell_angle_gamma   59.80372254
_symmetry_Int_Tables_number   1
_chemical_formula_structural   Tb7Y9Cd4NiIr3
_chemical_formula_sum   'Tb7 Y9 Cd4 Ni1 Ir3'
_cell_volume   634.46139234
_cell_formula_units_Z   1
loop_
 _symmetry_equiv_pos_site_id
 _symmetry_equiv_pos_as_xyz
  1  'x, y, z'
loop_
 _atom_site_type_symbol
 _atom_site_label
 _atom_site_symmetry_multiplicity
 _atom_site_fract_x
 _atom_site_fract_y
 _atom_site_fract_z
 _atom_site_occupancy
  Tb  Tb0  1  0.601145  0.596501  0.597044  1
  Tb  Tb1  1  0.602415  0.597549  0.203369  1
  Tb  Tb2  1  0.602962  0.202870  0.597690  1
  Tb  Tb3  1  0.202557  0.599845  0.599512  1
  Tb  Tb4  1  0.058291  0.439455  0.439316  1
  Tb  Tb5  1  0.437069  0.061023  0.060370  1
  Tb  Tb6  1  0.438672  0.060023  0.440266  1
  Y  Y7  1  0.059182  0.438543  0.061646  1
  Y  Y8  1  0.438863  0.440926  0.059270  1
  Y  Y9  1  0.058794  0.061752  0.438472  1
  Y  Y10  1  0.188363  0.812574  0.812550  1
  Y  Y11  1  0.810397  0.186679  0.186619  1
  Y  Y12  1  0.811015  0.187477  0.816370  1
  Y  Y13  1  0.188345  0.811781  0.187961  1
  Y  Y14  1  0.810655  0.816102  0.187904  1
  Y  Y15  1  0.188574  0.188121  0.811421  1
  Cd  Cd16  1  0.829878  0.830573  0.830580  1
  Cd  Cd17  1  0.830298  0.831377  0.506648  1
  Cd  Cd18  1  0.829835  0.506663  0.831564  1
  Cd  Cd19  1  0.506691  0.830501  0.831095  1
  Ni  Ni20  1  0.825009  0.392756  0.392259  1
  Ir  Ir21  1  0.392882  0.391300  0.392936  1
  Ir  Ir22  1  0.393888  0.391588  0.823276  1
  Ir  Ir23  1  0.394221  0.824017  0.391860  1
