# generated using pymatgen
data_Ce2Ni10Mo2P7
_symmetry_space_group_name_H-M   'P 1'
_cell_length_a   9.18237464
_cell_length_b   9.17779761
_cell_length_c   3.75214400
_cell_angle_alpha   90.00000000
_cell_angle_beta   90.00000000
_cell_angle_gamma   119.77912004
_symmetry_Int_Tables_number   1
_chemical_formula_structural   Ce2Ni10Mo2P7
_chemical_formula_sum   'Ce2 Ni10 Mo2 P7'
_cell_volume   274.45170965
_cell_formula_units_Z   1
loop_
 _symmetry_equiv_pos_site_id
 _symmetry_equiv_pos_as_xyz
  1  'x, y, z'
loop_
 _atom_site_type_symbol
 _atom_site_label
 _atom_site_symmetry_multiplicity
 _atom_site_fract_x
 _atom_site_fract_y
 _atom_site_fract_z
 _atom_site_occupancy
  Ce  Ce0  1  0.337143  0.666847  0.000000  1
  Ce  Ce1  1  0.669187  0.337562  0.500001  1
  Ni  Ni2  1  0.430674  0.058547  0.000000  1
  Ni  Ni3  1  0.156947  0.283204  0.000000  1
  Ni  Ni4  1  0.940379  0.369380  0.000000  1
  Ni  Ni5  1  0.628229  0.565857  0.000000  1
  Ni  Ni6  1  0.121871  0.844176  0.000000  1
  Ni  Ni7  1  0.719649  0.872758  0.000000  1
  Ni  Ni8  1  0.383434  0.438804  0.500001  1
  Ni  Ni9  1  0.049223  0.620161  0.500001  1
  Ni  Ni10  1  0.879899  0.783233  0.500001  1
  Ni  Ni11  1  0.561708  0.947737  0.500001  1
  Mo  Mo12  1  0.217233  0.101679  0.500001  1
  Mo  Mo13  1  0.902921  0.111285  0.500001  1
  P  P14  1  0.997909  0.996017  0.000000  1
  P  P15  1  0.700818  0.109441  0.000000  1
  P  P16  1  0.408530  0.298672  0.000000  1
  P  P17  1  0.892120  0.593202  0.000000  1
  P  P18  1  0.109160  0.404821  0.500001  1
  P  P19  1  0.602319  0.710574  0.500001  1
  P  P20  1  0.290646  0.886043  0.500001  1
