# generated using pymatgen
data_Nd4Gd2OsO12
_symmetry_space_group_name_H-M   'P 1'
_cell_length_a   6.67708241
_cell_length_b   6.70028897
_cell_length_c   6.65751576
_cell_angle_alpha   98.17817513
_cell_angle_beta   98.62592093
_cell_angle_gamma   99.01546916
_symmetry_Int_Tables_number   1
_chemical_formula_structural   Nd4Gd2OsO12
_chemical_formula_sum   'Nd4 Gd2 Os1 O12'
_cell_volume   286.61867973
_cell_formula_units_Z   1
loop_
 _symmetry_equiv_pos_site_id
 _symmetry_equiv_pos_as_xyz
  1  'x, y, z'
loop_
 _atom_site_type_symbol
 _atom_site_label
 _atom_site_symmetry_multiplicity
 _atom_site_fract_x
 _atom_site_fract_y
 _atom_site_fract_z
 _atom_site_occupancy
  Nd  Nd0  1  0.858581  0.392015  0.693562  1
  Nd  Nd1  1  0.610498  0.309803  0.143080  1
  Nd  Nd2  1  0.307380  0.142312  0.612056  1
  Nd  Nd3  1  0.689542  0.855186  0.386827  1
  Gd  Gd4  1  0.390320  0.687237  0.854710  1
  Gd  Gd5  1  0.146000  0.608298  0.312985  1
  Os  Os6  1  0.000575  0.998989  0.000668  1
  O  O7  1  0.930956  0.034265  0.712315  1
  O  O8  1  0.968377  0.289387  0.072334  1
  O  O9  1  0.592645  0.177678  0.441400  1
  O  O10  1  0.828009  0.563107  0.404538  1
  O  O11  1  0.290230  0.068648  0.967241  1
  O  O12  1  0.559690  0.415112  0.821871  1
  O  O13  1  0.430847  0.593363  0.174495  1
  O  O14  1  0.707572  0.928970  0.030604  1
  O  O15  1  0.180213  0.441529  0.590211  1
  O  O16  1  0.404154  0.817957  0.563312  1
  O  O17  1  0.035616  0.712139  0.929770  1
  O  O18  1  0.068795  0.964004  0.288021  1
