# generated using pymatgen
data_Y6Tm4InBi5
_symmetry_space_group_name_H-M   'P 1'
_cell_length_a   9.12677200
_cell_length_b   9.14234563
_cell_length_c   6.45267200
_cell_angle_alpha   90.00000000
_cell_angle_beta   90.00000000
_cell_angle_gamma   120.05646287
_symmetry_Int_Tables_number   1
_chemical_formula_structural   Y6Tm4InBi5
_chemical_formula_sum   'Y6 Tm4 In1 Bi5'
_cell_volume   466.01262486
_cell_formula_units_Z   1
loop_
 _symmetry_equiv_pos_site_id
 _symmetry_equiv_pos_as_xyz
  1  'x, y, z'
loop_
 _atom_site_type_symbol
 _atom_site_label
 _atom_site_symmetry_multiplicity
 _atom_site_fract_x
 _atom_site_fract_y
 _atom_site_fract_z
 _atom_site_occupancy
  Y  Y0  1  0.758034  0.756918  0.750000  1
  Y  Y1  1  0.241966  0.998884  0.750000  1
  Y  Y2  1  0.000000  0.241323  0.750000  1
  Y  Y3  1  0.236425  0.243601  0.250000  1
  Y  Y4  1  0.763575  0.007176  0.250000  1
  Y  Y5  1  0.000000  0.755289  0.250000  1
  Tm  Tm6  1  0.672139  0.334386  0.001599  1
  Tm  Tm7  1  0.327861  0.662249  0.001599  1
  Tm  Tm8  1  0.327861  0.662249  0.498401  1
  Tm  Tm9  1  0.672139  0.334386  0.498401  1
  In  In10  1  0.000000  0.396269  0.250000  1
  Bi  Bi11  1  0.393264  0.390527  0.750000  1
  Bi  Bi12  1  0.606736  0.997264  0.750000  1
  Bi  Bi13  1  0.000000  0.607535  0.750000  1
  Bi  Bi14  1  0.608434  0.610190  0.250000  1
  Bi  Bi15  1  0.391566  0.001755  0.250000  1
