# generated using pymatgen
data_RbBiTeO6
_symmetry_space_group_name_H-M   'P 1'
_cell_length_a   7.51145647
_cell_length_b   7.51145693
_cell_length_c   7.51145633
_cell_angle_alpha   120.18624609
_cell_angle_beta   119.64065784
_cell_angle_gamma   90.15061698
_symmetry_Int_Tables_number   1
_chemical_formula_structural   RbBiTeO6
_chemical_formula_sum   'Rb2 Bi2 Te2 O12'
_cell_volume   300.06224954
_cell_formula_units_Z   2
loop_
 _symmetry_equiv_pos_site_id
 _symmetry_equiv_pos_as_xyz
  1  'x, y, z'
loop_
 _atom_site_type_symbol
 _atom_site_label
 _atom_site_symmetry_multiplicity
 _atom_site_fract_x
 _atom_site_fract_y
 _atom_site_fract_z
 _atom_site_occupancy
  Rb  Rb0  1  0.630710  0.880710  0.750000  1
  Rb  Rb1  1  0.369290  0.119290  0.250000  1
  Bi  Bi2  1  0.500000  0.500000  0.000000  1
  Bi  Bi3  1  0.000000  0.500000  0.500000  1
  Te  Te4  1  0.000000  0.500000  0.000000  1
  Te  Te5  1  0.000000  0.000000  0.500000  1
  O  O6  1  0.058244  0.808244  0.250000  1
  O  O7  1  0.658720  0.408720  0.250000  1
  O  O8  1  0.064095  0.843482  0.654156  1
  O  O9  1  0.689326  0.409939  0.845844  1
  O  O10  1  0.689326  0.843482  0.279388  1
  O  O11  1  0.064095  0.409939  0.220612  1
  O  O12  1  0.941756  0.191756  0.750000  1
  O  O13  1  0.341280  0.591280  0.750000  1
  O  O14  1  0.935905  0.156518  0.345844  1
  O  O15  1  0.310674  0.590061  0.154156  1
  O  O16  1  0.310674  0.156518  0.720612  1
  O  O17  1  0.935905  0.590061  0.779388  1
