# generated using pymatgen
data_HoEr9(SiBi2)2
_symmetry_space_group_name_H-M   'P 1'
_cell_length_a   7.99524906
_cell_length_b   9.10425600
_cell_length_c   12.03384900
_cell_angle_alpha   90.00000000
_cell_angle_beta   90.11482455
_cell_angle_gamma   90.00000000
_symmetry_Int_Tables_number   1
_chemical_formula_structural   HoEr9(SiBi2)2
_chemical_formula_sum   'Ho2 Er18 Si4 Bi8'
_cell_volume   875.95166678
_cell_formula_units_Z   2
loop_
 _symmetry_equiv_pos_site_id
 _symmetry_equiv_pos_as_xyz
  1  'x, y, z'
loop_
 _atom_site_type_symbol
 _atom_site_label
 _atom_site_symmetry_multiplicity
 _atom_site_fract_x
 _atom_site_fract_y
 _atom_site_fract_z
 _atom_site_occupancy
  Ho  Ho0  1  0.659302  0.750000  0.711627  1
  Ho  Ho1  1  0.340698  0.250000  0.288373  1
  Er  Er2  1  0.158785  0.250000  0.789278  1
  Er  Er3  1  0.841215  0.750000  0.210722  1
  Er  Er4  1  0.133859  0.750000  0.795210  1
  Er  Er5  1  0.866141  0.250000  0.204790  1
  Er  Er6  1  0.633441  0.250000  0.705403  1
  Er  Er7  1  0.366559  0.750000  0.294597  1
  Er  Er8  1  0.541031  0.750000  0.000381  1
  Er  Er9  1  0.458969  0.250000  0.999619  1
  Er  Er10  1  0.041646  0.250000  0.499261  1
  Er  Er11  1  0.958354  0.750000  0.500739  1
  Er  Er12  1  0.818876  0.447008  0.935604  1
  Er  Er13  1  0.181124  0.552992  0.064396  1
  Er  Er14  1  0.318840  0.552511  0.564158  1
  Er  Er15  1  0.181124  0.947008  0.064396  1
  Er  Er16  1  0.681160  0.447489  0.435842  1
  Er  Er17  1  0.818876  0.052992  0.935604  1
  Er  Er18  1  0.681160  0.052511  0.435842  1
  Er  Er19  1  0.318840  0.947489  0.564158  1
  Si  Si20  1  0.915506  0.750000  0.979734  1
  Si  Si21  1  0.084494  0.250000  0.020266  1
  Si  Si22  1  0.416392  0.250000  0.519982  1
  Si  Si23  1  0.583608  0.750000  0.480018  1
  Bi  Bi24  1  0.928624  0.010528  0.672953  1
  Bi  Bi25  1  0.071376  0.989472  0.327047  1
  Bi  Bi26  1  0.427224  0.990319  0.827249  1
  Bi  Bi27  1  0.071376  0.510528  0.327047  1
  Bi  Bi28  1  0.572776  0.009681  0.172751  1
  Bi  Bi29  1  0.928624  0.489472  0.672953  1
  Bi  Bi30  1  0.572776  0.490319  0.172751  1
  Bi  Bi31  1  0.427224  0.509681  0.827249  1
