# generated using pymatgen
data_Zr10Tl2CuPPb4
_symmetry_space_group_name_H-M   'P 1'
_cell_length_a   8.77545625
_cell_length_b   8.77215390
_cell_length_c   5.96955681
_cell_angle_alpha   89.88850865
_cell_angle_beta   90.05572371
_cell_angle_gamma   119.98754129
_symmetry_Int_Tables_number   1
_chemical_formula_structural   Zr10Tl2CuPPb4
_chemical_formula_sum   'Zr10 Tl2 Cu1 P1 Pb4'
_cell_volume   398.01767209
_cell_formula_units_Z   1
loop_
 _symmetry_equiv_pos_site_id
 _symmetry_equiv_pos_as_xyz
  1  'x, y, z'
loop_
 _atom_site_type_symbol
 _atom_site_label
 _atom_site_symmetry_multiplicity
 _atom_site_fract_x
 _atom_site_fract_y
 _atom_site_fract_z
 _atom_site_occupancy
  Zr  Zr0  1  0.665827  0.332823  0.499537  1
  Zr  Zr1  1  0.334173  0.666997  0.499537  1
  Zr  Zr2  1  0.334386  0.666908  0.000614  1
  Zr  Zr3  1  0.665614  0.332520  0.000614  1
  Zr  Zr4  1  0.747258  0.748215  0.256485  1
  Zr  Zr5  1  0.252742  0.000957  0.256485  1
  Zr  Zr6  1  0.000000  0.252209  0.255992  1
  Zr  Zr7  1  0.252442  0.252292  0.743188  1
  Zr  Zr8  1  0.747558  0.999850  0.743188  1
  Zr  Zr9  1  0.000000  0.747691  0.743707  1
  Tl  Tl10  1  0.390361  0.390400  0.246138  1
  Tl  Tl11  1  0.609639  0.000039  0.246138  1
  Cu  Cu12  1  0.000000  0.000424  0.000873  1
  P  P13  1  0.000000  0.000143  0.499313  1
  Pb  Pb14  1  0.000000  0.609210  0.245432  1
  Pb  Pb15  1  0.608691  0.608672  0.754452  1
  Pb  Pb16  1  0.391309  0.999981  0.754452  1
  Pb  Pb17  1  0.000000  0.390670  0.753855  1
