# generated using pymatgen
data_Ca3ScAl2(B2Rh5)2
_symmetry_space_group_name_H-M   'P 1'
_cell_length_a   9.65709201
_cell_length_b   3.01374100
_cell_length_c   9.65709201
_cell_angle_alpha   90.00000000
_cell_angle_beta   90.62796650
_cell_angle_gamma   90.00000000
_symmetry_Int_Tables_number   1
_chemical_formula_structural   Ca3ScAl2(B2Rh5)2
_chemical_formula_sum   'Ca3 Sc1 Al2 B4 Rh10'
_cell_volume   281.04287499
_cell_formula_units_Z   1
loop_
 _symmetry_equiv_pos_site_id
 _symmetry_equiv_pos_as_xyz
  1  'x, y, z'
loop_
 _atom_site_type_symbol
 _atom_site_label
 _atom_site_symmetry_multiplicity
 _atom_site_fract_x
 _atom_site_fract_y
 _atom_site_fract_z
 _atom_site_occupancy
  Ca  Ca0  1  0.675879  0.000000  0.175879  1
  Ca  Ca1  1  0.177797  0.000000  0.323592  1
  Ca  Ca2  1  0.823594  0.000000  0.677797  1
  Sc  Sc3  1  0.323528  0.000000  0.823530  1
  Al  Al4  1  0.996916  0.000000  0.001421  1
  Al  Al5  1  0.501421  0.000000  0.496916  1
  B  B6  1  0.373509  0.000000  0.121636  1
  B  B7  1  0.877813  0.000000  0.377813  1
  B  B8  1  0.126320  0.000000  0.626320  1
  B  B9  1  0.621636  0.000000  0.873509  1
  Rh  Rh10  1  0.493386  0.500000  0.993386  1
  Rh  Rh11  1  0.218756  0.500000  0.058750  1
  Rh  Rh12  1  0.932041  0.500000  0.219793  1
  Rh  Rh13  1  0.431525  0.500000  0.277682  1
  Rh  Rh14  1  0.719793  0.500000  0.432040  1
  Rh  Rh15  1  0.003584  0.500000  0.503584  1
  Rh  Rh16  1  0.286627  0.500000  0.579438  1
  Rh  Rh17  1  0.558751  0.500000  0.718756  1
  Rh  Rh18  1  0.079437  0.500000  0.786628  1
  Rh  Rh19  1  0.777683  0.500000  0.931526  1
