# generated using pymatgen
data_CeGaSiRh2
_symmetry_space_group_name_H-M   'P 1'
_cell_length_a   5.90500347
_cell_length_b   5.90500404
_cell_length_c   5.90500370
_cell_angle_alpha   138.33776992
_cell_angle_beta   138.33778294
_cell_angle_gamma   60.38606716
_symmetry_Int_Tables_number   1
_chemical_formula_structural   CeGaSiRh2
_chemical_formula_sum   'Ce1 Ga1 Si1 Rh2'
_cell_volume   90.02478227
_cell_formula_units_Z   1
loop_
 _symmetry_equiv_pos_site_id
 _symmetry_equiv_pos_as_xyz
  1  'x, y, z'
loop_
 _atom_site_type_symbol
 _atom_site_label
 _atom_site_symmetry_multiplicity
 _atom_site_fract_x
 _atom_site_fract_y
 _atom_site_fract_z
 _atom_site_occupancy
  Ce  Ce0  1  0.997581  0.997581  0.000000  1
  Ga  Ga1  1  0.620814  0.620814  0.000000  1
  Si  Si2  1  0.367202  0.367202  0.000000  1
  Rh  Rh3  1  0.757202  0.257202  0.500000  1
  Rh  Rh4  1  0.257202  0.757202  0.500000  1
