# generated using pymatgen
data_HfU2PaH12
_symmetry_space_group_name_H-M   'P 1'
_cell_length_a   6.40351700
_cell_length_b   6.42963200
_cell_length_c   6.42963200
_cell_angle_alpha   90.00000000
_cell_angle_beta   90.00000000
_cell_angle_gamma   90.00000000
_symmetry_Int_Tables_number   1
_chemical_formula_structural   HfU2PaH12
_chemical_formula_sum   'Hf2 U4 Pa2 H24'
_cell_volume   264.72246636
_cell_formula_units_Z   2
loop_
 _symmetry_equiv_pos_site_id
 _symmetry_equiv_pos_as_xyz
  1  'x, y, z'
loop_
 _atom_site_type_symbol
 _atom_site_label
 _atom_site_symmetry_multiplicity
 _atom_site_fract_x
 _atom_site_fract_y
 _atom_site_fract_z
 _atom_site_occupancy
  Hf  Hf0  1  0.000000  0.000000  0.000000  1
  Hf  Hf1  1  0.500000  0.500000  0.500000  1
  U  U2  1  0.000000  0.500000  0.250030  1
  U  U3  1  0.000000  0.500000  0.749970  1
  U  U4  1  0.500000  0.750030  0.000000  1
  U  U5  1  0.500000  0.249970  0.000000  1
  Pa  Pa6  1  0.250000  0.000000  0.500000  1
  Pa  Pa7  1  0.750000  0.000000  0.500000  1
  H  H8  1  0.000000  0.151772  0.292351  1
  H  H9  1  0.500000  0.207649  0.651772  1
  H  H10  1  0.500000  0.792351  0.348228  1
  H  H11  1  0.794011  0.650863  0.500000  1
  H  H12  1  0.205989  0.650863  0.500000  1
  H  H13  1  0.348468  0.500000  0.793638  1
  H  H14  1  0.651532  0.500000  0.793638  1
  H  H15  1  0.294011  0.000000  0.150863  1
  H  H16  1  0.151532  0.293638  0.000000  1
  H  H17  1  0.848468  0.706362  0.000000  1
  H  H18  1  0.294011  0.000000  0.849137  1
  H  H19  1  0.848468  0.293638  0.000000  1
  H  H20  1  0.705989  0.000000  0.150863  1
  H  H21  1  0.705989  0.000000  0.849137  1
  H  H22  1  0.151532  0.706362  0.000000  1
  H  H23  1  0.000000  0.848228  0.707649  1
  H  H24  1  0.000000  0.151772  0.707649  1
  H  H25  1  0.000000  0.848228  0.292351  1
  H  H26  1  0.651532  0.500000  0.206362  1
  H  H27  1  0.348468  0.500000  0.206362  1
  H  H28  1  0.794011  0.349137  0.500000  1
  H  H29  1  0.205989  0.349137  0.500000  1
  H  H30  1  0.500000  0.792351  0.651772  1
  H  H31  1  0.500000  0.207649  0.348228  1
