# generated using pymatgen
data_Tb3BePt5
_symmetry_space_group_name_H-M   'P 1'
_cell_length_a   8.08993018
_cell_length_b   8.08992989
_cell_length_c   8.08993100
_cell_angle_alpha   127.16430498
_cell_angle_beta   124.08788712
_cell_angle_gamma   80.52793541
_symmetry_Int_Tables_number   1
_chemical_formula_structural   Tb3BePt5
_chemical_formula_sum   'Tb6 Be2 Pt10'
_cell_volume   337.06994646
_cell_formula_units_Z   2
loop_
 _symmetry_equiv_pos_site_id
 _symmetry_equiv_pos_as_xyz
  1  'x, y, z'
loop_
 _atom_site_type_symbol
 _atom_site_label
 _atom_site_symmetry_multiplicity
 _atom_site_fract_x
 _atom_site_fract_y
 _atom_site_fract_z
 _atom_site_occupancy
  Tb  Tb0  1  0.223268  0.446172  0.777097  1
  Tb  Tb1  1  0.776732  0.553828  0.222903  1
  Tb  Tb2  1  0.830924  0.053828  0.777097  1
  Tb  Tb3  1  0.169076  0.946172  0.222903  1
  Tb  Tb4  1  0.408337  0.250000  0.158337  1
  Tb  Tb5  1  0.591663  0.750000  0.841663  1
  Be  Be6  1  0.794642  0.250000  0.544642  1
  Be  Be7  1  0.205358  0.750000  0.455358  1
  Pt  Pt8  1  0.172270  0.405365  0.355226  1
  Pt  Pt9  1  0.827730  0.182955  0.233094  1
  Pt  Pt10  1  0.449862  0.094635  0.766906  1
  Pt  Pt11  1  0.550138  0.317045  0.644774  1
  Pt  Pt12  1  0.000000  0.500000  0.000000  1
  Pt  Pt13  1  0.000000  0.000000  0.500000  1
  Pt  Pt14  1  0.449862  0.682955  0.355226  1
  Pt  Pt15  1  0.550138  0.905365  0.233094  1
  Pt  Pt16  1  0.172270  0.817045  0.766906  1
  Pt  Pt17  1  0.827730  0.594635  0.644774  1
