# generated using pymatgen
data_Hf3(Ga3Mo)2
_symmetry_space_group_name_H-M   'P 1'
_cell_length_a   5.44628600
_cell_length_b   7.83918400
_cell_length_c   8.90487400
_cell_angle_alpha   90.00000000
_cell_angle_beta   90.00000000
_cell_angle_gamma   90.00000000
_symmetry_Int_Tables_number   1
_chemical_formula_structural   Hf3(Ga3Mo)2
_chemical_formula_sum   'Hf6 Ga12 Mo4'
_cell_volume   380.18859152
_cell_formula_units_Z   2
loop_
 _symmetry_equiv_pos_site_id
 _symmetry_equiv_pos_as_xyz
  1  'x, y, z'
loop_
 _atom_site_type_symbol
 _atom_site_label
 _atom_site_symmetry_multiplicity
 _atom_site_fract_x
 _atom_site_fract_y
 _atom_site_fract_z
 _atom_site_occupancy
  Hf  Hf0  1  0.000000  0.848340  0.724748  1
  Hf  Hf1  1  0.500000  0.151660  0.224748  1
  Hf  Hf2  1  0.000000  0.286646  0.000000  1
  Hf  Hf3  1  0.000000  0.848340  0.275252  1
  Hf  Hf4  1  0.500000  0.151660  0.775252  1
  Hf  Hf5  1  0.500000  0.713354  0.500000  1
  Ga  Ga6  1  0.000000  0.570752  0.500000  1
  Ga  Ga7  1  0.000000  0.638160  0.000000  1
  Ga  Ga8  1  0.760130  0.967742  0.000000  1
  Ga  Ga9  1  0.000000  0.219231  0.309423  1
  Ga  Ga10  1  0.500000  0.429248  0.000000  1
  Ga  Ga11  1  0.500000  0.780769  0.190577  1
  Ga  Ga12  1  0.260130  0.032258  0.500000  1
  Ga  Ga13  1  0.500000  0.361840  0.500000  1
  Ga  Ga14  1  0.000000  0.219231  0.690577  1
  Ga  Ga15  1  0.500000  0.780769  0.809423  1
  Ga  Ga16  1  0.739870  0.032258  0.500000  1
  Ga  Ga17  1  0.239870  0.967742  0.000000  1
  Mo  Mo18  1  0.750000  0.500000  0.250000  1
  Mo  Mo19  1  0.750000  0.500000  0.750000  1
  Mo  Mo20  1  0.250000  0.500000  0.750000  1
  Mo  Mo21  1  0.250000  0.500000  0.250000  1
