# generated using pymatgen
data_TbYPa4O12
_symmetry_space_group_name_H-M   'P 1'
_cell_length_a   6.63433262
_cell_length_b   6.63433294
_cell_length_c   7.70500918
_cell_angle_alpha   73.11843631
_cell_angle_beta   73.11843436
_cell_angle_gamma   48.28776654
_symmetry_Int_Tables_number   1
_chemical_formula_structural   TbYPa4O12
_chemical_formula_sum   'Tb1 Y1 Pa4 O12'
_cell_volume   239.99893112
_cell_formula_units_Z   1
loop_
 _symmetry_equiv_pos_site_id
 _symmetry_equiv_pos_as_xyz
  1  'x, y, z'
loop_
 _atom_site_type_symbol
 _atom_site_label
 _atom_site_symmetry_multiplicity
 _atom_site_fract_x
 _atom_site_fract_y
 _atom_site_fract_z
 _atom_site_occupancy
  Tb  Tb0  1  0.999987  0.000013  0.000000  1
  Y  Y1  1  0.000016  0.999984  0.500000  1
  Pa  Pa2  1  0.664670  0.664662  0.667780  1
  Pa  Pa3  1  0.335837  0.335895  0.832060  1
  Pa  Pa4  1  0.335338  0.335330  0.332220  1
  Pa  Pa5  1  0.664105  0.664163  0.167940  1
  O  O6  1  0.423539  0.916559  0.915446  1
  O  O7  1  0.916323  0.423358  0.915193  1
  O  O8  1  0.084011  0.576807  0.585182  1
  O  O9  1  0.258614  0.742181  0.750314  1
  O  O10  1  0.576598  0.083609  0.584979  1
  O  O11  1  0.741893  0.258414  0.750018  1
  O  O12  1  0.741586  0.258107  0.249982  1
  O  O13  1  0.916391  0.423402  0.415021  1
  O  O14  1  0.423193  0.915989  0.414818  1
  O  O15  1  0.257819  0.741386  0.249686  1
  O  O16  1  0.576642  0.083677  0.084807  1
  O  O17  1  0.083441  0.576461  0.084554  1
