# generated using pymatgen
data_Ti3Mo2P3Ru
_symmetry_space_group_name_H-M   'P 1'
_cell_length_a   6.66725376
_cell_length_b   6.66725394
_cell_length_c   3.37010100
_cell_angle_alpha   90.00000000
_cell_angle_beta   90.00000000
_cell_angle_gamma   121.01152975
_symmetry_Int_Tables_number   1
_chemical_formula_structural   Ti3Mo2P3Ru
_chemical_formula_sum   'Ti3 Mo2 P3 Ru1'
_cell_volume   128.39554941
_cell_formula_units_Z   1
loop_
 _symmetry_equiv_pos_site_id
 _symmetry_equiv_pos_as_xyz
  1  'x, y, z'
loop_
 _atom_site_type_symbol
 _atom_site_label
 _atom_site_symmetry_multiplicity
 _atom_site_fract_x
 _atom_site_fract_y
 _atom_site_fract_z
 _atom_site_occupancy
  Ti  Ti0  1  0.398271  0.398271  0.500000  1
  Ti  Ti1  1  0.596125  0.008976  0.500000  1
  Ti  Ti2  1  0.008976  0.596125  0.500000  1
  Mo  Mo3  1  0.999897  0.254041  0.000000  1
  Mo  Mo4  1  0.254041  0.999897  0.000000  1
  P  P5  1  0.986962  0.986962  0.500000  1
  P  P6  1  0.670012  0.341824  0.000000  1
  P  P7  1  0.341824  0.670012  0.000000  1
  Ru  Ru8  1  0.743893  0.743893  0.000000  1
