# generated using pymatgen
data_Dy4Lu4ReTc3C8
_symmetry_space_group_name_H-M   'P 1'
_cell_length_a   5.03526600
_cell_length_b   6.55166789
_cell_length_c   9.74928323
_cell_angle_alpha   90.04240313
_cell_angle_beta   90.00000000
_cell_angle_gamma   90.00000000
_symmetry_Int_Tables_number   1
_chemical_formula_structural   Dy4Lu4ReTc3C8
_chemical_formula_sum   'Dy4 Lu4 Re1 Tc3 C8'
_cell_volume   321.62282433
_cell_formula_units_Z   1
loop_
 _symmetry_equiv_pos_site_id
 _symmetry_equiv_pos_as_xyz
  1  'x, y, z'
loop_
 _atom_site_type_symbol
 _atom_site_label
 _atom_site_symmetry_multiplicity
 _atom_site_fract_x
 _atom_site_fract_y
 _atom_site_fract_z
 _atom_site_occupancy
  Dy  Dy0  1  0.250000  0.465482  0.214342  1
  Dy  Dy1  1  0.250000  0.964812  0.284778  1
  Dy  Dy2  1  0.750000  0.534116  0.785459  1
  Dy  Dy3  1  0.750000  0.033865  0.714387  1
  Lu  Lu4  1  0.250000  0.827957  0.940480  1
  Lu  Lu5  1  0.250000  0.327141  0.558851  1
  Lu  Lu6  1  0.750000  0.171859  0.058763  1
  Lu  Lu7  1  0.750000  0.673613  0.440551  1
  Re  Re8  1  0.750000  0.219147  0.367751  1
  Tc  Tc9  1  0.250000  0.281194  0.867275  1
  Tc  Tc10  1  0.250000  0.780869  0.632337  1
  Tc  Tc11  1  0.750000  0.719603  0.132535  1
  C  C12  1  0.250000  0.050545  0.739633  1
  C  C13  1  0.250000  0.550129  0.759954  1
  C  C14  1  0.750000  0.951128  0.261304  1
  C  C15  1  0.750000  0.449468  0.240395  1
  C  C16  1  0.250000  0.670592  0.449604  1
  C  C17  1  0.250000  0.171225  0.050263  1
  C  C18  1  0.750000  0.328588  0.551605  1
  C  C19  1  0.750000  0.828666  0.949737  1
