# generated using pymatgen
data_Sr6Sn8BiAu
_symmetry_space_group_name_H-M   'P 1'
_cell_length_a   8.99719950
_cell_length_b   8.99719953
_cell_length_c   8.99720016
_cell_angle_alpha   120.44271904
_cell_angle_beta   120.44271877
_cell_angle_gamma   89.23488451
_symmetry_Int_Tables_number   1
_chemical_formula_structural   Sr6Sn8BiAu
_chemical_formula_sum   'Sr6 Sn8 Bi1 Au1'
_cell_volume   511.50416093
_cell_formula_units_Z   1
loop_
 _symmetry_equiv_pos_site_id
 _symmetry_equiv_pos_as_xyz
  1  'x, y, z'
loop_
 _atom_site_type_symbol
 _atom_site_label
 _atom_site_symmetry_multiplicity
 _atom_site_fract_x
 _atom_site_fract_y
 _atom_site_fract_z
 _atom_site_occupancy
  Sr  Sr0  1  0.254612  0.254612  0.000000  1
  Sr  Sr1  1  0.745388  0.745388  0.000000  1
  Sr  Sr2  1  0.165275  0.659718  0.824994  1
  Sr  Sr3  1  0.834725  0.340282  0.175006  1
  Sr  Sr4  1  0.659718  0.834725  0.494443  1
  Sr  Sr5  1  0.340282  0.165275  0.505557  1
  Sn  Sn6  1  0.830406  0.333405  0.786291  1
  Sn  Sn7  1  0.169594  0.666595  0.213709  1
  Sn  Sn8  1  0.547113  0.044115  0.213709  1
  Sn  Sn9  1  0.333405  0.547113  0.502999  1
  Sn  Sn10  1  0.955885  0.169594  0.502999  1
  Sn  Sn11  1  0.452887  0.955885  0.786291  1
  Sn  Sn12  1  0.666595  0.452887  0.497001  1
  Sn  Sn13  1  0.044115  0.830406  0.497001  1
  Bi  Bi14  1  0.000000  0.000000  0.000000  1
  Au  Au15  1  0.500000  0.500000  0.000000  1
