# generated using pymatgen
data_Yb6SmDy(MgRu)2
_symmetry_space_group_name_H-M   'P 1'
_cell_length_a   9.94277985
_cell_length_b   9.94278018
_cell_length_c   9.92660700
_cell_angle_alpha   60.05379710
_cell_angle_beta   60.05379600
_cell_angle_gamma   60.07777843
_symmetry_Int_Tables_number   1
_chemical_formula_structural   Yb6SmDy(MgRu)2
_chemical_formula_sum   'Yb12 Sm2 Dy2 Mg4 Ru4'
_cell_volume   694.87902285
_cell_formula_units_Z   2
loop_
 _symmetry_equiv_pos_site_id
 _symmetry_equiv_pos_as_xyz
  1  'x, y, z'
loop_
 _atom_site_type_symbol
 _atom_site_label
 _atom_site_symmetry_multiplicity
 _atom_site_fract_x
 _atom_site_fract_y
 _atom_site_fract_z
 _atom_site_occupancy
  Yb  Yb0  1  0.953624  0.546185  0.547611  1
  Yb  Yb1  1  0.546185  0.953624  0.952581  1
  Yb  Yb2  1  0.546185  0.953624  0.547611  1
  Yb  Yb3  1  0.953624  0.546185  0.952581  1
  Yb  Yb4  1  0.545224  0.545224  0.954776  1
  Yb  Yb5  1  0.951634  0.951634  0.548366  1
  Yb  Yb6  1  0.809708  0.190925  0.190039  1
  Yb  Yb7  1  0.190925  0.809708  0.809329  1
  Yb  Yb8  1  0.190925  0.809708  0.190039  1
  Yb  Yb9  1  0.809708  0.190925  0.809329  1
  Yb  Yb10  1  0.191359  0.191359  0.808641  1
  Yb  Yb11  1  0.810378  0.810378  0.189622  1
  Sm  Sm12  1  0.339828  0.981149  0.339510  1
  Sm  Sm13  1  0.981149  0.339828  0.339510  1
  Dy  Dy14  1  0.338719  0.338719  0.338903  1
  Dy  Dy15  1  0.338719  0.338719  0.983658  1
  Mg  Mg16  1  0.576336  0.576336  0.578392  1
  Mg  Mg17  1  0.576336  0.576336  0.268935  1
  Mg  Mg18  1  0.575925  0.267907  0.578084  1
  Mg  Mg19  1  0.267907  0.575925  0.578084  1
  Ru  Ru20  1  0.139920  0.139920  0.136058  1
  Ru  Ru21  1  0.139920  0.139920  0.584100  1
  Ru  Ru22  1  0.141388  0.584369  0.137121  1
  Ru  Ru23  1  0.584369  0.141388  0.137121  1
