# generated using pymatgen
data_Ta8Be3Re2Ge3
_symmetry_space_group_name_H-M   'P 1'
_cell_length_a   7.43363428
_cell_length_b   7.41659267
_cell_length_c   6.36928100
_cell_angle_alpha   64.74071159
_cell_angle_beta   64.46375323
_cell_angle_gamma   50.79554602
_symmetry_Int_Tables_number   1
_chemical_formula_structural   Ta8Be3Re2Ge3
_chemical_formula_sum   'Ta8 Be3 Re2 Ge3'
_cell_volume   239.47739436
_cell_formula_units_Z   1
loop_
 _symmetry_equiv_pos_site_id
 _symmetry_equiv_pos_as_xyz
  1  'x, y, z'
loop_
 _atom_site_type_symbol
 _atom_site_label
 _atom_site_symmetry_multiplicity
 _atom_site_fract_x
 _atom_site_fract_y
 _atom_site_fract_z
 _atom_site_occupancy
  Ta  Ta0  1  0.518271  0.191387  0.469110  1
  Ta  Ta1  1  0.178767  0.530890  0.808613  1
  Ta  Ta2  1  0.028037  0.691089  0.308911  1
  Ta  Ta3  1  0.695394  0.006007  0.993993  1
  Ta  Ta4  1  0.469110  0.821233  0.518271  1
  Ta  Ta5  1  0.808613  0.481729  0.178767  1
  Ta  Ta6  1  0.993993  0.304606  0.695394  1
  Ta  Ta7  1  0.308911  0.971963  0.028037  1
  Be  Be8  1  0.874940  0.125060  0.125873  1
  Be  Be9  1  0.125873  0.874127  0.874940  1
  Be  Be10  1  0.371340  0.628660  0.371340  1
  Re  Re11  1  0.498243  0.501757  0.008714  1
  Re  Re12  1  0.008714  0.991286  0.498243  1
  Ge  Ge13  1  0.630199  0.369801  0.630199  1
  Ge  Ge14  1  0.244799  0.255201  0.244799  1
  Ge  Ge15  1  0.744799  0.755201  0.744799  1
