# generated using pymatgen
data_Tb12TcOs3
_symmetry_space_group_name_H-M   'P 1'
_cell_length_a   6.33912155
_cell_length_b   7.42747863
_cell_length_c   9.16920300
_cell_angle_alpha   90.00000000
_cell_angle_beta   90.00000000
_cell_angle_gamma   90.04734143
_symmetry_Int_Tables_number   1
_chemical_formula_structural   Tb12TcOs3
_chemical_formula_sum   'Tb12 Tc1 Os3'
_cell_volume   431.71976242
_cell_formula_units_Z   1
loop_
 _symmetry_equiv_pos_site_id
 _symmetry_equiv_pos_as_xyz
  1  'x, y, z'
loop_
 _atom_site_type_symbol
 _atom_site_label
 _atom_site_symmetry_multiplicity
 _atom_site_fract_x
 _atom_site_fract_y
 _atom_site_fract_z
 _atom_site_occupancy
  Tb  Tb0  1  0.333490  0.675032  0.063553  1
  Tb  Tb1  1  0.167385  0.175669  0.436174  1
  Tb  Tb2  1  0.669076  0.323993  0.563665  1
  Tb  Tb3  1  0.832244  0.824530  0.936009  1
  Tb  Tb4  1  0.669076  0.323993  0.936335  1
  Tb  Tb5  1  0.832244  0.824530  0.563991  1
  Tb  Tb6  1  0.333490  0.675032  0.436447  1
  Tb  Tb7  1  0.167385  0.175669  0.063826  1
  Tb  Tb8  1  0.869552  0.539702  0.250000  1
  Tb  Tb9  1  0.628775  0.040382  0.250000  1
  Tb  Tb10  1  0.131323  0.459776  0.750000  1
  Tb  Tb11  1  0.368355  0.960515  0.750000  1
  Tc  Tc12  1  0.039852  0.884991  0.250000  1
  Os  Os13  1  0.458762  0.384327  0.250000  1
  Os  Os14  1  0.958268  0.116416  0.750000  1
  Os  Os15  1  0.540724  0.615444  0.750000  1
