# generated using pymatgen
data_RbScSn3O8
_symmetry_space_group_name_H-M   'P 1'
_cell_length_a   7.70823641
_cell_length_b   7.70823695
_cell_length_c   10.71975345
_cell_angle_alpha   46.86754455
_cell_angle_beta   46.86754216
_cell_angle_gamma   24.28293164
_symmetry_Int_Tables_number   1
_chemical_formula_structural   RbScSn3O8
_chemical_formula_sum   'Rb1 Sc1 Sn3 O8'
_cell_volume   187.23062596
_cell_formula_units_Z   1
loop_
 _symmetry_equiv_pos_site_id
 _symmetry_equiv_pos_as_xyz
  1  'x, y, z'
loop_
 _atom_site_type_symbol
 _atom_site_label
 _atom_site_symmetry_multiplicity
 _atom_site_fract_x
 _atom_site_fract_y
 _atom_site_fract_z
 _atom_site_occupancy
  Rb  Rb0  1  0.001457  0.001457  0.000278  1
  Sc  Sc1  1  0.150189  0.150189  0.185579  1
  Sn  Sn2  1  0.845763  0.845763  0.823814  1
  Sn  Sn3  1  0.662389  0.662389  0.483993  1
  Sn  Sn4  1  0.336216  0.336216  0.512969  1
  O  O5  1  0.336236  0.336236  0.704999  1
  O  O6  1  0.666000  0.666000  0.293350  1
  O  O7  1  0.955510  0.955510  0.378269  1
  O  O8  1  0.040299  0.040299  0.625215  1
  O  O9  1  0.352300  0.352300  0.942983  1
  O  O10  1  0.656799  0.656799  0.046447  1
  O  O11  1  0.702440  0.702440  0.641572  1
  O  O12  1  0.294401  0.294401  0.360534  1
