# generated using pymatgen
data_YTa3(NiH6)2
_symmetry_space_group_name_H-M   'P 1'
_cell_length_a   5.99377700
_cell_length_b   5.99298215
_cell_length_c   4.61304500
_cell_angle_alpha   90.00000000
_cell_angle_beta   90.00000000
_cell_angle_gamma   120.00575089
_symmetry_Int_Tables_number   1
_chemical_formula_structural   YTa3(NiH6)2
_chemical_formula_sum   'Y1 Ta3 Ni2 H12'
_cell_volume   143.49498328
_cell_formula_units_Z   1
loop_
 _symmetry_equiv_pos_site_id
 _symmetry_equiv_pos_as_xyz
  1  'x, y, z'
loop_
 _atom_site_type_symbol
 _atom_site_label
 _atom_site_symmetry_multiplicity
 _atom_site_fract_x
 _atom_site_fract_y
 _atom_site_fract_z
 _atom_site_occupancy
  Y  Y0  1  0.000000  0.000000  0.000000  1
  Ta  Ta1  1  0.500000  0.000000  0.500000  1
  Ta  Ta2  1  0.000000  0.500000  0.500000  1
  Ta  Ta3  1  0.500000  0.500000  0.500000  1
  Ni  Ni4  1  0.666720  0.333191  0.000000  1
  Ni  Ni5  1  0.333280  0.666809  0.000000  1
  H  H6  1  0.797344  0.594620  0.758755  1
  H  H7  1  0.202656  0.405380  0.241245  1
  H  H8  1  0.202764  0.797239  0.241066  1
  H  H9  1  0.797236  0.202761  0.241066  1
  H  H10  1  0.594484  0.797278  0.241040  1
  H  H11  1  0.405516  0.202722  0.241040  1
  H  H12  1  0.405516  0.202722  0.758960  1
  H  H13  1  0.202656  0.405380  0.758755  1
  H  H14  1  0.797236  0.202761  0.758934  1
  H  H15  1  0.594484  0.797278  0.758960  1
  H  H16  1  0.797344  0.594620  0.241245  1
  H  H17  1  0.202764  0.797239  0.758934  1
