# generated using pymatgen
data_Tb2PrDy(Ir2O7)2
_symmetry_space_group_name_H-M   'P 1'
_cell_length_a   7.32203639
_cell_length_b   7.27841514
_cell_length_c   7.27841527
_cell_angle_alpha   60.05711242
_cell_angle_beta   60.24980732
_cell_angle_gamma   60.24981084
_symmetry_Int_Tables_number   1
_chemical_formula_structural   Tb2PrDy(Ir2O7)2
_chemical_formula_sum   'Tb2 Pr1 Dy1 Ir4 O14'
_cell_volume   275.42832569
_cell_formula_units_Z   1
loop_
 _symmetry_equiv_pos_site_id
 _symmetry_equiv_pos_as_xyz
  1  'x, y, z'
loop_
 _atom_site_type_symbol
 _atom_site_label
 _atom_site_symmetry_multiplicity
 _atom_site_fract_x
 _atom_site_fract_y
 _atom_site_fract_z
 _atom_site_occupancy
  Tb  Tb0  1  0.125000  0.125000  0.625000  1
  Tb  Tb1  1  0.125000  0.625000  0.125000  1
  Pr  Pr2  1  0.625000  0.125000  0.125000  1
  Dy  Dy3  1  0.125000  0.125000  0.125000  1
  Ir  Ir4  1  0.625000  0.625000  0.625000  1
  Ir  Ir5  1  0.125000  0.625000  0.625000  1
  Ir  Ir6  1  0.625000  0.125000  0.625000  1
  Ir  Ir7  1  0.625000  0.625000  0.125000  1
  O  O8  1  0.960965  0.539489  0.539489  1
  O  O9  1  0.288697  0.289846  0.711284  1
  O  O10  1  0.961303  0.538716  0.960154  1
  O  O11  1  0.719609  0.289471  0.289471  1
  O  O12  1  0.531299  0.548203  0.960107  1
  O  O13  1  0.531299  0.960107  0.548203  1
  O  O14  1  0.530391  0.960529  0.960529  1
  O  O15  1  0.239132  0.252936  0.252936  1
  O  O16  1  0.289035  0.710511  0.710511  1
  O  O17  1  0.718701  0.289893  0.701797  1
  O  O18  1  0.010868  0.997064  0.997064  1
  O  O19  1  0.961303  0.960154  0.538716  1
  O  O20  1  0.288697  0.711284  0.289846  1
  O  O21  1  0.718701  0.701797  0.289893  1
