# generated using pymatgen
data_Lu5Si6P6Ir19
_symmetry_space_group_name_H-M   'P 1'
_cell_length_a   12.72516700
_cell_length_b   12.72516598
_cell_length_c   3.93935200
_cell_angle_alpha   90.00000000
_cell_angle_beta   90.00000000
_cell_angle_gamma   120.00000005
_symmetry_Int_Tables_number   1
_chemical_formula_structural   Lu5Si6P6Ir19
_chemical_formula_sum   'Lu5 Si6 P6 Ir19'
_cell_volume   552.43650190
_cell_formula_units_Z   1
loop_
 _symmetry_equiv_pos_site_id
 _symmetry_equiv_pos_as_xyz
  1  'x, y, z'
loop_
 _atom_site_type_symbol
 _atom_site_label
 _atom_site_symmetry_multiplicity
 _atom_site_fract_x
 _atom_site_fract_y
 _atom_site_fract_z
 _atom_site_occupancy
  Lu  Lu0  1  0.333333  0.666667  0.000000  1
  Lu  Lu1  1  0.666667  0.333333  0.000000  1
  Lu  Lu2  1  0.816837  0.000000  0.500000  1
  Lu  Lu3  1  0.000000  0.816837  0.500000  1
  Lu  Lu4  1  0.183163  0.183163  0.500000  1
  Si  Si5  1  0.167804  0.482856  0.500000  1
  Si  Si6  1  0.517144  0.684947  0.500000  1
  Si  Si7  1  0.315053  0.832196  0.500000  1
  Si  Si8  1  0.684947  0.517144  0.500000  1
  Si  Si9  1  0.832196  0.315053  0.500000  1
  Si  Si10  1  0.482856  0.167804  0.500000  1
  P  P11  1  0.177680  0.000000  0.000000  1
  P  P12  1  0.000000  0.177680  0.000000  1
  P  P13  1  0.822320  0.822320  0.000000  1
  P  P14  1  0.637895  0.000000  0.000000  1
  P  P15  1  0.000000  0.637895  0.000000  1
  P  P16  1  0.362105  0.362105  0.000000  1
  Ir  Ir17  1  0.453641  0.000000  0.000000  1
  Ir  Ir18  1  0.000000  0.453641  0.000000  1
  Ir  Ir19  1  0.546359  0.546359  0.000000  1
  Ir  Ir20  1  0.358121  0.487009  0.500000  1
  Ir  Ir21  1  0.512991  0.871112  0.500000  1
  Ir  Ir22  1  0.128888  0.641879  0.500000  1
  Ir  Ir23  1  0.871112  0.512991  0.500000  1
  Ir  Ir24  1  0.641879  0.128888  0.500000  1
  Ir  Ir25  1  0.487009  0.358121  0.500000  1
  Ir  Ir26  1  0.180693  0.370340  0.000000  1
  Ir  Ir27  1  0.629660  0.810355  0.000000  1
  Ir  Ir28  1  0.189645  0.819307  0.000000  1
  Ir  Ir29  1  0.810355  0.629660  0.000000  1
  Ir  Ir30  1  0.819307  0.189645  0.000000  1
  Ir  Ir31  1  0.370340  0.180693  0.000000  1
  Ir  Ir32  1  0.278644  0.000000  0.500000  1
  Ir  Ir33  1  0.000000  0.278644  0.500000  1
  Ir  Ir34  1  0.721356  0.721356  0.500000  1
  Ir  Ir35  1  0.000000  0.000000  0.000000  1
