# generated using pymatgen
data_TbY2(Ni3As2)3
_symmetry_space_group_name_H-M   'P 1'
_cell_length_a   3.90360300
_cell_length_b   10.87667100
_cell_length_c   12.75128200
_cell_angle_alpha   90.00000000
_cell_angle_beta   90.00000000
_cell_angle_gamma   90.00000000
_symmetry_Int_Tables_number   1
_chemical_formula_structural   TbY2(Ni3As2)3
_chemical_formula_sum   'Tb2 Y4 Ni18 As12'
_cell_volume   541.39655213
_cell_formula_units_Z   2
loop_
 _symmetry_equiv_pos_site_id
 _symmetry_equiv_pos_as_xyz
  1  'x, y, z'
loop_
 _atom_site_type_symbol
 _atom_site_label
 _atom_site_symmetry_multiplicity
 _atom_site_fract_x
 _atom_site_fract_y
 _atom_site_fract_z
 _atom_site_occupancy
  Tb  Tb0  1  0.000000  0.500000  0.523450  1
  Tb  Tb1  1  0.500000  0.000000  0.476550  1
  Y  Y2  1  0.500000  0.816268  0.206283  1
  Y  Y3  1  0.500000  0.183732  0.206283  1
  Y  Y4  1  0.000000  0.683732  0.793717  1
  Y  Y5  1  0.000000  0.316268  0.793717  1
  Ni  Ni6  1  0.500000  0.500000  0.156323  1
  Ni  Ni7  1  0.000000  0.000000  0.843677  1
  Ni  Ni8  1  0.500000  0.500000  0.699362  1
  Ni  Ni9  1  0.000000  0.000000  0.300638  1
  Ni  Ni10  1  0.000000  0.500000  0.982768  1
  Ni  Ni11  1  0.500000  0.000000  0.017232  1
  Ni  Ni12  1  0.500000  0.333060  0.997369  1
  Ni  Ni13  1  0.500000  0.666940  0.997369  1
  Ni  Ni14  1  0.000000  0.166940  0.002631  1
  Ni  Ni15  1  0.000000  0.833060  0.002631  1
  Ni  Ni16  1  0.500000  0.303116  0.426453  1
  Ni  Ni17  1  0.500000  0.696884  0.426453  1
  Ni  Ni18  1  0.000000  0.196884  0.573547  1
  Ni  Ni19  1  0.000000  0.803116  0.573547  1
  Ni  Ni20  1  0.500000  0.879949  0.707664  1
  Ni  Ni21  1  0.500000  0.120051  0.707664  1
  Ni  Ni22  1  0.000000  0.620051  0.292336  1
  Ni  Ni23  1  0.000000  0.379949  0.292336  1
  As  As24  1  0.500000  0.500000  0.876616  1
  As  As25  1  0.000000  0.000000  0.123384  1
  As  As26  1  0.500000  0.500000  0.344752  1
  As  As27  1  0.000000  0.000000  0.655248  1
  As  As28  1  0.500000  0.314066  0.613590  1
  As  As29  1  0.500000  0.685934  0.613590  1
  As  As30  1  0.000000  0.185934  0.386410  1
  As  As31  1  0.000000  0.814066  0.386410  1
  As  As32  1  0.500000  0.847334  0.890713  1
  As  As33  1  0.500000  0.152666  0.890713  1
  As  As34  1  0.000000  0.652666  0.109287  1
  As  As35  1  0.000000  0.347334  0.109287  1
