# generated using pymatgen
data_Ho5(Hg2Pd)2
_symmetry_space_group_name_H-M   'P 1'
_cell_length_a   3.61106000
_cell_length_b   7.94915500
_cell_length_c   18.20150500
_cell_angle_alpha   90.00000000
_cell_angle_beta   90.00000000
_cell_angle_gamma   90.00000000
_symmetry_Int_Tables_number   1
_chemical_formula_structural   Ho5(Hg2Pd)2
_chemical_formula_sum   'Ho10 Hg8 Pd4'
_cell_volume   522.47193775
_cell_formula_units_Z   2
loop_
 _symmetry_equiv_pos_site_id
 _symmetry_equiv_pos_as_xyz
  1  'x, y, z'
loop_
 _atom_site_type_symbol
 _atom_site_label
 _atom_site_symmetry_multiplicity
 _atom_site_fract_x
 _atom_site_fract_y
 _atom_site_fract_z
 _atom_site_occupancy
  Ho  Ho0  1  0.000000  0.500000  0.500000  1
  Ho  Ho1  1  0.000000  0.000000  0.000000  1
  Ho  Ho2  1  0.000000  0.736075  0.284360  1
  Ho  Ho3  1  0.000000  0.263925  0.715640  1
  Ho  Ho4  1  0.000000  0.763925  0.784360  1
  Ho  Ho5  1  0.000000  0.236075  0.215640  1
  Ho  Ho6  1  0.000000  0.613581  0.083125  1
  Ho  Ho7  1  0.000000  0.386419  0.916875  1
  Ho  Ho8  1  0.000000  0.886419  0.583125  1
  Ho  Ho9  1  0.000000  0.113581  0.416875  1
  Hg  Hg10  1  0.500000  0.712946  0.934417  1
  Hg  Hg11  1  0.500000  0.287054  0.065583  1
  Hg  Hg12  1  0.500000  0.787054  0.434417  1
  Hg  Hg13  1  0.500000  0.212946  0.565583  1
  Hg  Hg14  1  0.500000  0.582783  0.648407  1
  Hg  Hg15  1  0.500000  0.417217  0.351593  1
  Hg  Hg16  1  0.500000  0.917217  0.148407  1
  Hg  Hg17  1  0.500000  0.082783  0.851593  1
  Pd  Pd18  1  0.500000  0.526427  0.195888  1
  Pd  Pd19  1  0.500000  0.473573  0.804112  1
  Pd  Pd20  1  0.500000  0.973573  0.695888  1
  Pd  Pd21  1  0.500000  0.026427  0.304112  1
