# generated using pymatgen
data_La3YTi4Cr4O20
_symmetry_space_group_name_H-M   'P 1'
_cell_length_a   5.89551600
_cell_length_b   7.70097251
_cell_length_c   8.74631461
_cell_angle_alpha   90.11354924
_cell_angle_beta   90.00000000
_cell_angle_gamma   90.00000000
_symmetry_Int_Tables_number   1
_chemical_formula_structural   La3YTi4Cr4O20
_chemical_formula_sum   'La3 Y1 Ti4 Cr4 O20'
_cell_volume   397.09245733
_cell_formula_units_Z   1
loop_
 _symmetry_equiv_pos_site_id
 _symmetry_equiv_pos_as_xyz
  1  'x, y, z'
loop_
 _atom_site_type_symbol
 _atom_site_label
 _atom_site_symmetry_multiplicity
 _atom_site_fract_x
 _atom_site_fract_y
 _atom_site_fract_z
 _atom_site_occupancy
  La  La0  1  0.500000  0.356470  0.327446  1
  La  La1  1  0.500000  0.642652  0.671949  1
  La  La2  1  0.500000  0.140039  0.830385  1
  Y  Y3  1  0.500000  0.853852  0.173150  1
  Ti  Ti4  1  0.000000  0.115009  0.144267  1
  Ti  Ti5  1  0.000000  0.880089  0.858841  1
  Ti  Ti6  1  0.000000  0.381138  0.641327  1
  Ti  Ti7  1  0.000000  0.622573  0.354703  1
  Cr  Cr8  1  0.251014  0.998479  0.498938  1
  Cr  Cr9  1  0.748986  0.998479  0.498938  1
  Cr  Cr10  1  0.749848  0.503404  0.001082  1
  Cr  Cr11  1  0.250152  0.503404  0.001082  1
  O  O12  1  0.246558  0.094808  0.284840  1
  O  O13  1  0.757085  0.898157  0.713459  1
  O  O14  1  0.242915  0.898157  0.713459  1
  O  O15  1  0.757480  0.398496  0.787001  1
  O  O16  1  0.753442  0.094808  0.284840  1
  O  O17  1  0.245701  0.616024  0.210835  1
  O  O18  1  0.754299  0.616024  0.210835  1
  O  O19  1  0.242520  0.398496  0.787001  1
  O  O20  1  0.000000  0.339113  0.078435  1
  O  O21  1  0.000000  0.659682  0.925226  1
  O  O22  1  0.000000  0.161181  0.570673  1
  O  O23  1  0.000000  0.838031  0.431606  1
  O  O24  1  0.500000  0.342226  0.055379  1
  O  O25  1  0.500000  0.666570  0.949523  1
  O  O26  1  0.500000  0.160139  0.553940  1
  O  O27  1  0.500000  0.838110  0.438452  1
  O  O28  1  0.215972  0.993063  0.004178  1
  O  O29  1  0.784028  0.993063  0.004178  1
  O  O30  1  0.787458  0.499132  0.497015  1
  O  O31  1  0.212542  0.499132  0.497015  1
