# generated using pymatgen
data_Y20Sn15Pb
_symmetry_space_group_name_H-M   'P 1'
_cell_length_a   8.05270206
_cell_length_b   8.19265972
_cell_length_c   15.49022700
_cell_angle_alpha   90.02357526
_cell_angle_beta   89.99321931
_cell_angle_gamma   90.00427585
_symmetry_Int_Tables_number   1
_chemical_formula_structural   Y20Sn15Pb
_chemical_formula_sum   'Y20 Sn15 Pb1'
_cell_volume   1021.93738894
_cell_formula_units_Z   1
loop_
 _symmetry_equiv_pos_site_id
 _symmetry_equiv_pos_as_xyz
  1  'x, y, z'
loop_
 _atom_site_type_symbol
 _atom_site_label
 _atom_site_symmetry_multiplicity
 _atom_site_fract_x
 _atom_site_fract_y
 _atom_site_fract_z
 _atom_site_occupancy
  Y  Y0  1  0.368277  0.835070  0.877037  1
  Y  Y1  1  0.867764  0.663841  0.621905  1
  Y  Y2  1  0.632372  0.163867  0.377986  1
  Y  Y3  1  0.131331  0.338608  0.122466  1
  Y  Y4  1  0.634055  0.164022  0.122372  1
  Y  Y5  1  0.132402  0.336311  0.378146  1
  Y  Y6  1  0.367706  0.836157  0.622085  1
  Y  Y7  1  0.867942  0.663893  0.878053  1
  Y  Y8  1  0.522174  0.321360  0.901773  1
  Y  Y9  1  0.021105  0.179509  0.597839  1
  Y  Y10  1  0.478896  0.679524  0.402276  1
  Y  Y11  1  0.976710  0.818661  0.098141  1
  Y  Y12  1  0.479728  0.677597  0.098111  1
  Y  Y13  1  0.978815  0.820298  0.402334  1
  Y  Y14  1  0.521076  0.320373  0.597751  1
  Y  Y15  1  0.019539  0.180608  0.901278  1
  Y  Y16  1  0.198662  0.502471  0.749908  1
  Y  Y17  1  0.698865  0.997412  0.749906  1
  Y  Y18  1  0.801188  0.497595  0.250127  1
  Y  Y19  1  0.301617  0.002555  0.251272  1
  Sn  Sn20  1  0.792401  0.464613  0.458249  1
  Sn  Sn21  1  0.707561  0.964664  0.541762  1
  Sn  Sn22  1  0.207797  0.535245  0.958197  1
  Sn  Sn23  1  0.707644  0.964870  0.958085  1
  Sn  Sn24  1  0.207602  0.535193  0.541804  1
  Sn  Sn25  1  0.292395  0.035306  0.458424  1
  Sn  Sn26  1  0.792301  0.464560  0.041658  1
  Sn  Sn27  1  0.565541  0.618383  0.749762  1
  Sn  Sn28  1  0.065269  0.881311  0.749939  1
  Sn  Sn29  1  0.434677  0.380999  0.250011  1
  Sn  Sn30  1  0.935315  0.118715  0.249934  1
  Sn  Sn31  1  0.329650  0.146918  0.750019  1
  Sn  Sn32  1  0.829385  0.353414  0.749757  1
  Sn  Sn33  1  0.670227  0.853044  0.250102  1
  Sn  Sn34  1  0.170312  0.647259  0.250144  1
  Pb  Pb35  1  0.291698  0.035772  0.041388  1
