# generated using pymatgen
data_HoTm5Al24(RuRh3)2
_symmetry_space_group_name_H-M   'P 1'
_cell_length_a   8.79558216
_cell_length_b   8.79558235
_cell_length_c   9.46279000
_cell_angle_alpha   90.00000000
_cell_angle_beta   90.00000000
_cell_angle_gamma   119.94108276
_symmetry_Int_Tables_number   1
_chemical_formula_structural   HoTm5Al24(RuRh3)2
_chemical_formula_sum   'Ho1 Tm5 Al24 Ru2 Rh6'
_cell_volume   634.36111384
_cell_formula_units_Z   1
loop_
 _symmetry_equiv_pos_site_id
 _symmetry_equiv_pos_as_xyz
  1  'x, y, z'
loop_
 _atom_site_type_symbol
 _atom_site_label
 _atom_site_symmetry_multiplicity
 _atom_site_fract_x
 _atom_site_fract_y
 _atom_site_fract_z
 _atom_site_occupancy
  Ho  Ho0  1  0.808360  0.191640  0.750000  1
  Tm  Tm1  1  0.192207  0.384518  0.250000  1
  Tm  Tm2  1  0.807944  0.616075  0.750000  1
  Tm  Tm3  1  0.615482  0.807793  0.250000  1
  Tm  Tm4  1  0.383925  0.192056  0.750000  1
  Tm  Tm5  1  0.192292  0.807708  0.250000  1
  Al  Al6  1  0.333272  0.666728  0.032256  1
  Al  Al7  1  0.666535  0.333465  0.967922  1
  Al  Al8  1  0.666535  0.333465  0.532078  1
  Al  Al9  1  0.333272  0.666728  0.467744  1
  Al  Al10  1  0.163225  0.326123  0.576337  1
  Al  Al11  1  0.837005  0.673984  0.423664  1
  Al  Al12  1  0.673877  0.836775  0.576337  1
  Al  Al13  1  0.837005  0.673984  0.076336  1
  Al  Al14  1  0.326016  0.162995  0.423664  1
  Al  Al15  1  0.163225  0.326123  0.923663  1
  Al  Al16  1  0.163051  0.836949  0.576382  1
  Al  Al17  1  0.326016  0.162995  0.076336  1
  Al  Al18  1  0.836949  0.163051  0.423480  1
  Al  Al19  1  0.673877  0.836775  0.923663  1
  Al  Al20  1  0.836949  0.163051  0.076520  1
  Al  Al21  1  0.163051  0.836949  0.923618  1
  Al  Al22  1  0.561635  0.123120  0.250000  1
  Al  Al23  1  0.438095  0.876554  0.750000  1
  Al  Al24  1  0.876880  0.438365  0.250000  1
  Al  Al25  1  0.123446  0.561905  0.750000  1
  Al  Al26  1  0.561595  0.438405  0.250000  1
  Al  Al27  1  0.438428  0.561572  0.750000  1
  Al  Al28  1  0.000038  0.999962  0.250000  1
  Al  Al29  1  0.000152  0.999848  0.750000  1
  Ru  Ru30  1  0.999970  0.000030  0.000386  1
  Ru  Ru31  1  0.999970  0.000030  0.499614  1
  Rh  Rh32  1  0.499809  0.999908  0.000223  1
  Rh  Rh33  1  0.000092  0.500191  0.000223  1
  Rh  Rh34  1  0.499809  0.999908  0.499777  1
  Rh  Rh35  1  0.499959  0.500041  0.000175  1
  Rh  Rh36  1  0.000092  0.500191  0.499777  1
  Rh  Rh37  1  0.499959  0.500041  0.499825  1
