# generated using pymatgen
data_KLaPt4
_symmetry_space_group_name_H-M   'P 1'
_cell_length_a   5.54671243
_cell_length_b   5.54671255
_cell_length_c   5.54671300
_cell_angle_alpha   60.00000329
_cell_angle_beta   60.00000259
_cell_angle_gamma   60.00000243
_symmetry_Int_Tables_number   1
_chemical_formula_structural   KLaPt4
_chemical_formula_sum   'K1 La1 Pt4'
_cell_volume   120.66797790
_cell_formula_units_Z   1
loop_
 _symmetry_equiv_pos_site_id
 _symmetry_equiv_pos_as_xyz
  1  'x, y, z'
loop_
 _atom_site_type_symbol
 _atom_site_label
 _atom_site_symmetry_multiplicity
 _atom_site_fract_x
 _atom_site_fract_y
 _atom_site_fract_z
 _atom_site_occupancy
  K  K0  1  0.250000  0.250000  0.250000  1
  La  La1  1  0.000000  0.000000  0.000000  1
  Pt  Pt2  1  0.624894  0.624894  0.125320  1
  Pt  Pt3  1  0.624894  0.125320  0.624894  1
  Pt  Pt4  1  0.125320  0.624894  0.624894  1
  Pt  Pt5  1  0.624894  0.624894  0.624894  1
