# generated using pymatgen
data_Ce2Fe2Si3Au
_symmetry_space_group_name_H-M   'P 1'
_cell_length_a   8.77574372
_cell_length_b   8.77574387
_cell_length_c   4.10042300
_cell_angle_alpha   90.00000000
_cell_angle_beta   90.00000000
_cell_angle_gamma   153.28297071
_symmetry_Int_Tables_number   1
_chemical_formula_structural   Ce2Fe2Si3Au
_chemical_formula_sum   'Ce2 Fe2 Si3 Au1'
_cell_volume   141.97368879
_cell_formula_units_Z   1
loop_
 _symmetry_equiv_pos_site_id
 _symmetry_equiv_pos_as_xyz
  1  'x, y, z'
loop_
 _atom_site_type_symbol
 _atom_site_label
 _atom_site_symmetry_multiplicity
 _atom_site_fract_x
 _atom_site_fract_y
 _atom_site_fract_z
 _atom_site_occupancy
  Ce  Ce0  1  0.617362  0.382638  0.250000  1
  Ce  Ce1  1  0.379475  0.620525  0.750000  1
  Fe  Fe2  1  0.249311  0.750689  0.250000  1
  Fe  Fe3  1  0.750256  0.249744  0.750000  1
  Si  Si4  1  0.042745  0.957255  0.750000  1
  Si  Si5  1  0.813289  0.186711  0.250000  1
  Si  Si6  1  0.184731  0.815269  0.750000  1
  Au  Au7  1  0.962833  0.037167  0.250000  1
