# generated using pymatgen
data_Y3Ho3Al16(SiOs)8
_symmetry_space_group_name_H-M   'P 1'
_cell_length_a   8.69094331
_cell_length_b   8.69169222
_cell_length_c   9.43779700
_cell_angle_alpha   90.00000000
_cell_angle_beta   90.00000000
_cell_angle_gamma   120.06169310
_symmetry_Int_Tables_number   1
_chemical_formula_structural   Y3Ho3Al16(SiOs)8
_chemical_formula_sum   'Y3 Ho3 Al16 Si8 Os8'
_cell_volume   617.02420384
_cell_formula_units_Z   1
loop_
 _symmetry_equiv_pos_site_id
 _symmetry_equiv_pos_as_xyz
  1  'x, y, z'
loop_
 _atom_site_type_symbol
 _atom_site_label
 _atom_site_symmetry_multiplicity
 _atom_site_fract_x
 _atom_site_fract_y
 _atom_site_fract_z
 _atom_site_occupancy
  Y  Y0  1  0.191925  0.386931  0.250000  1
  Y  Y1  1  0.807692  0.612676  0.750000  1
  Y  Y2  1  0.613054  0.808000  0.250000  1
  Ho  Ho3  1  0.387855  0.192220  0.750000  1
  Ho  Ho4  1  0.194531  0.805381  0.250000  1
  Ho  Ho5  1  0.805126  0.194594  0.750000  1
  Al  Al6  1  0.165587  0.329210  0.578507  1
  Al  Al7  1  0.834670  0.670800  0.421496  1
  Al  Al8  1  0.670734  0.834629  0.578350  1
  Al  Al9  1  0.834670  0.670800  0.078504  1
  Al  Al10  1  0.329295  0.165446  0.421767  1
  Al  Al11  1  0.165587  0.329210  0.921493  1
  Al  Al12  1  0.164788  0.835625  0.577949  1
  Al  Al13  1  0.329295  0.165446  0.078233  1
  Al  Al14  1  0.835427  0.164619  0.422068  1
  Al  Al15  1  0.670734  0.834629  0.921650  1
  Al  Al16  1  0.835427  0.164619  0.077932  1
  Al  Al17  1  0.164788  0.835625  0.922051  1
  Al  Al18  1  0.565212  0.434758  0.250000  1
  Al  Al19  1  0.434648  0.564851  0.750000  1
  Al  Al20  1  0.000372  0.999662  0.250000  1
  Al  Al21  1  0.000246  0.000685  0.750000  1
  Si  Si22  1  0.334700  0.665278  0.039606  1
  Si  Si23  1  0.664747  0.334422  0.959998  1
  Si  Si24  1  0.664747  0.334422  0.540002  1
  Si  Si25  1  0.334700  0.665278  0.460394  1
  Si  Si26  1  0.563802  0.124521  0.250000  1
  Si  Si27  1  0.436018  0.875854  0.750000  1
  Si  Si28  1  0.875490  0.436150  0.250000  1
  Si  Si29  1  0.124607  0.563832  0.750000  1
  Os  Os30  1  0.499895  0.000279  0.999812  1
  Os  Os31  1  0.999895  0.500019  0.999938  1
  Os  Os32  1  0.499895  0.000279  0.500188  1
  Os  Os33  1  0.499872  0.499578  0.999690  1
  Os  Os34  1  0.999895  0.500019  0.500062  1
  Os  Os35  1  0.499872  0.499578  0.500310  1
  Os  Os36  1  0.000100  0.000038  0.999948  1
  Os  Os37  1  0.000100  0.000038  0.500052  1
