# generated using pymatgen
data_Co2SiMo2P
_symmetry_space_group_name_H-M   'P 1'
_cell_length_a   3.70554600
_cell_length_b   5.90666200
_cell_length_c   6.83544000
_cell_angle_alpha   90.00000000
_cell_angle_beta   90.00000000
_cell_angle_gamma   90.00000000
_symmetry_Int_Tables_number   1
_chemical_formula_structural   Co2SiMo2P
_chemical_formula_sum   'Co4 Si2 Mo4 P2'
_cell_volume   149.61006241
_cell_formula_units_Z   2
loop_
 _symmetry_equiv_pos_site_id
 _symmetry_equiv_pos_as_xyz
  1  'x, y, z'
loop_
 _atom_site_type_symbol
 _atom_site_label
 _atom_site_symmetry_multiplicity
 _atom_site_fract_x
 _atom_site_fract_y
 _atom_site_fract_z
 _atom_site_occupancy
  Co  Co0  1  0.750000  0.641060  0.431426  1
  Co  Co1  1  0.250000  0.854834  0.942961  1
  Co  Co2  1  0.750000  0.141060  0.068574  1
  Co  Co3  1  0.250000  0.354834  0.557039  1
  Si  Si4  1  0.250000  0.731261  0.621363  1
  Si  Si5  1  0.250000  0.231261  0.878637  1
  Mo  Mo6  1  0.250000  0.473916  0.176075  1
  Mo  Mo7  1  0.250000  0.973916  0.323925  1
  Mo  Mo8  1  0.750000  0.030336  0.670809  1
  Mo  Mo9  1  0.750000  0.530336  0.829191  1
  P  P10  1  0.750000  0.268593  0.380611  1
  P  P11  1  0.750000  0.768593  0.119389  1
