# generated using pymatgen
data_Y10Pb6AuBr
_symmetry_space_group_name_H-M   'P 1'
_cell_length_a   9.31324800
_cell_length_b   9.31330015
_cell_length_c   6.72236400
_cell_angle_alpha   90.00076900
_cell_angle_beta   90.00011074
_cell_angle_gamma   120.00051092
_symmetry_Int_Tables_number   1
_chemical_formula_structural   Y10Pb6AuBr
_chemical_formula_sum   'Y10 Pb6 Au1 Br1'
_cell_volume   504.95791984
_cell_formula_units_Z   1
loop_
 _symmetry_equiv_pos_site_id
 _symmetry_equiv_pos_as_xyz
  1  'x, y, z'
loop_
 _atom_site_type_symbol
 _atom_site_label
 _atom_site_symmetry_multiplicity
 _atom_site_fract_x
 _atom_site_fract_y
 _atom_site_fract_z
 _atom_site_occupancy
  Y  Y0  1  0.262753  0.000001  0.252600  1
  Y  Y1  1  0.737247  0.999999  0.747400  1
  Y  Y2  1  0.999999  0.262752  0.252603  1
  Y  Y3  1  0.000001  0.737248  0.747397  1
  Y  Y4  1  0.737247  0.737249  0.252603  1
  Y  Y5  1  0.262753  0.262751  0.747397  1
  Y  Y6  1  0.333325  0.666670  0.000000  1
  Y  Y7  1  0.666675  0.333330  0.000000  1
  Y  Y8  1  0.666664  0.333336  0.500001  1
  Y  Y9  1  0.333336  0.666664  0.499999  1
  Pb  Pb10  1  0.610899  0.000005  0.249048  1
  Pb  Pb11  1  0.389101  0.999995  0.750952  1
  Pb  Pb12  1  0.000013  0.610894  0.249065  1
  Pb  Pb13  1  0.999987  0.389106  0.750935  1
  Pb  Pb14  1  0.389144  0.389132  0.249035  1
  Pb  Pb15  1  0.610856  0.610868  0.750965  1
  Au  Au16  1  0.000000  0.000000  0.500000  1
  Br  Br17  1  0.000000  0.000000  0.000000  1
