# generated using pymatgen
data_Cs4Rb4Hf(ZrTe4)3
_symmetry_space_group_name_H-M   'P 1'
_cell_length_a   14.91936758
_cell_length_b   7.01222356
_cell_length_c   10.08833066
_cell_angle_alpha   71.39217639
_cell_angle_beta   90.00700067
_cell_angle_gamma   90.03178596
_symmetry_Int_Tables_number   1
_chemical_formula_structural   Cs4Rb4Hf(ZrTe4)3
_chemical_formula_sum   'Cs4 Rb4 Hf1 Zr3 Te12'
_cell_volume   1000.24796411
_cell_formula_units_Z   1
loop_
 _symmetry_equiv_pos_site_id
 _symmetry_equiv_pos_as_xyz
  1  'x, y, z'
loop_
 _atom_site_type_symbol
 _atom_site_label
 _atom_site_symmetry_multiplicity
 _atom_site_fract_x
 _atom_site_fract_y
 _atom_site_fract_z
 _atom_site_occupancy
  Cs  Cs0  1  0.951931  0.674372  0.653892  1
  Cs  Cs1  1  0.452126  0.825585  0.346046  1
  Cs  Cs2  1  0.047866  0.325309  0.346002  1
  Cs  Cs3  1  0.548093  0.174146  0.653879  1
  Rb  Rb4  1  0.864163  0.078478  0.905599  1
  Rb  Rb5  1  0.364284  0.421574  0.094629  1
  Rb  Rb6  1  0.135652  0.921423  0.094634  1
  Rb  Rb7  1  0.635831  0.578529  0.905371  1
  Hf  Hf8  1  0.748370  0.671739  0.294440  1
  Zr  Zr9  1  0.248269  0.827448  0.705457  1
  Zr  Zr10  1  0.251753  0.327502  0.705407  1
  Zr  Zr11  1  0.751677  0.173115  0.294836  1
  Te  Te12  1  0.908076  0.903867  0.269713  1
  Te  Te13  1  0.409059  0.593349  0.731220  1
  Te  Te14  1  0.090917  0.093305  0.731153  1
  Te  Te15  1  0.591751  0.409203  0.269635  1
  Te  Te16  1  0.809943  0.296774  0.521875  1
  Te  Te17  1  0.309719  0.206757  0.476536  1
  Te  Te18  1  0.190304  0.706712  0.476573  1
  Te  Te19  1  0.690068  0.791836  0.521343  1
  Te  Te20  1  0.845634  0.494878  0.093982  1
  Te  Te21  1  0.346407  0.007547  0.906645  1
  Te  Te22  1  0.153565  0.507400  0.906693  1
  Te  Te23  1  0.654543  0.989151  0.094440  1
