# generated using pymatgen
data_Y7Cd(Sn11Os3)2
_symmetry_space_group_name_H-M   'P 1'
_cell_length_a   9.85256400
_cell_length_b   9.85256388
_cell_length_c   10.18094400
_cell_angle_alpha   90.00000000
_cell_angle_beta   90.00000000
_cell_angle_gamma   120.00000712
_symmetry_Int_Tables_number   1
_chemical_formula_structural   Y7Cd(Sn11Os3)2
_chemical_formula_sum   'Y7 Cd1 Sn22 Os6'
_cell_volume   855.88846456
_cell_formula_units_Z   1
loop_
 _symmetry_equiv_pos_site_id
 _symmetry_equiv_pos_as_xyz
  1  'x, y, z'
loop_
 _atom_site_type_symbol
 _atom_site_label
 _atom_site_symmetry_multiplicity
 _atom_site_fract_x
 _atom_site_fract_y
 _atom_site_fract_z
 _atom_site_occupancy
  Y  Y0  1  0.000000  0.000000  0.000000  1
  Y  Y1  1  0.033429  0.516714  0.305424  1
  Y  Y2  1  0.483286  0.966571  0.305424  1
  Y  Y3  1  0.483286  0.516714  0.305424  1
  Y  Y4  1  0.966571  0.483286  0.694576  1
  Y  Y5  1  0.516714  0.033429  0.694576  1
  Y  Y6  1  0.516714  0.483286  0.694576  1
  Cd  Cd7  1  0.000000  0.000000  0.500000  1
  Sn  Sn8  1  0.121806  0.878194  0.269073  1
  Sn  Sn9  1  0.756388  0.878194  0.269073  1
  Sn  Sn10  1  0.121806  0.243612  0.269073  1
  Sn  Sn11  1  0.878194  0.121806  0.730927  1
  Sn  Sn12  1  0.243612  0.121806  0.730927  1
  Sn  Sn13  1  0.878194  0.756388  0.730927  1
  Sn  Sn14  1  0.349495  0.000000  0.000000  1
  Sn  Sn15  1  0.650505  0.650505  0.000000  1
  Sn  Sn16  1  0.000000  0.349495  0.000000  1
  Sn  Sn17  1  0.349495  0.349495  0.000000  1
  Sn  Sn18  1  0.000000  0.650505  0.000000  1
  Sn  Sn19  1  0.650505  0.000000  0.000000  1
  Sn  Sn20  1  0.779010  0.558021  0.461370  1
  Sn  Sn21  1  0.779010  0.220990  0.461370  1
  Sn  Sn22  1  0.441979  0.220990  0.461370  1
  Sn  Sn23  1  0.220990  0.441979  0.538630  1
  Sn  Sn24  1  0.220990  0.779010  0.538630  1
  Sn  Sn25  1  0.558021  0.779010  0.538630  1
  Sn  Sn26  1  0.666667  0.333333  0.172961  1
  Sn  Sn27  1  0.333333  0.666667  0.827039  1
  Sn  Sn28  1  0.666667  0.333333  0.872984  1
  Sn  Sn29  1  0.333333  0.666667  0.127016  1
  Os  Os30  1  0.168851  0.831149  0.795970  1
  Os  Os31  1  0.662299  0.831149  0.795970  1
  Os  Os32  1  0.168851  0.337701  0.795970  1
  Os  Os33  1  0.831149  0.168851  0.204030  1
  Os  Os34  1  0.337701  0.168851  0.204030  1
  Os  Os35  1  0.831149  0.662299  0.204030  1
