# generated using pymatgen
data_TbPr3(Si5Os3)2
_symmetry_space_group_name_H-M   'P 1'
_cell_length_a   8.22430676
_cell_length_b   8.21198708
_cell_length_c   5.88039530
_cell_angle_alpha   70.42051301
_cell_angle_beta   70.33273541
_cell_angle_gamma   93.63446647
_symmetry_Int_Tables_number   1
_chemical_formula_structural   TbPr3(Si5Os3)2
_chemical_formula_sum   'Tb1 Pr3 Si10 Os6'
_cell_volume   345.33977451
_cell_formula_units_Z   1
loop_
 _symmetry_equiv_pos_site_id
 _symmetry_equiv_pos_as_xyz
  1  'x, y, z'
loop_
 _atom_site_type_symbol
 _atom_site_label
 _atom_site_symmetry_multiplicity
 _atom_site_fract_x
 _atom_site_fract_y
 _atom_site_fract_z
 _atom_site_occupancy
  Tb  Tb0  1  0.602169  0.867907  0.254877  1
  Pr  Pr1  1  0.868235  0.602691  0.754132  1
  Pr  Pr2  1  0.396839  0.133293  0.744877  1
  Pr  Pr3  1  0.133250  0.396489  0.245295  1
  Si  Si4  1  0.061423  0.261263  0.836592  1
  Si  Si5  1  0.738944  0.937675  0.664727  1
  Si  Si6  1  0.934406  0.740811  0.163835  1
  Si  Si7  1  0.260075  0.059302  0.337116  1
  Si  Si8  1  0.208444  0.791431  0.751401  1
  Si  Si9  1  0.789737  0.206533  0.250041  1
  Si  Si10  1  0.513462  0.489182  0.749483  1
  Si  Si11  1  0.490135  0.514996  0.247320  1
  Si  Si12  1  0.771789  0.226149  0.752433  1
  Si  Si13  1  0.230987  0.772436  0.249154  1
  Os  Os14  1  0.259518  0.543550  0.630904  1
  Os  Os15  1  0.459388  0.744520  0.865488  1
  Os  Os16  1  0.743064  0.457625  0.368310  1
  Os  Os17  1  0.541460  0.254797  0.132456  1
  Os  Os18  1  0.001418  0.997036  0.750887  1
  Os  Os19  1  0.995258  0.002317  0.250674  1
