# generated using pymatgen
data_Li3Ti2MoRh6
_symmetry_space_group_name_H-M   'P 1'
_cell_length_a   4.29546300
_cell_length_b   6.00976700
_cell_length_c   12.85607000
_cell_angle_alpha   90.00000000
_cell_angle_beta   90.00239934
_cell_angle_gamma   90.00000000
_symmetry_Int_Tables_number   1
_chemical_formula_structural   Li3Ti2MoRh6
_chemical_formula_sum   'Li6 Ti4 Mo2 Rh12'
_cell_volume   331.87599874
_cell_formula_units_Z   2
loop_
 _symmetry_equiv_pos_site_id
 _symmetry_equiv_pos_as_xyz
  1  'x, y, z'
loop_
 _atom_site_type_symbol
 _atom_site_label
 _atom_site_symmetry_multiplicity
 _atom_site_fract_x
 _atom_site_fract_y
 _atom_site_fract_z
 _atom_site_occupancy
  Li  Li0  1  0.000006  0.000000  0.000111  1
  Li  Li1  1  0.499462  0.500000  0.166565  1
  Li  Li2  1  0.999466  0.000000  0.333890  1
  Li  Li3  1  0.500001  0.500000  0.500874  1
  Li  Li4  1  0.000546  0.000000  0.665773  1
  Li  Li5  1  0.500516  0.500000  0.832799  1
  Ti  Ti6  1  0.999734  0.500000  0.336840  1
  Ti  Ti7  1  0.500001  0.000000  0.501111  1
  Ti  Ti8  1  0.000280  0.500000  0.665545  1
  Ti  Ti9  1  0.500287  0.000000  0.829831  1
  Mo  Mo10  1  0.000015  0.500000  0.997500  1
  Mo  Mo11  1  0.499668  0.000000  0.169153  1
  Rh  Rh12  1  0.500011  0.250120  0.000911  1
  Rh  Rh13  1  0.500011  0.749880  0.000911  1
  Rh  Rh14  1  0.999660  0.249880  0.165768  1
  Rh  Rh15  1  0.999660  0.750120  0.165768  1
  Rh  Rh16  1  0.499656  0.250151  0.332522  1
  Rh  Rh17  1  0.499656  0.749849  0.332522  1
  Rh  Rh18  1  0.000005  0.250597  0.499803  1
  Rh  Rh19  1  0.000005  0.749403  0.499803  1
  Rh  Rh20  1  0.500339  0.249385  0.666866  1
  Rh  Rh21  1  0.500339  0.750615  0.666866  1
  Rh  Rh22  1  0.000338  0.249857  0.834132  1
  Rh  Rh23  1  0.000338  0.750143  0.834132  1
