# generated using pymatgen
data_LaSm2NpO7
_symmetry_space_group_name_H-M   'P 1'
_cell_length_a   6.73439136
_cell_length_b   6.73439169
_cell_length_c   7.94392400
_cell_angle_alpha   90.00000000
_cell_angle_beta   90.00000000
_cell_angle_gamma   109.33804819
_symmetry_Int_Tables_number   1
_chemical_formula_structural   LaSm2NpO7
_chemical_formula_sum   'La2 Sm4 Np2 O14'
_cell_volume   339.94692066
_cell_formula_units_Z   2
loop_
 _symmetry_equiv_pos_site_id
 _symmetry_equiv_pos_as_xyz
  1  'x, y, z'
loop_
 _atom_site_type_symbol
 _atom_site_label
 _atom_site_symmetry_multiplicity
 _atom_site_fract_x
 _atom_site_fract_y
 _atom_site_fract_z
 _atom_site_occupancy
  La  La0  1  0.498208  0.498208  0.000000  1
  La  La1  1  0.501792  0.501792  0.500000  1
  Sm  Sm2  1  0.466669  0.996396  0.251369  1
  Sm  Sm3  1  0.003604  0.533331  0.248631  1
  Sm  Sm4  1  0.533331  0.003604  0.751369  1
  Sm  Sm5  1  0.996396  0.466669  0.748631  1
  Np  Np6  1  0.999086  0.999086  0.500000  1
  Np  Np7  1  0.000914  0.000914  0.000000  1
  O  O8  1  0.911282  0.088718  0.750000  1
  O  O9  1  0.636363  0.363637  0.750000  1
  O  O10  1  0.327412  0.077682  0.530952  1
  O  O11  1  0.922318  0.672588  0.969048  1
  O  O12  1  0.635939  0.364061  0.250000  1
  O  O13  1  0.918691  0.669766  0.528239  1
  O  O14  1  0.330234  0.081309  0.971761  1
  O  O15  1  0.081309  0.330234  0.028239  1
  O  O16  1  0.669766  0.918691  0.471761  1
  O  O17  1  0.364061  0.635939  0.750000  1
  O  O18  1  0.672588  0.922318  0.030952  1
  O  O19  1  0.077682  0.327412  0.469048  1
  O  O20  1  0.363637  0.636363  0.250000  1
  O  O21  1  0.088718  0.911282  0.250000  1
