# generated using pymatgen
data_Dy3Ho2Er3(ZnCo)2
_symmetry_space_group_name_H-M   'P 1'
_cell_length_a   9.31907638
_cell_length_b   9.31907721
_cell_length_c   9.31907600
_cell_angle_alpha   60.00000429
_cell_angle_beta   60.00000137
_cell_angle_gamma   60.00000178
_symmetry_Int_Tables_number   1
_chemical_formula_structural   Dy3Ho2Er3(ZnCo)2
_chemical_formula_sum   'Dy6 Ho4 Er6 Zn4 Co4'
_cell_volume   572.27353390
_cell_formula_units_Z   2
loop_
 _symmetry_equiv_pos_site_id
 _symmetry_equiv_pos_as_xyz
  1  'x, y, z'
loop_
 _atom_site_type_symbol
 _atom_site_label
 _atom_site_symmetry_multiplicity
 _atom_site_fract_x
 _atom_site_fract_y
 _atom_site_fract_z
 _atom_site_occupancy
  Dy  Dy0  1  0.188306  0.811694  0.811694  1
  Dy  Dy1  1  0.811694  0.188306  0.188306  1
  Dy  Dy2  1  0.811694  0.188306  0.811694  1
  Dy  Dy3  1  0.188306  0.811694  0.188306  1
  Dy  Dy4  1  0.811694  0.811694  0.188306  1
  Dy  Dy5  1  0.188306  0.188306  0.811694  1
  Ho  Ho6  1  0.600069  0.600069  0.600069  1
  Ho  Ho7  1  0.600069  0.600069  0.199795  1
  Ho  Ho8  1  0.600069  0.199795  0.600069  1
  Ho  Ho9  1  0.199795  0.600069  0.600069  1
  Er  Er10  1  0.060382  0.439618  0.439618  1
  Er  Er11  1  0.439618  0.060382  0.060382  1
  Er  Er12  1  0.439618  0.060382  0.439618  1
  Er  Er13  1  0.060382  0.439618  0.060382  1
  Er  Er14  1  0.439618  0.439618  0.060382  1
  Er  Er15  1  0.060382  0.060382  0.439618  1
  Zn  Zn16  1  0.827838  0.827838  0.827838  1
  Zn  Zn17  1  0.827838  0.827838  0.516485  1
  Zn  Zn18  1  0.827838  0.516485  0.827838  1
  Zn  Zn19  1  0.516485  0.827838  0.827838  1
  Co  Co20  1  0.391645  0.391645  0.391645  1
  Co  Co21  1  0.391645  0.391645  0.825066  1
  Co  Co22  1  0.391645  0.825066  0.391645  1
  Co  Co23  1  0.825066  0.391645  0.391645  1
