# generated using pymatgen
data_LiTb6CuBr12
_symmetry_space_group_name_H-M   'P 1'
_cell_length_a   9.20074341
_cell_length_b   9.20074517
_cell_length_c   9.20074500
_cell_angle_alpha   107.62274768
_cell_angle_beta   107.62273810
_cell_angle_gamma   107.62274285
_symmetry_Int_Tables_number   1
_chemical_formula_structural   LiTb6CuBr12
_chemical_formula_sum   'Li1 Tb6 Cu1 Br12'
_cell_volume   637.31606192
_cell_formula_units_Z   1
loop_
 _symmetry_equiv_pos_site_id
 _symmetry_equiv_pos_as_xyz
  1  'x, y, z'
loop_
 _atom_site_type_symbol
 _atom_site_label
 _atom_site_symmetry_multiplicity
 _atom_site_fract_x
 _atom_site_fract_y
 _atom_site_fract_z
 _atom_site_occupancy
  Li  Li0  1  0.500000  0.500000  0.500000  1
  Tb  Tb1  1  0.322613  0.113732  0.035780  1
  Tb  Tb2  1  0.035780  0.322613  0.113732  1
  Tb  Tb3  1  0.113732  0.035780  0.322613  1
  Tb  Tb4  1  0.677387  0.886268  0.964220  1
  Tb  Tb5  1  0.964220  0.677387  0.886268  1
  Tb  Tb6  1  0.886268  0.964220  0.677387  1
  Cu  Cu7  1  0.000000  0.000000  0.000000  1
  Br  Br8  1  0.684642  0.220060  0.072695  1
  Br  Br9  1  0.072695  0.684642  0.220060  1
  Br  Br10  1  0.220060  0.072695  0.684642  1
  Br  Br11  1  0.315358  0.779940  0.927305  1
  Br  Br12  1  0.927305  0.315358  0.779940  1
  Br  Br13  1  0.779940  0.927305  0.315358  1
  Br  Br14  1  0.461796  0.167330  0.383173  1
  Br  Br15  1  0.383173  0.461796  0.167330  1
  Br  Br16  1  0.167330  0.383173  0.461796  1
  Br  Br17  1  0.538204  0.832670  0.616827  1
  Br  Br18  1  0.616827  0.538204  0.832670  1
  Br  Br19  1  0.832670  0.616827  0.538204  1
