# generated using pymatgen
data_Y5VOsO12
_symmetry_space_group_name_H-M   'P 1'
_cell_length_a   6.81524056
_cell_length_b   6.81524111
_cell_length_c   7.43121986
_cell_angle_alpha   74.10431495
_cell_angle_beta   74.10431216
_cell_angle_gamma   50.32047181
_symmetry_Int_Tables_number   1
_chemical_formula_structural   Y5VOsO12
_chemical_formula_sum   'Y5 V1 Os1 O12'
_cell_volume   253.19216228
_cell_formula_units_Z   1
loop_
 _symmetry_equiv_pos_site_id
 _symmetry_equiv_pos_as_xyz
  1  'x, y, z'
loop_
 _atom_site_type_symbol
 _atom_site_label
 _atom_site_symmetry_multiplicity
 _atom_site_fract_x
 _atom_site_fract_y
 _atom_site_fract_z
 _atom_site_occupancy
  Y  Y0  1  0.501239  0.498761  0.500000  1
  Y  Y1  1  0.191173  0.186363  0.172216  1
  Y  Y2  1  0.813637  0.808827  0.827784  1
  Y  Y3  1  0.803866  0.805334  0.359275  1
  Y  Y4  1  0.194666  0.196134  0.640725  1
  V  V5  1  0.722669  0.277331  0.000000  1
  Os  Os6  1  0.266618  0.733382  0.000000  1
  O  O7  1  0.002731  0.996709  0.178569  1
  O  O8  1  0.003291  0.997269  0.821431  1
  O  O9  1  0.500010  0.499305  0.805578  1
  O  O10  1  0.500695  0.499990  0.194422  1
  O  O11  1  0.598132  0.095522  0.574342  1
  O  O12  1  0.904478  0.401868  0.425658  1
  O  O13  1  0.403213  0.905579  0.423940  1
  O  O14  1  0.409369  0.923960  0.917288  1
  O  O15  1  0.076040  0.590631  0.082712  1
  O  O16  1  0.599197  0.085445  0.080537  1
  O  O17  1  0.914555  0.400803  0.919463  1
  O  O18  1  0.094421  0.596787  0.576060  1
