# generated using pymatgen
data_Hf2Co9NiP6
_symmetry_space_group_name_H-M   'P 1'
_cell_length_a   3.58927100
_cell_length_b   10.09413800
_cell_length_c   11.63828300
_cell_angle_alpha   90.00000000
_cell_angle_beta   90.00000000
_cell_angle_gamma   90.00000000
_symmetry_Int_Tables_number   1
_chemical_formula_structural   Hf2Co9NiP6
_chemical_formula_sum   'Hf4 Co18 Ni2 P12'
_cell_volume   421.66193874
_cell_formula_units_Z   2
loop_
 _symmetry_equiv_pos_site_id
 _symmetry_equiv_pos_as_xyz
  1  'x, y, z'
loop_
 _atom_site_type_symbol
 _atom_site_label
 _atom_site_symmetry_multiplicity
 _atom_site_fract_x
 _atom_site_fract_y
 _atom_site_fract_z
 _atom_site_occupancy
  Hf  Hf0  1  0.250000  0.580031  0.703097  1
  Hf  Hf1  1  0.250000  0.919969  0.203097  1
  Hf  Hf2  1  0.750000  0.420652  0.297918  1
  Hf  Hf3  1  0.750000  0.079348  0.797918  1
  Co  Co4  1  0.750000  0.281304  0.006113  1
  Co  Co5  1  0.750000  0.218696  0.506113  1
  Co  Co6  1  0.250000  0.408832  0.484420  1
  Co  Co7  1  0.250000  0.091168  0.984420  1
  Co  Co8  1  0.750000  0.589851  0.517785  1
  Co  Co9  1  0.750000  0.910149  0.017785  1
  Co  Co10  1  0.250000  0.223860  0.178352  1
  Co  Co11  1  0.250000  0.276141  0.678352  1
  Co  Co12  1  0.750000  0.776824  0.821046  1
  Co  Co13  1  0.750000  0.723176  0.321046  1
  Co  Co14  1  0.250000  0.883480  0.700991  1
  Co  Co15  1  0.250000  0.616520  0.200991  1
  Co  Co16  1  0.750000  0.117837  0.298944  1
  Co  Co17  1  0.750000  0.382163  0.798944  1
  Co  Co18  1  0.250000  0.466176  0.929570  1
  Co  Co19  1  0.250000  0.033824  0.429570  1
  Co  Co20  1  0.750000  0.533552  0.068493  1
  Co  Co21  1  0.750000  0.966448  0.568493  1
  Ni  Ni22  1  0.250000  0.718250  0.993222  1
  Ni  Ni23  1  0.250000  0.781750  0.493222  1
  P  P24  1  0.250000  0.419893  0.114477  1
  P  P25  1  0.250000  0.080107  0.614477  1
  P  P26  1  0.750000  0.580205  0.883884  1
  P  P27  1  0.750000  0.919795  0.383884  1
  P  P28  1  0.250000  0.265001  0.869226  1
  P  P29  1  0.250000  0.234999  0.369226  1
  P  P30  1  0.750000  0.734513  0.132381  1
  P  P31  1  0.750000  0.765487  0.632381  1
  P  P32  1  0.250000  0.600061  0.389418  1
  P  P33  1  0.250000  0.899939  0.889418  1
  P  P34  1  0.750000  0.399448  0.610662  1
  P  P35  1  0.750000  0.100552  0.110662  1
