# generated using pymatgen
data_La3Ga5MoO14
_symmetry_space_group_name_H-M   'P 1'
_cell_length_a   8.31926847
_cell_length_b   8.32782189
_cell_length_c   5.22697302
_cell_angle_alpha   89.45242648
_cell_angle_beta   90.58583394
_cell_angle_gamma   119.82364333
_symmetry_Int_Tables_number   1
_chemical_formula_structural   La3Ga5MoO14
_chemical_formula_sum   'La3 Ga5 Mo1 O14'
_cell_volume   314.15069501
_cell_formula_units_Z   1
loop_
 _symmetry_equiv_pos_site_id
 _symmetry_equiv_pos_as_xyz
  1  'x, y, z'
loop_
 _atom_site_type_symbol
 _atom_site_label
 _atom_site_symmetry_multiplicity
 _atom_site_fract_x
 _atom_site_fract_y
 _atom_site_fract_z
 _atom_site_occupancy
  La  La0  1  0.425059  0.998546  0.994250  1
  La  La1  1  0.998340  0.424307  0.006145  1
  La  La2  1  0.576439  0.576658  0.999382  1
  Ga  Ga3  1  0.332160  0.665873  0.469301  1
  Ga  Ga4  1  0.665178  0.332176  0.530622  1
  Ga  Ga5  1  0.754047  0.998188  0.498911  1
  Ga  Ga6  1  0.997407  0.753324  0.501865  1
  Ga  Ga7  1  0.242850  0.243802  0.499335  1
  Mo  Mo8  1  0.006376  0.005588  0.000115  1
  O  O9  1  0.225940  0.084202  0.236095  1
  O  O10  1  0.921003  0.148468  0.250942  1
  O  O11  1  0.855107  0.775908  0.238854  1
  O  O12  1  0.148902  0.919899  0.749819  1
  O  O13  1  0.776040  0.855042  0.760495  1
  O  O14  1  0.083361  0.224578  0.763961  1
  O  O15  1  0.458343  0.313546  0.697985  1
  O  O16  1  0.685694  0.143378  0.699178  1
  O  O17  1  0.853198  0.539143  0.699323  1
  O  O18  1  0.142664  0.685480  0.300829  1
  O  O19  1  0.539251  0.853804  0.301334  1
  O  O20  1  0.312955  0.458990  0.301328  1
  O  O21  1  0.333751  0.665350  0.818308  1
  O  O22  1  0.665733  0.333753  0.181629  1
