# generated using pymatgen
data_Lu4Al24Pt8Rh
_symmetry_space_group_name_H-M   'P 1'
_cell_length_a   7.49512001
_cell_length_b   7.52059445
_cell_length_c   13.11222623
_cell_angle_alpha   84.66493830
_cell_angle_beta   79.14580354
_cell_angle_gamma   59.90047798
_symmetry_Int_Tables_number   1
_chemical_formula_structural   Lu4Al24Pt8Rh
_chemical_formula_sum   'Lu4 Al24 Pt8 Rh1'
_cell_volume   628.00155793
_cell_formula_units_Z   1
loop_
 _symmetry_equiv_pos_site_id
 _symmetry_equiv_pos_as_xyz
  1  'x, y, z'
loop_
 _atom_site_type_symbol
 _atom_site_label
 _atom_site_symmetry_multiplicity
 _atom_site_fract_x
 _atom_site_fract_y
 _atom_site_fract_z
 _atom_site_occupancy
  Lu  Lu0  1  0.393962  0.168934  0.807899  1
  Lu  Lu1  1  0.606038  0.831066  0.192101  1
  Lu  Lu2  1  0.734296  0.498734  0.807867  1
  Lu  Lu3  1  0.265704  0.501266  0.192133  1
  Al  Al4  1  0.686814  0.830371  0.944711  1
  Al  Al5  1  0.313186  0.169629  0.055289  1
  Al  Al6  1  0.146546  0.832080  0.561845  1
  Al  Al7  1  0.853454  0.167920  0.438155  1
  Al  Al8  1  0.479765  0.166648  0.558973  1
  Al  Al9  1  0.520235  0.833352  0.441027  1
  Al  Al10  1  0.217992  0.165279  0.327004  1
  Al  Al11  1  0.782008  0.834721  0.672996  1
  Al  Al12  1  0.436274  0.506840  0.672898  1
  Al  Al13  1  0.563726  0.493160  0.327102  1
  Al  Al14  1  0.108946  0.160625  0.671125  1
  Al  Al15  1  0.891054  0.839375  0.328875  1
  Al  Al16  1  0.350252  0.498628  0.944880  1
  Al  Al17  1  0.649748  0.501372  0.055120  1
  Al  Al18  1  0.015804  0.172865  0.952778  1
  Al  Al19  1  0.984196  0.827135  0.047222  1
  Al  Al20  1  0.186519  0.499554  0.441093  1
  Al  Al21  1  0.813481  0.500446  0.558907  1
  Al  Al22  1  0.733528  0.164076  0.182711  1
  Al  Al23  1  0.266472  0.835924  0.817289  1
  Al  Al24  1  0.060917  0.627920  0.818183  1
  Al  Al25  1  0.939083  0.372080  0.181817  1
  Al  Al26  1  0.854696  0.042250  0.816750  1
  Al  Al27  1  0.145304  0.957750  0.183250  1
  Pt  Pt28  1  0.119856  0.491304  0.639344  1
  Pt  Pt29  1  0.880144  0.508696  0.360656  1
  Pt  Pt30  1  0.656524  0.171696  0.999779  1
  Pt  Pt31  1  0.343476  0.828304  0.000221  1
  Pt  Pt32  1  0.537061  0.166793  0.360852  1
  Pt  Pt33  1  0.462939  0.833207  0.639148  1
  Pt  Pt34  1  0.777885  0.175718  0.637663  1
  Pt  Pt35  1  0.222115  0.824282  0.362337  1
  Rh  Rh36  1  0.000000  0.500000  0.000000  1
