# generated using pymatgen
data_Ho20Bi8OsPt3
_symmetry_space_group_name_H-M   'P 1'
_cell_length_a   8.01555153
_cell_length_b   9.01845100
_cell_length_c   12.43171783
_cell_angle_alpha   90.00000000
_cell_angle_beta   89.95821317
_cell_angle_gamma   90.00000000
_symmetry_Int_Tables_number   1
_chemical_formula_structural   Ho20Bi8OsPt3
_chemical_formula_sum   'Ho20 Bi8 Os1 Pt3'
_cell_volume   898.66202311
_cell_formula_units_Z   1
loop_
 _symmetry_equiv_pos_site_id
 _symmetry_equiv_pos_as_xyz
  1  'x, y, z'
loop_
 _atom_site_type_symbol
 _atom_site_label
 _atom_site_symmetry_multiplicity
 _atom_site_fract_x
 _atom_site_fract_y
 _atom_site_fract_z
 _atom_site_occupancy
  Ho  Ho0  1  0.840910  0.750000  0.793649  1
  Ho  Ho1  1  0.161659  0.250000  0.208879  1
  Ho  Ho2  1  0.336532  0.250000  0.710016  1
  Ho  Ho3  1  0.664668  0.750000  0.288274  1
  Ho  Ho4  1  0.371833  0.750000  0.693851  1
  Ho  Ho5  1  0.628427  0.250000  0.305479  1
  Ho  Ho6  1  0.872768  0.250000  0.804767  1
  Ho  Ho7  1  0.124294  0.750000  0.192802  1
  Ho  Ho8  1  0.949395  0.750000  0.501579  1
  Ho  Ho9  1  0.049716  0.250000  0.499428  1
  Ho  Ho10  1  0.448124  0.250000  0.998598  1
  Ho  Ho11  1  0.555496  0.750000  0.001536  1
  Ho  Ho12  1  0.678310  0.045144  0.567374  1
  Ho  Ho13  1  0.321286  0.955493  0.432115  1
  Ho  Ho14  1  0.174981  0.951573  0.934272  1
  Ho  Ho15  1  0.321286  0.544507  0.432115  1
  Ho  Ho16  1  0.823631  0.038903  0.066433  1
  Ho  Ho17  1  0.678310  0.454856  0.567374  1
  Ho  Ho18  1  0.823631  0.461097  0.066433  1
  Ho  Ho19  1  0.174981  0.548427  0.934272  1
  Bi  Bi20  1  0.565978  0.491660  0.826799  1
  Bi  Bi21  1  0.433457  0.507604  0.173322  1
  Bi  Bi22  1  0.067572  0.508246  0.672488  1
  Bi  Bi23  1  0.433457  0.992396  0.173322  1
  Bi  Bi24  1  0.932697  0.491220  0.328135  1
  Bi  Bi25  1  0.565978  0.008340  0.826799  1
  Bi  Bi26  1  0.932697  0.008780  0.328135  1
  Bi  Bi27  1  0.067572  0.991754  0.672488  1
  Os  Os28  1  0.924931  0.750000  0.010893  1
  Pt  Pt29  1  0.574016  0.750000  0.509155  1
  Pt  Pt30  1  0.425803  0.250000  0.489868  1
  Pt  Pt31  1  0.075609  0.250000  0.989347  1
