# generated using pymatgen
data_Ho4Hf3TcF28
_symmetry_space_group_name_H-M   'P 1'
_cell_length_a   5.64482556
_cell_length_b   8.96956412
_cell_length_c   12.08740318
_cell_angle_alpha   62.50574126
_cell_angle_beta   90.01534264
_cell_angle_gamma   90.02926204
_symmetry_Int_Tables_number   1
_chemical_formula_structural   Ho4Hf3TcF28
_chemical_formula_sum   'Ho4 Hf3 Tc1 F28'
_cell_volume   542.88318588
_cell_formula_units_Z   1
loop_
 _symmetry_equiv_pos_site_id
 _symmetry_equiv_pos_as_xyz
  1  'x, y, z'
loop_
 _atom_site_type_symbol
 _atom_site_label
 _atom_site_symmetry_multiplicity
 _atom_site_fract_x
 _atom_site_fract_y
 _atom_site_fract_z
 _atom_site_occupancy
  Ho  Ho0  1  0.756417  0.813919  0.765884  1
  Ho  Ho1  1  0.257426  0.184473  0.736988  1
  Ho  Ho2  1  0.242281  0.184701  0.234041  1
  Ho  Ho3  1  0.742943  0.815819  0.265208  1
  Hf  Hf4  1  0.256212  0.725366  0.544205  1
  Hf  Hf5  1  0.243863  0.725914  0.043505  1
  Hf  Hf6  1  0.743031  0.273433  0.456740  1
  Tc  Tc7  1  0.758177  0.273307  0.956252  1
  F  F8  1  0.457273  0.709648  0.917781  1
  F  F9  1  0.955595  0.290179  0.582999  1
  F  F10  1  0.550573  0.292100  0.079090  1
  F  F11  1  0.043362  0.708645  0.418124  1
  F  F12  1  0.445423  0.274560  0.549069  1
  F  F13  1  0.946790  0.722567  0.951718  1
  F  F14  1  0.553826  0.724438  0.451517  1
  F  F15  1  0.046060  0.277953  0.047611  1
  F  F16  1  0.772344  0.519280  0.859695  1
  F  F17  1  0.277110  0.474754  0.640978  1
  F  F18  1  0.228010  0.475054  0.139950  1
  F  F19  1  0.723680  0.524286  0.359768  1
  F  F20  1  0.757170  0.027935  0.052941  1
  F  F21  1  0.258947  0.975721  0.442034  1
  F  F22  1  0.241366  0.976243  0.942529  1
  F  F23  1  0.741322  0.023041  0.557662  1
  F  F24  1  0.978565  0.730817  0.645541  1
  F  F25  1  0.482172  0.269979  0.858094  1
  F  F26  1  0.021294  0.268144  0.355188  1
  F  F27  1  0.521871  0.733424  0.144201  1
  F  F28  1  0.038276  0.748418  0.171959  1
  F  F29  1  0.539447  0.252587  0.326665  1
  F  F30  1  0.960640  0.255670  0.829065  1
  F  F31  1  0.459768  0.747132  0.673313  1
  F  F32  1  0.422821  0.972089  0.232082  1
  F  F33  1  0.923023  0.028260  0.267136  1
  F  F34  1  0.576689  0.028150  0.766814  1
  F  F35  1  0.076235  0.971992  0.733658  1
