# generated using pymatgen
data_TbY4Tm3Pt4
_symmetry_space_group_name_H-M   'P 1'
_cell_length_a   4.76187300
_cell_length_b   7.15328776
_cell_length_c   8.75221617
_cell_angle_alpha   89.87885052
_cell_angle_beta   90.00000000
_cell_angle_gamma   90.00000000
_symmetry_Int_Tables_number   1
_chemical_formula_structural   TbY4Tm3Pt4
_chemical_formula_sum   'Tb1 Y4 Tm3 Pt4'
_cell_volume   298.12649177
_cell_formula_units_Z   1
loop_
 _symmetry_equiv_pos_site_id
 _symmetry_equiv_pos_as_xyz
  1  'x, y, z'
loop_
 _atom_site_type_symbol
 _atom_site_label
 _atom_site_symmetry_multiplicity
 _atom_site_fract_x
 _atom_site_fract_y
 _atom_site_fract_z
 _atom_site_occupancy
  Tb  Tb0  1  0.750000  0.645098  0.420383  1
  Y  Y1  1  0.250000  0.991564  0.330616  1
  Y  Y2  1  0.250000  0.488765  0.168104  1
  Y  Y3  1  0.750000  0.011421  0.671722  1
  Y  Y4  1  0.750000  0.510258  0.829524  1
  Tm  Tm5  1  0.250000  0.856497  0.921809  1
  Tm  Tm6  1  0.250000  0.354851  0.579320  1
  Tm  Tm7  1  0.750000  0.143706  0.078465  1
  Pt  Pt8  1  0.250000  0.253076  0.905888  1
  Pt  Pt9  1  0.250000  0.754873  0.597259  1
  Pt  Pt10  1  0.750000  0.746804  0.090255  1
  Pt  Pt11  1  0.750000  0.243088  0.406655  1
