# generated using pymatgen
data_In(Pd3O4)2
_symmetry_space_group_name_H-M   'P 1'
_cell_length_a   6.82565557
_cell_length_b   6.82565613
_cell_length_c   6.82565600
_cell_angle_alpha   60.00000061
_cell_angle_beta   59.99999793
_cell_angle_gamma   60.00000130
_symmetry_Int_Tables_number   1
_chemical_formula_structural   In(Pd3O4)2
_chemical_formula_sum   'In1 Pd6 O8'
_cell_volume   224.86308942
_cell_formula_units_Z   1
loop_
 _symmetry_equiv_pos_site_id
 _symmetry_equiv_pos_as_xyz
  1  'x, y, z'
loop_
 _atom_site_type_symbol
 _atom_site_label
 _atom_site_symmetry_multiplicity
 _atom_site_fract_x
 _atom_site_fract_y
 _atom_site_fract_z
 _atom_site_occupancy
  In  In0  1  0.000000  0.000000  0.000000  1
  Pd  Pd1  1  0.000000  0.000000  0.500000  1
  Pd  Pd2  1  0.500000  0.000000  0.000000  1
  Pd  Pd3  1  0.000000  0.500000  0.000000  1
  Pd  Pd4  1  0.500000  0.500000  0.000000  1
  Pd  Pd5  1  0.000000  0.500000  0.500000  1
  Pd  Pd6  1  0.500000  0.000000  0.500000  1
  O  O7  1  0.138287  0.138287  0.585140  1
  O  O8  1  0.138287  0.585140  0.138287  1
  O  O9  1  0.585140  0.138287  0.138287  1
  O  O10  1  0.861713  0.414860  0.861713  1
  O  O11  1  0.138287  0.138287  0.138287  1
  O  O12  1  0.861713  0.861713  0.861713  1
  O  O13  1  0.861713  0.861713  0.414860  1
  O  O14  1  0.414860  0.861713  0.861713  1
