# generated using pymatgen
data_Y2Ga3PIr4
_symmetry_space_group_name_H-M   'P 1'
_cell_length_a   4.10310200
_cell_length_b   4.10310200
_cell_length_c   10.50613400
_cell_angle_alpha   90.00000000
_cell_angle_beta   90.00000000
_cell_angle_gamma   90.00000000
_symmetry_Int_Tables_number   1
_chemical_formula_structural   Y2Ga3PIr4
_chemical_formula_sum   'Y2 Ga3 P1 Ir4'
_cell_volume   176.87545186
_cell_formula_units_Z   1
loop_
 _symmetry_equiv_pos_site_id
 _symmetry_equiv_pos_as_xyz
  1  'x, y, z'
loop_
 _atom_site_type_symbol
 _atom_site_label
 _atom_site_symmetry_multiplicity
 _atom_site_fract_x
 _atom_site_fract_y
 _atom_site_fract_z
 _atom_site_occupancy
  Y  Y0  1  0.500000  0.000000  0.247907  1
  Y  Y1  1  0.000000  0.500000  0.755096  1
  Ga  Ga2  1  0.500000  0.500000  0.505314  1
  Ga  Ga3  1  0.000000  0.000000  0.505314  1
  Ga  Ga4  1  0.000000  0.500000  0.127623  1
  P  P5  1  0.500000  0.000000  0.873247  1
  Ir  Ir6  1  0.000000  0.500000  0.362570  1
  Ir  Ir7  1  0.500000  0.000000  0.653696  1
  Ir  Ir8  1  0.500000  0.500000  0.984617  1
  Ir  Ir9  1  0.000000  0.000000  0.984617  1
