# generated using pymatgen
data_CeTmFe3Re14C3
_symmetry_space_group_name_H-M   'P 1'
_cell_length_a   6.93574037
_cell_length_b   6.93574181
_cell_length_c   6.93574145
_cell_angle_alpha   82.53306520
_cell_angle_beta   82.53306134
_cell_angle_gamma   82.53306575
_symmetry_Int_Tables_number   1
_chemical_formula_structural   CeTmFe3Re14C3
_chemical_formula_sum   'Ce1 Tm1 Fe3 Re14 C3'
_cell_volume   325.82939936
_cell_formula_units_Z   1
loop_
 _symmetry_equiv_pos_site_id
 _symmetry_equiv_pos_as_xyz
  1  'x, y, z'
loop_
 _atom_site_type_symbol
 _atom_site_label
 _atom_site_symmetry_multiplicity
 _atom_site_fract_x
 _atom_site_fract_y
 _atom_site_fract_z
 _atom_site_occupancy
  Ce  Ce0  1  0.647859  0.647859  0.647859  1
  Tm  Tm1  1  0.348656  0.348656  0.348656  1
  Fe  Fe2  1  0.999855  0.999855  0.500583  1
  Fe  Fe3  1  0.500583  0.999855  0.999855  1
  Fe  Fe4  1  0.999855  0.500583  0.999855  1
  Re  Re5  1  0.722688  0.277689  0.000669  1
  Re  Re6  1  0.000669  0.722688  0.277689  1
  Re  Re7  1  0.277689  0.000669  0.722688  1
  Re  Re8  1  0.000669  0.277689  0.722688  1
  Re  Re9  1  0.722688  0.000669  0.277689  1
  Re  Re10  1  0.277689  0.722688  0.000669  1
  Re  Re11  1  0.346159  0.346159  0.861839  1
  Re  Re12  1  0.861839  0.346159  0.346159  1
  Re  Re13  1  0.346159  0.861839  0.346159  1
  Re  Re14  1  0.653404  0.653404  0.139415  1
  Re  Re15  1  0.139415  0.653404  0.653404  1
  Re  Re16  1  0.653404  0.139415  0.653404  1
  Re  Re17  1  0.897959  0.897959  0.897959  1
  Re  Re18  1  0.102160  0.102160  0.102160  1
  C  C19  1  0.496153  0.496153  0.008293  1
  C  C20  1  0.008293  0.496153  0.496153  1
  C  C21  1  0.496153  0.008293  0.496153  1
