# generated using pymatgen
data_PrLu4(Sn3Os)6
_symmetry_space_group_name_H-M   'P 1'
_cell_length_a   9.86649138
_cell_length_b   9.86649094
_cell_length_c   9.86649100
_cell_angle_alpha   59.99999643
_cell_angle_beta   59.99999791
_cell_angle_gamma   60.00000100
_symmetry_Int_Tables_number   1
_chemical_formula_structural   PrLu4(Sn3Os)6
_chemical_formula_sum   'Pr1 Lu4 Sn18 Os6'
_cell_volume   679.16167831
_cell_formula_units_Z   1
loop_
 _symmetry_equiv_pos_site_id
 _symmetry_equiv_pos_as_xyz
  1  'x, y, z'
loop_
 _atom_site_type_symbol
 _atom_site_label
 _atom_site_symmetry_multiplicity
 _atom_site_fract_x
 _atom_site_fract_y
 _atom_site_fract_z
 _atom_site_occupancy
  Pr  Pr0  1  0.000000  0.000000  0.000000  1
  Lu  Lu1  1  0.372985  0.372986  0.881046  1
  Lu  Lu2  1  0.372986  0.881045  0.372985  1
  Lu  Lu3  1  0.881045  0.372986  0.372985  1
  Lu  Lu4  1  0.372986  0.372985  0.372985  1
  Sn  Sn5  1  0.593580  0.593580  0.219261  1
  Sn  Sn6  1  0.593580  0.219261  0.593580  1
  Sn  Sn7  1  0.219261  0.593580  0.593580  1
  Sn  Sn8  1  0.593580  0.593580  0.593580  1
  Sn  Sn9  1  0.750000  0.750000  0.750000  1
  Sn  Sn10  1  0.998238  0.352728  0.650799  1
  Sn  Sn11  1  0.998238  0.998238  0.650799  1
  Sn  Sn12  1  0.352728  0.998238  0.650799  1
  Sn  Sn13  1  0.998238  0.650799  0.352728  1
  Sn  Sn14  1  0.352728  0.650799  0.998238  1
  Sn  Sn15  1  0.998238  0.650799  0.998238  1
  Sn  Sn16  1  0.650799  0.998238  0.998238  1
  Sn  Sn17  1  0.650799  0.352728  0.998238  1
  Sn  Sn18  1  0.650799  0.998238  0.352728  1
  Sn  Sn19  1  0.352728  0.998238  0.998238  1
  Sn  Sn20  1  0.998238  0.998238  0.352728  1
  Sn  Sn21  1  0.998238  0.352728  0.998238  1
  Sn  Sn22  1  0.250000  0.250000  0.250000  1
  Os  Os23  1  0.257780  0.257780  0.742220  1
  Os  Os24  1  0.742220  0.257780  0.742220  1
  Os  Os25  1  0.257780  0.742220  0.742220  1
  Os  Os26  1  0.742220  0.742220  0.257780  1
  Os  Os27  1  0.257780  0.742220  0.257780  1
  Os  Os28  1  0.742220  0.257780  0.257780  1
