# generated using pymatgen
data_LuHf(PRu)2
_symmetry_space_group_name_H-M   'P 1'
_cell_length_a   7.57954310
_cell_length_b   7.58706815
_cell_length_c   7.57954260
_cell_angle_alpha   128.14760273
_cell_angle_beta   121.14056626
_cell_angle_gamma   82.22357832
_symmetry_Int_Tables_number   1
_chemical_formula_structural   LuHf(PRu)2
_chemical_formula_sum   'Lu3 Hf3 P6 Ru6'
_cell_volume   282.19590259
_cell_formula_units_Z   3
loop_
 _symmetry_equiv_pos_site_id
 _symmetry_equiv_pos_as_xyz
  1  'x, y, z'
loop_
 _atom_site_type_symbol
 _atom_site_label
 _atom_site_symmetry_multiplicity
 _atom_site_fract_x
 _atom_site_fract_y
 _atom_site_fract_z
 _atom_site_occupancy
  Lu  Lu0  1  0.466063  0.686957  0.720892  1
  Lu  Lu1  1  0.535316  0.256894  0.221579  1
  Lu  Lu2  1  0.746525  0.830877  0.584352  1
  Hf  Hf3  1  0.250698  0.836819  0.086120  1
  Hf  Hf4  1  0.048944  0.254336  0.705391  1
  Hf  Hf5  1  0.950685  0.660364  0.209679  1
  P  P6  1  0.272919  0.257756  0.484839  1
  P  P7  1  0.734279  0.244534  0.010254  1
  P  P8  1  0.322275  0.586293  0.243511  1
  P  P9  1  0.670920  0.921158  0.259720  1
  P  P10  1  0.161438  0.921158  0.750238  1
  P  P11  1  0.842781  0.586293  0.764018  1
  Ru  Ru12  1  0.479963  0.494218  0.975027  1
  Ru  Ru13  1  0.019192  0.494218  0.514256  1
  Ru  Ru14  1  0.092995  0.252941  0.103549  1
  Ru  Ru15  1  0.906240  0.010921  0.161547  1
  Ru  Ru16  1  0.349374  0.010921  0.604680  1
  Ru  Ru17  1  0.649392  0.252941  0.659946  1
