# generated using pymatgen
data_CeEr4Tm15Pt16
_symmetry_space_group_name_H-M   'P 1'
_cell_length_a   7.39850603
_cell_length_b   7.48174622
_cell_length_c   14.58561100
_cell_angle_alpha   90.01700859
_cell_angle_beta   90.00522736
_cell_angle_gamma   89.97206179
_symmetry_Int_Tables_number   1
_chemical_formula_structural   CeEr4Tm15Pt16
_chemical_formula_sum   'Ce1 Er4 Tm15 Pt16'
_cell_volume   807.36805009
_cell_formula_units_Z   1
loop_
 _symmetry_equiv_pos_site_id
 _symmetry_equiv_pos_as_xyz
  1  'x, y, z'
loop_
 _atom_site_type_symbol
 _atom_site_label
 _atom_site_symmetry_multiplicity
 _atom_site_fract_x
 _atom_site_fract_y
 _atom_site_fract_z
 _atom_site_occupancy
  Ce  Ce0  1  0.996349  0.820623  0.592128  1
  Er  Er1  1  0.999311  0.180635  0.406810  1
  Er  Er2  1  0.499170  0.321139  0.407468  1
  Er  Er3  1  0.999663  0.179218  0.092589  1
  Er  Er4  1  0.501741  0.679308  0.907569  1
  Tm  Tm5  1  0.653668  0.168018  0.622570  1
  Tm  Tm6  1  0.156553  0.333741  0.877857  1
  Tm  Tm7  1  0.344246  0.833592  0.122454  1
  Tm  Tm8  1  0.842911  0.665727  0.376518  1
  Tm  Tm9  1  0.345738  0.832593  0.377494  1
  Tm  Tm10  1  0.845503  0.667089  0.121924  1
  Tm  Tm11  1  0.655586  0.167195  0.878307  1
  Tm  Tm12  1  0.155885  0.332510  0.622524  1
  Tm  Tm13  1  0.500001  0.678691  0.593547  1
  Tm  Tm14  1  0.001032  0.820747  0.906396  1
  Tm  Tm15  1  0.498874  0.319613  0.092958  1
  Tm  Tm16  1  0.817750  0.509228  0.750681  1
  Tm  Tm17  1  0.319473  0.990622  0.751246  1
  Tm  Tm18  1  0.181333  0.490321  0.249816  1
  Tm  Tm19  1  0.682266  0.009468  0.249772  1
  Pt  Pt20  1  0.684032  0.968275  0.457678  1
  Pt  Pt21  1  0.185292  0.532761  0.041613  1
  Pt  Pt22  1  0.315018  0.032665  0.958149  1
  Pt  Pt23  1  0.814811  0.465850  0.541377  1
  Pt  Pt24  1  0.316223  0.032527  0.542021  1
  Pt  Pt25  1  0.816124  0.466945  0.958117  1
  Pt  Pt26  1  0.684257  0.967189  0.041853  1
  Pt  Pt27  1  0.185038  0.533508  0.458695  1
  Pt  Pt28  1  0.453681  0.385774  0.750034  1
  Pt  Pt29  1  0.953015  0.114830  0.750882  1
  Pt  Pt30  1  0.547189  0.613450  0.249602  1
  Pt  Pt31  1  0.047487  0.886276  0.249932  1
  Pt  Pt32  1  0.680276  0.855605  0.750764  1
  Pt  Pt33  1  0.182369  0.643881  0.749716  1
  Pt  Pt34  1  0.319584  0.144568  0.249572  1
  Pt  Pt35  1  0.818553  0.355824  0.249367  1
