# generated using pymatgen
data_Sc6TcNi
_symmetry_space_group_name_H-M   'P 1'
_cell_length_a   6.58793200
_cell_length_b   8.65452200
_cell_length_c   5.81568000
_cell_angle_alpha   90.00000000
_cell_angle_beta   90.00000000
_cell_angle_gamma   90.00000000
_symmetry_Int_Tables_number   1
_chemical_formula_structural   Sc6TcNi
_chemical_formula_sum   'Sc12 Tc2 Ni2'
_cell_volume   331.58333560
_cell_formula_units_Z   2
loop_
 _symmetry_equiv_pos_site_id
 _symmetry_equiv_pos_as_xyz
  1  'x, y, z'
loop_
 _atom_site_type_symbol
 _atom_site_label
 _atom_site_symmetry_multiplicity
 _atom_site_fract_x
 _atom_site_fract_y
 _atom_site_fract_z
 _atom_site_occupancy
  Sc  Sc0  1  0.179447  0.056201  0.168975  1
  Sc  Sc1  1  0.320554  0.943801  0.668975  1
  Sc  Sc2  1  0.686879  0.439400  0.322007  1
  Sc  Sc3  1  0.813120  0.560599  0.822007  1
  Sc  Sc4  1  0.813120  0.939401  0.822007  1
  Sc  Sc5  1  0.686879  0.060601  0.322007  1
  Sc  Sc6  1  0.320554  0.556199  0.668975  1
  Sc  Sc7  1  0.179447  0.443800  0.168975  1
  Sc  Sc8  1  0.032326  0.250000  0.625218  1
  Sc  Sc9  1  0.467675  0.749999  0.125218  1
  Sc  Sc10  1  0.537433  0.250000  0.889896  1
  Sc  Sc11  1  0.962568  0.749999  0.389897  1
  Tc  Tc12  1  0.397321  0.250000  0.459567  1
  Tc  Tc13  1  0.102678  0.749999  0.959567  1
  Ni  Ni14  1  0.895272  0.250000  0.043357  1
  Ni  Ni15  1  0.604729  0.749999  0.543357  1
