# generated using pymatgen
data_NaMnFe2CoSb12
_symmetry_space_group_name_H-M   'P 1'
_cell_length_a   8.04545944
_cell_length_b   8.02136841
_cell_length_c   7.96130443
_cell_angle_alpha   109.16290772
_cell_angle_beta   109.42239743
_cell_angle_gamma   109.62219444
_symmetry_Int_Tables_number   1
_chemical_formula_structural   NaMnFe2CoSb12
_chemical_formula_sum   'Na1 Mn1 Fe2 Co1 Sb12'
_cell_volume   396.51212514
_cell_formula_units_Z   1
loop_
 _symmetry_equiv_pos_site_id
 _symmetry_equiv_pos_as_xyz
  1  'x, y, z'
loop_
 _atom_site_type_symbol
 _atom_site_label
 _atom_site_symmetry_multiplicity
 _atom_site_fract_x
 _atom_site_fract_y
 _atom_site_fract_z
 _atom_site_occupancy
  Na  Na0  1  0.000000  0.000000  0.000000  1
  Mn  Mn1  1  0.000000  0.000000  0.500000  1
  Fe  Fe2  1  0.000000  0.500000  0.000000  1
  Fe  Fe3  1  0.500000  0.500000  0.500000  1
  Co  Co4  1  0.500000  0.000000  0.000000  1
  Sb  Sb5  1  0.651947  0.816644  0.149772  1
  Sb  Sb6  1  0.840065  0.334481  0.172287  1
  Sb  Sb7  1  0.505781  0.837575  0.665160  1
  Sb  Sb8  1  0.832642  0.652354  0.502209  1
  Sb  Sb9  1  0.494219  0.162425  0.334840  1
  Sb  Sb10  1  0.159935  0.665519  0.827713  1
  Sb  Sb11  1  0.819062  0.166596  0.668972  1
  Sb  Sb12  1  0.180938  0.833404  0.331028  1
  Sb  Sb13  1  0.167358  0.347646  0.497791  1
  Sb  Sb14  1  0.669134  0.506800  0.838355  1
  Sb  Sb15  1  0.330866  0.493200  0.161645  1
  Sb  Sb16  1  0.348053  0.183356  0.850228  1
