# generated using pymatgen
data_HfZr11(Si3Ir)4
_symmetry_space_group_name_H-M   'P 1'
_cell_length_a   3.94606000
_cell_length_b   10.36472428
_cell_length_c   11.74330831
_cell_angle_alpha   89.97349449
_cell_angle_beta   90.00000000
_cell_angle_gamma   90.00000000
_symmetry_Int_Tables_number   1
_chemical_formula_structural   HfZr11(Si3Ir)4
_chemical_formula_sum   'Hf1 Zr11 Si12 Ir4'
_cell_volume   480.29919044
_cell_formula_units_Z   1
loop_
 _symmetry_equiv_pos_site_id
 _symmetry_equiv_pos_as_xyz
  1  'x, y, z'
loop_
 _atom_site_type_symbol
 _atom_site_label
 _atom_site_symmetry_multiplicity
 _atom_site_fract_x
 _atom_site_fract_y
 _atom_site_fract_z
 _atom_site_occupancy
  Hf  Hf0  1  0.750000  0.157940  0.699500  1
  Zr  Zr1  1  0.250000  0.876938  0.021650  1
  Zr  Zr2  1  0.250000  0.623089  0.522078  1
  Zr  Zr3  1  0.750000  0.123181  0.977771  1
  Zr  Zr4  1  0.750000  0.376723  0.478253  1
  Zr  Zr5  1  0.250000  0.926801  0.595926  1
  Zr  Zr6  1  0.250000  0.573880  0.095614  1
  Zr  Zr7  1  0.750000  0.074324  0.405236  1
  Zr  Zr8  1  0.750000  0.425994  0.904072  1
  Zr  Zr9  1  0.250000  0.658221  0.800442  1
  Zr  Zr10  1  0.250000  0.842045  0.300529  1
  Zr  Zr11  1  0.750000  0.341954  0.199441  1
  Si  Si12  1  0.250000  0.016184  0.823577  1
  Si  Si13  1  0.250000  0.484400  0.324159  1
  Si  Si14  1  0.750000  0.984595  0.175964  1
  Si  Si15  1  0.750000  0.515447  0.675987  1
  Si  Si16  1  0.250000  0.248053  0.843656  1
  Si  Si17  1  0.250000  0.251035  0.343976  1
  Si  Si18  1  0.750000  0.751202  0.156150  1
  Si  Si19  1  0.750000  0.748866  0.656112  1
  Si  Si20  1  0.250000  0.192184  0.544172  1
  Si  Si21  1  0.250000  0.307387  0.043001  1
  Si  Si22  1  0.750000  0.807420  0.456845  1
  Si  Si23  1  0.750000  0.692785  0.956758  1
  Ir  Ir24  1  0.250000  0.383618  0.680458  1
  Ir  Ir25  1  0.250000  0.114686  0.180618  1
  Ir  Ir26  1  0.750000  0.614655  0.319414  1
  Ir  Ir27  1  0.750000  0.886391  0.818641  1
