# generated using pymatgen
data_TbLu(AlNi4)2
_symmetry_space_group_name_H-M   'P 1'
_cell_length_a   4.04828200
_cell_length_b   5.00376100
_cell_length_c   8.31070600
_cell_angle_alpha   90.00000000
_cell_angle_beta   90.00000000
_cell_angle_gamma   90.00000000
_symmetry_Int_Tables_number   1
_chemical_formula_structural   TbLu(AlNi4)2
_chemical_formula_sum   'Tb1 Lu1 Al2 Ni8'
_cell_volume   168.34694293
_cell_formula_units_Z   1
loop_
 _symmetry_equiv_pos_site_id
 _symmetry_equiv_pos_as_xyz
  1  'x, y, z'
loop_
 _atom_site_type_symbol
 _atom_site_label
 _atom_site_symmetry_multiplicity
 _atom_site_fract_x
 _atom_site_fract_y
 _atom_site_fract_z
 _atom_site_occupancy
  Tb  Tb0  1  0.000000  0.500000  0.000000  1
  Lu  Lu1  1  0.000000  0.000000  0.500000  1
  Al  Al2  1  0.500000  0.500000  0.500000  1
  Al  Al3  1  0.500000  0.000000  0.000000  1
  Ni  Ni4  1  0.000000  0.500000  0.332774  1
  Ni  Ni5  1  0.000000  0.000000  0.830323  1
  Ni  Ni6  1  0.000000  0.000000  0.169677  1
  Ni  Ni7  1  0.000000  0.500000  0.667226  1
  Ni  Ni8  1  0.500000  0.751706  0.252330  1
  Ni  Ni9  1  0.500000  0.248294  0.747670  1
  Ni  Ni10  1  0.500000  0.248294  0.252330  1
  Ni  Ni11  1  0.500000  0.751706  0.747670  1
