# generated using pymatgen
data_YTh3(Si5Os3)2
_symmetry_space_group_name_H-M   'P 1'
_cell_length_a   8.21062500
_cell_length_b   8.21105203
_cell_length_c   5.87509929
_cell_angle_alpha   70.47871755
_cell_angle_beta   70.66460083
_cell_angle_gamma   93.64943620
_symmetry_Int_Tables_number   1
_chemical_formula_structural   YTh3(Si5Os3)2
_chemical_formula_sum   'Y1 Th3 Si10 Os6'
_cell_volume   345.43150788
_cell_formula_units_Z   1
loop_
 _symmetry_equiv_pos_site_id
 _symmetry_equiv_pos_as_xyz
  1  'x, y, z'
loop_
 _atom_site_type_symbol
 _atom_site_label
 _atom_site_symmetry_multiplicity
 _atom_site_fract_x
 _atom_site_fract_y
 _atom_site_fract_z
 _atom_site_occupancy
  Y  Y0  1  0.865830  0.601700  0.759033  1
  Th  Th1  1  0.399250  0.133113  0.741202  1
  Th  Th2  1  0.132387  0.400433  0.242008  1
  Th  Th3  1  0.601153  0.865856  0.259070  1
  Si  Si4  1  0.058207  0.261064  0.837410  1
  Si  Si5  1  0.741991  0.937261  0.662990  1
  Si  Si6  1  0.940370  0.737752  0.163037  1
  Si  Si7  1  0.260710  0.058636  0.338113  1
  Si  Si8  1  0.204942  0.789240  0.749301  1
  Si  Si9  1  0.791332  0.208510  0.251264  1
  Si  Si10  1  0.516851  0.489304  0.747554  1
  Si  Si11  1  0.488581  0.512503  0.249342  1
  Si  Si12  1  0.773130  0.229941  0.748513  1
  Si  Si13  1  0.223976  0.773074  0.254011  1
  Os  Os14  1  0.254699  0.539876  0.634455  1
  Os  Os15  1  0.457687  0.745913  0.866359  1
  Os  Os16  1  0.745007  0.458644  0.365638  1
  Os  Os17  1  0.542346  0.254990  0.133854  1
  Os  Os18  1  0.004462  0.997924  0.748357  1
  Os  Os19  1  0.997090  0.004267  0.248490  1
