# generated using pymatgen
data_Ba4Sr2Mn2Al3GaF28
_symmetry_space_group_name_H-M   'P 1'
_cell_length_a   7.48207064
_cell_length_b   7.48973898
_cell_length_c   15.27568477
_cell_angle_alpha   88.14520449
_cell_angle_beta   88.14966373
_cell_angle_gamma   42.47273651
_symmetry_Int_Tables_number   1
_chemical_formula_structural   Ba4Sr2Mn2Al3GaF28
_chemical_formula_sum   'Ba4 Sr2 Mn2 Al3 Ga1 F28'
_cell_volume   577.67759311
_cell_formula_units_Z   1
loop_
 _symmetry_equiv_pos_site_id
 _symmetry_equiv_pos_as_xyz
  1  'x, y, z'
loop_
 _atom_site_type_symbol
 _atom_site_label
 _atom_site_symmetry_multiplicity
 _atom_site_fract_x
 _atom_site_fract_y
 _atom_site_fract_z
 _atom_site_occupancy
  Ba  Ba0  1  0.654766  0.731135  0.880014  1
  Ba  Ba1  1  0.346321  0.267030  0.117811  1
  Ba  Ba2  1  0.270477  0.344073  0.617852  1
  Ba  Ba3  1  0.730386  0.654912  0.383017  1
  Sr  Sr4  1  0.942144  0.057479  0.749805  1
  Sr  Sr5  1  0.055567  0.940948  0.252106  1
  Mn  Mn6  1  0.999823  0.999971  0.500513  1
  Mn  Mn7  1  0.000801  0.996606  0.999140  1
  Al  Al8  1  0.617427  0.625158  0.621087  1
  Al  Al9  1  0.382196  0.374463  0.379047  1
  Al  Al10  1  0.374731  0.382350  0.878471  1
  Ga  Ga11  1  0.627697  0.614442  0.121645  1
  F  F12  1  0.563176  0.433066  0.653156  1
  F  F13  1  0.437829  0.565343  0.346765  1
  F  F14  1  0.566636  0.436298  0.845801  1
  F  F15  1  0.422438  0.562542  0.154737  1
  F  F16  1  0.661810  0.090288  0.945340  1
  F  F17  1  0.327402  0.923023  0.052216  1
  F  F18  1  0.908792  0.338467  0.554234  1
  F  F19  1  0.091082  0.662109  0.445936  1
  F  F20  1  0.525727  0.150316  0.784208  1
  F  F21  1  0.469193  0.857809  0.220113  1
  F  F22  1  0.849904  0.473906  0.714979  1
  F  F23  1  0.149326  0.526232  0.285458  1
  F  F24  1  0.696971  0.792169  0.583570  1
  F  F25  1  0.302735  0.207768  0.416937  1
  F  F26  1  0.207430  0.303351  0.915583  1
  F  F27  1  0.801500  0.698563  0.081266  1
  F  F28  1  0.352291  0.904780  0.689584  1
  F  F29  1  0.646768  0.095188  0.310634  1
  F  F30  1  0.094841  0.647960  0.810098  1
  F  F31  1  0.919915  0.343126  0.194340  1
  F  F32  1  0.410845  0.760259  0.523584  1
  F  F33  1  0.588959  0.239419  0.476701  1
  F  F34  1  0.241498  0.587365  0.976435  1
  F  F35  1  0.762088  0.407943  0.017205  1
  F  F36  1  0.849221  0.016959  0.118390  1
  F  F37  1  0.149925  0.987667  0.881254  1
  F  F38  1  0.989895  0.148586  0.382949  1
  F  F39  1  0.009468  0.850933  0.618019  1
