# generated using pymatgen
data_Tm4Sc16(SiBi3)3
_symmetry_space_group_name_H-M   'P 1'
_cell_length_a   7.67573340
_cell_length_b   8.89654500
_cell_length_c   11.36272970
_cell_angle_alpha   90.00000000
_cell_angle_beta   89.82137213
_cell_angle_gamma   90.00000000
_symmetry_Int_Tables_number   1
_chemical_formula_structural   Tm4Sc16(SiBi3)3
_chemical_formula_sum   'Tm4 Sc16 Si3 Bi9'
_cell_volume   775.92871955
_cell_formula_units_Z   1
loop_
 _symmetry_equiv_pos_site_id
 _symmetry_equiv_pos_as_xyz
  1  'x, y, z'
loop_
 _atom_site_type_symbol
 _atom_site_label
 _atom_site_symmetry_multiplicity
 _atom_site_fract_x
 _atom_site_fract_y
 _atom_site_fract_z
 _atom_site_occupancy
  Tm  Tm0  1  0.193367  0.250000  0.772913  1
  Tm  Tm1  1  0.825701  0.750000  0.212235  1
  Tm  Tm2  1  0.327384  0.750000  0.289046  1
  Tm  Tm3  1  0.669863  0.250000  0.708264  1
  Sc  Sc4  1  0.030891  0.250000  0.509170  1
  Sc  Sc5  1  0.966081  0.750000  0.488599  1
  Sc  Sc6  1  0.464734  0.750000  0.013836  1
  Sc  Sc7  1  0.514940  0.250000  0.989290  1
  Sc  Sc8  1  0.348945  0.250000  0.294794  1
  Sc  Sc9  1  0.653698  0.750000  0.703816  1
  Sc  Sc10  1  0.148355  0.750000  0.794354  1
  Sc  Sc11  1  0.843480  0.250000  0.219914  1
  Sc  Sc12  1  0.188688  0.046429  0.061955  1
  Sc  Sc13  1  0.818406  0.924670  0.941895  1
  Sc  Sc14  1  0.320820  0.941334  0.556157  1
  Sc  Sc15  1  0.818406  0.575330  0.941895  1
  Sc  Sc16  1  0.678306  0.056942  0.444441  1
  Sc  Sc17  1  0.188688  0.453571  0.061955  1
  Sc  Sc18  1  0.678306  0.443058  0.444441  1
  Sc  Sc19  1  0.320820  0.558666  0.556157  1
  Si  Si20  1  0.402617  0.250000  0.532195  1
  Si  Si21  1  0.592716  0.750000  0.467303  1
  Si  Si22  1  0.091217  0.750000  0.031881  1
  Bi  Bi23  1  0.906250  0.250000  0.962369  1
  Bi  Bi24  1  0.060621  0.006944  0.327074  1
  Bi  Bi25  1  0.940188  0.992194  0.672475  1
  Bi  Bi26  1  0.441113  0.988333  0.826652  1
  Bi  Bi27  1  0.940188  0.507806  0.672475  1
  Bi  Bi28  1  0.561739  0.008689  0.174362  1
  Bi  Bi29  1  0.060621  0.493056  0.327074  1
  Bi  Bi30  1  0.561739  0.491311  0.174362  1
  Bi  Bi31  1  0.441113  0.511667  0.826652  1
