# generated using pymatgen
data_Zr24GaAs3Se8
_symmetry_space_group_name_H-M   'P 1'
_cell_length_a   3.72970200
_cell_length_b   12.66612208
_cell_length_c   15.66378776
_cell_angle_alpha   89.90691017
_cell_angle_beta   90.00000000
_cell_angle_gamma   90.00000000
_symmetry_Int_Tables_number   1
_chemical_formula_structural   Zr24GaAs3Se8
_chemical_formula_sum   'Zr24 Ga1 As3 Se8'
_cell_volume   739.96984164
_cell_formula_units_Z   1
loop_
 _symmetry_equiv_pos_site_id
 _symmetry_equiv_pos_as_xyz
  1  'x, y, z'
loop_
 _atom_site_type_symbol
 _atom_site_label
 _atom_site_symmetry_multiplicity
 _atom_site_fract_x
 _atom_site_fract_y
 _atom_site_fract_z
 _atom_site_occupancy
  Zr  Zr0  1  0.000000  0.345627  0.478491  1
  Zr  Zr1  1  0.000000  0.650000  0.519706  1
  Zr  Zr2  1  0.500000  0.152571  0.979219  1
  Zr  Zr3  1  0.500000  0.849045  0.020504  1
  Zr  Zr4  1  0.000000  0.084023  0.578116  1
  Zr  Zr5  1  0.000000  0.919379  0.424809  1
  Zr  Zr6  1  0.500000  0.415778  0.077669  1
  Zr  Zr7  1  0.500000  0.584238  0.923307  1
  Zr  Zr8  1  0.000000  0.692738  0.292389  1
  Zr  Zr9  1  0.000000  0.306300  0.705089  1
  Zr  Zr10  1  0.500000  0.806489  0.795368  1
  Zr  Zr11  1  0.500000  0.193957  0.204263  1
  Zr  Zr12  1  0.000000  0.031079  0.109169  1
  Zr  Zr13  1  0.000000  0.969508  0.890119  1
  Zr  Zr14  1  0.500000  0.469636  0.608626  1
  Zr  Zr15  1  0.500000  0.528303  0.391282  1
  Zr  Zr16  1  0.000000  0.618760  0.077846  1
  Zr  Zr17  1  0.000000  0.380827  0.923302  1
  Zr  Zr18  1  0.500000  0.881976  0.579170  1
  Zr  Zr19  1  0.500000  0.118833  0.423600  1
  Zr  Zr20  1  0.000000  0.410223  0.242900  1
  Zr  Zr21  1  0.000000  0.588453  0.756800  1
  Zr  Zr22  1  0.500000  0.087851  0.743664  1
  Zr  Zr23  1  0.500000  0.913331  0.255628  1
  Ga  Ga24  1  0.500000  0.758615  0.412461  1
  As  As25  1  0.000000  0.256442  0.085335  1
  As  As26  1  0.000000  0.743904  0.914404  1
  As  As27  1  0.500000  0.243848  0.586048  1
  Se  Se28  1  0.000000  0.815950  0.150542  1
  Se  Se29  1  0.000000  0.184891  0.849563  1
  Se  Se30  1  0.500000  0.684690  0.650241  1
  Se  Se31  1  0.500000  0.313342  0.349387  1
  Se  Se32  1  0.000000  0.070256  0.291934  1
  Se  Se33  1  0.000000  0.930246  0.708452  1
  Se  Se34  1  0.500000  0.430884  0.792149  1
  Se  Se35  1  0.500000  0.568002  0.208449  1
