# generated using pymatgen
data_KTh5(GePd)6
_symmetry_space_group_name_H-M   'P 1'
_cell_length_a   4.47041100
_cell_length_b   7.76234197
_cell_length_c   23.44059748
_cell_angle_alpha   90.16240440
_cell_angle_beta   90.00000000
_cell_angle_gamma   90.00000000
_symmetry_Int_Tables_number   1
_chemical_formula_structural   KTh5(GePd)6
_chemical_formula_sum   'K2 Th10 Ge12 Pd12'
_cell_volume   813.40559880
_cell_formula_units_Z   2
loop_
 _symmetry_equiv_pos_site_id
 _symmetry_equiv_pos_as_xyz
  1  'x, y, z'
loop_
 _atom_site_type_symbol
 _atom_site_label
 _atom_site_symmetry_multiplicity
 _atom_site_fract_x
 _atom_site_fract_y
 _atom_site_fract_z
 _atom_site_occupancy
  K  K0  1  0.750000  0.225359  0.499189  1
  K  K1  1  0.250000  0.774641  0.500811  1
  Th  Th2  1  0.250000  0.722725  0.324446  1
  Th  Th3  1  0.750000  0.277275  0.675554  1
  Th  Th4  1  0.750000  0.238368  0.163059  1
  Th  Th5  1  0.250000  0.761632  0.836941  1
  Th  Th6  1  0.250000  0.766800  0.161850  1
  Th  Th7  1  0.750000  0.233200  0.838150  1
  Th  Th8  1  0.750000  0.278900  0.323375  1
  Th  Th9  1  0.250000  0.721100  0.676625  1
  Th  Th10  1  0.250000  0.738455  0.000188  1
  Th  Th11  1  0.750000  0.261545  0.999812  1
  Ge  Ge12  1  0.250000  0.087917  0.081363  1
  Ge  Ge13  1  0.750000  0.912083  0.918637  1
  Ge  Ge14  1  0.750000  0.589178  0.403044  1
  Ge  Ge15  1  0.250000  0.410822  0.596956  1
  Ge  Ge16  1  0.250000  0.085031  0.253659  1
  Ge  Ge17  1  0.750000  0.914969  0.746341  1
  Ge  Ge18  1  0.750000  0.589313  0.233967  1
  Ge  Ge19  1  0.250000  0.410687  0.766033  1
  Ge  Ge20  1  0.250000  0.079933  0.382489  1
  Ge  Ge21  1  0.750000  0.920067  0.617511  1
  Ge  Ge22  1  0.750000  0.583679  0.080452  1
  Ge  Ge23  1  0.250000  0.416321  0.919548  1
  Pd  Pd24  1  0.250000  0.417568  0.234162  1
  Pd  Pd25  1  0.750000  0.582432  0.765838  1
  Pd  Pd26  1  0.750000  0.920313  0.249584  1
  Pd  Pd27  1  0.250000  0.079687  0.750416  1
  Pd  Pd28  1  0.250000  0.414267  0.403585  1
  Pd  Pd29  1  0.750000  0.585733  0.596415  1
  Pd  Pd30  1  0.750000  0.917764  0.075754  1
  Pd  Pd31  1  0.250000  0.082236  0.924246  1
  Pd  Pd32  1  0.250000  0.419530  0.087807  1
  Pd  Pd33  1  0.750000  0.580470  0.912193  1
  Pd  Pd34  1  0.750000  0.918712  0.387654  1
  Pd  Pd35  1  0.250000  0.081288  0.612346  1
