# generated using pymatgen
data_Ca(Sn2Ir)2
_symmetry_space_group_name_H-M   'P 1'
_cell_length_a   4.43700500
_cell_length_b   7.35106600
_cell_length_c   18.68200600
_cell_angle_alpha   90.00000000
_cell_angle_beta   90.00000000
_cell_angle_gamma   90.00000000
_symmetry_Int_Tables_number   1
_chemical_formula_structural   Ca(Sn2Ir)2
_chemical_formula_sum   'Ca4 Sn16 Ir8'
_cell_volume   609.34569517
_cell_formula_units_Z   4
loop_
 _symmetry_equiv_pos_site_id
 _symmetry_equiv_pos_as_xyz
  1  'x, y, z'
loop_
 _atom_site_type_symbol
 _atom_site_label
 _atom_site_symmetry_multiplicity
 _atom_site_fract_x
 _atom_site_fract_y
 _atom_site_fract_z
 _atom_site_occupancy
  Ca  Ca0  1  0.250000  0.992269  0.856950  1
  Ca  Ca1  1  0.250000  0.507731  0.356950  1
  Ca  Ca2  1  0.750000  0.007731  0.143050  1
  Ca  Ca3  1  0.750000  0.492269  0.643050  1
  Sn  Sn4  1  0.250000  0.300347  0.182815  1
  Sn  Sn5  1  0.250000  0.199653  0.682815  1
  Sn  Sn6  1  0.750000  0.699653  0.817185  1
  Sn  Sn7  1  0.750000  0.800347  0.317185  1
  Sn  Sn8  1  0.250000  0.727077  0.192642  1
  Sn  Sn9  1  0.250000  0.772923  0.692642  1
  Sn  Sn10  1  0.750000  0.272923  0.807358  1
  Sn  Sn11  1  0.750000  0.227077  0.307358  1
  Sn  Sn12  1  0.250000  0.871169  0.033782  1
  Sn  Sn13  1  0.250000  0.628831  0.533782  1
  Sn  Sn14  1  0.750000  0.128831  0.966218  1
  Sn  Sn15  1  0.750000  0.371169  0.466218  1
  Sn  Sn16  1  0.250000  0.519761  0.932051  1
  Sn  Sn17  1  0.250000  0.980239  0.432051  1
  Sn  Sn18  1  0.750000  0.480239  0.067949  1
  Sn  Sn19  1  0.750000  0.019761  0.567949  1
  Ir  Ir20  1  0.250000  0.254077  0.036588  1
  Ir  Ir21  1  0.250000  0.245923  0.536588  1
  Ir  Ir22  1  0.750000  0.745923  0.963412  1
  Ir  Ir23  1  0.750000  0.754077  0.463412  1
  Ir  Ir24  1  0.250000  0.016728  0.284551  1
  Ir  Ir25  1  0.250000  0.483272  0.784551  1
  Ir  Ir26  1  0.750000  0.983272  0.715449  1
  Ir  Ir27  1  0.750000  0.516728  0.215449  1
