# generated using pymatgen
data_DyHo5Tm2(OsC2)4
_symmetry_space_group_name_H-M   'P 1'
_cell_length_a   5.09215800
_cell_length_b   6.42876413
_cell_length_c   9.73234619
_cell_angle_alpha   90.18629516
_cell_angle_beta   90.00000000
_cell_angle_gamma   90.00000000
_symmetry_Int_Tables_number   1
_chemical_formula_structural   DyHo5Tm2(OsC2)4
_chemical_formula_sum   'Dy1 Ho5 Tm2 Os4 C8'
_cell_volume   318.59915203
_cell_formula_units_Z   1
loop_
 _symmetry_equiv_pos_site_id
 _symmetry_equiv_pos_as_xyz
  1  'x, y, z'
loop_
 _atom_site_type_symbol
 _atom_site_label
 _atom_site_symmetry_multiplicity
 _atom_site_fract_x
 _atom_site_fract_y
 _atom_site_fract_z
 _atom_site_occupancy
  Dy  Dy0  1  0.250000  0.026454  0.283209  1
  Ho  Ho1  1  0.750000  0.816780  0.052817  1
  Ho  Ho2  1  0.250000  0.182952  0.947022  1
  Ho  Ho3  1  0.250000  0.526543  0.219891  1
  Ho  Ho4  1  0.750000  0.473263  0.780114  1
  Ho  Ho5  1  0.750000  0.973494  0.717090  1
  Tm  Tm6  1  0.250000  0.679984  0.553323  1
  Tm  Tm7  1  0.750000  0.320250  0.446888  1
  Os  Os8  1  0.250000  0.724897  0.864859  1
  Os  Os9  1  0.750000  0.275100  0.134881  1
  Os  Os10  1  0.750000  0.775420  0.367425  1
  Os  Os11  1  0.250000  0.224509  0.632672  1
  C  C12  1  0.250000  0.460193  0.757327  1
  C  C13  1  0.750000  0.539708  0.242722  1
  C  C14  1  0.750000  0.040037  0.259369  1
  C  C15  1  0.250000  0.959879  0.740410  1
  C  C16  1  0.250000  0.825093  0.053679  1
  C  C17  1  0.750000  0.174440  0.945977  1
  C  C18  1  0.750000  0.670968  0.555191  1
  C  C19  1  0.250000  0.330037  0.445134  1
