# generated using pymatgen
data_Ce3U(CdIr2)2
_symmetry_space_group_name_H-M   'P 1'
_cell_length_a   7.74892627
_cell_length_b   7.74892627
_cell_length_c   3.63295100
_cell_angle_alpha   90.00000000
_cell_angle_beta   90.00000000
_cell_angle_gamma   88.40325230
_symmetry_Int_Tables_number   1
_chemical_formula_structural   Ce3U(CdIr2)2
_chemical_formula_sum   'Ce3 U1 Cd2 Ir4'
_cell_volume   218.05895537
_cell_formula_units_Z   1
loop_
 _symmetry_equiv_pos_site_id
 _symmetry_equiv_pos_as_xyz
  1  'x, y, z'
loop_
 _atom_site_type_symbol
 _atom_site_label
 _atom_site_symmetry_multiplicity
 _atom_site_fract_x
 _atom_site_fract_y
 _atom_site_fract_z
 _atom_site_occupancy
  Ce  Ce0  1  0.832681  0.334455  0.500001  1
  Ce  Ce1  1  0.165544  0.667318  0.500001  1
  Ce  Ce2  1  0.668166  0.831833  0.500001  1
  U  U3  1  0.337335  0.162664  0.500001  1
  Cd  Cd4  1  0.995240  0.002132  0.000000  1
  Cd  Cd5  1  0.497868  0.504760  0.000000  1
  Ir  Ir6  1  0.618814  0.141932  0.000000  1
  Ir  Ir7  1  0.153296  0.346704  0.000000  1
  Ir  Ir8  1  0.872987  0.627013  0.000000  1
  Ir  Ir9  1  0.358068  0.881186  0.000000  1
