# generated using pymatgen
data_Y4Mg3CdPt4
_symmetry_space_group_name_H-M   'P 1'
_cell_length_a   4.22169500
_cell_length_b   7.10461126
_cell_length_c   8.66837697
_cell_angle_alpha   87.87788527
_cell_angle_beta   90.00000000
_cell_angle_gamma   90.00000000
_symmetry_Int_Tables_number   1
_chemical_formula_structural   Y4Mg3CdPt4
_chemical_formula_sum   'Y4 Mg3 Cd1 Pt4'
_cell_volume   259.81666960
_cell_formula_units_Z   1
loop_
 _symmetry_equiv_pos_site_id
 _symmetry_equiv_pos_as_xyz
  1  'x, y, z'
loop_
 _atom_site_type_symbol
 _atom_site_label
 _atom_site_symmetry_multiplicity
 _atom_site_fract_x
 _atom_site_fract_y
 _atom_site_fract_z
 _atom_site_occupancy
  Y  Y0  1  0.250000  0.538106  0.173928  1
  Y  Y1  1  0.750000  0.456050  0.829453  1
  Y  Y2  1  0.750000  0.959927  0.677658  1
  Y  Y3  1  0.250000  0.043088  0.320881  1
  Mg  Mg4  1  0.250000  0.634289  0.560009  1
  Mg  Mg5  1  0.750000  0.366999  0.440859  1
  Mg  Mg6  1  0.750000  0.867992  0.057378  1
  Cd  Cd7  1  0.250000  0.135644  0.939789  1
  Pt  Pt8  1  0.250000  0.740392  0.868043  1
  Pt  Pt9  1  0.750000  0.256324  0.140951  1
  Pt  Pt10  1  0.750000  0.754549  0.374369  1
  Pt  Pt11  1  0.250000  0.246639  0.616681  1
