# generated using pymatgen
data_Ho6Er2GaPd24
_symmetry_space_group_name_H-M   'P 1'
_cell_length_a   8.33149400
_cell_length_b   8.33120901
_cell_length_c   8.33120901
_cell_angle_alpha   89.99407181
_cell_angle_beta   90.00000000
_cell_angle_gamma   90.00000000
_symmetry_Int_Tables_number   1
_chemical_formula_structural   Ho6Er2GaPd24
_chemical_formula_sum   'Ho6 Er2 Ga1 Pd24'
_cell_volume   578.28102710
_cell_formula_units_Z   1
loop_
 _symmetry_equiv_pos_site_id
 _symmetry_equiv_pos_as_xyz
  1  'x, y, z'
loop_
 _atom_site_type_symbol
 _atom_site_label
 _atom_site_symmetry_multiplicity
 _atom_site_fract_x
 _atom_site_fract_y
 _atom_site_fract_z
 _atom_site_occupancy
  Ho  Ho0  1  0.251505  0.251517  0.748483  1
  Ho  Ho1  1  0.251505  0.748483  0.251517  1
  Ho  Ho2  1  0.748510  0.251521  0.251521  1
  Ho  Ho3  1  0.748510  0.748479  0.748479  1
  Ho  Ho4  1  0.748483  0.748465  0.251535  1
  Ho  Ho5  1  0.748483  0.251535  0.748465  1
  Er  Er6  1  0.251462  0.748407  0.748407  1
  Er  Er7  1  0.251462  0.251593  0.251593  1
  Ga  Ga8  1  0.000043  0.000000  0.000000  1
  Pd  Pd9  1  0.499807  0.500173  0.747098  1
  Pd  Pd10  1  0.499807  0.252902  0.499827  1
  Pd  Pd11  1  0.252920  0.500000  0.500000  1
  Pd  Pd12  1  0.499807  0.499827  0.252902  1
  Pd  Pd13  1  0.499807  0.747098  0.500173  1
  Pd  Pd14  1  0.747080  0.500000  0.500000  1
  Pd  Pd15  1  0.000174  0.999834  0.708364  1
  Pd  Pd16  1  0.000174  0.291636  0.000166  1
  Pd  Pd17  1  0.291624  0.000000  0.000000  1
  Pd  Pd18  1  0.000174  0.000166  0.291636  1
  Pd  Pd19  1  0.000174  0.708364  0.999834  1
  Pd  Pd20  1  0.708327  0.000000  0.000000  1
  Pd  Pd21  1  0.000194  0.500165  0.739802  1
  Pd  Pd22  1  0.499826  0.260197  0.000186  1
  Pd  Pd23  1  0.260225  0.000000  0.500000  1
  Pd  Pd24  1  0.000194  0.260198  0.499835  1
  Pd  Pd25  1  0.499826  0.999814  0.739803  1
  Pd  Pd26  1  0.260225  0.500000  0.000000  1
  Pd  Pd27  1  0.000194  0.499835  0.260198  1
  Pd  Pd28  1  0.499826  0.739803  0.999814  1
  Pd  Pd29  1  0.000194  0.739802  0.500165  1
  Pd  Pd30  1  0.499826  0.000186  0.260197  1
  Pd  Pd31  1  0.739814  0.000000  0.500000  1
  Pd  Pd32  1  0.739814  0.500000  0.000000  1
