# generated using pymatgen
data_Ir2OsRuPb4O13
_symmetry_space_group_name_H-M   'P 1'
_cell_length_a   7.36615264
_cell_length_b   7.36824814
_cell_length_c   7.33483900
_cell_angle_alpha   60.14988172
_cell_angle_beta   60.14052764
_cell_angle_gamma   60.30955890
_symmetry_Int_Tables_number   1
_chemical_formula_structural   Ir2OsRuPb4O13
_chemical_formula_sum   'Ir2 Os1 Ru1 Pb4 O13'
_cell_volume   282.77462483
_cell_formula_units_Z   1
loop_
 _symmetry_equiv_pos_site_id
 _symmetry_equiv_pos_as_xyz
  1  'x, y, z'
loop_
 _atom_site_type_symbol
 _atom_site_label
 _atom_site_symmetry_multiplicity
 _atom_site_fract_x
 _atom_site_fract_y
 _atom_site_fract_z
 _atom_site_occupancy
  Ir  Ir0  1  0.875156  0.874955  0.375333  1
  Ir  Ir1  1  0.875156  0.874955  0.874555  1
  Os  Os2  1  0.874889  0.375226  0.874942  1
  Ru  Ru3  1  0.375492  0.875422  0.874543  1
  Pb  Pb4  1  0.879440  0.374664  0.372949  1
  Pb  Pb5  1  0.372341  0.374429  0.371589  1
  Pb  Pb6  1  0.372341  0.374429  0.881642  1
  Pb  Pb7  1  0.374134  0.877698  0.374084  1
  O  O8  1  0.202468  0.794375  0.800640  1
  O  O9  1  0.202468  0.794375  0.202516  1
  O  O10  1  0.551721  0.951981  0.944547  1
  O  O11  1  0.551721  0.951981  0.551752  1
  O  O12  1  0.948667  0.956129  0.547602  1
  O  O13  1  0.797206  0.793839  0.204477  1
  O  O14  1  0.560554  0.554383  0.942532  1
  O  O15  1  0.801477  0.201401  0.802587  1
  O  O16  1  0.801477  0.201401  0.194535  1
  O  O17  1  0.946119  0.552311  0.942918  1
  O  O18  1  0.946119  0.552311  0.558654  1
  O  O19  1  0.190497  0.197024  0.806240  1
  O  O20  1  0.500559  0.496713  0.501365  1
