# generated using pymatgen
data_Nd2HoEr(SeO3)6
_symmetry_space_group_name_H-M   'P 1'
_cell_length_a   7.22233047
_cell_length_b   8.26168206
_cell_length_c   9.18194963
_cell_angle_alpha   70.90877950
_cell_angle_beta   70.21051318
_cell_angle_gamma   66.16683696
_symmetry_Int_Tables_number   1
_chemical_formula_structural   Nd2HoEr(SeO3)6
_chemical_formula_sum   'Nd2 Ho1 Er1 Se6 O18'
_cell_volume   459.89164252
_cell_formula_units_Z   1
loop_
 _symmetry_equiv_pos_site_id
 _symmetry_equiv_pos_as_xyz
  1  'x, y, z'
loop_
 _atom_site_type_symbol
 _atom_site_label
 _atom_site_symmetry_multiplicity
 _atom_site_fract_x
 _atom_site_fract_y
 _atom_site_fract_z
 _atom_site_occupancy
  Nd  Nd0  1  0.332527  0.730564  0.591973  1
  Nd  Nd1  1  0.667392  0.269556  0.407918  1
  Ho  Ho2  1  0.740914  0.735876  0.801674  1
  Er  Er3  1  0.258984  0.264144  0.198300  1
  Se  Se4  1  0.425293  0.782703  0.192754  1
  Se  Se5  1  0.574300  0.217880  0.807525  1
  Se  Se6  1  0.149658  0.746439  0.969307  1
  Se  Se7  1  0.850482  0.252706  0.031349  1
  Se  Se8  1  0.887309  0.753716  0.420531  1
  Se  Se9  1  0.112923  0.246290  0.578990  1
  O  O10  1  0.644773  0.793727  0.047588  1
  O  O11  1  0.355117  0.206559  0.953207  1
  O  O12  1  0.363687  0.950775  0.293621  1
  O  O13  1  0.635733  0.050321  0.706131  1
  O  O14  1  0.513746  0.602306  0.344890  1
  O  O15  1  0.485979  0.398031  0.655220  1
  O  O16  1  0.172277  0.559947  0.120839  1
  O  O17  1  0.828176  0.438689  0.879434  1
  O  O18  1  0.404260  0.711552  0.852769  1
  O  O19  1  0.595489  0.288358  0.147449  1
  O  O20  1  0.341401  0.248322  0.431290  1
  O  O21  1  0.658596  0.751725  0.567788  1
  O  O22  1  0.973573  0.293630  0.438508  1
  O  O23  1  0.026886  0.706337  0.560819  1
  O  O24  1  0.149509  0.023872  0.658670  1
  O  O25  1  0.850463  0.976192  0.341343  1
  O  O26  1  0.940970  0.301514  0.160526  1
  O  O27  1  0.059581  0.698271  0.839589  1
