# generated using pymatgen
data_Nd3In2Pt3Au
_symmetry_space_group_name_H-M   'P 1'
_cell_length_a   7.75922665
_cell_length_b   7.91244752
_cell_length_c   3.93904200
_cell_angle_alpha   90.00000000
_cell_angle_beta   90.00000000
_cell_angle_gamma   120.65540111
_symmetry_Int_Tables_number   1
_chemical_formula_structural   Nd3In2Pt3Au
_chemical_formula_sum   'Nd3 In2 Pt3 Au1'
_cell_volume   208.03877057
_cell_formula_units_Z   1
loop_
 _symmetry_equiv_pos_site_id
 _symmetry_equiv_pos_as_xyz
  1  'x, y, z'
loop_
 _atom_site_type_symbol
 _atom_site_label
 _atom_site_symmetry_multiplicity
 _atom_site_fract_x
 _atom_site_fract_y
 _atom_site_fract_z
 _atom_site_occupancy
  Nd  Nd0  1  0.000000  0.579911  0.500000  1
  Nd  Nd1  1  0.616973  0.015790  0.500000  1
  Nd  Nd2  1  0.383027  0.398816  0.500000  1
  In  In3  1  0.255850  0.995943  0.000000  1
  In  In4  1  0.744150  0.740093  0.000000  1
  Pt  Pt5  1  0.000000  0.984074  0.500000  1
  Pt  Pt6  1  0.654165  0.337907  0.000000  1
  Pt  Pt7  1  0.345835  0.683743  0.000000  1
  Au  Au8  1  0.000000  0.263723  0.000000  1
