# generated using pymatgen
data_Sc2Sn2IrPt
_symmetry_space_group_name_H-M   'P 1'
_cell_length_a   7.51494800
_cell_length_b   7.51494811
_cell_length_c   7.19811000
_cell_angle_alpha   90.00000000
_cell_angle_beta   90.00000000
_cell_angle_gamma   119.99999953
_symmetry_Int_Tables_number   1
_chemical_formula_structural   Sc2Sn2IrPt
_chemical_formula_sum   'Sc6 Sn6 Ir3 Pt3'
_cell_volume   352.04734935
_cell_formula_units_Z   3
loop_
 _symmetry_equiv_pos_site_id
 _symmetry_equiv_pos_as_xyz
  1  'x, y, z'
loop_
 _atom_site_type_symbol
 _atom_site_label
 _atom_site_symmetry_multiplicity
 _atom_site_fract_x
 _atom_site_fract_y
 _atom_site_fract_z
 _atom_site_occupancy
  Sc  Sc0  1  0.401060  0.012857  0.246247  1
  Sc  Sc1  1  0.611797  0.598940  0.246247  1
  Sc  Sc2  1  0.987143  0.388203  0.246247  1
  Sc  Sc3  1  0.396118  0.003519  0.753687  1
  Sc  Sc4  1  0.607401  0.603882  0.753687  1
  Sc  Sc5  1  0.996481  0.392599  0.753687  1
  Sn  Sn6  1  0.273344  0.274326  0.999572  1
  Sn  Sn7  1  0.000982  0.726656  0.999572  1
  Sn  Sn8  1  0.004486  0.733014  0.499547  1
  Sn  Sn9  1  0.728528  0.995514  0.499547  1
  Sn  Sn10  1  0.266986  0.271472  0.499547  1
  Sn  Sn11  1  0.725674  0.999018  0.999572  1
  Ir  Ir12  1  0.000000  0.000000  0.754134  1
  Ir  Ir13  1  0.000000  0.000000  0.244957  1
  Ir  Ir14  1  0.666667  0.333333  0.994777  1
  Pt  Pt15  1  0.333333  0.666667  0.491068  1
  Pt  Pt16  1  0.333333  0.666667  0.007758  1
  Pt  Pt17  1  0.666667  0.333333  0.510149  1
