# generated using pymatgen
data_Dy8Tm9Sc3Pb16
_symmetry_space_group_name_H-M   'P 1'
_cell_length_a   8.06171952
_cell_length_b   15.43790800
_cell_length_c   8.16142900
_cell_angle_alpha   90.00000000
_cell_angle_beta   90.02057517
_cell_angle_gamma   90.00000000
_symmetry_Int_Tables_number   1
_chemical_formula_structural   Dy8Tm9Sc3Pb16
_chemical_formula_sum   'Dy8 Tm9 Sc3 Pb16'
_cell_volume   1015.73942988
_cell_formula_units_Z   1
loop_
 _symmetry_equiv_pos_site_id
 _symmetry_equiv_pos_as_xyz
  1  'x, y, z'
loop_
 _atom_site_type_symbol
 _atom_site_label
 _atom_site_symmetry_multiplicity
 _atom_site_fract_x
 _atom_site_fract_y
 _atom_site_fract_z
 _atom_site_occupancy
  Dy  Dy0  1  0.470960  0.596116  0.677659  1
  Dy  Dy1  1  0.971952  0.903984  0.823471  1
  Dy  Dy2  1  0.528653  0.096763  0.322902  1
  Dy  Dy3  1  0.028530  0.403493  0.177250  1
  Dy  Dy4  1  0.528653  0.403237  0.322902  1
  Dy  Dy5  1  0.028530  0.096507  0.177250  1
  Dy  Dy6  1  0.470960  0.903884  0.677659  1
  Dy  Dy7  1  0.971952  0.596016  0.823471  1
  Tm  Tm8  1  0.631498  0.623097  0.155043  1
  Tm  Tm9  1  0.132710  0.877096  0.344067  1
  Tm  Tm10  1  0.368201  0.123620  0.844653  1
  Tm  Tm11  1  0.868037  0.376192  0.655123  1
  Tm  Tm12  1  0.368201  0.376380  0.844653  1
  Tm  Tm13  1  0.868037  0.123808  0.655123  1
  Tm  Tm14  1  0.631498  0.876903  0.155043  1
  Tm  Tm15  1  0.132710  0.622904  0.344067  1
  Tm  Tm16  1  0.799331  0.750000  0.495146  1
  Sc  Sc17  1  0.298898  0.750000  0.005345  1
  Sc  Sc18  1  0.201080  0.250000  0.505250  1
  Sc  Sc19  1  0.701163  0.250000  0.994833  1
  Pb  Pb20  1  0.709577  0.455445  0.960517  1
  Pb  Pb21  1  0.209739  0.044540  0.539404  1
  Pb  Pb22  1  0.290501  0.955880  0.039317  1
  Pb  Pb23  1  0.790460  0.542558  0.459964  1
  Pb  Pb24  1  0.290501  0.544120  0.039317  1
  Pb  Pb25  1  0.790460  0.957442  0.459964  1
  Pb  Pb26  1  0.709577  0.044555  0.960517  1
  Pb  Pb27  1  0.209739  0.455460  0.539404  1
  Pb  Pb28  1  0.436272  0.750000  0.371230  1
  Pb  Pb29  1  0.941789  0.750000  0.123551  1
  Pb  Pb30  1  0.559637  0.250000  0.626230  1
  Pb  Pb31  1  0.059617  0.250000  0.874035  1
  Pb  Pb32  1  0.655323  0.750000  0.844668  1
  Pb  Pb33  1  0.160595  0.750000  0.661341  1
  Pb  Pb34  1  0.342173  0.250000  0.159434  1
  Pb  Pb35  1  0.842484  0.250000  0.340194  1
