# generated using pymatgen
data_Ho4TmIrOs
_symmetry_space_group_name_H-M   'P 1'
_cell_length_a   6.38808077
_cell_length_b   7.30764755
_cell_length_c   8.36830945
_cell_angle_alpha   96.68652128
_cell_angle_beta   112.43795168
_cell_angle_gamma   89.99999815
_symmetry_Int_Tables_number   1
_chemical_formula_structural   Ho4TmIrOs
_chemical_formula_sum   'Ho8 Tm2 Ir2 Os2'
_cell_volume   358.19698955
_cell_formula_units_Z   2
loop_
 _symmetry_equiv_pos_site_id
 _symmetry_equiv_pos_as_xyz
  1  'x, y, z'
loop_
 _atom_site_type_symbol
 _atom_site_label
 _atom_site_symmetry_multiplicity
 _atom_site_fract_x
 _atom_site_fract_y
 _atom_site_fract_z
 _atom_site_occupancy
  Ho  Ho0  1  0.969127  0.916148  0.178875  1
  Ho  Ho1  1  0.790251  0.583852  0.821125  1
  Ho  Ho2  1  0.026461  0.081957  0.816706  1
  Ho  Ho3  1  0.209756  0.418043  0.183294  1
  Ho  Ho4  1  0.652645  0.817669  0.439875  1
  Ho  Ho5  1  0.212771  0.682331  0.560125  1
  Ho  Ho6  1  0.350469  0.179009  0.561969  1
  Ho  Ho7  1  0.788500  0.320991  0.438031  1
  Tm  Tm8  1  0.423112  0.750000  0.000000  1
  Tm  Tm9  1  0.578100  0.250000  0.000000  1
  Ir  Ir10  1  0.174592  0.423481  0.780636  1
  Ir  Ir11  1  0.393954  0.076519  0.219364  1
  Os  Os12  1  0.823402  0.574810  0.216540  1
  Os  Os13  1  0.606862  0.925190  0.783460  1
