# generated using pymatgen
data_Ho(GaNi)6
_symmetry_space_group_name_H-M   'P 1'
_cell_length_a   6.48728548
_cell_length_b   6.48728523
_cell_length_c   6.48728492
_cell_angle_alpha   134.31184474
_cell_angle_beta   101.07148416
_cell_angle_gamma   96.28091822
_symmetry_Int_Tables_number   1
_chemical_formula_structural   Ho(GaNi)6
_chemical_formula_sum   'Ho1 Ga6 Ni6'
_cell_volume   179.82054040
_cell_formula_units_Z   1
loop_
 _symmetry_equiv_pos_site_id
 _symmetry_equiv_pos_as_xyz
  1  'x, y, z'
loop_
 _atom_site_type_symbol
 _atom_site_label
 _atom_site_symmetry_multiplicity
 _atom_site_fract_x
 _atom_site_fract_y
 _atom_site_fract_z
 _atom_site_occupancy
  Ho  Ho0  1  0.000000  0.000000  0.000000  1
  Ga  Ga1  1  0.344577  0.344577  0.000000  1
  Ga  Ga2  1  0.655423  0.655423  0.000000  1
  Ga  Ga3  1  0.341907  0.000000  0.341907  1
  Ga  Ga4  1  0.658093  0.000000  0.658093  1
  Ga  Ga5  1  0.185319  0.685319  0.500000  1
  Ga  Ga6  1  0.814681  0.314681  0.500000  1
  Ni  Ni7  1  0.762229  0.500000  0.262229  1
  Ni  Ni8  1  0.237771  0.500000  0.737771  1
  Ni  Ni9  1  0.500000  0.500000  0.500000  1
  Ni  Ni10  1  0.000000  0.000000  0.500000  1
  Ni  Ni11  1  0.000000  0.500000  0.000000  1
  Ni  Ni12  1  0.500000  0.000000  0.000000  1
