# generated using pymatgen
data_Hf4In2CoPt3
_symmetry_space_group_name_H-M   'P 1'
_cell_length_a   7.56131085
_cell_length_b   7.56131136
_cell_length_c   3.28783500
_cell_angle_alpha   90.00000000
_cell_angle_beta   90.00000000
_cell_angle_gamma   89.75504978
_symmetry_Int_Tables_number   1
_chemical_formula_structural   Hf4In2CoPt3
_chemical_formula_sum   'Hf4 In2 Co1 Pt3'
_cell_volume   187.97507187
_cell_formula_units_Z   1
loop_
 _symmetry_equiv_pos_site_id
 _symmetry_equiv_pos_as_xyz
  1  'x, y, z'
loop_
 _atom_site_type_symbol
 _atom_site_label
 _atom_site_symmetry_multiplicity
 _atom_site_fract_x
 _atom_site_fract_y
 _atom_site_fract_z
 _atom_site_occupancy
  Hf  Hf0  1  0.185295  0.314705  0.000000  1
  Hf  Hf1  1  0.839170  0.660830  0.000000  1
  Hf  Hf2  1  0.642107  0.173491  0.000000  1
  Hf  Hf3  1  0.326509  0.857893  0.000000  1
  In  In4  1  0.997483  0.001136  0.500000  1
  In  In5  1  0.498864  0.502517  0.500000  1
  Co  Co6  1  0.372196  0.127804  0.500000  1
  Pt  Pt7  1  0.628853  0.871147  0.500000  1
  Pt  Pt8  1  0.873295  0.363770  0.500000  1
  Pt  Pt9  1  0.136230  0.626705  0.500000  1
