# generated using pymatgen
data_Dy3Er5Re2(B12Ru)2
_symmetry_space_group_name_H-M   'P 1'
_cell_length_a   3.65462100
_cell_length_b   9.12589507
_cell_length_c   11.51368002
_cell_angle_alpha   90.20089714
_cell_angle_beta   90.00000000
_cell_angle_gamma   90.00000000
_symmetry_Int_Tables_number   1
_chemical_formula_structural   Dy3Er5Re2(B12Ru)2
_chemical_formula_sum   'Dy3 Er5 Re2 B24 Ru2'
_cell_volume   383.99830081
_cell_formula_units_Z   1
loop_
 _symmetry_equiv_pos_site_id
 _symmetry_equiv_pos_as_xyz
  1  'x, y, z'
loop_
 _atom_site_type_symbol
 _atom_site_label
 _atom_site_symmetry_multiplicity
 _atom_site_fract_x
 _atom_site_fract_y
 _atom_site_fract_z
 _atom_site_occupancy
  Dy  Dy0  1  0.000000  0.320942  0.412546  1
  Dy  Dy1  1  0.000000  0.679045  0.587479  1
  Dy  Dy2  1  0.000000  0.824477  0.084572  1
  Er  Er3  1  0.000000  0.175408  0.915557  1
  Er  Er4  1  0.000000  0.942983  0.370562  1
  Er  Er5  1  0.000000  0.057127  0.629497  1
  Er  Er6  1  0.000000  0.442998  0.129096  1
  Er  Er7  1  0.000000  0.556820  0.870788  1
  Re  Re8  1  0.000000  0.138564  0.179603  1
  Re  Re9  1  0.000000  0.861739  0.820284  1
  B  B10  1  0.500000  0.554090  0.432897  1
  B  B11  1  0.500000  0.445864  0.567144  1
  B  B12  1  0.500000  0.053422  0.066641  1
  B  B13  1  0.500000  0.947062  0.933081  1
  B  B14  1  0.500000  0.749051  0.418782  1
  B  B15  1  0.500000  0.250957  0.581284  1
  B  B16  1  0.500000  0.249428  0.080678  1
  B  B17  1  0.500000  0.750583  0.918865  1
  B  B18  1  0.500000  0.790891  0.265903  1
  B  B19  1  0.500000  0.208947  0.734409  1
  B  B20  1  0.500000  0.292085  0.234649  1
  B  B21  1  0.500000  0.707941  0.765281  1
  B  B22  1  0.500000  0.630731  0.185865  1
  B  B23  1  0.500000  0.368941  0.814364  1
  B  B24  1  0.500000  0.131064  0.315006  1
  B  B25  1  0.500000  0.869036  0.685017  1
  B  B26  1  0.500000  0.982556  0.212589  1
  B  B27  1  0.500000  0.017938  0.787555  1
  B  B28  1  0.500000  0.483324  0.287916  1
  B  B29  1  0.500000  0.516588  0.712098  1
  B  B30  1  0.500000  0.602458  0.028478  1
  B  B31  1  0.500000  0.397017  0.971349  1
  B  B32  1  0.500000  0.102826  0.471726  1
  B  B33  1  0.500000  0.897205  0.528313  1
  Ru  Ru34  1  0.000000  0.638078  0.321299  1
  Ru  Ru35  1  0.000000  0.361815  0.678828  1
