# generated using pymatgen
data_Y20IrRh11
_symmetry_space_group_name_H-M   'P 1'
_cell_length_a   10.95086212
_cell_length_b   10.95086130
_cell_length_c   6.38199800
_cell_angle_alpha   89.99804120
_cell_angle_beta   89.99804211
_cell_angle_gamma   90.05212178
_symmetry_Int_Tables_number   1
_chemical_formula_structural   Y20IrRh11
_chemical_formula_sum   'Y20 Ir1 Rh11'
_cell_volume   765.33764056
_cell_formula_units_Z   1
loop_
 _symmetry_equiv_pos_site_id
 _symmetry_equiv_pos_as_xyz
  1  'x, y, z'
loop_
 _atom_site_type_symbol
 _atom_site_label
 _atom_site_symmetry_multiplicity
 _atom_site_fract_x
 _atom_site_fract_y
 _atom_site_fract_z
 _atom_site_occupancy
  Y  Y0  1  0.290937  0.088932  0.378829  1
  Y  Y1  1  0.291245  0.909695  0.878679  1
  Y  Y2  1  0.708987  0.088770  0.878753  1
  Y  Y3  1  0.708898  0.911015  0.378673  1
  Y  Y4  1  0.587537  0.790450  0.878435  1
  Y  Y5  1  0.588967  0.208973  0.379113  1
  Y  Y6  1  0.410681  0.790364  0.379787  1
  Y  Y7  1  0.411010  0.208808  0.878641  1
  Y  Y8  1  0.209550  0.412463  0.621565  1
  Y  Y9  1  0.209636  0.589319  0.120213  1
  Y  Y10  1  0.791027  0.411033  0.120887  1
  Y  Y11  1  0.791192  0.588990  0.621359  1
  Y  Y12  1  0.911068  0.709063  0.121171  1
  Y  Y13  1  0.911230  0.291013  0.621247  1
  Y  Y14  1  0.090305  0.708755  0.621321  1
  Y  Y15  1  0.088985  0.291102  0.121327  1
  Y  Y16  1  0.999855  0.999918  0.500065  1
  Y  Y17  1  0.000082  0.000145  0.999935  1
  Y  Y18  1  0.499721  0.500078  0.000045  1
  Y  Y19  1  0.499922  0.500279  0.499955  1
  Ir  Ir20  1  0.346045  0.653955  0.750000  1
  Rh  Rh21  1  0.846022  0.153978  0.250000  1
  Rh  Rh22  1  0.845902  0.846162  0.750163  1
  Rh  Rh23  1  0.153838  0.154098  0.749837  1
  Rh  Rh24  1  0.153368  0.846632  0.250000  1
  Rh  Rh25  1  0.654009  0.345991  0.750000  1
  Rh  Rh26  1  0.654614  0.654080  0.250082  1
  Rh  Rh27  1  0.345920  0.345386  0.249918  1
  Rh  Rh28  1  0.500201  0.000417  0.125019  1
  Rh  Rh29  1  0.500270  0.000604  0.624484  1
  Rh  Rh30  1  0.999396  0.499730  0.875516  1
  Rh  Rh31  1  0.999583  0.499799  0.374981  1
