# generated using pymatgen
data_Ca4Al19Rh5
_symmetry_space_group_name_H-M   'P 1'
_cell_length_a   7.56020673
_cell_length_b   7.56020875
_cell_length_c   9.57189200
_cell_angle_alpha   90.23339114
_cell_angle_beta   90.23339878
_cell_angle_gamma   119.50209635
_symmetry_Int_Tables_number   1
_chemical_formula_structural   Ca4Al19Rh5
_chemical_formula_sum   'Ca4 Al19 Rh5'
_cell_volume   476.14456826
_cell_formula_units_Z   1
loop_
 _symmetry_equiv_pos_site_id
 _symmetry_equiv_pos_as_xyz
  1  'x, y, z'
loop_
 _atom_site_type_symbol
 _atom_site_label
 _atom_site_symmetry_multiplicity
 _atom_site_fract_x
 _atom_site_fract_y
 _atom_site_fract_z
 _atom_site_occupancy
  Ca  Ca0  1  0.995907  0.675716  0.750086  1
  Ca  Ca1  1  0.004093  0.324284  0.249914  1
  Ca  Ca2  1  0.675716  0.995907  0.750086  1
  Ca  Ca3  1  0.324284  0.004093  0.249914  1
  Al  Al4  1  0.139677  0.139677  0.761621  1
  Al  Al5  1  0.860323  0.860323  0.238379  1
  Al  Al6  1  0.002064  0.346602  0.578579  1
  Al  Al7  1  0.997936  0.653398  0.421421  1
  Al  Al8  1  0.001263  0.663700  0.069642  1
  Al  Al9  1  0.336300  0.998737  0.930358  1
  Al  Al10  1  0.998737  0.336300  0.930358  1
  Al  Al11  1  0.663700  0.001263  0.069642  1
  Al  Al12  1  0.653398  0.997936  0.421421  1
  Al  Al13  1  0.346602  0.002064  0.578579  1
  Al  Al14  1  0.333832  0.333832  0.047862  1
  Al  Al15  1  0.666168  0.666168  0.952138  1
  Al  Al16  1  0.655214  0.655214  0.556619  1
  Al  Al17  1  0.344786  0.344786  0.443381  1
  Al  Al18  1  0.339340  0.551351  0.751822  1
  Al  Al19  1  0.660660  0.448649  0.248178  1
  Al  Al20  1  0.551351  0.339340  0.751822  1
  Al  Al21  1  0.448649  0.660660  0.248178  1
  Al  Al22  1  0.000000  0.000000  0.500000  1
  Rh  Rh23  1  0.671203  0.328797  0.500000  1
  Rh  Rh24  1  0.328797  0.671203  0.500000  1
  Rh  Rh25  1  0.329567  0.670433  0.000000  1
  Rh  Rh26  1  0.670433  0.329567  0.000000  1
  Rh  Rh27  1  0.000000  0.000000  0.000000  1
