# generated using pymatgen
data_Ho4Al18CuOs2Pd3
_symmetry_space_group_name_H-M   'P 1'
_cell_length_a   7.58902782
_cell_length_b   7.58902714
_cell_length_c   9.44926369
_cell_angle_alpha   89.96549039
_cell_angle_beta   89.96548908
_cell_angle_gamma   119.27930366
_symmetry_Int_Tables_number   1
_chemical_formula_structural   Ho4Al18CuOs2Pd3
_chemical_formula_sum   'Ho4 Al18 Cu1 Os2 Pd3'
_cell_volume   474.68869860
_cell_formula_units_Z   1
loop_
 _symmetry_equiv_pos_site_id
 _symmetry_equiv_pos_as_xyz
  1  'x, y, z'
loop_
 _atom_site_type_symbol
 _atom_site_label
 _atom_site_symmetry_multiplicity
 _atom_site_fract_x
 _atom_site_fract_y
 _atom_site_fract_z
 _atom_site_occupancy
  Ho  Ho0  1  0.994253  0.672590  0.249372  1
  Ho  Ho1  1  0.005177  0.327165  0.750831  1
  Ho  Ho2  1  0.672835  0.994823  0.249169  1
  Ho  Ho3  1  0.327410  0.005747  0.750628  1
  Al  Al4  1  0.128058  0.128115  0.249870  1
  Al  Al5  1  0.871885  0.871942  0.750130  1
  Al  Al6  1  0.998709  0.332457  0.075990  1
  Al  Al7  1  0.999351  0.668227  0.924192  1
  Al  Al8  1  0.000165  0.667853  0.575349  1
  Al  Al9  1  0.332147  0.999835  0.424651  1
  Al  Al10  1  0.999789  0.331241  0.424305  1
  Al  Al11  1  0.668759  0.000211  0.575695  1
  Al  Al12  1  0.667543  0.001291  0.924010  1
  Al  Al13  1  0.331773  0.000649  0.075808  1
  Al  Al14  1  0.329031  0.328416  0.552358  1
  Al  Al15  1  0.671584  0.670970  0.447642  1
  Al  Al16  1  0.670274  0.669996  0.053348  1
  Al  Al17  1  0.330005  0.329726  0.946652  1
  Al  Al18  1  0.343201  0.549153  0.250096  1
  Al  Al19  1  0.657401  0.449001  0.750963  1
  Al  Al20  1  0.550999  0.342599  0.249037  1
  Al  Al21  1  0.450847  0.656799  0.749904  1
  Cu  Cu22  1  0.671561  0.328439  0.000000  1
  Os  Os23  1  0.999063  0.000937  0.000000  1
  Os  Os24  1  0.000280  0.999720  0.500000  1
  Pd  Pd25  1  0.327491  0.672509  0.000000  1
  Pd  Pd26  1  0.328175  0.671825  0.500000  1
  Pd  Pd27  1  0.672236  0.327764  0.500000  1
