# generated using pymatgen
data_Y18Er2Ir7Au5
_symmetry_space_group_name_H-M   'P 1'
_cell_length_a   11.23540683
_cell_length_b   11.23540575
_cell_length_c   6.34340424
_cell_angle_alpha   89.94980639
_cell_angle_beta   89.94981035
_cell_angle_gamma   89.65611938
_symmetry_Int_Tables_number   1
_chemical_formula_structural   Y18Er2Ir7Au5
_chemical_formula_sum   'Y18 Er2 Ir7 Au5'
_cell_volume   800.74050634
_cell_formula_units_Z   1
loop_
 _symmetry_equiv_pos_site_id
 _symmetry_equiv_pos_as_xyz
  1  'x, y, z'
loop_
 _atom_site_type_symbol
 _atom_site_label
 _atom_site_symmetry_multiplicity
 _atom_site_fract_x
 _atom_site_fract_y
 _atom_site_fract_z
 _atom_site_occupancy
  Y  Y0  1  0.299732  0.091002  0.364501  1
  Y  Y1  1  0.301224  0.907277  0.863083  1
  Y  Y2  1  0.698001  0.081016  0.859649  1
  Y  Y3  1  0.698013  0.905751  0.361511  1
  Y  Y4  1  0.580831  0.784253  0.876023  1
  Y  Y5  1  0.576255  0.207341  0.363584  1
  Y  Y6  1  0.417716  0.787873  0.376276  1
  Y  Y7  1  0.411320  0.208748  0.877322  1
  Y  Y8  1  0.215747  0.419169  0.623977  1
  Y  Y9  1  0.212127  0.582284  0.123724  1
  Y  Y10  1  0.792659  0.423745  0.136416  1
  Y  Y11  1  0.791252  0.588680  0.622678  1
  Y  Y12  1  0.908998  0.700268  0.135499  1
  Y  Y13  1  0.918984  0.301999  0.640351  1
  Y  Y14  1  0.092723  0.698776  0.636917  1
  Y  Y15  1  0.094249  0.301987  0.138489  1
  Y  Y16  1  0.998591  0.000513  0.499374  1
  Y  Y17  1  0.999487  0.001409  0.000626  1
  Er  Er18  1  0.495827  0.502265  0.001404  1
  Er  Er19  1  0.497735  0.504173  0.498596  1
  Ir  Ir20  1  0.651563  0.649760  0.250185  1
  Ir  Ir21  1  0.350240  0.348437  0.249815  1
  Ir  Ir22  1  0.347058  0.652942  0.750000  1
  Ir  Ir23  1  0.499249  0.999247  0.112256  1
  Ir  Ir24  1  0.499065  0.000286  0.613484  1
  Ir  Ir25  1  0.999714  0.500935  0.886516  1
  Ir  Ir26  1  0.000753  0.500751  0.387744  1
  Au  Au27  1  0.841523  0.158477  0.250000  1
  Au  Au28  1  0.843450  0.845208  0.750380  1
  Au  Au29  1  0.154792  0.156550  0.749620  1
  Au  Au30  1  0.156268  0.843732  0.250000  1
  Au  Au31  1  0.654856  0.345144  0.750000  1
