# generated using pymatgen
data_BeV6Ga3N2
_symmetry_space_group_name_H-M   'P 1'
_cell_length_a   6.54288697
_cell_length_b   6.53221202
_cell_length_c   6.53144000
_cell_angle_alpha   90.00000000
_cell_angle_beta   90.00000000
_cell_angle_gamma   90.15518636
_symmetry_Int_Tables_number   1
_chemical_formula_structural   BeV6Ga3N2
_chemical_formula_sum   'Be2 V12 Ga6 N4'
_cell_volume   279.14961865
_cell_formula_units_Z   2
loop_
 _symmetry_equiv_pos_site_id
 _symmetry_equiv_pos_as_xyz
  1  'x, y, z'
loop_
 _atom_site_type_symbol
 _atom_site_label
 _atom_site_symmetry_multiplicity
 _atom_site_fract_x
 _atom_site_fract_y
 _atom_site_fract_z
 _atom_site_occupancy
  Be  Be0  1  0.180436  0.826796  0.321441  1
  Be  Be1  1  0.319564  0.173204  0.821441  1
  V  V2  1  0.794151  0.958742  0.373777  1
  V  V3  1  0.705849  0.041258  0.873777  1
  V  V4  1  0.208134  0.460970  0.126266  1
  V  V5  1  0.291866  0.539030  0.626266  1
  V  V6  1  0.962026  0.371674  0.791747  1
  V  V7  1  0.041183  0.877128  0.707655  1
  V  V8  1  0.458817  0.122872  0.207655  1
  V  V9  1  0.537974  0.628326  0.291747  1
  V  V10  1  0.372710  0.792446  0.961593  1
  V  V11  1  0.876561  0.709121  0.042551  1
  V  V12  1  0.127290  0.207554  0.461593  1
  V  V13  1  0.623439  0.290879  0.542551  1
  Ga  Ga14  1  0.822042  0.319913  0.179075  1
  Ga  Ga15  1  0.677958  0.680087  0.679075  1
  Ga  Ga16  1  0.555368  0.415949  0.924993  1
  Ga  Ga17  1  0.413565  0.935534  0.570723  1
  Ga  Ga18  1  0.944632  0.584051  0.424993  1
  Ga  Ga19  1  0.086435  0.064466  0.070723  1
  N  N20  1  0.874676  0.125007  0.624477  1
  N  N21  1  0.625324  0.874993  0.124477  1
  N  N22  1  0.124438  0.624564  0.875701  1
  N  N23  1  0.375562  0.375436  0.375701  1
