# generated using pymatgen
data_Tb2TmZnAg3Ge2
_symmetry_space_group_name_H-M   'P 1'
_cell_length_a   7.21024458
_cell_length_b   7.21850327
_cell_length_c   4.14758400
_cell_angle_alpha   90.00000000
_cell_angle_beta   90.00000000
_cell_angle_gamma   120.03789992
_symmetry_Int_Tables_number   1
_chemical_formula_structural   Tb2TmZnAg3Ge2
_chemical_formula_sum   'Tb2 Tm1 Zn1 Ag3 Ge2'
_cell_volume   186.87748922
_cell_formula_units_Z   1
loop_
 _symmetry_equiv_pos_site_id
 _symmetry_equiv_pos_as_xyz
  1  'x, y, z'
loop_
 _atom_site_type_symbol
 _atom_site_label
 _atom_site_symmetry_multiplicity
 _atom_site_fract_x
 _atom_site_fract_y
 _atom_site_fract_z
 _atom_site_occupancy
  Tb  Tb0  1  0.418190  0.418375  0.500000  1
  Tb  Tb1  1  0.581810  0.000185  0.500000  1
  Tm  Tm2  1  0.000000  0.581478  0.500000  1
  Zn  Zn3  1  0.000000  0.998980  0.500000  1
  Ag  Ag4  1  0.753018  0.752066  0.000000  1
  Ag  Ag5  1  0.246982  0.999048  0.000000  1
  Ag  Ag6  1  0.000000  0.248940  0.000000  1
  Ge  Ge7  1  0.668977  0.334952  0.000000  1
  Ge  Ge8  1  0.331023  0.665976  0.000000  1
