# generated using pymatgen
data_Cs7Rb(US5)2
_symmetry_space_group_name_H-M   'P 1'
_cell_length_a   8.17768724
_cell_length_b   12.15320575
_cell_length_c   8.03299200
_cell_angle_alpha   101.35293811
_cell_angle_beta   102.29381962
_cell_angle_gamma   110.40113400
_symmetry_Int_Tables_number   1
_chemical_formula_structural   Cs7Rb(US5)2
_chemical_formula_sum   'Cs7 Rb1 U2 S10'
_cell_volume   698.35936907
_cell_formula_units_Z   1
loop_
 _symmetry_equiv_pos_site_id
 _symmetry_equiv_pos_as_xyz
  1  'x, y, z'
loop_
 _atom_site_type_symbol
 _atom_site_label
 _atom_site_symmetry_multiplicity
 _atom_site_fract_x
 _atom_site_fract_y
 _atom_site_fract_z
 _atom_site_occupancy
  Cs  Cs0  1  0.000040  0.500016  0.000000  1
  Cs  Cs1  1  0.429330  0.908638  0.211147  1
  Cs  Cs2  1  0.597602  0.597979  0.293796  1
  Cs  Cs3  1  0.795137  0.294129  0.419924  1
  Cs  Cs4  1  0.204870  0.705870  0.580057  1
  Cs  Cs5  1  0.402416  0.402015  0.706205  1
  Cs  Cs6  1  0.570673  0.091363  0.788860  1
  Rb  Rb7  1  0.000016  0.000011  0.500009  1
  U  U8  1  0.180974  0.186315  0.096347  1
  U  U9  1  0.818999  0.813676  0.903650  1
  S  S10  1  0.492537  0.298118  0.065763  1
  S  S11  1  0.856628  0.032806  0.104728  1
  S  S12  1  0.974292  0.772656  0.179311  1
  S  S13  1  0.173000  0.376403  0.286763  1
  S  S14  1  0.341460  0.152198  0.375080  1
  S  S15  1  0.658522  0.847815  0.624870  1
  S  S16  1  0.827012  0.623573  0.713207  1
  S  S17  1  0.025723  0.227337  0.820732  1
  S  S18  1  0.143389  0.967235  0.895313  1
  S  S19  1  0.507385  0.701848  0.934236  1
