# generated using pymatgen
data_RbEu3Y4(CuSe3)4
_symmetry_space_group_name_H-M   'P 1'
_cell_length_a   4.08580100
_cell_length_b   10.70548382
_cell_length_c   13.65964205
_cell_angle_alpha   90.04493578
_cell_angle_beta   90.00000000
_cell_angle_gamma   90.00000000
_symmetry_Int_Tables_number   1
_chemical_formula_structural   RbEu3Y4(CuSe3)4
_chemical_formula_sum   'Rb1 Eu3 Y4 Cu4 Se12'
_cell_volume   597.47906848
_cell_formula_units_Z   1
loop_
 _symmetry_equiv_pos_site_id
 _symmetry_equiv_pos_as_xyz
  1  'x, y, z'
loop_
 _atom_site_type_symbol
 _atom_site_label
 _atom_site_symmetry_multiplicity
 _atom_site_fract_x
 _atom_site_fract_y
 _atom_site_fract_z
 _atom_site_occupancy
  Rb  Rb0  1  0.750000  0.756205  0.998431  1
  Eu  Eu1  1  0.250000  0.238484  0.998831  1
  Eu  Eu2  1  0.750000  0.260221  0.497960  1
  Eu  Eu3  1  0.250000  0.740278  0.505874  1
  Y  Y4  1  0.750000  0.008180  0.257061  1
  Y  Y5  1  0.250000  0.992213  0.744374  1
  Y  Y6  1  0.750000  0.507192  0.253938  1
  Y  Y7  1  0.250000  0.493199  0.749011  1
  Cu  Cu8  1  0.750000  0.744261  0.710453  1
  Cu  Cu9  1  0.250000  0.255872  0.278056  1
  Cu  Cu10  1  0.750000  0.244824  0.774684  1
  Cu  Cu11  1  0.250000  0.756215  0.225922  1
  Se  Se12  1  0.750000  0.256437  0.169511  1
  Se  Se13  1  0.250000  0.743556  0.810892  1
  Se  Se14  1  0.750000  0.756488  0.337997  1
  Se  Se15  1  0.250000  0.244152  0.665943  1
  Se  Se16  1  0.750000  0.065589  0.885164  1
  Se  Se17  1  0.250000  0.947706  0.125047  1
  Se  Se18  1  0.750000  0.555941  0.603964  1
  Se  Se19  1  0.250000  0.432445  0.395483  1
  Se  Se20  1  0.750000  0.421043  0.888548  1
  Se  Se21  1  0.250000  0.567401  0.123954  1
  Se  Se22  1  0.750000  0.928453  0.601721  1
  Se  Se23  1  0.250000  0.083649  0.397179  1
