# generated using pymatgen
data_Ho8Tc2B24RuRh
_symmetry_space_group_name_H-M   'P 1'
_cell_length_a   3.66672700
_cell_length_b   9.12874485
_cell_length_c   11.51436389
_cell_angle_alpha   90.25006200
_cell_angle_beta   90.00000000
_cell_angle_gamma   90.00000000
_symmetry_Int_Tables_number   1
_chemical_formula_structural   Ho8Tc2B24RuRh
_chemical_formula_sum   'Ho8 Tc2 B24 Ru1 Rh1'
_cell_volume   385.41220134
_cell_formula_units_Z   1
loop_
 _symmetry_equiv_pos_site_id
 _symmetry_equiv_pos_as_xyz
  1  'x, y, z'
loop_
 _atom_site_type_symbol
 _atom_site_label
 _atom_site_symmetry_multiplicity
 _atom_site_fract_x
 _atom_site_fract_y
 _atom_site_fract_z
 _atom_site_occupancy
  Ho  Ho0  1  0.500000  0.318441  0.414089  1
  Ho  Ho1  1  0.500000  0.678867  0.590411  1
  Ho  Ho2  1  0.500000  0.175282  0.915029  1
  Ho  Ho3  1  0.500000  0.827160  0.081662  1
  Ho  Ho4  1  0.500000  0.441281  0.127155  1
  Ho  Ho5  1  0.500000  0.556661  0.872057  1
  Ho  Ho6  1  0.500000  0.055565  0.628898  1
  Ho  Ho7  1  0.500000  0.945334  0.370950  1
  Tc  Tc8  1  0.500000  0.138494  0.180051  1
  Tc  Tc9  1  0.500000  0.861416  0.820164  1
  B  B10  1  0.000000  0.106823  0.470648  1
  B  B11  1  0.000000  0.891936  0.529158  1
  B  B12  1  0.000000  0.393543  0.970520  1
  B  B13  1  0.000000  0.607135  0.029939  1
  B  B14  1  0.000000  0.132058  0.315186  1
  B  B15  1  0.000000  0.867738  0.685250  1
  B  B16  1  0.000000  0.368501  0.814324  1
  B  B17  1  0.000000  0.632069  0.183554  1
  B  B18  1  0.000000  0.053181  0.067074  1
  B  B19  1  0.000000  0.946992  0.932616  1
  B  B20  1  0.000000  0.446022  0.566549  1
  B  B21  1  0.000000  0.554288  0.434059  1
  B  B22  1  0.000000  0.483438  0.287381  1
  B  B23  1  0.000000  0.516468  0.712225  1
  B  B24  1  0.000000  0.017109  0.787185  1
  B  B25  1  0.000000  0.983047  0.212482  1
  B  B26  1  0.000000  0.248349  0.080868  1
  B  B27  1  0.000000  0.751750  0.919014  1
  B  B28  1  0.000000  0.251533  0.580314  1
  B  B29  1  0.000000  0.749382  0.421180  1
  B  B30  1  0.000000  0.292348  0.234748  1
  B  B31  1  0.000000  0.707633  0.765825  1
  B  B32  1  0.000000  0.209143  0.733485  1
  B  B33  1  0.000000  0.791375  0.265958  1
  Ru  Ru34  1  0.500000  0.362081  0.678313  1
  Rh  Rh35  1  0.500000  0.637559  0.321680  1
