# generated using pymatgen
data_Er4ReB16Ir2W
_symmetry_space_group_name_H-M   'P 1'
_cell_length_a   3.57195500
_cell_length_b   5.97272534
_cell_length_c   11.58049403
_cell_angle_alpha   89.64449423
_cell_angle_beta   90.00000000
_cell_angle_gamma   90.00000000
_symmetry_Int_Tables_number   1
_chemical_formula_structural   Er4ReB16Ir2W
_chemical_formula_sum   'Er4 Re1 B16 Ir2 W1'
_cell_volume   247.05704924
_cell_formula_units_Z   1
loop_
 _symmetry_equiv_pos_site_id
 _symmetry_equiv_pos_as_xyz
  1  'x, y, z'
loop_
 _atom_site_type_symbol
 _atom_site_label
 _atom_site_symmetry_multiplicity
 _atom_site_fract_x
 _atom_site_fract_y
 _atom_site_fract_z
 _atom_site_occupancy
  Er  Er0  1  0.000000  0.626931  0.349134  1
  Er  Er1  1  0.000000  0.371422  0.651239  1
  Er  Er2  1  0.000000  0.129549  0.147985  1
  Er  Er3  1  0.000000  0.871115  0.852782  1
  Re  Re4  1  0.000000  0.130249  0.412619  1
  B  B5  1  0.500000  0.790548  0.186828  1
  B  B6  1  0.500000  0.210664  0.813650  1
  B  B7  1  0.500000  0.288839  0.313089  1
  B  B8  1  0.500000  0.708892  0.688316  1
  B  B9  1  0.500000  0.864263  0.030336  1
  B  B10  1  0.500000  0.135628  0.969779  1
  B  B11  1  0.500000  0.365750  0.466946  1
  B  B12  1  0.500000  0.632048  0.530491  1
  B  B13  1  0.500000  0.887043  0.451376  1
  B  B14  1  0.500000  0.116614  0.545653  1
  B  B15  1  0.500000  0.386588  0.047528  1
  B  B16  1  0.500000  0.613192  0.952818  1
  B  B17  1  0.500000  0.977553  0.306197  1
  B  B18  1  0.500000  0.024835  0.694259  1
  B  B19  1  0.500000  0.474877  0.192511  1
  B  B20  1  0.500000  0.523268  0.807887  1
  Ir  Ir21  1  0.000000  0.645569  0.096185  1
  Ir  Ir22  1  0.000000  0.355649  0.905391  1
  W  W23  1  0.000000  0.868916  0.587001  1
