# generated using pymatgen
data_Zr6Zn21CoGePd
_symmetry_space_group_name_H-M   'P 1'
_cell_length_a   8.73693243
_cell_length_b   8.78420175
_cell_length_c   8.78420262
_cell_angle_alpha   60.36989545
_cell_angle_beta   60.17787744
_cell_angle_gamma   60.17786315
_symmetry_Int_Tables_number   1
_chemical_formula_structural   Zr6Zn21CoGePd
_chemical_formula_sum   'Zr6 Zn21 Co1 Ge1 Pd1'
_cell_volume   479.31047071
_cell_formula_units_Z   1
loop_
 _symmetry_equiv_pos_site_id
 _symmetry_equiv_pos_as_xyz
  1  'x, y, z'
loop_
 _atom_site_type_symbol
 _atom_site_label
 _atom_site_symmetry_multiplicity
 _atom_site_fract_x
 _atom_site_fract_y
 _atom_site_fract_z
 _atom_site_occupancy
  Zr  Zr0  1  0.715805  0.284195  0.284195  1
  Zr  Zr1  1  0.284195  0.715805  0.715805  1
  Zr  Zr2  1  0.289872  0.715654  0.284346  1
  Zr  Zr3  1  0.710128  0.284346  0.715654  1
  Zr  Zr4  1  0.289872  0.284346  0.715654  1
  Zr  Zr5  1  0.710128  0.715654  0.284346  1
  Zn  Zn6  1  0.134268  0.118479  0.118479  1
  Zn  Zn7  1  0.865732  0.881521  0.881521  1
  Zn  Zn8  1  0.122761  0.121859  0.632618  1
  Zn  Zn9  1  0.122761  0.632618  0.121859  1
  Zn  Zn10  1  0.877239  0.878141  0.367382  1
  Zn  Zn11  1  0.877239  0.367382  0.878141  1
  Zn  Zn12  1  0.628774  0.118479  0.118479  1
  Zn  Zn13  1  0.371226  0.881521  0.881521  1
  Zn  Zn14  1  0.000000  0.500000  0.500000  1
  Zn  Zn15  1  0.000000  0.500000  0.000000  1
  Zn  Zn16  1  0.500000  0.000000  0.500000  1
  Zn  Zn17  1  0.000000  0.000000  0.500000  1
  Zn  Zn18  1  0.500000  0.500000  0.000000  1
  Zn  Zn19  1  0.338103  0.337293  0.337293  1
  Zn  Zn20  1  0.661897  0.662707  0.662707  1
  Zn  Zn21  1  0.342009  0.327869  0.988114  1
  Zn  Zn22  1  0.342009  0.988114  0.327869  1
  Zn  Zn23  1  0.657991  0.672131  0.011886  1
  Zn  Zn24  1  0.657991  0.011886  0.672131  1
  Zn  Zn25  1  0.987309  0.337294  0.337294  1
  Zn  Zn26  1  0.012691  0.662706  0.662706  1
  Co  Co27  1  0.500000  0.000000  0.000000  1
  Ge  Ge28  1  0.500000  0.500000  0.500000  1
  Pd  Pd29  1  0.000000  0.000000  0.000000  1
