# generated using pymatgen
data_Zr2TeP
_symmetry_space_group_name_H-M   'P 1'
_cell_length_a   3.89520400
_cell_length_b   3.89520347
_cell_length_c   13.24719900
_cell_angle_alpha   90.00000000
_cell_angle_beta   90.00000000
_cell_angle_gamma   120.00000454
_symmetry_Int_Tables_number   1
_chemical_formula_structural   Zr2TeP
_chemical_formula_sum   'Zr4 Te2 P2'
_cell_volume   174.06643215
_cell_formula_units_Z   2
loop_
 _symmetry_equiv_pos_site_id
 _symmetry_equiv_pos_as_xyz
  1  'x, y, z'
loop_
 _atom_site_type_symbol
 _atom_site_label
 _atom_site_symmetry_multiplicity
 _atom_site_fract_x
 _atom_site_fract_y
 _atom_site_fract_z
 _atom_site_occupancy
  Zr  Zr0  1  0.666667  0.333333  0.596446  1
  Zr  Zr1  1  0.333333  0.666667  0.403554  1
  Zr  Zr2  1  0.333333  0.666667  0.096446  1
  Zr  Zr3  1  0.666667  0.333333  0.903554  1
  Te  Te4  1  0.666667  0.333333  0.250000  1
  Te  Te5  1  0.333333  0.666667  0.750000  1
  P  P6  1  0.000000  0.000000  0.500000  1
  P  P7  1  0.000000  0.000000  0.000000  1
