# generated using pymatgen
data_La8Tb12Si15Br
_symmetry_space_group_name_H-M   'P 1'
_cell_length_a   7.91816811
_cell_length_b   7.84749788
_cell_length_c   14.59603057
_cell_angle_alpha   90.37245325
_cell_angle_beta   88.99732670
_cell_angle_gamma   90.10230536
_symmetry_Int_Tables_number   1
_chemical_formula_structural   La8Tb12Si15Br
_chemical_formula_sum   'La8 Tb12 Si15 Br1'
_cell_volume   906.80603442
_cell_formula_units_Z   1
loop_
 _symmetry_equiv_pos_site_id
 _symmetry_equiv_pos_as_xyz
  1  'x, y, z'
loop_
 _atom_site_type_symbol
 _atom_site_label
 _atom_site_symmetry_multiplicity
 _atom_site_fract_x
 _atom_site_fract_y
 _atom_site_fract_z
 _atom_site_occupancy
  La  La0  1  0.996236  0.636193  0.043458  1
  La  La1  1  0.014036  0.354584  0.541576  1
  La  La2  1  0.641930  0.992564  0.956795  1
  La  La3  1  0.143529  0.510304  0.790962  1
  La  La4  1  0.839508  0.478083  0.280340  1
  La  La5  1  0.502450  0.137536  0.205518  1
  La  La6  1  0.501464  0.863114  0.711989  1
  La  La7  1  0.366823  0.010484  0.458301  1
  Tb  Tb8  1  0.362012  0.491762  0.380634  1
  Tb  Tb9  1  0.842881  0.021880  0.367207  1
  Tb  Tb10  1  0.991495  0.138192  0.126144  1
  Tb  Tb11  1  0.020538  0.860019  0.624123  1
  Tb  Tb12  1  0.644759  0.509877  0.876885  1
  Tb  Tb13  1  0.502907  0.355019  0.628943  1
  Tb  Tb14  1  0.506974  0.641132  0.122708  1
  Tb  Tb15  1  0.140707  0.991168  0.874777  1
  Tb  Tb16  1  0.661780  0.686396  0.503629  1
  Tb  Tb17  1  0.825558  0.181971  0.749660  1
  Tb  Tb18  1  0.181044  0.817117  0.243603  1
  Tb  Tb19  1  0.317205  0.317377  0.000985  1
  Si  Si20  1  0.935321  0.287752  0.939427  1
  Si  Si21  1  0.718733  0.060790  0.561049  1
  Si  Si22  1  0.208822  0.437601  0.192409  1
  Si  Si23  1  0.799700  0.566233  0.687925  1
  Si  Si24  1  0.438043  0.214255  0.814212  1
  Si  Si25  1  0.556279  0.789704  0.311336  1
  Si  Si26  1  0.290582  0.936056  0.060000  1
  Si  Si27  1  0.854043  0.795407  0.806906  1
  Si  Si28  1  0.148553  0.205251  0.314383  1
  Si  Si29  1  0.795299  0.844793  0.189114  1
  Si  Si30  1  0.314264  0.645125  0.577451  1
  Si  Si31  1  0.706335  0.348003  0.060465  1
  Si  Si32  1  0.655680  0.304553  0.443200  1
  Si  Si33  1  0.350337  0.706030  0.940619  1
  Si  Si34  1  0.205896  0.152616  0.690896  1
  Br  Br35  1  0.018278  0.711058  0.422369  1
