# generated using pymatgen
data_Ta6Be14Co8P
_symmetry_space_group_name_H-M   'P 1'
_cell_length_a   7.53847761
_cell_length_b   7.53847754
_cell_length_c   7.53847700
_cell_angle_alpha   59.99999797
_cell_angle_beta   59.99999828
_cell_angle_gamma   59.99999855
_symmetry_Int_Tables_number   1
_chemical_formula_structural   Ta6Be14Co8P
_chemical_formula_sum   'Ta6 Be14 Co8 P1'
_cell_volume   302.92554188
_cell_formula_units_Z   1
loop_
 _symmetry_equiv_pos_site_id
 _symmetry_equiv_pos_as_xyz
  1  'x, y, z'
loop_
 _atom_site_type_symbol
 _atom_site_label
 _atom_site_symmetry_multiplicity
 _atom_site_fract_x
 _atom_site_fract_y
 _atom_site_fract_z
 _atom_site_occupancy
  Ta  Ta0  1  0.705261  0.294739  0.294739  1
  Ta  Ta1  1  0.294739  0.705261  0.705261  1
  Ta  Ta2  1  0.294739  0.705261  0.294739  1
  Ta  Ta3  1  0.705261  0.294739  0.705261  1
  Ta  Ta4  1  0.294739  0.294739  0.705261  1
  Ta  Ta5  1  0.705261  0.705261  0.294739  1
  Be  Be6  1  0.326029  0.326029  0.326029  1
  Be  Be7  1  0.673971  0.673971  0.673971  1
  Be  Be8  1  0.326029  0.326029  0.021911  1
  Be  Be9  1  0.326029  0.021911  0.326029  1
  Be  Be10  1  0.673971  0.673971  0.978089  1
  Be  Be11  1  0.673971  0.978089  0.673971  1
  Be  Be12  1  0.021911  0.326029  0.326029  1
  Be  Be13  1  0.978089  0.673971  0.673971  1
  Be  Be14  1  0.500000  0.000000  0.000000  1
  Be  Be15  1  0.000000  0.500000  0.500000  1
  Be  Be16  1  0.000000  0.500000  0.000000  1
  Be  Be17  1  0.500000  0.000000  0.500000  1
  Be  Be18  1  0.000000  0.000000  0.500000  1
  Be  Be19  1  0.500000  0.500000  0.000000  1
  Co  Co20  1  0.122916  0.122916  0.122916  1
  Co  Co21  1  0.877084  0.877085  0.877084  1
  Co  Co22  1  0.122916  0.122916  0.631254  1
  Co  Co23  1  0.122916  0.631254  0.122915  1
  Co  Co24  1  0.877084  0.877085  0.368746  1
  Co  Co25  1  0.877084  0.368746  0.877084  1
  Co  Co26  1  0.631254  0.122916  0.122916  1
  Co  Co27  1  0.368746  0.877084  0.877084  1
  P  P28  1  0.000000  0.000000  0.000000  1
