# generated using pymatgen
data_Ac2Ho3Tl4
_symmetry_space_group_name_H-M   'P 1'
_cell_length_a   8.32731600
_cell_length_b   8.37700300
_cell_length_c   16.55322300
_cell_angle_alpha   90.00000000
_cell_angle_beta   90.00000000
_cell_angle_gamma   90.00000000
_symmetry_Int_Tables_number   1
_chemical_formula_structural   Ac2Ho3Tl4
_chemical_formula_sum   'Ac8 Ho12 Tl16'
_cell_volume   1154.71892081
_cell_formula_units_Z   4
loop_
 _symmetry_equiv_pos_site_id
 _symmetry_equiv_pos_as_xyz
  1  'x, y, z'
loop_
 _atom_site_type_symbol
 _atom_site_label
 _atom_site_symmetry_multiplicity
 _atom_site_fract_x
 _atom_site_fract_y
 _atom_site_fract_z
 _atom_site_occupancy
  Ac  Ac0  1  0.506841  0.322530  0.903788  1
  Ac  Ac1  1  0.006841  0.177470  0.596212  1
  Ac  Ac2  1  0.493159  0.677470  0.403788  1
  Ac  Ac3  1  0.993159  0.822530  0.096212  1
  Ac  Ac4  1  0.493159  0.677470  0.096212  1
  Ac  Ac5  1  0.993159  0.822530  0.403788  1
  Ac  Ac6  1  0.506841  0.322530  0.596212  1
  Ac  Ac7  1  0.006841  0.177470  0.903788  1
  Ho  Ho8  1  0.349549  0.839890  0.873960  1
  Ho  Ho9  1  0.849549  0.660110  0.626040  1
  Ho  Ho10  1  0.650451  0.160110  0.373960  1
  Ho  Ho11  1  0.150451  0.339890  0.126040  1
  Ho  Ho12  1  0.650451  0.160110  0.126040  1
  Ho  Ho13  1  0.150451  0.339890  0.373960  1
  Ho  Ho14  1  0.349549  0.839890  0.626040  1
  Ho  Ho15  1  0.849549  0.660110  0.873960  1
  Ho  Ho16  1  0.187315  0.506589  0.750000  1
  Ho  Ho17  1  0.687315  0.993411  0.750000  1
  Ho  Ho18  1  0.812685  0.493411  0.250000  1
  Ho  Ho19  1  0.312685  0.006589  0.250000  1
  Tl  Tl20  1  0.320933  0.050274  0.039109  1
  Tl  Tl21  1  0.820933  0.449726  0.460891  1
  Tl  Tl22  1  0.679067  0.949726  0.539109  1
  Tl  Tl23  1  0.179067  0.550274  0.960891  1
  Tl  Tl24  1  0.679067  0.949726  0.960891  1
  Tl  Tl25  1  0.179067  0.550274  0.539109  1
  Tl  Tl26  1  0.320933  0.050274  0.460891  1
  Tl  Tl27  1  0.820933  0.449726  0.039109  1
  Tl  Tl28  1  0.547454  0.629514  0.750000  1
  Tl  Tl29  1  0.047454  0.870486  0.750000  1
  Tl  Tl30  1  0.452546  0.370486  0.250000  1
  Tl  Tl31  1  0.952546  0.129514  0.250000  1
  Tl  Tl32  1  0.312124  0.134215  0.750000  1
  Tl  Tl33  1  0.812124  0.365785  0.750000  1
  Tl  Tl34  1  0.687876  0.865785  0.250000  1
  Tl  Tl35  1  0.187876  0.634215  0.250000  1
