# generated using pymatgen
data_Nd3YAl2(Si4Rh3)2
_symmetry_space_group_name_H-M   'P 1'
_cell_length_a   8.26893846
_cell_length_b   8.26335541
_cell_length_c   5.76873336
_cell_angle_alpha   71.06820054
_cell_angle_beta   71.02182095
_cell_angle_gamma   93.37845416
_symmetry_Int_Tables_number   1
_chemical_formula_structural   Nd3YAl2(Si4Rh3)2
_chemical_formula_sum   'Nd3 Y1 Al2 Si8 Rh6'
_cell_volume   346.57366798
_cell_formula_units_Z   1
loop_
 _symmetry_equiv_pos_site_id
 _symmetry_equiv_pos_as_xyz
  1  'x, y, z'
loop_
 _atom_site_type_symbol
 _atom_site_label
 _atom_site_symmetry_multiplicity
 _atom_site_fract_x
 _atom_site_fract_y
 _atom_site_fract_z
 _atom_site_occupancy
  Nd  Nd0  1  0.866473  0.601669  0.758737  1
  Nd  Nd1  1  0.133790  0.398082  0.241143  1
  Nd  Nd2  1  0.398792  0.133571  0.741364  1
  Y  Y3  1  0.602106  0.865926  0.259641  1
  Al  Al4  1  0.772867  0.225151  0.751868  1
  Al  Al5  1  0.228617  0.773344  0.248975  1
  Si  Si6  1  0.515863  0.484769  0.750642  1
  Si  Si7  1  0.485675  0.518324  0.247686  1
  Si  Si8  1  0.214231  0.786346  0.750431  1
  Si  Si9  1  0.784921  0.212419  0.250641  1
  Si  Si10  1  0.264708  0.054346  0.341084  1
  Si  Si11  1  0.734199  0.943770  0.659670  1
  Si  Si12  1  0.942782  0.736525  0.159853  1
  Si  Si13  1  0.055849  0.264783  0.840455  1
  Rh  Rh14  1  0.534009  0.263149  0.137867  1
  Rh  Rh15  1  0.735217  0.466382  0.362773  1
  Rh  Rh16  1  0.467272  0.737076  0.860603  1
  Rh  Rh17  1  0.265730  0.535269  0.635601  1
  Rh  Rh18  1  0.992739  0.004928  0.250573  1
  Rh  Rh19  1  0.004161  0.994171  0.750391  1
