# generated using pymatgen
data_K2Ca2TeO6
_symmetry_space_group_name_H-M   'P 1'
_cell_length_a   5.80016752
_cell_length_b   5.80016767
_cell_length_c   6.62537316
_cell_angle_alpha   98.93425068
_cell_angle_beta   98.93424775
_cell_angle_gamma   118.44547530
_symmetry_Int_Tables_number   1
_chemical_formula_structural   K2Ca2TeO6
_chemical_formula_sum   'K2 Ca2 Te1 O6'
_cell_volume   186.73698034
_cell_formula_units_Z   1
loop_
 _symmetry_equiv_pos_site_id
 _symmetry_equiv_pos_as_xyz
  1  'x, y, z'
loop_
 _atom_site_type_symbol
 _atom_site_label
 _atom_site_symmetry_multiplicity
 _atom_site_fract_x
 _atom_site_fract_y
 _atom_site_fract_z
 _atom_site_occupancy
  K  K0  1  0.827408  0.172592  0.500000  1
  K  K1  1  0.172592  0.827408  0.500000  1
  Ca  Ca2  1  0.663837  0.336163  0.000000  1
  Ca  Ca3  1  0.336163  0.663837  0.000000  1
  Te  Te4  1  0.000000  0.000000  0.000000  1
  O  O5  1  0.782878  0.782878  0.175661  1
  O  O6  1  0.342403  0.053987  0.173608  1
  O  O7  1  0.053987  0.342403  0.173608  1
  O  O8  1  0.946012  0.657596  0.826391  1
  O  O9  1  0.657596  0.946012  0.826391  1
  O  O10  1  0.217121  0.217121  0.824338  1
