# generated using pymatgen
data_Pr4PaIr2
_symmetry_space_group_name_H-M   'P 1'
_cell_length_a   6.50139391
_cell_length_b   7.21556171
_cell_length_c   9.15288000
_cell_angle_alpha   97.54596032
_cell_angle_beta   110.80297677
_cell_angle_gamma   90.00000109
_symmetry_Int_Tables_number   1
_chemical_formula_structural   Pr4PaIr2
_chemical_formula_sum   'Pr8 Pa2 Ir4'
_cell_volume   397.40040191
_cell_formula_units_Z   2
loop_
 _symmetry_equiv_pos_site_id
 _symmetry_equiv_pos_as_xyz
  1  'x, y, z'
loop_
 _atom_site_type_symbol
 _atom_site_label
 _atom_site_symmetry_multiplicity
 _atom_site_fract_x
 _atom_site_fract_y
 _atom_site_fract_z
 _atom_site_occupancy
  Pr  Pr0  1  0.977251  0.928606  0.183153  1
  Pr  Pr1  1  0.794099  0.571394  0.816847  1
  Pr  Pr2  1  0.022749  0.071394  0.816847  1
  Pr  Pr3  1  0.205901  0.428606  0.183153  1
  Pr  Pr4  1  0.648273  0.816435  0.435777  1
  Pr  Pr5  1  0.212496  0.683565  0.564223  1
  Pr  Pr6  1  0.351727  0.183565  0.564223  1
  Pr  Pr7  1  0.787504  0.316435  0.435777  1
  Pa  Pa8  1  0.416904  0.750000  0.000000  1
  Pa  Pa9  1  0.583096  0.250000  0.000000  1
  Ir  Ir10  1  0.760835  0.564168  0.190557  1
  Ir  Ir11  1  0.570280  0.935832  0.809443  1
  Ir  Ir12  1  0.239165  0.435832  0.809443  1
  Ir  Ir13  1  0.429720  0.064168  0.190557  1
