# generated using pymatgen
data_Li2GdEr(SiO4)2
_symmetry_space_group_name_H-M   'P 1'
_cell_length_a   6.24379234
_cell_length_b   5.45996430
_cell_length_c   10.96823772
_cell_angle_alpha   66.42178454
_cell_angle_beta   90.23429922
_cell_angle_gamma   90.38641721
_symmetry_Int_Tables_number   1
_chemical_formula_structural   Li2GdEr(SiO4)2
_chemical_formula_sum   'Li4 Gd2 Er2 Si4 O16'
_cell_volume   342.69222498
_cell_formula_units_Z   2
loop_
 _symmetry_equiv_pos_site_id
 _symmetry_equiv_pos_as_xyz
  1  'x, y, z'
loop_
 _atom_site_type_symbol
 _atom_site_label
 _atom_site_symmetry_multiplicity
 _atom_site_fract_x
 _atom_site_fract_y
 _atom_site_fract_z
 _atom_site_occupancy
  Li  Li0  1  0.134028  0.917703  0.431393  1
  Li  Li1  1  0.633994  0.076157  0.071011  1
  Li  Li2  1  0.865972  0.082297  0.568607  1
  Li  Li3  1  0.366006  0.923843  0.928989  1
  Gd  Gd4  1  0.117358  0.445974  0.846673  1
  Gd  Gd5  1  0.882642  0.554026  0.153327  1
  Er  Er6  1  0.616486  0.553973  0.650735  1
  Er  Er7  1  0.383514  0.446027  0.349265  1
  Si  Si8  1  0.647425  0.903574  0.361486  1
  Si  Si9  1  0.352575  0.096426  0.638514  1
  Si  Si10  1  0.155803  0.093345  0.143363  1
  Si  Si11  1  0.844197  0.906655  0.856637  1
  O  O12  1  0.853250  0.232878  0.773562  1
  O  O13  1  0.636097  0.229719  0.280643  1
  O  O14  1  0.166145  0.185623  0.523088  1
  O  O15  1  0.832382  0.760257  0.750633  1
  O  O16  1  0.146750  0.767122  0.226438  1
  O  O17  1  0.573158  0.232666  0.552354  1
  O  O18  1  0.656898  0.760701  0.253826  1
  O  O19  1  0.426842  0.767334  0.447646  1
  O  O20  1  0.069152  0.781476  0.940944  1
  O  O21  1  0.661109  0.816902  0.973682  1
  O  O22  1  0.167618  0.239743  0.249367  1
  O  O23  1  0.930848  0.218524  0.059056  1
  O  O24  1  0.338891  0.183098  0.026318  1
  O  O25  1  0.343102  0.239299  0.746174  1
  O  O26  1  0.363903  0.770281  0.719357  1
  O  O27  1  0.833855  0.814377  0.476912  1
