# generated using pymatgen
data_LaPr3Se4
_symmetry_space_group_name_H-M   'P 1'
_cell_length_a   8.60317711
_cell_length_b   8.60317694
_cell_length_c   8.63326900
_cell_angle_alpha   59.88421505
_cell_angle_beta   59.88421571
_cell_angle_gamma   59.72715035
_symmetry_Int_Tables_number   1
_chemical_formula_structural   LaPr3Se4
_chemical_formula_sum   'La2 Pr6 Se8'
_cell_volume   450.10651833
_cell_formula_units_Z   2
loop_
 _symmetry_equiv_pos_site_id
 _symmetry_equiv_pos_as_xyz
  1  'x, y, z'
loop_
 _atom_site_type_symbol
 _atom_site_label
 _atom_site_symmetry_multiplicity
 _atom_site_fract_x
 _atom_site_fract_y
 _atom_site_fract_z
 _atom_site_occupancy
  La  La0  1  0.125000  0.125000  0.625000  1
  La  La1  1  0.125000  0.125000  0.125000  1
  Pr  Pr2  1  0.125000  0.625000  0.125000  1
  Pr  Pr3  1  0.625000  0.125000  0.125000  1
  Pr  Pr4  1  0.625000  0.125000  0.625000  1
  Pr  Pr5  1  0.625000  0.625000  0.625000  1
  Pr  Pr6  1  0.125000  0.625000  0.625000  1
  Pr  Pr7  1  0.625000  0.625000  0.125000  1
  Se  Se8  1  0.375843  0.874200  0.374979  1
  Se  Se9  1  0.874157  0.375800  0.875021  1
  Se  Se10  1  0.874679  0.874679  0.375372  1
  Se  Se11  1  0.874679  0.874679  0.875272  1
  Se  Se12  1  0.874200  0.375843  0.374979  1
  Se  Se13  1  0.375321  0.375321  0.874628  1
  Se  Se14  1  0.375321  0.375321  0.374728  1
  Se  Se15  1  0.375800  0.874157  0.875021  1
