# generated using pymatgen
data_Y2Si2BOs2
_symmetry_space_group_name_H-M   'P 1'
_cell_length_a   5.80865681
_cell_length_b   5.80865643
_cell_length_c   6.93621012
_cell_angle_alpha   125.39886836
_cell_angle_beta   125.39886794
_cell_angle_gamma   41.82308060
_symmetry_Int_Tables_number   1
_chemical_formula_structural   Y2Si2BOs2
_chemical_formula_sum   'Y2 Si2 B1 Os2'
_cell_volume   122.43108081
_cell_formula_units_Z   1
loop_
 _symmetry_equiv_pos_site_id
 _symmetry_equiv_pos_as_xyz
  1  'x, y, z'
loop_
 _atom_site_type_symbol
 _atom_site_label
 _atom_site_symmetry_multiplicity
 _atom_site_fract_x
 _atom_site_fract_y
 _atom_site_fract_z
 _atom_site_occupancy
  Y  Y0  1  0.434124  0.434124  0.169852  1
  Y  Y1  1  0.565876  0.565876  0.830148  1
  Si  Si2  1  0.846868  0.846868  0.397684  1
  Si  Si3  1  0.153132  0.153132  0.602316  1
  B  B4  1  0.000000  0.000000  0.000000  1
  Os  Os5  1  0.213096  0.213096  0.317600  1
  Os  Os6  1  0.786903  0.786903  0.682400  1
