# generated using pymatgen
data_Sm3Y(GaCo)4
_symmetry_space_group_name_H-M   'P 1'
_cell_length_a   4.49228700
_cell_length_b   7.18230968
_cell_length_c   6.86453491
_cell_angle_alpha   90.22712421
_cell_angle_beta   90.00000000
_cell_angle_gamma   90.00000000
_symmetry_Int_Tables_number   1
_chemical_formula_structural   Sm3Y(GaCo)4
_chemical_formula_sum   'Sm3 Y1 Ga4 Co4'
_cell_volume   221.48245402
_cell_formula_units_Z   1
loop_
 _symmetry_equiv_pos_site_id
 _symmetry_equiv_pos_as_xyz
  1  'x, y, z'
loop_
 _atom_site_type_symbol
 _atom_site_label
 _atom_site_symmetry_multiplicity
 _atom_site_fract_x
 _atom_site_fract_y
 _atom_site_fract_z
 _atom_site_occupancy
  Sm  Sm0  1  0.250000  0.026727  0.806779  1
  Sm  Sm1  1  0.250000  0.526860  0.692738  1
  Sm  Sm2  1  0.750000  0.972555  0.193739  1
  Y  Y3  1  0.750000  0.472726  0.304275  1
  Ga  Ga4  1  0.250000  0.194044  0.391164  1
  Ga  Ga5  1  0.250000  0.689589  0.110465  1
  Ga  Ga6  1  0.750000  0.807654  0.607026  1
  Ga  Ga7  1  0.750000  0.308662  0.893561  1
  Co  Co8  1  0.250000  0.848247  0.434944  1
  Co  Co9  1  0.250000  0.349518  0.066292  1
  Co  Co10  1  0.750000  0.152886  0.563638  1
  Co  Co11  1  0.750000  0.650531  0.935379  1
