# generated using pymatgen
data_Nd19LuSi15Cl
_symmetry_space_group_name_H-M   'P 1'
_cell_length_a   7.80863413
_cell_length_b   7.90216314
_cell_length_c   15.24680500
_cell_angle_alpha   88.84639520
_cell_angle_beta   85.32174652
_cell_angle_gamma   89.61229566
_symmetry_Int_Tables_number   1
_chemical_formula_structural   Nd19LuSi15Cl
_chemical_formula_sum   'Nd19 Lu1 Si15 Cl1'
_cell_volume   937.46881448
_cell_formula_units_Z   1
loop_
 _symmetry_equiv_pos_site_id
 _symmetry_equiv_pos_as_xyz
  1  'x, y, z'
loop_
 _atom_site_type_symbol
 _atom_site_label
 _atom_site_symmetry_multiplicity
 _atom_site_fract_x
 _atom_site_fract_y
 _atom_site_fract_z
 _atom_site_occupancy
  Nd  Nd0  1  0.864755  0.348510  0.614669  1
  Nd  Nd1  1  0.470885  0.691303  0.896123  1
  Nd  Nd2  1  0.968963  0.817303  0.897310  1
  Nd  Nd3  1  0.175776  0.674649  0.120975  1
  Nd  Nd4  1  0.675039  0.813407  0.121734  1
  Nd  Nd5  1  0.324441  0.184519  0.880026  1
  Nd  Nd6  1  0.136355  0.658412  0.386140  1
  Nd  Nd7  1  0.031521  0.182547  0.104115  1
  Nd  Nd8  1  0.364700  0.176234  0.615706  1
  Nd  Nd9  1  0.828151  0.483951  0.241022  1
  Nd  Nd10  1  0.330406  0.996085  0.253129  1
  Nd  Nd11  1  0.485998  0.301862  0.395082  1
  Nd  Nd12  1  0.825439  0.324112  0.878779  1
  Nd  Nd13  1  0.019850  0.842484  0.607584  1
  Nd  Nd14  1  0.496177  0.704091  0.611394  1
  Nd  Nd15  1  0.990869  0.158210  0.393454  1
  Nd  Nd16  1  0.632613  0.826219  0.386002  1
  Nd  Nd17  1  0.672136  0.005817  0.746392  1
  Nd  Nd18  1  0.530149  0.306163  0.103406  1
  Lu  Lu19  1  0.173542  0.514659  0.748335  1
  Si  Si20  1  0.446779  0.597425  0.254558  1
  Si  Si21  1  0.217033  0.369612  0.250658  1
  Si  Si22  1  0.548474  0.405916  0.750596  1
  Si  Si23  1  0.638448  0.026407  0.958733  1
  Si  Si24  1  0.051609  0.119933  0.750773  1
  Si  Si25  1  0.785397  0.628158  0.751479  1
  Si  Si26  1  0.716199  0.110727  0.250406  1
  Si  Si27  1  0.290636  0.965616  0.455826  1
  Si  Si28  1  0.948334  0.885515  0.251563  1
  Si  Si29  1  0.362861  0.971346  0.042212  1
  Si  Si30  1  0.717448  0.035666  0.541208  1
  Si  Si31  1  0.138826  0.478096  0.955575  1
  Si  Si32  1  0.210302  0.491714  0.554859  1
  Si  Si33  1  0.863035  0.523927  0.040556  1
  Si  Si34  1  0.277737  0.882491  0.753797  1
  Cl  Cl35  1  0.789115  0.496917  0.435823  1
