# generated using pymatgen
data_Tb5Dy5(Sn3S)2
_symmetry_space_group_name_H-M   'P 1'
_cell_length_a   9.07915504
_cell_length_b   9.07769830
_cell_length_c   6.66879600
_cell_angle_alpha   90.00000000
_cell_angle_beta   90.00000000
_cell_angle_gamma   119.99468432
_symmetry_Int_Tables_number   1
_chemical_formula_structural   Tb5Dy5(Sn3S)2
_chemical_formula_sum   'Tb5 Dy5 Sn6 S2'
_cell_volume   476.01704215
_cell_formula_units_Z   1
loop_
 _symmetry_equiv_pos_site_id
 _symmetry_equiv_pos_as_xyz
  1  'x, y, z'
loop_
 _atom_site_type_symbol
 _atom_site_label
 _atom_site_symmetry_multiplicity
 _atom_site_fract_x
 _atom_site_fract_y
 _atom_site_fract_z
 _atom_site_occupancy
  Tb  Tb0  1  0.754781  0.754760  0.750000  1
  Tb  Tb1  1  0.245219  0.999979  0.750000  1
  Tb  Tb2  1  0.000000  0.245235  0.750000  1
  Tb  Tb3  1  0.245266  0.245234  0.250000  1
  Tb  Tb4  1  0.754734  0.999968  0.250000  1
  Dy  Dy5  1  0.666710  0.333394  0.000030  1
  Dy  Dy6  1  0.333290  0.666685  0.000030  1
  Dy  Dy7  1  0.333290  0.666685  0.499970  1
  Dy  Dy8  1  0.666710  0.333394  0.499970  1
  Dy  Dy9  1  0.000000  0.755034  0.250000  1
  Sn  Sn10  1  0.397849  0.397857  0.750000  1
  Sn  Sn11  1  0.602151  0.000008  0.750000  1
  Sn  Sn12  1  0.000000  0.602168  0.750000  1
  Sn  Sn13  1  0.602395  0.602238  0.250000  1
  Sn  Sn14  1  0.397605  0.999842  0.250000  1
  Sn  Sn15  1  0.000000  0.398061  0.250000  1
  S  S16  1  0.000000  0.999728  0.000255  1
  S  S17  1  0.000000  0.999728  0.499745  1
