# generated using pymatgen
data_Lu4MgZnNiSb
_symmetry_space_group_name_H-M   'P 1'
_cell_length_a   8.35359678
_cell_length_b   8.35359715
_cell_length_c   8.52920407
_cell_angle_alpha   127.28558979
_cell_angle_beta   127.28559607
_cell_angle_gamma   76.28773750
_symmetry_Int_Tables_number   1
_chemical_formula_structural   Lu4MgZnNiSb
_chemical_formula_sum   'Lu8 Mg2 Zn2 Ni2 Sb2'
_cell_volume   368.74509005
_cell_formula_units_Z   2
loop_
 _symmetry_equiv_pos_site_id
 _symmetry_equiv_pos_as_xyz
  1  'x, y, z'
loop_
 _atom_site_type_symbol
 _atom_site_label
 _atom_site_symmetry_multiplicity
 _atom_site_fract_x
 _atom_site_fract_y
 _atom_site_fract_z
 _atom_site_occupancy
  Lu  Lu0  1  0.787748  0.287748  0.804790  1
  Lu  Lu1  1  0.212252  0.712252  0.195210  1
  Lu  Lu2  1  0.482956  0.982956  0.195210  1
  Lu  Lu3  1  0.311365  0.461220  0.500000  1
  Lu  Lu4  1  0.038780  0.188635  0.500000  1
  Lu  Lu5  1  0.517044  0.017044  0.804790  1
  Lu  Lu6  1  0.688635  0.538780  0.500000  1
  Lu  Lu7  1  0.961220  0.811365  0.500000  1
  Mg  Mg8  1  0.000000  0.000000  0.000000  1
  Mg  Mg9  1  0.500000  0.500000  0.000000  1
  Zn  Zn10  1  0.132564  0.632564  0.765128  1
  Zn  Zn11  1  0.867436  0.367436  0.234872  1
  Ni  Ni12  1  0.626295  0.873705  0.500000  1
  Ni  Ni13  1  0.373705  0.126295  0.500000  1
  Sb  Sb14  1  0.250000  0.250000  0.000000  1
  Sb  Sb15  1  0.750000  0.750000  0.000000  1
