# generated using pymatgen
data_SrNiPdO4
_symmetry_space_group_name_H-M   'P 1'
_cell_length_a   5.30914200
_cell_length_b   6.17112600
_cell_length_c   11.55075600
_cell_angle_alpha   90.00000000
_cell_angle_beta   90.00000000
_cell_angle_gamma   90.00000000
_symmetry_Int_Tables_number   1
_chemical_formula_structural   SrNiPdO4
_chemical_formula_sum   'Sr4 Ni4 Pd4 O16'
_cell_volume   378.44185702
_cell_formula_units_Z   4
loop_
 _symmetry_equiv_pos_site_id
 _symmetry_equiv_pos_as_xyz
  1  'x, y, z'
loop_
 _atom_site_type_symbol
 _atom_site_label
 _atom_site_symmetry_multiplicity
 _atom_site_fract_x
 _atom_site_fract_y
 _atom_site_fract_z
 _atom_site_occupancy
  Sr  Sr0  1  0.845554  0.000000  0.500000  1
  Sr  Sr1  1  0.154446  0.500000  0.000000  1
  Sr  Sr2  1  0.510895  0.000000  0.000000  1
  Sr  Sr3  1  0.489105  0.500000  0.500000  1
  Ni  Ni4  1  0.501373  0.500000  0.241080  1
  Ni  Ni5  1  0.501373  0.500000  0.758920  1
  Ni  Ni6  1  0.498627  0.000000  0.258920  1
  Ni  Ni7  1  0.498627  0.000000  0.741080  1
  Pd  Pd8  1  0.000000  0.250000  0.250000  1
  Pd  Pd9  1  0.000000  0.750000  0.750000  1
  Pd  Pd10  1  0.000000  0.750000  0.250000  1
  Pd  Pd11  1  0.000000  0.250000  0.750000  1
  O  O12  1  0.842192  0.500000  0.158630  1
  O  O13  1  0.842192  0.500000  0.841370  1
  O  O14  1  0.157808  0.000000  0.341370  1
  O  O15  1  0.157808  0.000000  0.658630  1
  O  O16  1  0.164846  0.500000  0.337872  1
  O  O17  1  0.164846  0.500000  0.662128  1
  O  O18  1  0.835154  0.000000  0.162128  1
  O  O19  1  0.835154  0.000000  0.837872  1
  O  O20  1  0.673523  0.253247  0.347936  1
  O  O21  1  0.673523  0.746753  0.652064  1
  O  O22  1  0.326477  0.753247  0.152064  1
  O  O23  1  0.326477  0.246753  0.847936  1
  O  O24  1  0.326477  0.246753  0.152064  1
  O  O25  1  0.326477  0.753247  0.847936  1
  O  O26  1  0.673523  0.746753  0.347936  1
  O  O27  1  0.673523  0.253247  0.652064  1
