# generated using pymatgen
data_Eu2Lu2Sn3PdO14
_symmetry_space_group_name_H-M   'P 1'
_cell_length_a   7.41605696
_cell_length_b   7.37323539
_cell_length_c   7.40871594
_cell_angle_alpha   59.66731414
_cell_angle_beta   59.96721308
_cell_angle_gamma   59.80770030
_symmetry_Int_Tables_number   1
_chemical_formula_structural   Eu2Lu2Sn3PdO14
_chemical_formula_sum   'Eu2 Lu2 Sn3 Pd1 O14'
_cell_volume   285.24391699
_cell_formula_units_Z   1
loop_
 _symmetry_equiv_pos_site_id
 _symmetry_equiv_pos_as_xyz
  1  'x, y, z'
loop_
 _atom_site_type_symbol
 _atom_site_label
 _atom_site_symmetry_multiplicity
 _atom_site_fract_x
 _atom_site_fract_y
 _atom_site_fract_z
 _atom_site_occupancy
  Eu  Eu0  1  0.125000  0.625000  0.125000  1
  Eu  Eu1  1  0.125000  0.125000  0.625000  1
  Lu  Lu2  1  0.125000  0.125000  0.125000  1
  Lu  Lu3  1  0.625000  0.125000  0.125000  1
  Sn  Sn4  1  0.625000  0.625000  0.625000  1
  Sn  Sn5  1  0.125000  0.625000  0.625000  1
  Sn  Sn6  1  0.625000  0.625000  0.125000  1
  Pd  Pd7  1  0.625000  0.125000  0.625000  1
  O  O8  1  0.964821  0.525073  0.965471  1
  O  O9  1  0.713422  0.282438  0.290718  1
  O  O10  1  0.286760  0.715963  0.710516  1
  O  O11  1  0.707160  0.281290  0.720272  1
  O  O12  1  0.291278  0.281290  0.720272  1
  O  O13  1  0.705363  0.724927  0.284529  1
  O  O14  1  0.958722  0.968710  0.529728  1
  O  O15  1  0.536578  0.967562  0.959282  1
  O  O16  1  0.963240  0.534037  0.539484  1
  O  O17  1  0.544637  0.525073  0.965471  1
  O  O18  1  0.285179  0.724927  0.284529  1
  O  O19  1  0.542840  0.968710  0.529728  1
  O  O20  1  0.990205  0.009551  0.010039  1
  O  O21  1  0.259795  0.240449  0.239961  1
