# generated using pymatgen
data_YbCdH6Ru
_symmetry_space_group_name_H-M   'P 1'
_cell_length_a   4.93104728
_cell_length_b   4.93104786
_cell_length_c   4.93104800
_cell_angle_alpha   59.99999909
_cell_angle_beta   59.99999515
_cell_angle_gamma   60.00000845
_symmetry_Int_Tables_number   1
_chemical_formula_structural   YbCdH6Ru
_chemical_formula_sum   'Yb1 Cd1 H6 Ru1'
_cell_volume   84.78179858
_cell_formula_units_Z   1
loop_
 _symmetry_equiv_pos_site_id
 _symmetry_equiv_pos_as_xyz
  1  'x, y, z'
loop_
 _atom_site_type_symbol
 _atom_site_label
 _atom_site_symmetry_multiplicity
 _atom_site_fract_x
 _atom_site_fract_y
 _atom_site_fract_z
 _atom_site_occupancy
  Yb  Yb0  1  0.750000  0.750000  0.750000  1
  Cd  Cd1  1  0.250000  0.250000  0.250000  1
  H  H2  1  0.756385  0.243615  0.243615  1
  H  H3  1  0.756385  0.756385  0.243615  1
  H  H4  1  0.243615  0.756385  0.243615  1
  H  H5  1  0.756385  0.243615  0.756385  1
  H  H6  1  0.243615  0.243615  0.756385  1
  H  H7  1  0.243615  0.756385  0.756385  1
  Ru  Ru8  1  0.000000  0.000000  0.000000  1
