# generated using pymatgen
data_Er4Tc2B16IrRh
_symmetry_space_group_name_H-M   'P 1'
_cell_length_a   3.56560900
_cell_length_b   5.94556793
_cell_length_c   11.51888600
_cell_angle_alpha   90.29401356
_cell_angle_beta   90.00000000
_cell_angle_gamma   90.00000000
_symmetry_Int_Tables_number   1
_chemical_formula_structural   Er4Tc2B16IrRh
_chemical_formula_sum   'Er4 Tc2 B16 Ir1 Rh1'
_cell_volume   244.19222083
_cell_formula_units_Z   1
loop_
 _symmetry_equiv_pos_site_id
 _symmetry_equiv_pos_as_xyz
  1  'x, y, z'
loop_
 _atom_site_type_symbol
 _atom_site_label
 _atom_site_symmetry_multiplicity
 _atom_site_fract_x
 _atom_site_fract_y
 _atom_site_fract_z
 _atom_site_occupancy
  Er  Er0  1  0.000000  0.129868  0.648291  1
  Er  Er1  1  0.000000  0.870315  0.351421  1
  Er  Er2  1  0.000000  0.629226  0.850559  1
  Er  Er3  1  0.000000  0.371053  0.149429  1
  Tc  Tc4  1  0.000000  0.634698  0.589596  1
  Tc  Tc5  1  0.000000  0.364896  0.410795  1
  B  B6  1  0.500000  0.790022  0.685784  1
  B  B7  1  0.500000  0.210026  0.314205  1
  B  B8  1  0.500000  0.291655  0.813513  1
  B  B9  1  0.500000  0.708626  0.186463  1
  B  B10  1  0.500000  0.865205  0.530546  1
  B  B11  1  0.500000  0.134936  0.469303  1
  B  B12  1  0.500000  0.364524  0.969669  1
  B  B13  1  0.500000  0.635842  0.030602  1
  B  B14  1  0.500000  0.022745  0.193343  1
  B  B15  1  0.500000  0.976652  0.806768  1
  B  B16  1  0.500000  0.523169  0.307268  1
  B  B17  1  0.500000  0.477173  0.692542  1
  B  B18  1  0.500000  0.112975  0.047726  1
  B  B19  1  0.500000  0.887323  0.951833  1
  B  B20  1  0.500000  0.612794  0.453236  1
  B  B21  1  0.500000  0.387412  0.546729  1
  Ir  Ir22  1  0.000000  0.142273  0.905158  1
  Rh  Rh23  1  0.000000  0.856595  0.095222  1
