# generated using pymatgen
data_Y20Hg6RuPt
_symmetry_space_group_name_H-M   'P 1'
_cell_length_a   9.71307400
_cell_length_b   9.71307464
_cell_length_c   9.65587800
_cell_angle_alpha   90.00000000
_cell_angle_beta   90.00000000
_cell_angle_gamma   120.00000462
_symmetry_Int_Tables_number   1
_chemical_formula_structural   Y20Hg6RuPt
_chemical_formula_sum   'Y20 Hg6 Ru1 Pt1'
_cell_volume   788.92515741
_cell_formula_units_Z   1
loop_
 _symmetry_equiv_pos_site_id
 _symmetry_equiv_pos_as_xyz
  1  'x, y, z'
loop_
 _atom_site_type_symbol
 _atom_site_label
 _atom_site_symmetry_multiplicity
 _atom_site_fract_x
 _atom_site_fract_y
 _atom_site_fract_z
 _atom_site_occupancy
  Y  Y0  1  0.000000  0.000000  0.499717  1
  Y  Y1  1  0.000000  0.000000  0.000283  1
  Y  Y2  1  0.207310  0.792690  0.441560  1
  Y  Y3  1  0.207310  0.414621  0.441560  1
  Y  Y4  1  0.585379  0.792690  0.441560  1
  Y  Y5  1  0.790660  0.209340  0.560899  1
  Y  Y6  1  0.790660  0.581318  0.560899  1
  Y  Y7  1  0.418682  0.209340  0.560899  1
  Y  Y8  1  0.790660  0.209340  0.939101  1
  Y  Y9  1  0.790660  0.581318  0.939101  1
  Y  Y10  1  0.418682  0.209340  0.939101  1
  Y  Y11  1  0.207310  0.792690  0.058440  1
  Y  Y12  1  0.207310  0.414621  0.058440  1
  Y  Y13  1  0.585379  0.792690  0.058440  1
  Y  Y14  1  0.542271  0.457729  0.250000  1
  Y  Y15  1  0.542271  0.084541  0.250000  1
  Y  Y16  1  0.915459  0.457729  0.250000  1
  Y  Y17  1  0.459337  0.540663  0.750000  1
  Y  Y18  1  0.459337  0.918675  0.750000  1
  Y  Y19  1  0.081325  0.540663  0.750000  1
  Hg  Hg20  1  0.880397  0.119603  0.250000  1
  Hg  Hg21  1  0.880397  0.760794  0.250000  1
  Hg  Hg22  1  0.239206  0.119603  0.250000  1
  Hg  Hg23  1  0.119786  0.880214  0.750000  1
  Hg  Hg24  1  0.119786  0.239571  0.750000  1
  Hg  Hg25  1  0.760429  0.880214  0.750000  1
  Ru  Ru26  1  0.666667  0.333333  0.750000  1
  Pt  Pt27  1  0.333333  0.666667  0.250000  1
