# generated using pymatgen
data_Y16AlIn3Ni4
_symmetry_space_group_name_H-M   'P 1'
_cell_length_a   9.63871194
_cell_length_b   9.62550472
_cell_length_c   9.62336646
_cell_angle_alpha   59.69552504
_cell_angle_beta   59.79902473
_cell_angle_gamma   59.81684920
_symmetry_Int_Tables_number   1
_chemical_formula_structural   Y16AlIn3Ni4
_chemical_formula_sum   'Y16 Al1 In3 Ni4'
_cell_volume   628.03539976
_cell_formula_units_Z   1
loop_
 _symmetry_equiv_pos_site_id
 _symmetry_equiv_pos_as_xyz
  1  'x, y, z'
loop_
 _atom_site_type_symbol
 _atom_site_label
 _atom_site_symmetry_multiplicity
 _atom_site_fract_x
 _atom_site_fract_y
 _atom_site_fract_z
 _atom_site_occupancy
  Y  Y0  1  0.436130  0.068306  0.436065  1
  Y  Y1  1  0.068285  0.436184  0.436175  1
  Y  Y2  1  0.436108  0.436052  0.068309  1
  Y  Y3  1  0.062950  0.438064  0.062945  1
  Y  Y4  1  0.438460  0.062663  0.062657  1
  Y  Y5  1  0.062998  0.062999  0.437997  1
  Y  Y6  1  0.811297  0.187860  0.811646  1
  Y  Y7  1  0.188056  0.811495  0.811548  1
  Y  Y8  1  0.811318  0.811614  0.187831  1
  Y  Y9  1  0.189964  0.808907  0.190003  1
  Y  Y10  1  0.808857  0.189999  0.190007  1
  Y  Y11  1  0.189967  0.189999  0.808915  1
  Y  Y12  1  0.652079  0.652011  0.651994  1
  Y  Y13  1  0.650537  0.651111  0.046698  1
  Y  Y14  1  0.047037  0.650237  0.650339  1
  Y  Y15  1  0.650407  0.046745  0.651082  1
  Al  Al16  1  0.417520  0.417527  0.417527  1
  In  In17  1  0.416741  0.416699  0.744382  1
  In  In18  1  0.744475  0.416650  0.416632  1
  In  In19  1  0.416732  0.744390  0.416689  1
  Ni  Ni20  1  0.857388  0.857711  0.857759  1
  Ni  Ni21  1  0.858121  0.858091  0.426600  1
  Ni  Ni22  1  0.426461  0.858103  0.858110  1
  Ni  Ni23  1  0.858113  0.426586  0.858090  1
