# generated using pymatgen
data_NdMgCo3P3Rh
_symmetry_space_group_name_H-M   'P 1'
_cell_length_a   3.78472000
_cell_length_b   10.66943500
_cell_length_c   12.47953800
_cell_angle_alpha   90.00000000
_cell_angle_beta   90.00000000
_cell_angle_gamma   90.00000000
_symmetry_Int_Tables_number   1
_chemical_formula_structural   NdMgCo3P3Rh
_chemical_formula_sum   'Nd4 Mg4 Co12 P12 Rh4'
_cell_volume   503.93402799
_cell_formula_units_Z   4
loop_
 _symmetry_equiv_pos_site_id
 _symmetry_equiv_pos_as_xyz
  1  'x, y, z'
loop_
 _atom_site_type_symbol
 _atom_site_label
 _atom_site_symmetry_multiplicity
 _atom_site_fract_x
 _atom_site_fract_y
 _atom_site_fract_z
 _atom_site_occupancy
  Nd  Nd0  1  0.250000  0.581673  0.708437  1
  Nd  Nd1  1  0.250000  0.918327  0.208437  1
  Nd  Nd2  1  0.750000  0.418327  0.291563  1
  Nd  Nd3  1  0.750000  0.081673  0.791563  1
  Mg  Mg4  1  0.250000  0.704086  0.992640  1
  Mg  Mg5  1  0.250000  0.795914  0.492640  1
  Mg  Mg6  1  0.750000  0.295914  0.007360  1
  Mg  Mg7  1  0.750000  0.204086  0.507360  1
  Co  Co8  1  0.250000  0.219784  0.176687  1
  Co  Co9  1  0.250000  0.280216  0.676687  1
  Co  Co10  1  0.750000  0.780216  0.823313  1
  Co  Co11  1  0.750000  0.719784  0.323313  1
  Co  Co12  1  0.250000  0.882993  0.696323  1
  Co  Co13  1  0.250000  0.617007  0.196323  1
  Co  Co14  1  0.750000  0.117007  0.303677  1
  Co  Co15  1  0.750000  0.382993  0.803677  1
  Co  Co16  1  0.250000  0.467845  0.934496  1
  Co  Co17  1  0.250000  0.032155  0.434496  1
  Co  Co18  1  0.750000  0.532155  0.065504  1
  Co  Co19  1  0.750000  0.967845  0.565504  1
  P  P20  1  0.250000  0.424649  0.113773  1
  P  P21  1  0.250000  0.075351  0.613773  1
  P  P22  1  0.750000  0.575351  0.886227  1
  P  P23  1  0.750000  0.924649  0.386227  1
  P  P24  1  0.250000  0.280381  0.854714  1
  P  P25  1  0.250000  0.219619  0.354714  1
  P  P26  1  0.750000  0.719619  0.145286  1
  P  P27  1  0.750000  0.780381  0.645286  1
  P  P28  1  0.250000  0.602786  0.379395  1
  P  P29  1  0.250000  0.897214  0.879395  1
  P  P30  1  0.750000  0.397214  0.620605  1
  P  P31  1  0.750000  0.102786  0.120605  1
  Rh  Rh32  1  0.250000  0.400134  0.485002  1
  Rh  Rh33  1  0.250000  0.099866  0.985002  1
  Rh  Rh34  1  0.750000  0.599866  0.514998  1
  Rh  Rh35  1  0.750000  0.900134  0.014998  1
