# generated using pymatgen
data_CeDyCdRh2
_symmetry_space_group_name_H-M   'P 1'
_cell_length_a   7.67865700
_cell_length_b   7.67865741
_cell_length_c   3.64388500
_cell_angle_alpha   90.00000000
_cell_angle_beta   90.00000000
_cell_angle_gamma   86.29328154
_symmetry_Int_Tables_number   1
_chemical_formula_structural   CeDyCdRh2
_chemical_formula_sum   'Ce2 Dy2 Cd2 Rh4'
_cell_volume   214.40047635
_cell_formula_units_Z   2
loop_
 _symmetry_equiv_pos_site_id
 _symmetry_equiv_pos_as_xyz
  1  'x, y, z'
loop_
 _atom_site_type_symbol
 _atom_site_label
 _atom_site_symmetry_multiplicity
 _atom_site_fract_x
 _atom_site_fract_y
 _atom_site_fract_z
 _atom_site_occupancy
  Ce  Ce0  1  0.168599  0.331401  0.500000  1
  Ce  Ce1  1  0.831401  0.668599  0.500000  1
  Dy  Dy2  1  0.667079  0.167079  0.500000  1
  Dy  Dy3  1  0.332921  0.832921  0.500000  1
  Cd  Cd4  1  0.000000  0.000000  0.000000  1
  Cd  Cd5  1  0.500000  0.500000  0.000000  1
  Rh  Rh6  1  0.130626  0.630626  0.000000  1
  Rh  Rh7  1  0.869374  0.369374  0.000000  1
  Rh  Rh8  1  0.640864  0.859136  0.000000  1
  Rh  Rh9  1  0.359136  0.140864  0.000000  1
