# generated using pymatgen
data_Yb2Dy5Ho(B6Os)4
_symmetry_space_group_name_H-M   'P 1'
_cell_length_a   3.65171900
_cell_length_b   9.16012513
_cell_length_c   11.55270363
_cell_angle_alpha   89.99134831
_cell_angle_beta   90.00000000
_cell_angle_gamma   90.00000000
_symmetry_Int_Tables_number   1
_chemical_formula_structural   Yb2Dy5Ho(B6Os)4
_chemical_formula_sum   'Yb2 Dy5 Ho1 B24 Os4'
_cell_volume   386.44027687
_cell_formula_units_Z   1
loop_
 _symmetry_equiv_pos_site_id
 _symmetry_equiv_pos_as_xyz
  1  'x, y, z'
loop_
 _atom_site_type_symbol
 _atom_site_label
 _atom_site_symmetry_multiplicity
 _atom_site_fract_x
 _atom_site_fract_y
 _atom_site_fract_z
 _atom_site_occupancy
  Yb  Yb0  1  0.000000  0.676973  0.586020  1
  Yb  Yb1  1  0.000000  0.822981  0.086006  1
  Dy  Dy2  1  0.000000  0.175660  0.914395  1
  Dy  Dy3  1  0.000000  0.940882  0.369373  1
  Dy  Dy4  1  0.000000  0.056546  0.629484  1
  Dy  Dy5  1  0.000000  0.443439  0.129801  1
  Dy  Dy6  1  0.000000  0.559219  0.869482  1
  Ho  Ho7  1  0.000000  0.324379  0.414536  1
  B  B8  1  0.500000  0.553422  0.433499  1
  B  B9  1  0.500000  0.446496  0.567590  1
  B  B10  1  0.500000  0.053550  0.067594  1
  B  B11  1  0.500000  0.946407  0.933330  1
  B  B12  1  0.500000  0.747028  0.418210  1
  B  B13  1  0.500000  0.252044  0.581406  1
  B  B14  1  0.500000  0.248129  0.081700  1
  B  B15  1  0.500000  0.752965  0.918176  1
  B  B16  1  0.500000  0.789144  0.265268  1
  B  B17  1  0.500000  0.209294  0.734469  1
  B  B18  1  0.500000  0.290811  0.234728  1
  B  B19  1  0.500000  0.710759  0.765290  1
  B  B20  1  0.500000  0.630780  0.186148  1
  B  B21  1  0.500000  0.368869  0.813864  1
  B  B22  1  0.500000  0.131270  0.313886  1
  B  B23  1  0.500000  0.869058  0.685901  1
  B  B24  1  0.500000  0.983304  0.211399  1
  B  B25  1  0.500000  0.016502  0.788478  1
  B  B26  1  0.500000  0.483256  0.288840  1
  B  B27  1  0.500000  0.516623  0.711481  1
  B  B28  1  0.500000  0.601673  0.027966  1
  B  B29  1  0.500000  0.397809  0.971395  1
  B  B30  1  0.500000  0.102656  0.471123  1
  B  B31  1  0.500000  0.898261  0.527845  1
  Os  Os32  1  0.000000  0.636166  0.321513  1
  Os  Os33  1  0.000000  0.360995  0.679206  1
  Os  Os34  1  0.000000  0.139053  0.179322  1
  Os  Os35  1  0.000000  0.863595  0.821278  1
