# generated using pymatgen
data_Dy2Y4ReBi2
_symmetry_space_group_name_H-M   'P 1'
_cell_length_a   4.35071200
_cell_length_b   8.30039052
_cell_length_c   8.30039122
_cell_angle_alpha   119.93794398
_cell_angle_beta   90.00000000
_cell_angle_gamma   90.00000000
_symmetry_Int_Tables_number   1
_chemical_formula_structural   Dy2Y4ReBi2
_chemical_formula_sum   'Dy2 Y4 Re1 Bi2'
_cell_volume   259.75223186
_cell_formula_units_Z   1
loop_
 _symmetry_equiv_pos_site_id
 _symmetry_equiv_pos_as_xyz
  1  'x, y, z'
loop_
 _atom_site_type_symbol
 _atom_site_label
 _atom_site_symmetry_multiplicity
 _atom_site_fract_x
 _atom_site_fract_y
 _atom_site_fract_z
 _atom_site_occupancy
  Dy  Dy0  1  0.500000  0.000049  0.232051  1
  Dy  Dy1  1  0.500000  0.232051  0.000049  1
  Y  Y2  1  0.500000  0.767272  0.767272  1
  Y  Y3  1  0.000000  0.389792  0.389792  1
  Y  Y4  1  0.000000  0.000085  0.610177  1
  Y  Y5  1  0.000000  0.610177  0.000085  1
  Re  Re6  1  0.000000  0.000507  0.000507  1
  Bi  Bi7  1  0.500000  0.666680  0.333387  1
  Bi  Bi8  1  0.500000  0.333387  0.666680  1
