# generated using pymatgen
data_Tb11DyInCo4Ni
_symmetry_space_group_name_H-M   'P 1'
_cell_length_a   8.32180775
_cell_length_b   8.32219939
_cell_length_c   8.32180828
_cell_angle_alpha   110.83490253
_cell_angle_beta   110.57050457
_cell_angle_gamma   107.03366079
_symmetry_Int_Tables_number   1
_chemical_formula_structural   Tb11DyInCo4Ni
_chemical_formula_sum   'Tb11 Dy1 In1 Co4 Ni1'
_cell_volume   443.07028602
_cell_formula_units_Z   1
loop_
 _symmetry_equiv_pos_site_id
 _symmetry_equiv_pos_as_xyz
  1  'x, y, z'
loop_
 _atom_site_type_symbol
 _atom_site_label
 _atom_site_symmetry_multiplicity
 _atom_site_fract_x
 _atom_site_fract_y
 _atom_site_fract_z
 _atom_site_occupancy
  Tb  Tb0  1  0.403433  0.209174  0.193855  1
  Tb  Tb1  1  0.596757  0.790840  0.806433  1
  Tb  Tb2  1  0.015320  0.209174  0.805739  1
  Tb  Tb3  1  0.984406  0.790840  0.194084  1
  Tb  Tb4  1  0.186123  0.294150  0.480755  1
  Tb  Tb5  1  0.813445  0.705482  0.518686  1
  Tb  Tb6  1  0.186796  0.705482  0.892037  1
  Tb  Tb7  1  0.813395  0.294150  0.108027  1
  Tb  Tb8  1  0.315550  0.620775  0.305225  1
  Tb  Tb9  1  0.684725  0.379525  0.694800  1
  Tb  Tb10  1  0.315316  0.010194  0.694878  1
  Dy  Dy11  1  0.684125  0.989494  0.305369  1
  In  In12  1  0.500055  0.500626  0.000571  1
  Co  Co13  1  0.378774  0.000155  0.378507  1
  Co  Co14  1  0.621648  0.000155  0.621381  1
  Co  Co15  1  0.112468  0.612665  0.500197  1
  Co  Co16  1  0.887679  0.387334  0.499655  1
  Ni  Ni17  1  0.999985  0.999786  0.999800  1
