# generated using pymatgen
data_Hf4Zr8(Ga3Sb)3
_symmetry_space_group_name_H-M   'P 1'
_cell_length_a   5.71783500
_cell_length_b   8.79468563
_cell_length_c   9.40055946
_cell_angle_alpha   89.85705352
_cell_angle_beta   90.00000000
_cell_angle_gamma   90.00000000
_symmetry_Int_Tables_number   1
_chemical_formula_structural   Hf4Zr8(Ga3Sb)3
_chemical_formula_sum   'Hf4 Zr8 Ga9 Sb3'
_cell_volume   472.72033831
_cell_formula_units_Z   1
loop_
 _symmetry_equiv_pos_site_id
 _symmetry_equiv_pos_as_xyz
  1  'x, y, z'
loop_
 _atom_site_type_symbol
 _atom_site_label
 _atom_site_symmetry_multiplicity
 _atom_site_fract_x
 _atom_site_fract_y
 _atom_site_fract_z
 _atom_site_occupancy
  Hf  Hf0  1  0.002107  0.745551  0.118797  1
  Hf  Hf1  1  0.497000  0.253288  0.884059  1
  Hf  Hf2  1  0.003000  0.253288  0.884059  1
  Hf  Hf3  1  0.497893  0.745551  0.118797  1
  Zr  Zr4  1  0.750000  0.470266  0.611590  1
  Zr  Zr5  1  0.250000  0.528529  0.378854  1
  Zr  Zr6  1  0.750000  0.969398  0.390713  1
  Zr  Zr7  1  0.250000  0.030395  0.610647  1
  Zr  Zr8  1  0.750000  0.378846  0.196620  1
  Zr  Zr9  1  0.250000  0.617209  0.808277  1
  Zr  Zr10  1  0.750000  0.875769  0.803551  1
  Zr  Zr11  1  0.250000  0.132331  0.192789  1
  Ga  Ga12  1  0.003693  0.748070  0.571632  1
  Ga  Ga13  1  0.499961  0.250412  0.428505  1
  Ga  Ga14  1  0.000039  0.250412  0.428505  1
  Ga  Ga15  1  0.496307  0.748070  0.571632  1
  Ga  Ga16  1  0.250000  0.448748  0.084131  1
  Ga  Ga17  1  0.750000  0.141286  0.647694  1
  Ga  Ga18  1  0.250000  0.864265  0.352298  1
  Ga  Ga19  1  0.750000  0.639315  0.355023  1
  Ga  Ga20  1  0.250000  0.361460  0.643708  1
  Sb  Sb21  1  0.750000  0.051746  0.087200  1
  Sb  Sb22  1  0.250000  0.947092  0.913771  1
  Sb  Sb23  1  0.750000  0.548702  0.917147  1
