# generated using pymatgen
data_La10Pr2Al3Ga5Rh8
_symmetry_space_group_name_H-M   'P 1'
_cell_length_a   5.79648170
_cell_length_b   8.36068503
_cell_length_c   13.75864283
_cell_angle_alpha   89.97744790
_cell_angle_beta   90.01616930
_cell_angle_gamma   90.28151400
_symmetry_Int_Tables_number   1
_chemical_formula_structural   La10Pr2Al3Ga5Rh8
_chemical_formula_sum   'La10 Pr2 Al3 Ga5 Rh8'
_cell_volume   666.77089751
_cell_formula_units_Z   1
loop_
 _symmetry_equiv_pos_site_id
 _symmetry_equiv_pos_as_xyz
  1  'x, y, z'
loop_
 _atom_site_type_symbol
 _atom_site_label
 _atom_site_symmetry_multiplicity
 _atom_site_fract_x
 _atom_site_fract_y
 _atom_site_fract_z
 _atom_site_occupancy
  La  La0  1  0.365979  0.760148  0.251033  1
  La  La1  1  0.634460  0.238248  0.748719  1
  La  La2  1  0.145592  0.402384  0.097299  1
  La  La3  1  0.854577  0.597226  0.903029  1
  La  La4  1  0.851140  0.596077  0.596420  1
  La  La5  1  0.852376  0.902271  0.403871  1
  La  La6  1  0.148571  0.400341  0.404217  1
  La  La7  1  0.146788  0.101045  0.595617  1
  La  La8  1  0.144074  0.098851  0.902987  1
  La  La9  1  0.856141  0.901488  0.096590  1
  Pr  Pr10  1  0.638845  0.258102  0.251094  1
  Pr  Pr11  1  0.362619  0.742704  0.749204  1
  Al  Al12  1  0.616249  0.249900  0.001242  1
  Al  Al13  1  0.383861  0.750331  0.998737  1
  Al  Al14  1  0.379447  0.750173  0.501402  1
  Ga  Ga15  1  0.144133  0.113749  0.249851  1
  Ga  Ga16  1  0.858880  0.885592  0.749477  1
  Ga  Ga17  1  0.859125  0.610627  0.250382  1
  Ga  Ga18  1  0.142543  0.389870  0.750066  1
  Ga  Ga19  1  0.627533  0.250001  0.498471  1
  Rh  Rh20  1  0.357167  0.026909  0.089200  1
  Rh  Rh21  1  0.643348  0.973731  0.910215  1
  Rh  Rh22  1  0.638219  0.969832  0.590759  1
  Rh  Rh23  1  0.635398  0.532792  0.409515  1
  Rh  Rh24  1  0.355735  0.024567  0.410400  1
  Rh  Rh25  1  0.357875  0.473007  0.589472  1
  Rh  Rh26  1  0.358286  0.471476  0.911215  1
  Rh  Rh27  1  0.641039  0.528559  0.089516  1
