# generated using pymatgen
data_Pr12Os2PtAu
_symmetry_space_group_name_H-M   'P 1'
_cell_length_a   6.62333594
_cell_length_b   7.51766013
_cell_length_c   9.99680200
_cell_angle_alpha   90.00000000
_cell_angle_beta   90.00000000
_cell_angle_gamma   90.33365912
_symmetry_Int_Tables_number   1
_chemical_formula_structural   Pr12Os2PtAu
_chemical_formula_sum   'Pr12 Os2 Pt1 Au1'
_cell_volume   497.75221012
_cell_formula_units_Z   1
loop_
 _symmetry_equiv_pos_site_id
 _symmetry_equiv_pos_as_xyz
  1  'x, y, z'
loop_
 _atom_site_type_symbol
 _atom_site_label
 _atom_site_symmetry_multiplicity
 _atom_site_fract_x
 _atom_site_fract_y
 _atom_site_fract_z
 _atom_site_occupancy
  Pr  Pr0  1  0.340281  0.669525  0.060775  1
  Pr  Pr1  1  0.172636  0.188377  0.438704  1
  Pr  Pr2  1  0.667425  0.325752  0.564036  1
  Pr  Pr3  1  0.828423  0.819526  0.933075  1
  Pr  Pr4  1  0.667425  0.325752  0.935964  1
  Pr  Pr5  1  0.828423  0.819526  0.566925  1
  Pr  Pr6  1  0.340281  0.669525  0.439225  1
  Pr  Pr7  1  0.172636  0.188377  0.061296  1
  Pr  Pr8  1  0.852966  0.518332  0.250000  1
  Pr  Pr9  1  0.622649  0.043581  0.250000  1
  Pr  Pr10  1  0.143175  0.471969  0.750000  1
  Pr  Pr11  1  0.365728  0.956209  0.750000  1
  Os  Os12  1  0.432659  0.381583  0.250000  1
  Os  Os13  1  0.564598  0.618069  0.750000  1
  Pt  Pt14  1  0.938755  0.118582  0.750000  1
  Au  Au15  1  0.061940  0.885313  0.250000  1
