# generated using pymatgen
data_Ho4Er3Tm(B6Rh)4
_symmetry_space_group_name_H-M   'P 1'
_cell_length_a   3.64106300
_cell_length_b   9.14417302
_cell_length_c   11.47783703
_cell_angle_alpha   89.99155999
_cell_angle_beta   90.00000000
_cell_angle_gamma   90.00000000
_symmetry_Int_Tables_number   1
_chemical_formula_structural   Ho4Er3Tm(B6Rh)4
_chemical_formula_sum   'Ho4 Er3 Tm1 B24 Rh4'
_cell_volume   382.14895643
_cell_formula_units_Z   1
loop_
 _symmetry_equiv_pos_site_id
 _symmetry_equiv_pos_as_xyz
  1  'x, y, z'
loop_
 _atom_site_type_symbol
 _atom_site_label
 _atom_site_symmetry_multiplicity
 _atom_site_fract_x
 _atom_site_fract_y
 _atom_site_fract_z
 _atom_site_occupancy
  Ho  Ho0  1  0.500000  0.322061  0.413673  1
  Ho  Ho1  1  0.500000  0.677916  0.586162  1
  Ho  Ho2  1  0.500000  0.177795  0.913716  1
  Ho  Ho3  1  0.500000  0.822215  0.086405  1
  Er  Er4  1  0.500000  0.444272  0.126914  1
  Er  Er5  1  0.500000  0.555686  0.873178  1
  Er  Er6  1  0.500000  0.055685  0.626635  1
  Tm  Tm7  1  0.500000  0.944234  0.373122  1
  B  B8  1  0.000000  0.108500  0.470338  1
  B  B9  1  0.000000  0.891278  0.529126  1
  B  B10  1  0.000000  0.390833  0.970499  1
  B  B11  1  0.000000  0.609186  0.029596  1
  B  B12  1  0.000000  0.132683  0.316408  1
  B  B13  1  0.000000  0.867005  0.683614  1
  B  B14  1  0.000000  0.366911  0.816285  1
  B  B15  1  0.000000  0.633130  0.183795  1
  B  B16  1  0.000000  0.054032  0.065532  1
  B  B17  1  0.000000  0.945922  0.934606  1
  B  B18  1  0.000000  0.446001  0.565358  1
  B  B19  1  0.000000  0.554166  0.434540  1
  B  B20  1  0.000000  0.482868  0.286729  1
  B  B21  1  0.000000  0.517185  0.713302  1
  B  B22  1  0.000000  0.017160  0.786619  1
  B  B23  1  0.000000  0.982668  0.213640  1
  B  B24  1  0.000000  0.249534  0.079587  1
  B  B25  1  0.000000  0.750433  0.920505  1
  B  B26  1  0.000000  0.250333  0.579427  1
  B  B27  1  0.000000  0.750033  0.420405  1
  B  B28  1  0.000000  0.294154  0.236063  1
  B  B29  1  0.000000  0.705742  0.763942  1
  B  B30  1  0.000000  0.205697  0.735989  1
  B  B31  1  0.000000  0.794614  0.264146  1
  Rh  Rh32  1  0.500000  0.139491  0.179320  1
  Rh  Rh33  1  0.500000  0.860266  0.820822  1
  Rh  Rh34  1  0.500000  0.360249  0.679148  1
  Rh  Rh35  1  0.500000  0.640064  0.320854  1
