# generated using pymatgen
data_Ac2Cu18Si7Ge
_symmetry_space_group_name_H-M   'P 1'
_cell_length_a   8.34542676
_cell_length_b   8.34542403
_cell_length_c   8.35803600
_cell_angle_alpha   120.53608737
_cell_angle_beta   120.53617992
_cell_angle_gamma   89.12814081
_symmetry_Int_Tables_number   1
_chemical_formula_structural   Ac2Cu18Si7Ge
_chemical_formula_sum   'Ac2 Cu18 Si7 Ge1'
_cell_volume   408.02624278
_cell_formula_units_Z   1
loop_
 _symmetry_equiv_pos_site_id
 _symmetry_equiv_pos_as_xyz
  1  'x, y, z'
loop_
 _atom_site_type_symbol
 _atom_site_label
 _atom_site_symmetry_multiplicity
 _atom_site_fract_x
 _atom_site_fract_y
 _atom_site_fract_z
 _atom_site_occupancy
  Ac  Ac0  1  0.250051  0.250096  0.999905  1
  Ac  Ac1  1  0.750095  0.750051  0.999905  1
  Cu  Cu2  1  0.934862  0.200203  0.140711  1
  Cu  Cu3  1  0.203656  0.064147  0.268475  1
  Cu  Cu4  1  0.795318  0.931736  0.730496  1
  Cu  Cu5  1  0.431736  0.295317  0.730496  1
  Cu  Cu6  1  0.066305  0.797816  0.862311  1
  Cu  Cu7  1  0.804786  0.053310  0.493482  1
  Cu  Cu8  1  0.553309  0.304785  0.493482  1
  Cu  Cu9  1  0.194045  0.943594  0.501415  1
  Cu  Cu10  1  0.443594  0.694045  0.501416  1
  Cu  Cu11  1  0.942190  0.442190  0.737713  1
  Cu  Cu12  1  0.694160  0.194160  0.252397  1
  Cu  Cu13  1  0.065376  0.565376  0.267120  1
  Cu  Cu14  1  0.700203  0.434861  0.140710  1
  Cu  Cu15  1  0.564147  0.703656  0.268475  1
  Cu  Cu16  1  0.497958  0.997959  0.498418  1
  Cu  Cu17  1  0.000494  0.500494  0.498929  1
  Cu  Cu18  1  0.305798  0.805798  0.748041  1
  Cu  Cu19  1  0.297816  0.566306  0.862311  1
  Si  Si20  1  0.555957  0.055957  0.847676  1
  Si  Si21  1  0.057293  0.209450  0.499232  1
  Si  Si22  1  0.290849  0.442552  0.501186  1
  Si  Si23  1  0.942552  0.790849  0.501186  1
  Si  Si24  1  0.442571  0.942571  0.152236  1
  Si  Si25  1  0.207172  0.707172  0.150258  1
  Si  Si26  1  0.709450  0.557293  0.499232  1
  Ge  Ge27  1  0.798257  0.298257  0.852791  1
