# generated using pymatgen
data_Lu8Cd3In
_symmetry_space_group_name_H-M   'P 1'
_cell_length_a   5.16596300
_cell_length_b   6.68044179
_cell_length_c   9.25349419
_cell_angle_alpha   89.81162785
_cell_angle_beta   90.00000000
_cell_angle_gamma   90.00000000
_symmetry_Int_Tables_number   1
_chemical_formula_structural   Lu8Cd3In
_chemical_formula_sum   'Lu8 Cd3 In1'
_cell_volume   319.34482632
_cell_formula_units_Z   1
loop_
 _symmetry_equiv_pos_site_id
 _symmetry_equiv_pos_as_xyz
  1  'x, y, z'
loop_
 _atom_site_type_symbol
 _atom_site_label
 _atom_site_symmetry_multiplicity
 _atom_site_fract_x
 _atom_site_fract_y
 _atom_site_fract_z
 _atom_site_occupancy
  Lu  Lu0  1  0.250000  0.818742  0.929453  1
  Lu  Lu1  1  0.250000  0.322769  0.574175  1
  Lu  Lu2  1  0.750000  0.178238  0.066009  1
  Lu  Lu3  1  0.750000  0.687904  0.428264  1
  Lu  Lu4  1  0.250000  0.977339  0.289162  1
  Lu  Lu5  1  0.250000  0.477312  0.210929  1
  Lu  Lu6  1  0.750000  0.019800  0.711081  1
  Lu  Lu7  1  0.750000  0.521770  0.790997  1
  Cd  Cd8  1  0.250000  0.278250  0.900710  1
  Cd  Cd9  1  0.250000  0.779634  0.600470  1
  Cd  Cd10  1  0.750000  0.719120  0.100440  1
  In  In11  1  0.750000  0.219122  0.398309  1
