# generated using pymatgen
data_Tb2Ce(BPt2)3
_symmetry_space_group_name_H-M   'P 1'
_cell_length_a   5.45148627
_cell_length_b   5.41267234
_cell_length_c   7.95603804
_cell_angle_alpha   90.00955401
_cell_angle_beta   90.00058565
_cell_angle_gamma   120.27516868
_symmetry_Int_Tables_number   1
_chemical_formula_structural   Tb2Ce(BPt2)3
_chemical_formula_sum   'Tb2 Ce1 B3 Pt6'
_cell_volume   202.74177267
_cell_formula_units_Z   1
loop_
 _symmetry_equiv_pos_site_id
 _symmetry_equiv_pos_as_xyz
  1  'x, y, z'
loop_
 _atom_site_type_symbol
 _atom_site_label
 _atom_site_symmetry_multiplicity
 _atom_site_fract_x
 _atom_site_fract_y
 _atom_site_fract_z
 _atom_site_occupancy
  Tb  Tb0  1  0.500014  0.500009  0.331306  1
  Tb  Tb1  1  0.499978  0.999974  0.002105  1
  Ce  Ce2  1  0.999977  0.499982  0.666894  1
  B  B3  1  0.999992  0.499955  0.165867  1
  B  B4  1  0.500014  0.500006  0.836715  1
  B  B5  1  0.500012  0.999992  0.497113  1
  Pt  Pt6  1  0.309076  0.155061  0.665843  1
  Pt  Pt7  1  0.152647  0.850760  0.331099  1
  Pt  Pt8  1  0.846529  0.697899  0.003051  1
  Pt  Pt9  1  0.847278  0.149287  0.331086  1
  Pt  Pt10  1  0.153548  0.302191  0.003030  1
  Pt  Pt11  1  0.690935  0.844885  0.665890  1
