# generated using pymatgen
data_Ho3Tm13Tl5InPd2
_symmetry_space_group_name_H-M   'P 1'
_cell_length_a   10.39037767
_cell_length_b   10.39046584
_cell_length_c   6.98940123
_cell_angle_alpha   89.97514781
_cell_angle_beta   90.02491559
_cell_angle_gamma   120.01643086
_symmetry_Int_Tables_number   1
_chemical_formula_structural   Ho3Tm13Tl5InPd2
_chemical_formula_sum   'Ho3 Tm13 Tl5 In1 Pd2'
_cell_volume   653.37870001
_cell_formula_units_Z   1
loop_
 _symmetry_equiv_pos_site_id
 _symmetry_equiv_pos_as_xyz
  1  'x, y, z'
loop_
 _atom_site_type_symbol
 _atom_site_label
 _atom_site_symmetry_multiplicity
 _atom_site_fract_x
 _atom_site_fract_y
 _atom_site_fract_z
 _atom_site_occupancy
  Ho  Ho0  1  0.530671  0.063456  0.519987  1
  Ho  Ho1  1  0.936546  0.469328  0.519992  1
  Ho  Ho2  1  0.532123  0.467868  0.520831  1
  Tm  Tm3  1  0.466775  0.934094  0.021755  1
  Tm  Tm4  1  0.065908  0.533227  0.021760  1
  Tm  Tm5  1  0.466804  0.533205  0.020919  1
  Tm  Tm6  1  0.174180  0.348891  0.718890  1
  Tm  Tm7  1  0.651109  0.825818  0.718881  1
  Tm  Tm8  1  0.174608  0.825388  0.721311  1
  Tm  Tm9  1  0.824375  0.650240  0.216538  1
  Tm  Tm10  1  0.349756  0.175625  0.216530  1
  Tm  Tm11  1  0.825423  0.174587  0.216903  1
  Tm  Tm12  1  0.666855  0.333143  0.893829  1
  Tm  Tm13  1  0.333099  0.666908  0.393737  1
  Tm  Tm14  1  0.001146  0.998864  0.492841  1
  Tm  Tm15  1  0.000656  0.999336  0.996600  1
  Tl  Tl16  1  0.837199  0.674789  0.763049  1
  Tl  Tl17  1  0.325202  0.162793  0.763048  1
  Tl  Tl18  1  0.837485  0.162512  0.762856  1
  Tl  Tl19  1  0.162908  0.325697  0.263448  1
  Tl  Tl20  1  0.674311  0.837100  0.263439  1
  In  In21  1  0.162528  0.837474  0.261971  1
  Pd  Pd22  1  0.666921  0.333072  0.283749  1
  Pd  Pd23  1  0.333411  0.666583  0.785143  1
