# generated using pymatgen
data_Ta8V2Si6C
_symmetry_space_group_name_H-M   'P 1'
_cell_length_a   7.47898700
_cell_length_b   7.47898748
_cell_length_c   5.14037400
_cell_angle_alpha   90.00000000
_cell_angle_beta   90.00000000
_cell_angle_gamma   120.00000231
_symmetry_Int_Tables_number   1
_chemical_formula_structural   Ta8V2Si6C
_chemical_formula_sum   'Ta8 V2 Si6 C1'
_cell_volume   249.00663780
_cell_formula_units_Z   1
loop_
 _symmetry_equiv_pos_site_id
 _symmetry_equiv_pos_as_xyz
  1  'x, y, z'
loop_
 _atom_site_type_symbol
 _atom_site_label
 _atom_site_symmetry_multiplicity
 _atom_site_fract_x
 _atom_site_fract_y
 _atom_site_fract_z
 _atom_site_occupancy
  Ta  Ta0  1  0.000000  0.757775  0.254423  1
  Ta  Ta1  1  0.242225  0.242225  0.254423  1
  Ta  Ta2  1  0.757775  0.000000  0.254423  1
  Ta  Ta3  1  0.000000  0.242225  0.745577  1
  Ta  Ta4  1  0.757775  0.757775  0.745577  1
  Ta  Ta5  1  0.242225  0.000000  0.745577  1
  Ta  Ta6  1  0.333333  0.666667  0.500000  1
  Ta  Ta7  1  0.666667  0.333333  0.500000  1
  V  V8  1  0.666667  0.333333  0.000000  1
  V  V9  1  0.333333  0.666667  0.000000  1
  Si  Si10  1  0.000000  0.403719  0.226277  1
  Si  Si11  1  0.596281  0.596281  0.226277  1
  Si  Si12  1  0.403719  0.000000  0.226277  1
  Si  Si13  1  0.000000  0.596281  0.773723  1
  Si  Si14  1  0.403719  0.403719  0.773723  1
  Si  Si15  1  0.596281  0.000000  0.773723  1
  C  C16  1  0.000000  0.000000  0.500000  1
