# generated using pymatgen
data_Dy2Ho9LuGaCo4Sn
_symmetry_space_group_name_H-M   'P 1'
_cell_length_a   8.27336189
_cell_length_b   8.28993420
_cell_length_c   8.29074818
_cell_angle_alpha   112.19660029
_cell_angle_beta   109.21067160
_cell_angle_gamma   107.11556449
_symmetry_Int_Tables_number   1
_chemical_formula_structural   Dy2Ho9LuGaCo4Sn
_chemical_formula_sum   'Dy2 Ho9 Lu1 Ga1 Co4 Sn1'
_cell_volume   436.48454021
_cell_formula_units_Z   1
loop_
 _symmetry_equiv_pos_site_id
 _symmetry_equiv_pos_as_xyz
  1  'x, y, z'
loop_
 _atom_site_type_symbol
 _atom_site_label
 _atom_site_symmetry_multiplicity
 _atom_site_fract_x
 _atom_site_fract_y
 _atom_site_fract_z
 _atom_site_occupancy
  Dy  Dy0  1  0.967826  0.266646  0.699939  1
  Dy  Dy1  1  0.030309  0.733330  0.298476  1
  Ho  Ho2  1  0.326392  0.511857  0.186977  1
  Ho  Ho3  1  0.325996  0.138930  0.814393  1
  Ho  Ho4  1  0.673849  0.488784  0.813585  1
  Ho  Ho5  1  0.565870  0.265680  0.298878  1
  Ho  Ho6  1  0.435713  0.734471  0.702780  1
  Ho  Ho7  1  0.181407  0.781779  0.961871  1
  Ho  Ho8  1  0.819592  0.781511  0.600389  1
  Ho  Ho9  1  0.179106  0.218168  0.398139  1
  Ho  Ho10  1  0.819692  0.217796  0.039052  1
  Lu  Lu11  1  0.673330  0.858387  0.183747  1
  Ga  Ga12  1  0.000422  0.500908  0.499772  1
  Co  Co13  1  0.115794  0.113538  0.001173  1
  Co  Co14  1  0.883005  0.884764  0.998535  1
  Co  Co15  1  0.659219  0.501222  0.160459  1
  Co  Co16  1  0.341887  0.502158  0.842330  1
  Sn  Sn17  1  0.500591  0.000072  0.499506  1
