# generated using pymatgen
data_Dy4Y11Er(CdPt)4
_symmetry_space_group_name_H-M   'P 1'
_cell_length_a   9.69213104
_cell_length_b   9.71353793
_cell_length_c   9.71353790
_cell_angle_alpha   60.03878901
_cell_angle_beta   60.07288028
_cell_angle_gamma   60.07287569
_symmetry_Int_Tables_number   1
_chemical_formula_structural   Dy4Y11Er(CdPt)4
_chemical_formula_sum   'Dy4 Y11 Er1 Cd4 Pt4'
_cell_volume   647.53628500
_cell_formula_units_Z   1
loop_
 _symmetry_equiv_pos_site_id
 _symmetry_equiv_pos_as_xyz
  1  'x, y, z'
loop_
 _atom_site_type_symbol
 _atom_site_label
 _atom_site_symmetry_multiplicity
 _atom_site_fract_x
 _atom_site_fract_y
 _atom_site_fract_z
 _atom_site_occupancy
  Dy  Dy0  1  0.351710  0.352202  0.352202  1
  Dy  Dy1  1  0.352330  0.353388  0.941951  1
  Dy  Dy2  1  0.352330  0.941951  0.353388  1
  Dy  Dy3  1  0.943885  0.352202  0.352202  1
  Y  Y4  1  0.189528  0.810472  0.810472  1
  Y  Y5  1  0.189657  0.810752  0.189801  1
  Y  Y6  1  0.809790  0.189801  0.810752  1
  Y  Y7  1  0.189657  0.189801  0.810752  1
  Y  Y8  1  0.809790  0.810752  0.189801  1
  Y  Y9  1  0.935516  0.564484  0.564484  1
  Y  Y10  1  0.563860  0.936140  0.936140  1
  Y  Y11  1  0.564727  0.936211  0.563471  1
  Y  Y12  1  0.935591  0.563471  0.936211  1
  Y  Y13  1  0.564727  0.563471  0.936211  1
  Y  Y14  1  0.935591  0.936211  0.563471  1
  Er  Er15  1  0.810012  0.189988  0.189988  1
  Cd  Cd16  1  0.582072  0.581644  0.581644  1
  Cd  Cd17  1  0.582092  0.581603  0.254214  1
  Cd  Cd18  1  0.582092  0.254214  0.581603  1
  Cd  Cd19  1  0.254641  0.581644  0.581644  1
  Pt  Pt20  1  0.142725  0.144088  0.144088  1
  Pt  Pt21  1  0.144291  0.143079  0.568338  1
  Pt  Pt22  1  0.144291  0.568338  0.143079  1
  Pt  Pt23  1  0.569097  0.144088  0.144088  1
