# generated using pymatgen
data_Dy2Ga4PtAu
_symmetry_space_group_name_H-M   'P 1'
_cell_length_a   5.57370909
_cell_length_b   5.57370951
_cell_length_c   6.68291000
_cell_angle_alpha   90.00000000
_cell_angle_beta   90.00000000
_cell_angle_gamma   132.63828020
_symmetry_Int_Tables_number   1
_chemical_formula_structural   Dy2Ga4PtAu
_chemical_formula_sum   'Dy2 Ga4 Pt1 Au1'
_cell_volume   152.72929452
_cell_formula_units_Z   1
loop_
 _symmetry_equiv_pos_site_id
 _symmetry_equiv_pos_as_xyz
  1  'x, y, z'
loop_
 _atom_site_type_symbol
 _atom_site_label
 _atom_site_symmetry_multiplicity
 _atom_site_fract_x
 _atom_site_fract_y
 _atom_site_fract_z
 _atom_site_occupancy
  Dy  Dy0  1  0.591330  0.408670  0.250000  1
  Dy  Dy1  1  0.411342  0.588658  0.750000  1
  Ga  Ga2  1  0.873759  0.126241  0.453522  1
  Ga  Ga3  1  0.125118  0.874882  0.556038  1
  Ga  Ga4  1  0.873759  0.126241  0.046478  1
  Ga  Ga5  1  0.125118  0.874882  0.943962  1
  Pt  Pt6  1  0.699704  0.300296  0.750000  1
  Au  Au7  1  0.299867  0.700133  0.250000  1
