# generated using pymatgen
data_CaEr4Tl5
_symmetry_space_group_name_H-M   'P 1'
_cell_length_a   3.71058200
_cell_length_b   3.71058200
_cell_length_c   20.05039400
_cell_angle_alpha   90.00000000
_cell_angle_beta   90.00000000
_cell_angle_gamma   90.00000000
_symmetry_Int_Tables_number   1
_chemical_formula_structural   CaEr4Tl5
_chemical_formula_sum   'Ca1 Er4 Tl5'
_cell_volume   276.06222127
_cell_formula_units_Z   1
loop_
 _symmetry_equiv_pos_site_id
 _symmetry_equiv_pos_as_xyz
  1  'x, y, z'
loop_
 _atom_site_type_symbol
 _atom_site_label
 _atom_site_symmetry_multiplicity
 _atom_site_fract_x
 _atom_site_fract_y
 _atom_site_fract_z
 _atom_site_occupancy
  Ca  Ca0  1  0.000000  0.000000  0.000000  1
  Er  Er1  1  0.000000  0.000000  0.205143  1
  Er  Er2  1  0.000000  0.000000  0.401895  1
  Er  Er3  1  0.000000  0.000000  0.598105  1
  Er  Er4  1  0.000000  0.000000  0.794857  1
  Tl  Tl5  1  0.500000  0.500000  0.105818  1
  Tl  Tl6  1  0.500000  0.500000  0.303883  1
  Tl  Tl7  1  0.500000  0.500000  0.500000  1
  Tl  Tl8  1  0.500000  0.500000  0.696117  1
  Tl  Tl9  1  0.500000  0.500000  0.894182  1
