# generated using pymatgen
data_BaCuClO2
_symmetry_space_group_name_H-M   'P 1'
_cell_length_a   7.40861696
_cell_length_b   7.40861838
_cell_length_c   5.42308700
_cell_angle_alpha   90.00000000
_cell_angle_beta   90.00000000
_cell_angle_gamma   134.53619210
_symmetry_Int_Tables_number   1
_chemical_formula_structural   BaCuClO2
_chemical_formula_sum   'Ba2 Cu2 Cl2 O4'
_cell_volume   212.17452408
_cell_formula_units_Z   2
loop_
 _symmetry_equiv_pos_site_id
 _symmetry_equiv_pos_as_xyz
  1  'x, y, z'
loop_
 _atom_site_type_symbol
 _atom_site_label
 _atom_site_symmetry_multiplicity
 _atom_site_fract_x
 _atom_site_fract_y
 _atom_site_fract_z
 _atom_site_occupancy
  Ba  Ba0  1  0.369339  0.630660  0.249999  1
  Ba  Ba1  1  0.630660  0.369339  0.749999  1
  Cu  Cu2  1  0.005910  0.994089  0.249999  1
  Cu  Cu3  1  0.994089  0.005910  0.749999  1
  Cl  Cl4  1  0.753850  0.246149  0.249999  1
  Cl  Cl5  1  0.246149  0.753850  0.749999  1
  O  O6  1  0.217362  0.217362  0.000000  1
  O  O7  1  0.782637  0.782637  0.000000  1
  O  O8  1  0.217362  0.217362  0.500000  1
  O  O9  1  0.782637  0.782637  0.500000  1
