# generated using pymatgen
data_Nd3Dy3Tm2(CdIr)2
_symmetry_space_group_name_H-M   'P 1'
_cell_length_a   9.72955406
_cell_length_b   9.72613686
_cell_length_c   9.72613660
_cell_angle_alpha   60.02325015
_cell_angle_beta   59.98837880
_cell_angle_gamma   59.98837549
_symmetry_Int_Tables_number   1
_chemical_formula_structural   Nd3Dy3Tm2(CdIr)2
_chemical_formula_sum   'Nd6 Dy6 Tm4 Cd4 Ir4'
_cell_volume   650.81654668
_cell_formula_units_Z   2
loop_
 _symmetry_equiv_pos_site_id
 _symmetry_equiv_pos_as_xyz
  1  'x, y, z'
loop_
 _atom_site_type_symbol
 _atom_site_label
 _atom_site_symmetry_multiplicity
 _atom_site_fract_x
 _atom_site_fract_y
 _atom_site_fract_z
 _atom_site_occupancy
  Nd  Nd0  1  0.940926  0.559074  0.559074  1
  Nd  Nd1  1  0.559074  0.940926  0.940926  1
  Nd  Nd2  1  0.559138  0.940862  0.559138  1
  Nd  Nd3  1  0.940862  0.559138  0.940862  1
  Nd  Nd4  1  0.559138  0.559138  0.940862  1
  Nd  Nd5  1  0.940862  0.940862  0.559138  1
  Dy  Dy6  1  0.347051  0.347685  0.347685  1
  Dy  Dy7  1  0.347685  0.347051  0.957581  1
  Dy  Dy8  1  0.347685  0.957581  0.347051  1
  Dy  Dy9  1  0.957581  0.347685  0.347685  1
  Dy  Dy10  1  0.813629  0.186371  0.186371  1
  Dy  Dy11  1  0.186371  0.813629  0.813629  1
  Tm  Tm12  1  0.186661  0.813339  0.186661  1
  Tm  Tm13  1  0.813339  0.186661  0.813339  1
  Tm  Tm14  1  0.186661  0.186661  0.813339  1
  Tm  Tm15  1  0.813339  0.813339  0.186661  1
  Cd  Cd16  1  0.579551  0.579284  0.579284  1
  Cd  Cd17  1  0.579284  0.579551  0.261879  1
  Cd  Cd18  1  0.579284  0.261879  0.579551  1
  Cd  Cd19  1  0.261879  0.579284  0.579284  1
  Ir  Ir20  1  0.141632  0.140559  0.140559  1
  Ir  Ir21  1  0.140559  0.141632  0.577250  1
  Ir  Ir22  1  0.140559  0.577250  0.141632  1
  Ir  Ir23  1  0.577250  0.140559  0.140559  1
