# generated using pymatgen
data_La8Sm12BiPb15
_symmetry_space_group_name_H-M   'P 1'
_cell_length_a   8.51512032
_cell_length_b   8.62249455
_cell_length_c   16.19079000
_cell_angle_alpha   89.92763681
_cell_angle_beta   90.29165049
_cell_angle_gamma   90.09465193
_symmetry_Int_Tables_number   1
_chemical_formula_structural   La8Sm12BiPb15
_chemical_formula_sum   'La8 Sm12 Bi1 Pb15'
_cell_volume   1188.73540119
_cell_formula_units_Z   1
loop_
 _symmetry_equiv_pos_site_id
 _symmetry_equiv_pos_as_xyz
  1  'x, y, z'
loop_
 _atom_site_type_symbol
 _atom_site_label
 _atom_site_symmetry_multiplicity
 _atom_site_fract_x
 _atom_site_fract_y
 _atom_site_fract_z
 _atom_site_occupancy
  La  La0  1  0.476522  0.676599  0.598173  1
  La  La1  1  0.979174  0.822286  0.902756  1
  La  La2  1  0.520933  0.323011  0.097604  1
  La  La3  1  0.026304  0.177844  0.401155  1
  La  La4  1  0.523397  0.324147  0.402131  1
  La  La5  1  0.021376  0.177700  0.097478  1
  La  La6  1  0.478965  0.678210  0.902860  1
  La  La7  1  0.978969  0.821166  0.598415  1
  Sm  Sm8  1  0.635319  0.158716  0.621869  1
  Sm  Sm9  1  0.137506  0.341698  0.877747  1
  Sm  Sm10  1  0.361777  0.842762  0.122393  1
  Sm  Sm11  1  0.865469  0.655420  0.377929  1
  Sm  Sm12  1  0.359683  0.842615  0.378918  1
  Sm  Sm13  1  0.860998  0.657887  0.122565  1
  Sm  Sm14  1  0.638292  0.157278  0.877940  1
  Sm  Sm15  1  0.136198  0.342316  0.621649  1
  Sm  Sm16  1  0.801734  0.496787  0.750381  1
  Sm  Sm17  1  0.302306  0.003033  0.749688  1
  Sm  Sm18  1  0.198818  0.503090  0.249025  1
  Sm  Sm19  1  0.697982  0.997259  0.247793  1
  Bi  Bi20  1  0.707104  0.959715  0.455596  1
  Pb  Pb21  1  0.203223  0.541121  0.043446  1
  Pb  Pb22  1  0.296224  0.041437  0.956695  1
  Pb  Pb23  1  0.794008  0.460616  0.543565  1
  Pb  Pb24  1  0.291355  0.039967  0.543924  1
  Pb  Pb25  1  0.796258  0.459219  0.956715  1
  Pb  Pb26  1  0.703233  0.959058  0.043493  1
  Pb  Pb27  1  0.206086  0.538930  0.455804  1
  Pb  Pb28  1  0.440703  0.372063  0.750005  1
  Pb  Pb29  1  0.939860  0.126780  0.749187  1
  Pb  Pb30  1  0.558753  0.629039  0.251895  1
  Pb  Pb31  1  0.058947  0.872608  0.250348  1
  Pb  Pb32  1  0.668064  0.850082  0.750019  1
  Pb  Pb33  1  0.167628  0.649421  0.750457  1
  Pb  Pb34  1  0.333720  0.150268  0.250292  1
  Pb  Pb35  1  0.833110  0.349849  0.250089  1
