# generated using pymatgen
data_Dy5HoNpO12
_symmetry_space_group_name_H-M   'P 1'
_cell_length_a   6.55799038
_cell_length_b   6.56196069
_cell_length_c   6.56088450
_cell_angle_alpha   98.87642876
_cell_angle_beta   98.91140373
_cell_angle_gamma   98.86223568
_symmetry_Int_Tables_number   1
_chemical_formula_structural   Dy5HoNpO12
_chemical_formula_sum   'Dy5 Ho1 Np1 O12'
_cell_volume   270.96862330
_cell_formula_units_Z   1
loop_
 _symmetry_equiv_pos_site_id
 _symmetry_equiv_pos_as_xyz
  1  'x, y, z'
loop_
 _atom_site_type_symbol
 _atom_site_label
 _atom_site_symmetry_multiplicity
 _atom_site_fract_x
 _atom_site_fract_y
 _atom_site_fract_z
 _atom_site_occupancy
  Dy  Dy0  1  0.145198  0.320905  0.610724  1
  Dy  Dy1  1  0.389011  0.854477  0.678896  1
  Dy  Dy2  1  0.679499  0.389418  0.854724  1
  Dy  Dy3  1  0.320853  0.610916  0.145597  1
  Dy  Dy4  1  0.611103  0.145388  0.320833  1
  Ho  Ho5  1  0.854237  0.678263  0.389265  1
  Np  Np6  1  0.999799  0.999637  0.999876  1
  O  O7  1  0.076713  0.307350  0.954772  1
  O  O8  1  0.044436  0.922561  0.691931  1
  O  O9  1  0.411218  0.570316  0.822219  1
  O  O10  1  0.176545  0.589210  0.429329  1
  O  O11  1  0.692417  0.045188  0.923296  1
  O  O12  1  0.429775  0.177658  0.588624  1
  O  O13  1  0.571662  0.821656  0.411387  1
  O  O14  1  0.307613  0.954877  0.076750  1
  O  O15  1  0.822178  0.412446  0.569983  1
  O  O16  1  0.589667  0.430353  0.178258  1
  O  O17  1  0.954955  0.076778  0.307460  1
  O  O18  1  0.923122  0.692601  0.046079  1
