# generated using pymatgen
data_Dy7Lu3CuPPb6
_symmetry_space_group_name_H-M   'P 1'
_cell_length_a   9.13758700
_cell_length_b   9.13758684
_cell_length_c   6.67398900
_cell_angle_alpha   90.00000000
_cell_angle_beta   90.00000000
_cell_angle_gamma   120.00000419
_symmetry_Int_Tables_number   1
_chemical_formula_structural   Dy7Lu3CuPPb6
_chemical_formula_sum   'Dy7 Lu3 Cu1 P1 Pb6'
_cell_volume   482.59091545
_cell_formula_units_Z   1
loop_
 _symmetry_equiv_pos_site_id
 _symmetry_equiv_pos_as_xyz
  1  'x, y, z'
loop_
 _atom_site_type_symbol
 _atom_site_label
 _atom_site_symmetry_multiplicity
 _atom_site_fract_x
 _atom_site_fract_y
 _atom_site_fract_z
 _atom_site_occupancy
  Dy  Dy0  1  0.247052  0.000325  0.738649  1
  Dy  Dy1  1  0.753273  0.000325  0.261351  1
  Dy  Dy2  1  0.999675  0.246727  0.738649  1
  Dy  Dy3  1  0.999675  0.752948  0.261351  1
  Dy  Dy4  1  0.753273  0.752948  0.738649  1
  Dy  Dy5  1  0.247052  0.246727  0.261351  1
  Dy  Dy6  1  0.333333  0.666667  0.500000  1
  Lu  Lu7  1  0.666667  0.333333  0.500000  1
  Lu  Lu8  1  0.666667  0.333333  0.000000  1
  Lu  Lu9  1  0.333333  0.666667  0.000000  1
  Cu  Cu10  1  0.000000  0.000000  0.000000  1
  P  P11  1  0.000000  0.000000  0.500000  1
  Pb  Pb12  1  0.604733  0.000860  0.750645  1
  Pb  Pb13  1  0.396127  0.000860  0.249355  1
  Pb  Pb14  1  0.999140  0.603873  0.750645  1
  Pb  Pb15  1  0.999140  0.395267  0.249355  1
  Pb  Pb16  1  0.396127  0.395267  0.750645  1
  Pb  Pb17  1  0.604733  0.603873  0.249355  1
