# generated using pymatgen
data_Er16MgZn(CdCo2)2
_symmetry_space_group_name_H-M   'P 1'
_cell_length_a   9.41873758
_cell_length_b   9.35937129
_cell_length_c   9.37884500
_cell_angle_alpha   59.93114472
_cell_angle_beta   60.14000539
_cell_angle_gamma   60.08097305
_symmetry_Int_Tables_number   1
_chemical_formula_structural   Er16MgZn(CdCo2)2
_chemical_formula_sum   'Er16 Mg1 Zn1 Cd2 Co4'
_cell_volume   585.28786928
_cell_formula_units_Z   1
loop_
 _symmetry_equiv_pos_site_id
 _symmetry_equiv_pos_as_xyz
  1  'x, y, z'
loop_
 _atom_site_type_symbol
 _atom_site_label
 _atom_site_symmetry_multiplicity
 _atom_site_fract_x
 _atom_site_fract_y
 _atom_site_fract_z
 _atom_site_occupancy
  Er  Er0  1  0.597789  0.594982  0.595888  1
  Er  Er1  1  0.597789  0.594982  0.211341  1
  Er  Er2  1  0.596464  0.213267  0.595135  1
  Er  Er3  1  0.203131  0.598023  0.599423  1
  Er  Er4  1  0.059762  0.439156  0.439751  1
  Er  Er5  1  0.435896  0.063647  0.062992  1
  Er  Er6  1  0.435896  0.063647  0.437464  1
  Er  Er7  1  0.059762  0.439156  0.061330  1
  Er  Er8  1  0.436724  0.437550  0.062862  1
  Er  Er9  1  0.060559  0.062266  0.438587  1
  Er  Er10  1  0.187803  0.811988  0.811707  1
  Er  Er11  1  0.811944  0.191014  0.183419  1
  Er  Er12  1  0.811944  0.191014  0.813622  1
  Er  Er13  1  0.187803  0.811988  0.188502  1
  Er  Er14  1  0.811493  0.813855  0.187326  1
  Er  Er15  1  0.183039  0.191687  0.812637  1
  Mg  Mg16  1  0.530326  0.820132  0.824771  1
  Zn  Zn17  1  0.834721  0.503291  0.830994  1
  Cd  Cd18  1  0.832679  0.827992  0.831588  1
  Cd  Cd19  1  0.832679  0.827992  0.507740  1
  Co  Co20  1  0.388203  0.392937  0.392507  1
  Co  Co21  1  0.388203  0.392937  0.826354  1
  Co  Co22  1  0.388484  0.825260  0.393129  1
  Co  Co23  1  0.826902  0.391238  0.390931  1
