# generated using pymatgen
data_Cs4K9Rb3Sn2(PbSe8)2
_symmetry_space_group_name_H-M   'P 1'
_cell_length_a   8.40371792
_cell_length_b   10.65045000
_cell_length_c   15.96773600
_cell_angle_alpha   90.00000000
_cell_angle_beta   90.10794801
_cell_angle_gamma   90.00000000
_symmetry_Int_Tables_number   1
_chemical_formula_structural   Cs4K9Rb3Sn2(PbSe8)2
_chemical_formula_sum   'Cs4 K9 Rb3 Sn2 Pb2 Se16'
_cell_volume   1429.16376602
_cell_formula_units_Z   1
loop_
 _symmetry_equiv_pos_site_id
 _symmetry_equiv_pos_as_xyz
  1  'x, y, z'
loop_
 _atom_site_type_symbol
 _atom_site_label
 _atom_site_symmetry_multiplicity
 _atom_site_fract_x
 _atom_site_fract_y
 _atom_site_fract_z
 _atom_site_occupancy
  Cs  Cs0  1  0.000631  0.999205  0.999923  1
  Cs  Cs1  1  0.499851  0.000359  0.500584  1
  Cs  Cs2  1  0.000631  0.500795  0.999923  1
  Cs  Cs3  1  0.499851  0.499641  0.500584  1
  K  K4  1  0.529572  0.750000  0.929020  1
  K  K5  1  0.832104  0.049326  0.262954  1
  K  K6  1  0.331797  0.949055  0.234272  1
  K  K7  1  0.167230  0.551866  0.737306  1
  K  K8  1  0.668327  0.449927  0.765311  1
  K  K9  1  0.167230  0.948134  0.737306  1
  K  K10  1  0.668327  0.050073  0.765311  1
  K  K11  1  0.832104  0.450674  0.262954  1
  K  K12  1  0.331797  0.550945  0.234272  1
  Rb  Rb13  1  0.980810  0.750000  0.427578  1
  Rb  Rb14  1  0.483496  0.250000  0.073415  1
  Rb  Rb15  1  0.017460  0.250000  0.573342  1
  Sn  Sn16  1  0.773763  0.750000  0.673237  1
  Sn  Sn17  1  0.722602  0.750000  0.171283  1
  Pb  Pb18  1  0.224230  0.250000  0.327206  1
  Pb  Pb19  1  0.277888  0.250000  0.828425  1
  Se  Se20  1  0.960909  0.250000  0.820786  1
  Se  Se21  1  0.541091  0.250000  0.319874  1
  Se  Se22  1  0.467907  0.750000  0.678992  1
  Se  Se23  1  0.028586  0.750000  0.179328  1
  Se  Se24  1  0.619413  0.557083  0.093769  1
  Se  Se25  1  0.117948  0.450677  0.405293  1
  Se  Se26  1  0.383892  0.047981  0.906865  1
  Se  Se27  1  0.877897  0.944210  0.597831  1
  Se  Se28  1  0.383892  0.452019  0.906865  1
  Se  Se29  1  0.877897  0.555790  0.597831  1
  Se  Se30  1  0.619413  0.942917  0.093769  1
  Se  Se31  1  0.117948  0.049323  0.405293  1
  Se  Se32  1  0.609589  0.750000  0.322122  1
  Se  Se33  1  0.106650  0.250000  0.170462  1
  Se  Se34  1  0.393759  0.250000  0.671491  1
  Se  Se35  1  0.883515  0.750000  0.825224  1
