# generated using pymatgen
data_K2LiH6Ir
_symmetry_space_group_name_H-M   'P 1'
_cell_length_a   9.62973758
_cell_length_b   9.62973744
_cell_length_c   9.62973745
_cell_angle_alpha   34.24505344
_cell_angle_beta   34.24505399
_cell_angle_gamma   34.24505452
_symmetry_Int_Tables_number   1
_chemical_formula_structural   K2LiH6Ir
_chemical_formula_sum   'K4 Li2 H12 Ir2'
_cell_volume   252.16667708
_cell_formula_units_Z   2
loop_
 _symmetry_equiv_pos_site_id
 _symmetry_equiv_pos_as_xyz
  1  'x, y, z'
loop_
 _atom_site_type_symbol
 _atom_site_label
 _atom_site_symmetry_multiplicity
 _atom_site_fract_x
 _atom_site_fract_y
 _atom_site_fract_z
 _atom_site_occupancy
  K  K0  1  0.127616  0.127616  0.127616  1
  K  K1  1  0.872384  0.872384  0.872384  1
  K  K2  1  0.284916  0.284916  0.284916  1
  K  K3  1  0.715084  0.715084  0.715084  1
  Li  Li4  1  0.406499  0.406499  0.406499  1
  Li  Li5  1  0.593501  0.593501  0.593501  1
  H  H6  1  0.178735  0.178735  0.748471  1
  H  H7  1  0.748471  0.178735  0.178735  1
  H  H8  1  0.178735  0.748471  0.178735  1
  H  H9  1  0.821265  0.251529  0.821265  1
  H  H10  1  0.821265  0.821265  0.251529  1
  H  H11  1  0.251529  0.821265  0.821265  1
  H  H12  1  0.397869  0.397869  0.814576  1
  H  H13  1  0.814576  0.397869  0.397869  1
  H  H14  1  0.185424  0.602131  0.602131  1
  H  H15  1  0.602131  0.602131  0.185424  1
  H  H16  1  0.602131  0.185424  0.602131  1
  H  H17  1  0.397869  0.814576  0.397869  1
  Ir  Ir18  1  0.000000  0.000000  0.000000  1
  Ir  Ir19  1  0.500000  0.500000  0.500000  1
