# generated using pymatgen
data_La2Dy3HoTa2O14
_symmetry_space_group_name_H-M   'P 1'
_cell_length_a   6.53283019
_cell_length_b   6.53207793
_cell_length_c   7.63030800
_cell_angle_alpha   89.99682024
_cell_angle_beta   89.99965231
_cell_angle_gamma   108.92098273
_symmetry_Int_Tables_number   1
_chemical_formula_structural   La2Dy3HoTa2O14
_chemical_formula_sum   'La2 Dy3 Ho1 Ta2 O14'
_cell_volume   308.01412355
_cell_formula_units_Z   1
loop_
 _symmetry_equiv_pos_site_id
 _symmetry_equiv_pos_as_xyz
  1  'x, y, z'
loop_
 _atom_site_type_symbol
 _atom_site_label
 _atom_site_symmetry_multiplicity
 _atom_site_fract_x
 _atom_site_fract_y
 _atom_site_fract_z
 _atom_site_occupancy
  La  La0  1  0.506201  0.506121  0.499846  1
  La  La1  1  0.493660  0.493545  0.000150  1
  Dy  Dy2  1  0.000995  0.533462  0.246876  1
  Dy  Dy3  1  0.999043  0.466608  0.746854  1
  Dy  Dy4  1  0.533288  0.000994  0.753123  1
  Ho  Ho5  1  0.467260  0.998710  0.253042  1
  Ta  Ta6  1  0.000178  0.000150  0.499821  1
  Ta  Ta7  1  0.999888  0.999878  0.000186  1
  O  O8  1  0.935917  0.063903  0.750001  1
  O  O9  1  0.064324  0.936023  0.250003  1
  O  O10  1  0.355812  0.645658  0.250008  1
  O  O11  1  0.644314  0.355690  0.750020  1
  O  O12  1  0.362309  0.637662  0.750006  1
  O  O13  1  0.637063  0.360932  0.250039  1
  O  O14  1  0.321145  0.068952  0.971069  1
  O  O15  1  0.678757  0.931264  0.469915  1
  O  O16  1  0.315242  0.062140  0.536633  1
  O  O17  1  0.684699  0.938075  0.037745  1
  O  O18  1  0.062330  0.315239  0.462913  1
  O  O19  1  0.937625  0.684889  0.962936  1
  O  O20  1  0.930759  0.678954  0.529396  1
  O  O21  1  0.069188  0.321150  0.029416  1
