# generated using pymatgen
data_Dy4Tm3Sn23Ir6
_symmetry_space_group_name_H-M   'P 1'
_cell_length_a   9.85177646
_cell_length_b   9.85640294
_cell_length_c   10.11128302
_cell_angle_alpha   90.00673079
_cell_angle_beta   89.99312883
_cell_angle_gamma   120.04638549
_symmetry_Int_Tables_number   1
_chemical_formula_structural   Dy4Tm3Sn23Ir6
_chemical_formula_sum   'Dy4 Tm3 Sn23 Ir6'
_cell_volume   849.89780773
_cell_formula_units_Z   1
loop_
 _symmetry_equiv_pos_site_id
 _symmetry_equiv_pos_as_xyz
  1  'x, y, z'
loop_
 _atom_site_type_symbol
 _atom_site_label
 _atom_site_symmetry_multiplicity
 _atom_site_fract_x
 _atom_site_fract_y
 _atom_site_fract_z
 _atom_site_occupancy
  Dy  Dy0  1  0.999842  0.999690  0.000060  1
  Dy  Dy1  1  0.520286  0.040102  0.692655  1
  Dy  Dy2  1  0.039959  0.520002  0.307041  1
  Dy  Dy3  1  0.960038  0.479818  0.692861  1
  Tm  Tm4  1  0.480832  0.518733  0.306523  1
  Tm  Tm5  1  0.519004  0.481069  0.693401  1
  Tm  Tm6  1  0.480883  0.962258  0.306264  1
  Sn  Sn7  1  0.352522  0.000332  0.000134  1
  Sn  Sn8  1  0.647205  0.999208  0.999619  1
  Sn  Sn9  1  0.000122  0.352113  0.000086  1
  Sn  Sn10  1  0.999548  0.647468  0.000334  1
  Sn  Sn11  1  0.647276  0.647437  0.000057  1
  Sn  Sn12  1  0.352719  0.352225  0.000343  1
  Sn  Sn13  1  0.333219  0.666687  0.826475  1
  Sn  Sn14  1  0.666792  0.333396  0.173710  1
  Sn  Sn15  1  0.999979  0.999903  0.499948  1
  Sn  Sn16  1  0.776642  0.222192  0.455673  1
  Sn  Sn17  1  0.223271  0.777703  0.543614  1
  Sn  Sn18  1  0.776095  0.554283  0.456221  1
  Sn  Sn19  1  0.223788  0.445455  0.543697  1
  Sn  Sn20  1  0.445736  0.223343  0.456162  1
  Sn  Sn21  1  0.554225  0.776540  0.543170  1
  Sn  Sn22  1  0.335459  0.667656  0.124896  1
  Sn  Sn23  1  0.665532  0.334398  0.876119  1
  Sn  Sn24  1  0.119585  0.880796  0.284184  1
  Sn  Sn25  1  0.880991  0.118978  0.716011  1
  Sn  Sn26  1  0.119637  0.238849  0.284093  1
  Sn  Sn27  1  0.880244  0.760921  0.715739  1
  Sn  Sn28  1  0.760109  0.880043  0.284406  1
  Sn  Sn29  1  0.239148  0.119760  0.715817  1
  Ir  Ir30  1  0.830176  0.167911  0.198304  1
  Ir  Ir31  1  0.168616  0.831286  0.801878  1
  Ir  Ir32  1  0.830195  0.662233  0.198690  1
  Ir  Ir33  1  0.169948  0.338021  0.801634  1
  Ir  Ir34  1  0.338430  0.169177  0.198928  1
  Ir  Ir35  1  0.661949  0.830016  0.801251  1
