# generated using pymatgen
data_Y15PaCd4Ir3Pt
_symmetry_space_group_name_H-M   'P 1'
_cell_length_a   9.68032202
_cell_length_b   9.66819650
_cell_length_c   9.67479032
_cell_angle_alpha   59.94066279
_cell_angle_beta   60.06152910
_cell_angle_gamma   59.99718208
_symmetry_Int_Tables_number   1
_chemical_formula_structural   Y15PaCd4Ir3Pt
_chemical_formula_sum   'Y15 Pa1 Cd4 Ir3 Pt1'
_cell_volume   640.26360261
_cell_formula_units_Z   1
loop_
 _symmetry_equiv_pos_site_id
 _symmetry_equiv_pos_as_xyz
  1  'x, y, z'
loop_
 _atom_site_type_symbol
 _atom_site_label
 _atom_site_symmetry_multiplicity
 _atom_site_fract_x
 _atom_site_fract_y
 _atom_site_fract_z
 _atom_site_occupancy
  Y  Y0  1  0.355286  0.354545  0.939870  1
  Y  Y1  1  0.354671  0.940804  0.354298  1
  Y  Y2  1  0.939041  0.355136  0.355513  1
  Y  Y3  1  0.807100  0.191288  0.192366  1
  Y  Y4  1  0.191954  0.811414  0.811415  1
  Y  Y5  1  0.191740  0.807308  0.190870  1
  Y  Y6  1  0.812141  0.190184  0.812109  1
  Y  Y7  1  0.192549  0.190600  0.807186  1
  Y  Y8  1  0.811762  0.811742  0.191140  1
  Y  Y9  1  0.941336  0.563560  0.563607  1
  Y  Y10  1  0.564023  0.938844  0.938979  1
  Y  Y11  1  0.563367  0.940482  0.563308  1
  Y  Y12  1  0.939364  0.564301  0.939253  1
  Y  Y13  1  0.563520  0.563411  0.940948  1
  Y  Y14  1  0.939244  0.938989  0.564131  1
  Pa  Pa15  1  0.339937  0.341316  0.340538  1
  Cd  Cd16  1  0.580530  0.580091  0.580346  1
  Cd  Cd17  1  0.578218  0.578350  0.254994  1
  Cd  Cd18  1  0.578209  0.255153  0.578286  1
  Cd  Cd19  1  0.254845  0.578347  0.578297  1
  Ir  Ir20  1  0.144962  0.145758  0.568254  1
  Ir  Ir21  1  0.144635  0.568146  0.144994  1
  Ir  Ir22  1  0.568374  0.146056  0.145607  1
  Pt  Pt23  1  0.143193  0.144177  0.143691  1
