# generated using pymatgen
data_TbHo3(ZnPb)4
_symmetry_space_group_name_H-M   'P 1'
_cell_length_a   4.61641000
_cell_length_b   4.61640971
_cell_length_c   15.87068200
_cell_angle_alpha   90.00000000
_cell_angle_beta   90.00000000
_cell_angle_gamma   120.00000207
_symmetry_Int_Tables_number   1
_chemical_formula_structural   TbHo3(ZnPb)4
_chemical_formula_sum   'Tb1 Ho3 Zn4 Pb4'
_cell_volume   292.91049409
_cell_formula_units_Z   1
loop_
 _symmetry_equiv_pos_site_id
 _symmetry_equiv_pos_as_xyz
  1  'x, y, z'
loop_
 _atom_site_type_symbol
 _atom_site_label
 _atom_site_symmetry_multiplicity
 _atom_site_fract_x
 _atom_site_fract_y
 _atom_site_fract_z
 _atom_site_occupancy
  Tb  Tb0  1  0.000000  0.000000  0.000000  1
  Ho  Ho1  1  0.000000  0.000000  0.250203  1
  Ho  Ho2  1  0.000000  0.000000  0.500000  1
  Ho  Ho3  1  0.000000  0.000000  0.749797  1
  Zn  Zn4  1  0.333334  0.666667  0.165279  1
  Zn  Zn5  1  0.333334  0.666667  0.334662  1
  Zn  Zn6  1  0.666666  0.333334  0.665338  1
  Zn  Zn7  1  0.666666  0.333334  0.834721  1
  Pb  Pb8  1  0.666666  0.333334  0.110681  1
  Pb  Pb9  1  0.666666  0.333334  0.390191  1
  Pb  Pb10  1  0.333334  0.666667  0.609809  1
  Pb  Pb11  1  0.333334  0.666667  0.889319  1
