# generated using pymatgen
data_Lu4NiRu7
_symmetry_space_group_name_H-M   'P 1'
_cell_length_a   5.18783700
_cell_length_b   5.20740590
_cell_length_c   8.74956900
_cell_angle_alpha   90.00000000
_cell_angle_beta   90.00000000
_cell_angle_gamma   119.87576108
_symmetry_Int_Tables_number   1
_chemical_formula_structural   Lu4NiRu7
_chemical_formula_sum   'Lu4 Ni1 Ru7'
_cell_volume   204.95918423
_cell_formula_units_Z   1
loop_
 _symmetry_equiv_pos_site_id
 _symmetry_equiv_pos_as_xyz
  1  'x, y, z'
loop_
 _atom_site_type_symbol
 _atom_site_label
 _atom_site_symmetry_multiplicity
 _atom_site_fract_x
 _atom_site_fract_y
 _atom_site_fract_z
 _atom_site_occupancy
  Lu  Lu0  1  0.333130  0.666261  0.434838  1
  Lu  Lu1  1  0.666247  0.332493  0.567839  1
  Lu  Lu2  1  0.666247  0.332493  0.932161  1
  Lu  Lu3  1  0.333130  0.666261  0.065162  1
  Ni  Ni4  1  0.169547  0.339095  0.750000  1
  Ru  Ru5  1  0.175146  0.832147  0.750000  1
  Ru  Ru6  1  0.342760  0.171811  0.250000  1
  Ru  Ru7  1  0.829589  0.659177  0.250000  1
  Ru  Ru8  1  0.657000  0.832147  0.750000  1
  Ru  Ru9  1  0.999076  0.998152  0.997933  1
  Ru  Ru10  1  0.829052  0.171811  0.250000  1
  Ru  Ru11  1  0.999076  0.998152  0.502067  1
