# generated using pymatgen
data_Y3In3SnPtRh
_symmetry_space_group_name_H-M   'P 1'
_cell_length_a   7.62482200
_cell_length_b   7.62482289
_cell_length_c   4.14745100
_cell_angle_alpha   90.00000000
_cell_angle_beta   90.00000000
_cell_angle_gamma   120.00000482
_symmetry_Int_Tables_number   1
_chemical_formula_structural   Y3In3SnPtRh
_chemical_formula_sum   'Y3 In3 Sn1 Pt1 Rh1'
_cell_volume   208.81964071
_cell_formula_units_Z   1
loop_
 _symmetry_equiv_pos_site_id
 _symmetry_equiv_pos_as_xyz
  1  'x, y, z'
loop_
 _atom_site_type_symbol
 _atom_site_label
 _atom_site_symmetry_multiplicity
 _atom_site_fract_x
 _atom_site_fract_y
 _atom_site_fract_z
 _atom_site_occupancy
  Y  Y0  1  0.394307  0.981431  0.500000  1
  Y  Y1  1  0.018569  0.412876  0.500000  1
  Y  Y2  1  0.587124  0.605693  0.500000  1
  In  In3  1  0.746729  0.988092  0.000000  1
  In  In4  1  0.241363  0.253271  0.000000  1
  In  In5  1  0.011908  0.758637  0.000000  1
  Sn  Sn6  1  0.666667  0.333333  0.000000  1
  Pt  Pt7  1  0.333333  0.666667  0.000000  1
  Rh  Rh8  1  0.000000  0.000000  0.500000  1
