# generated using pymatgen
data_Pr2Nd2Al18(IrPt)3
_symmetry_space_group_name_H-M   'P 1'
_cell_length_a   7.65925809
_cell_length_b   7.66070621
_cell_length_c   9.58959500
_cell_angle_alpha   89.99922874
_cell_angle_beta   89.99325186
_cell_angle_gamma   119.65902892
_symmetry_Int_Tables_number   1
_chemical_formula_structural   Pr2Nd2Al18(IrPt)3
_chemical_formula_sum   'Pr2 Nd2 Al18 Ir3 Pt3'
_cell_volume   488.95438488
_cell_formula_units_Z   1
loop_
 _symmetry_equiv_pos_site_id
 _symmetry_equiv_pos_as_xyz
  1  'x, y, z'
loop_
 _atom_site_type_symbol
 _atom_site_label
 _atom_site_symmetry_multiplicity
 _atom_site_fract_x
 _atom_site_fract_y
 _atom_site_fract_z
 _atom_site_occupancy
  Pr  Pr0  1  0.995305  0.669338  0.250241  1
  Pr  Pr1  1  0.005060  0.331484  0.749864  1
  Nd  Nd2  1  0.668501  0.994869  0.250169  1
  Nd  Nd3  1  0.330505  0.004566  0.749730  1
  Al  Al4  1  0.128261  0.129092  0.250484  1
  Al  Al5  1  0.871142  0.871585  0.749513  1
  Al  Al6  1  0.001588  0.330812  0.074099  1
  Al  Al7  1  0.998060  0.669558  0.925231  1
  Al  Al8  1  0.995368  0.665716  0.572797  1
  Al  Al9  1  0.334817  0.004876  0.427453  1
  Al  Al10  1  0.997729  0.330500  0.427516  1
  Al  Al11  1  0.668941  0.001996  0.572228  1
  Al  Al12  1  0.668661  0.998172  0.926139  1
  Al  Al13  1  0.330990  0.002206  0.074525  1
  Al  Al14  1  0.334048  0.330576  0.549305  1
  Al  Al15  1  0.669177  0.666160  0.450702  1
  Al  Al16  1  0.668301  0.668519  0.052198  1
  Al  Al17  1  0.331702  0.331471  0.947808  1
  Al  Al18  1  0.340627  0.543456  0.250431  1
  Al  Al19  1  0.659181  0.454179  0.746936  1
  Al  Al20  1  0.545512  0.340281  0.253060  1
  Al  Al21  1  0.456876  0.659893  0.749573  1
  Ir  Ir22  1  0.670765  0.328964  0.500007  1
  Ir  Ir23  1  0.999898  0.000174  0.000003  1
  Ir  Ir24  1  0.000221  0.999854  0.499995  1
  Pt  Pt25  1  0.670991  0.328766  0.999984  1
  Pt  Pt26  1  0.328833  0.671525  0.999991  1
  Pt  Pt27  1  0.328938  0.671414  0.500017  1
