# generated using pymatgen
data_Hf8Ti11Nb(Ge5As3)2
_symmetry_space_group_name_H-M   'P 1'
_cell_length_a   6.83610812
_cell_length_b   6.85331308
_cell_length_c   13.07752929
_cell_angle_alpha   90.04712559
_cell_angle_beta   89.98191128
_cell_angle_gamma   90.12906399
_symmetry_Int_Tables_number   1
_chemical_formula_structural   Hf8Ti11Nb(Ge5As3)2
_chemical_formula_sum   'Hf8 Ti11 Nb1 Ge10 As6'
_cell_volume   612.68031440
_cell_formula_units_Z   1
loop_
 _symmetry_equiv_pos_site_id
 _symmetry_equiv_pos_as_xyz
  1  'x, y, z'
loop_
 _atom_site_type_symbol
 _atom_site_label
 _atom_site_symmetry_multiplicity
 _atom_site_fract_x
 _atom_site_fract_y
 _atom_site_fract_z
 _atom_site_occupancy
  Hf  Hf0  1  0.483962  0.678244  0.592188  1
  Hf  Hf1  1  0.983880  0.821521  0.907497  1
  Hf  Hf2  1  0.516745  0.321843  0.092885  1
  Hf  Hf3  1  0.015938  0.176661  0.406774  1
  Hf  Hf4  1  0.515652  0.321015  0.408518  1
  Hf  Hf5  1  0.015003  0.177522  0.091878  1
  Hf  Hf6  1  0.484108  0.678335  0.906716  1
  Hf  Hf7  1  0.984529  0.821039  0.593606  1
  Ti  Ti8  1  0.654526  0.163545  0.623079  1
  Ti  Ti9  1  0.154890  0.336333  0.877511  1
  Ti  Ti10  1  0.345758  0.838589  0.124097  1
  Ti  Ti11  1  0.845351  0.662243  0.376236  1
  Ti  Ti12  1  0.346328  0.839691  0.377317  1
  Ti  Ti13  1  0.845996  0.661578  0.122490  1
  Ti  Ti14  1  0.653324  0.164431  0.875190  1
  Ti  Ti15  1  0.154078  0.335975  0.624172  1
  Ti  Ti16  1  0.826211  0.493937  0.749889  1
  Ti  Ti17  1  0.326462  0.006206  0.750148  1
  Ti  Ti18  1  0.172703  0.507716  0.249743  1
  Nb  Nb19  1  0.672733  0.994100  0.249850  1
  Ge  Ge20  1  0.691848  0.957958  0.039529  1
  Ge  Ge21  1  0.191467  0.540761  0.458249  1
  Ge  Ge22  1  0.455640  0.379359  0.749614  1
  Ge  Ge23  1  0.955999  0.120716  0.750376  1
  Ge  Ge24  1  0.541446  0.617788  0.250331  1
  Ge  Ge25  1  0.046255  0.877027  0.249715  1
  Ge  Ge26  1  0.686660  0.854269  0.749784  1
  Ge  Ge27  1  0.186975  0.645528  0.750300  1
  Ge  Ge28  1  0.307754  0.149335  0.249988  1
  Ge  Ge29  1  0.814950  0.358113  0.250024  1
  As  As30  1  0.695661  0.957019  0.460587  1
  As  As31  1  0.195381  0.541271  0.041599  1
  As  As32  1  0.311262  0.040599  0.958945  1
  As  As33  1  0.811392  0.459390  0.541327  1
  As  As34  1  0.304412  0.041555  0.541867  1
  As  As35  1  0.804718  0.458790  0.957982  1
