# generated using pymatgen
data_TbCe(PuB8)2
_symmetry_space_group_name_H-M   'P 1'
_cell_length_a   7.12837190
_cell_length_b   7.13139482
_cell_length_c   4.03508700
_cell_angle_alpha   90.00000000
_cell_angle_beta   90.00000000
_cell_angle_gamma   90.20000831
_symmetry_Int_Tables_number   1
_chemical_formula_structural   TbCe(PuB8)2
_chemical_formula_sum   'Tb1 Ce1 Pu2 B16'
_cell_volume   205.12334387
_cell_formula_units_Z   1
loop_
 _symmetry_equiv_pos_site_id
 _symmetry_equiv_pos_as_xyz
  1  'x, y, z'
loop_
 _atom_site_type_symbol
 _atom_site_label
 _atom_site_symmetry_multiplicity
 _atom_site_fract_x
 _atom_site_fract_y
 _atom_site_fract_z
 _atom_site_occupancy
  Tb  Tb0  1  0.315048  0.184532  0.000000  1
  Ce  Ce1  1  0.813558  0.314020  0.000000  1
  Pu  Pu2  1  0.187203  0.687331  0.000000  1
  Pu  Pu3  1  0.686564  0.813330  0.000000  1
  B  B4  1  0.321736  0.463331  0.500000  1
  B  B5  1  0.675546  0.539807  0.500000  1
  B  B6  1  0.537764  0.325021  0.500000  1
  B  B7  1  0.460132  0.677993  0.500000  1
  B  B8  1  0.001414  0.998602  0.201531  1
  B  B9  1  0.498218  0.501128  0.798457  1
  B  B10  1  0.001414  0.998602  0.798469  1
  B  B11  1  0.498218  0.501128  0.201543  1
  B  B12  1  0.588224  0.088131  0.500000  1
  B  B13  1  0.086651  0.413119  0.500000  1
  B  B14  1  0.912644  0.587138  0.500000  1
  B  B15  1  0.413046  0.912892  0.500000  1
  B  B16  1  0.038909  0.175384  0.500000  1
  B  B17  1  0.177462  0.959561  0.500000  1
  B  B18  1  0.824123  0.036981  0.500000  1
  B  B19  1  0.962125  0.821967  0.500000  1
