# generated using pymatgen
data_Tb5Tm3Sc12Si15Au
_symmetry_space_group_name_H-M   'P 1'
_cell_length_a   7.11390533
_cell_length_b   7.37191092
_cell_length_c   14.05063199
_cell_angle_alpha   89.89085247
_cell_angle_beta   89.73531974
_cell_angle_gamma   90.23319518
_symmetry_Int_Tables_number   1
_chemical_formula_structural   Tb5Tm3Sc12Si15Au
_chemical_formula_sum   'Tb5 Tm3 Sc12 Si15 Au1'
_cell_volume   736.84303686
_cell_formula_units_Z   1
loop_
 _symmetry_equiv_pos_site_id
 _symmetry_equiv_pos_as_xyz
  1  'x, y, z'
loop_
 _atom_site_type_symbol
 _atom_site_label
 _atom_site_symmetry_multiplicity
 _atom_site_fract_x
 _atom_site_fract_y
 _atom_site_fract_z
 _atom_site_occupancy
  Tb  Tb0  1  0.011963  0.175140  0.097491  1
  Tb  Tb1  1  0.988098  0.825693  0.903323  1
  Tb  Tb2  1  0.487626  0.676288  0.903837  1
  Tb  Tb3  1  0.988481  0.827941  0.596937  1
  Tb  Tb4  1  0.511717  0.324311  0.096455  1
  Tm  Tm5  1  0.010581  0.175646  0.399633  1
  Tm  Tm6  1  0.509080  0.323788  0.401008  1
  Tm  Tm7  1  0.490954  0.676449  0.598792  1
  Sc  Sc8  1  0.163316  0.501460  0.750743  1
  Sc  Sc9  1  0.836808  0.497958  0.251585  1
  Sc  Sc10  1  0.337639  0.000750  0.250118  1
  Sc  Sc11  1  0.664202  0.996623  0.750532  1
  Sc  Sc12  1  0.339215  0.176758  0.625443  1
  Sc  Sc13  1  0.666035  0.823343  0.373964  1
  Sc  Sc14  1  0.169082  0.672652  0.373507  1
  Sc  Sc15  1  0.670095  0.824414  0.125943  1
  Sc  Sc16  1  0.828298  0.325873  0.624854  1
  Sc  Sc17  1  0.329093  0.175001  0.875546  1
  Sc  Sc18  1  0.830316  0.322963  0.875452  1
  Sc  Sc19  1  0.169222  0.676147  0.125729  1
  Si  Si20  1  0.035633  0.120085  0.750058  1
  Si  Si21  1  0.966215  0.884331  0.250307  1
  Si  Si22  1  0.466372  0.614561  0.249101  1
  Si  Si23  1  0.535188  0.385529  0.751818  1
  Si  Si24  1  0.286599  0.873971  0.749841  1
  Si  Si25  1  0.712809  0.128333  0.250543  1
  Si  Si26  1  0.214183  0.370324  0.249311  1
  Si  Si27  1  0.786526  0.627304  0.751580  1
  Si  Si28  1  0.833608  0.534654  0.459002  1
  Si  Si29  1  0.340128  0.964157  0.459921  1
  Si  Si30  1  0.844054  0.536000  0.038923  1
  Si  Si31  1  0.657073  0.036330  0.537284  1
  Si  Si32  1  0.155105  0.464015  0.961669  1
  Si  Si33  1  0.656732  0.035251  0.961240  1
  Si  Si34  1  0.343367  0.963881  0.039305  1
  Au  Au35  1  0.164589  0.462077  0.539205  1
