# generated using pymatgen
data_TeBr35
_symmetry_space_group_name_H-M   'P 1'
_cell_length_a   15.98197694
_cell_length_b   11.40028128
_cell_length_c   10.79188300
_cell_angle_alpha   88.81408278
_cell_angle_beta   66.02770512
_cell_angle_gamma   92.31545406
_symmetry_Int_Tables_number   1
_chemical_formula_structural   TeBr35
_chemical_formula_sum   'Te1 Br35'
_cell_volume   1793.71352310
_cell_formula_units_Z   1
loop_
 _symmetry_equiv_pos_site_id
 _symmetry_equiv_pos_as_xyz
  1  'x, y, z'
loop_
 _atom_site_type_symbol
 _atom_site_label
 _atom_site_symmetry_multiplicity
 _atom_site_fract_x
 _atom_site_fract_y
 _atom_site_fract_z
 _atom_site_occupancy
  Te  Te0  1  0.229787  0.433173  0.431667  1
  Br  Br1  1  0.526000  0.271817  0.532889  1
  Br  Br2  1  0.740053  0.586636  0.597703  1
  Br  Br3  1  0.461580  0.690618  0.754484  1
  Br  Br4  1  0.060789  0.913961  0.825955  1
  Br  Br5  1  0.893795  0.170496  0.057817  1
  Br  Br6  1  0.652711  0.323093  0.293555  1
  Br  Br7  1  0.608267  0.319662  0.857752  1
  Br  Br8  1  0.329798  0.784166  0.721186  1
  Br  Br9  1  0.316223  0.557301  0.168649  1
  Br  Br10  1  0.655164  0.124476  0.800295  1
  Br  Br11  1  0.894817  0.565622  0.403166  1
  Br  Br12  1  0.063602  0.969870  0.596486  1
  Br  Br13  1  0.907046  0.134604  0.283900  1
  Br  Br14  1  0.874337  0.213630  0.838986  1
  Br  Br15  1  0.650545  0.051033  0.207008  1
  Br  Br16  1  0.037494  0.847554  0.070410  1
  Br  Br17  1  0.365196  0.000254  0.743798  1
  Br  Br18  1  0.894769  0.349133  0.349017  1
  Br  Br19  1  0.882623  0.933587  0.678194  1
  Br  Br20  1  0.952306  0.650778  0.751587  1
  Br  Br21  1  0.308998  0.976904  0.319796  1
  Br  Br22  1  0.337201  0.276595  0.301441  1
  Br  Br23  1  0.588835  0.601361  0.807511  1
  Br  Br24  1  0.105589  0.358623  0.346482  1
  Br  Br25  1  0.714351  0.896712  0.770522  1
  Br  Br26  1  0.905389  0.432293  0.806011  1
  Br  Br27  1  0.486633  0.016068  0.259992  1
  Br  Br28  1  0.158807  0.300831  0.646785  1
  Br  Br29  1  0.688892  0.773667  0.259680  1
  Br  Br30  1  0.863499  0.808925  0.165142  1
  Br  Br31  1  0.401937  0.218112  0.764271  1
  Br  Br32  1  0.356620  0.525370  0.504138  1
  Br  Br33  1  0.665620  0.546508  0.270371  1
  Br  Br34  1  0.109923  0.610654  0.565552  1
  Br  Br35  1  0.310804  0.765913  0.247807  1
