# generated using pymatgen
data_Nd5Th5(Bi3C)2
_symmetry_space_group_name_H-M   'P 1'
_cell_length_a   9.46305025
_cell_length_b   9.51424933
_cell_length_c   6.53333900
_cell_angle_alpha   90.00000000
_cell_angle_beta   90.00000000
_cell_angle_gamma   120.17912956
_symmetry_Int_Tables_number   1
_chemical_formula_structural   Nd5Th5(Bi3C)2
_chemical_formula_sum   'Nd5 Th5 Bi6 C2'
_cell_volume   508.49273498
_cell_formula_units_Z   1
loop_
 _symmetry_equiv_pos_site_id
 _symmetry_equiv_pos_as_xyz
  1  'x, y, z'
loop_
 _atom_site_type_symbol
 _atom_site_label
 _atom_site_symmetry_multiplicity
 _atom_site_fract_x
 _atom_site_fract_y
 _atom_site_fract_z
 _atom_site_occupancy
  Nd  Nd0  1  0.665051  0.330774  0.000106  1
  Nd  Nd1  1  0.334949  0.665724  0.000106  1
  Nd  Nd2  1  0.334949  0.665724  0.499894  1
  Nd  Nd3  1  0.665051  0.330774  0.499894  1
  Nd  Nd4  1  0.000000  0.773663  0.250000  1
  Th  Th5  1  0.783098  0.784702  0.750000  1
  Th  Th6  1  0.216902  0.001604  0.750000  1
  Th  Th7  1  0.000000  0.220684  0.750000  1
  Th  Th8  1  0.217205  0.215570  0.250000  1
  Th  Th9  1  0.782795  0.998366  0.250000  1
  Bi  Bi10  1  0.402083  0.401416  0.750000  1
  Bi  Bi11  1  0.597917  0.999333  0.750000  1
  Bi  Bi12  1  0.000000  0.600694  0.750000  1
  Bi  Bi13  1  0.601191  0.598309  0.250000  1
  Bi  Bi14  1  0.398809  0.997118  0.250000  1
  Bi  Bi15  1  0.000000  0.400338  0.250000  1
  C  C16  1  0.000000  0.007604  0.995917  1
  C  C17  1  0.000000  0.007604  0.504083  1
