# generated using pymatgen
data_Ba4MnCr3N8
_symmetry_space_group_name_H-M   'P 1'
_cell_length_a   6.45699999
_cell_length_b   6.45700044
_cell_length_c   7.83927655
_cell_angle_alpha   89.68274173
_cell_angle_beta   90.31726213
_cell_angle_gamma   125.83001267
_symmetry_Int_Tables_number   1
_chemical_formula_structural   Ba4MnCr3N8
_chemical_formula_sum   'Ba4 Mn1 Cr3 N8'
_cell_volume   264.98424512
_cell_formula_units_Z   1
loop_
 _symmetry_equiv_pos_site_id
 _symmetry_equiv_pos_as_xyz
  1  'x, y, z'
loop_
 _atom_site_type_symbol
 _atom_site_label
 _atom_site_symmetry_multiplicity
 _atom_site_fract_x
 _atom_site_fract_y
 _atom_site_fract_z
 _atom_site_occupancy
  Ba  Ba0  1  0.844060  0.155940  0.559662  1
  Ba  Ba1  1  0.158243  0.841757  0.444358  1
  Ba  Ba2  1  0.656766  0.343234  0.059328  1
  Ba  Ba3  1  0.342052  0.657948  0.939126  1
  Mn  Mn4  1  0.051901  0.948099  0.865859  1
  Cr  Cr5  1  0.550740  0.449260  0.635971  1
  Cr  Cr6  1  0.450402  0.549598  0.364493  1
  Cr  Cr7  1  0.950843  0.049157  0.130826  1
  N  N8  1  0.891749  0.108251  0.915293  1
  N  N9  1  0.107722  0.892278  0.088908  1
  N  N10  1  0.607886  0.392114  0.412061  1
  N  N11  1  0.391222  0.608778  0.585528  1
  N  N12  1  0.337266  0.162025  0.751135  1
  N  N13  1  0.161113  0.339939  0.248159  1
  N  N14  1  0.660061  0.838887  0.248159  1
  N  N15  1  0.837975  0.662734  0.751135  1
