# generated using pymatgen
data_DyHo3(Si4Tc3)2
_symmetry_space_group_name_H-M   'P 1'
_cell_length_a   6.79234417
_cell_length_b   6.77783886
_cell_length_c   6.78160603
_cell_angle_alpha   69.77904713
_cell_angle_beta   90.00982595
_cell_angle_gamma   89.98096674
_symmetry_Int_Tables_number   1
_chemical_formula_structural   DyHo3(Si4Tc3)2
_chemical_formula_sum   'Dy1 Ho3 Si8 Tc6'
_cell_volume   292.96518695
_cell_formula_units_Z   1
loop_
 _symmetry_equiv_pos_site_id
 _symmetry_equiv_pos_as_xyz
  1  'x, y, z'
loop_
 _atom_site_type_symbol
 _atom_site_label
 _atom_site_symmetry_multiplicity
 _atom_site_fract_x
 _atom_site_fract_y
 _atom_site_fract_z
 _atom_site_occupancy
  Dy  Dy0  1  0.667432  0.442088  0.191157  1
  Ho  Ho1  1  0.167764  0.057888  0.808548  1
  Ho  Ho2  1  0.332221  0.557914  0.808475  1
  Ho  Ho3  1  0.832293  0.942050  0.191489  1
  Si  Si4  1  0.448729  0.122118  0.102391  1
  Si  Si5  1  0.949058  0.377516  0.897255  1
  Si  Si6  1  0.551072  0.877856  0.897252  1
  Si  Si7  1  0.051533  0.622605  0.102393  1
  Si  Si8  1  0.858762  0.131154  0.512938  1
  Si  Si9  1  0.358254  0.368539  0.487551  1
  Si  Si10  1  0.141444  0.868516  0.487429  1
  Si  Si11  1  0.641417  0.631634  0.513067  1
  Tc  Tc12  1  0.499849  0.999633  0.500216  1
  Tc  Tc13  1  0.000207  0.500030  0.500144  1
  Tc  Tc14  1  0.150260  0.242553  0.239471  1
  Tc  Tc15  1  0.650218  0.257244  0.760294  1
  Tc  Tc16  1  0.850014  0.757542  0.760392  1
  Tc  Tc17  1  0.349474  0.743121  0.239539  1
