# generated using pymatgen
data_Sr12V8O27
_symmetry_space_group_name_H-M   'P 1'
_cell_length_a   7.83485755
_cell_length_b   8.76019044
_cell_length_c   10.56314300
_cell_angle_alpha   94.75657179
_cell_angle_beta   100.68866194
_cell_angle_gamma   116.55092462
_symmetry_Int_Tables_number   1
_chemical_formula_structural   Sr12V8O27
_chemical_formula_sum   'Sr12 V8 O27'
_cell_volume   625.84388957
_cell_formula_units_Z   1
loop_
 _symmetry_equiv_pos_site_id
 _symmetry_equiv_pos_as_xyz
  1  'x, y, z'
loop_
 _atom_site_type_symbol
 _atom_site_label
 _atom_site_symmetry_multiplicity
 _atom_site_fract_x
 _atom_site_fract_y
 _atom_site_fract_z
 _atom_site_occupancy
  Sr  Sr0  1  0.251968  0.168412  0.640009  1
  Sr  Sr1  1  0.729020  0.163883  0.630140  1
  Sr  Sr2  1  0.385210  0.255425  0.000048  1
  Sr  Sr3  1  0.524924  0.352207  0.369448  1
  Sr  Sr4  1  0.867146  0.254210  0.999159  1
  Sr  Sr5  1  0.007924  0.348497  0.368129  1
  Sr  Sr6  1  0.992076  0.651503  0.631871  1
  Sr  Sr7  1  0.475076  0.647793  0.630552  1
  Sr  Sr8  1  0.132854  0.745790  0.000841  1
  Sr  Sr9  1  0.270980  0.836117  0.369860  1
  Sr  Sr10  1  0.748032  0.831588  0.359991  1
  Sr  Sr11  1  0.614790  0.744575  0.999952  1
  V  V12  1  0.084496  0.056185  0.223385  1
  V  V13  1  0.572212  0.049580  0.193071  1
  V  V14  1  0.682844  0.458159  0.809116  1
  V  V15  1  0.175539  0.448408  0.806887  1
  V  V16  1  0.824461  0.551592  0.193113  1
  V  V17  1  0.317156  0.541841  0.190884  1
  V  V18  1  0.427788  0.950420  0.806929  1
  V  V19  1  0.915504  0.943815  0.776615  1
  O  O20  1  0.152604  0.100400  0.396736  1
  O  O21  1  0.312013  0.047063  0.184586  1
  O  O22  1  0.548990  0.195314  0.806639  1
  O  O23  1  0.645118  0.096576  0.389718  1
  O  O24  1  0.827467  0.046231  0.186107  1
  O  O25  1  0.051613  0.191642  0.821879  1
  O  O26  1  0.607553  0.409510  0.609837  1
  O  O27  1  0.694385  0.290718  0.194637  1
  O  O28  1  0.916798  0.448997  0.806874  1
  O  O29  1  0.101301  0.396047  0.609675  1
  O  O30  1  0.438589  0.453287  0.807993  1
  O  O31  1  0.185701  0.284847  0.179085  1
  O  O32  1  0.814299  0.715153  0.820915  1
  O  O33  1  0.747251  0.492583  0.000570  1
  O  O34  1  0.561411  0.546713  0.192007  1
  O  O35  1  0.898699  0.603953  0.390325  1
  O  O36  1  0.305615  0.709282  0.805363  1
  O  O37  1  0.392447  0.590490  0.390163  1
  O  O38  1  0.252749  0.507417  0.999430  1
  O  O39  1  0.083202  0.551003  0.193126  1
  O  O40  1  0.687987  0.952937  0.815414  1
  O  O41  1  0.354882  0.903424  0.610282  1
  O  O42  1  0.948387  0.808358  0.178121  1
  O  O43  1  0.172533  0.953769  0.813893  1
  O  O44  1  0.847396  0.899600  0.603264  1
  O  O45  1  0.451010  0.804686  0.193361  1
  O  O46  1  0.500000  0.000000  0.000000  1
