# generated using pymatgen
data_Sm4Er2Si3Au
_symmetry_space_group_name_H-M   'P 1'
_cell_length_a   7.60340014
_cell_length_b   7.60340014
_cell_length_c   4.35839800
_cell_angle_alpha   90.00000000
_cell_angle_beta   90.00000000
_cell_angle_gamma   88.44711736
_symmetry_Int_Tables_number   1
_chemical_formula_structural   Sm4Er2Si3Au
_chemical_formula_sum   'Sm4 Er2 Si3 Au1'
_cell_volume   251.87383267
_cell_formula_units_Z   1
loop_
 _symmetry_equiv_pos_site_id
 _symmetry_equiv_pos_as_xyz
  1  'x, y, z'
loop_
 _atom_site_type_symbol
 _atom_site_label
 _atom_site_symmetry_multiplicity
 _atom_site_fract_x
 _atom_site_fract_y
 _atom_site_fract_z
 _atom_site_occupancy
  Sm  Sm0  1  0.675595  0.175595  0.500000  1
  Sm  Sm1  1  0.335289  0.835289  0.500000  1
  Sm  Sm2  1  0.173732  0.314645  0.500000  1
  Sm  Sm3  1  0.814645  0.673732  0.500000  1
  Er  Er4  1  0.007116  0.997302  0.000000  1
  Er  Er5  1  0.497302  0.507116  0.000000  1
  Si  Si6  1  0.872380  0.372380  0.000000  1
  Si  Si7  1  0.619502  0.885929  0.000000  1
  Si  Si8  1  0.385929  0.119502  0.000000  1
  Au  Au9  1  0.118510  0.618510  0.000000  1
