# generated using pymatgen
data_Er8In2IrPd
_symmetry_space_group_name_H-M   'P 1'
_cell_length_a   9.60451923
_cell_length_b   9.61566197
_cell_length_c   9.61566286
_cell_angle_alpha   60.17097945
_cell_angle_beta   60.03833005
_cell_angle_gamma   60.03832292
_symmetry_Int_Tables_number   1
_chemical_formula_structural   Er8In2IrPd
_chemical_formula_sum   'Er16 In4 Ir2 Pd2'
_cell_volume   629.11362426
_cell_formula_units_Z   2
loop_
 _symmetry_equiv_pos_site_id
 _symmetry_equiv_pos_as_xyz
  1  'x, y, z'
loop_
 _atom_site_type_symbol
 _atom_site_label
 _atom_site_symmetry_multiplicity
 _atom_site_fract_x
 _atom_site_fract_y
 _atom_site_fract_z
 _atom_site_occupancy
  Er  Er0  1  0.061974  0.061538  0.435164  1
  Er  Er1  1  0.650514  0.055241  0.643732  1
  Er  Er2  1  0.185826  0.808952  0.194903  1
  Er  Er3  1  0.441323  0.061538  0.435164  1
  Er  Er4  1  0.185826  0.194903  0.808952  1
  Er  Er5  1  0.654985  0.648285  0.648285  1
  Er  Er6  1  0.048447  0.648285  0.648285  1
  Er  Er7  1  0.437390  0.062610  0.062610  1
  Er  Er8  1  0.650514  0.643732  0.055241  1
  Er  Er9  1  0.191012  0.808988  0.808988  1
  Er  Er10  1  0.810319  0.194903  0.808952  1
  Er  Er11  1  0.810044  0.189956  0.189956  1
  Er  Er12  1  0.810319  0.808952  0.194903  1
  Er  Er13  1  0.061613  0.438387  0.438387  1
  Er  Er14  1  0.441323  0.435164  0.061538  1
  Er  Er15  1  0.061974  0.435164  0.061538  1
  In  In16  1  0.750411  0.416754  0.416754  1
  In  In17  1  0.416739  0.417363  0.749160  1
  In  In18  1  0.416739  0.749160  0.417363  1
  In  In19  1  0.416081  0.416754  0.416754  1
  Ir  Ir20  1  0.856511  0.859814  0.427165  1
  Ir  Ir21  1  0.856511  0.427165  0.859814  1
  Pd  Pd22  1  0.855599  0.858197  0.858197  1
  Pd  Pd23  1  0.428008  0.858197  0.858197  1
