# generated using pymatgen
data_LiTb2YIn(SiAg)2
_symmetry_space_group_name_H-M   'P 1'
_cell_length_a   7.26340600
_cell_length_b   7.25560860
_cell_length_c   4.26207000
_cell_angle_alpha   90.00000000
_cell_angle_beta   90.00000000
_cell_angle_gamma   120.03553798
_symmetry_Int_Tables_number   1
_chemical_formula_structural   LiTb2YIn(SiAg)2
_chemical_formula_sum   'Li1 Tb2 Y1 In1 Si2 Ag2'
_cell_volume   194.45080413
_cell_formula_units_Z   1
loop_
 _symmetry_equiv_pos_site_id
 _symmetry_equiv_pos_as_xyz
  1  'x, y, z'
loop_
 _atom_site_type_symbol
 _atom_site_label
 _atom_site_symmetry_multiplicity
 _atom_site_fract_x
 _atom_site_fract_y
 _atom_site_fract_z
 _atom_site_occupancy
  Li  Li0  1  0.000205  0.747054  0.000000  1
  Tb  Tb1  1  0.999723  0.433100  0.500000  1
  Tb  Tb2  1  0.564881  0.565084  0.500000  1
  Y  Y3  1  0.434655  0.000011  0.500000  1
  In  In4  1  0.000457  0.991350  0.500000  1
  Si  Si5  1  0.329473  0.666175  0.000000  1
  Si  Si6  1  0.670480  0.336066  0.000000  1
  Ag  Ag7  1  0.262534  0.261883  0.000000  1
  Ag  Ag8  1  0.737593  0.999278  0.000000  1
