# generated using pymatgen
data_Yb2TaH9
_symmetry_space_group_name_H-M   'P 1'
_cell_length_a   8.65586800
_cell_length_b   8.65586750
_cell_length_c   4.95196100
_cell_angle_alpha   90.00000000
_cell_angle_beta   90.00000000
_cell_angle_gamma   120.00000192
_symmetry_Int_Tables_number   1
_chemical_formula_structural   Yb2TaH9
_chemical_formula_sum   'Yb6 Ta3 H27'
_cell_volume   321.31356716
_cell_formula_units_Z   3
loop_
 _symmetry_equiv_pos_site_id
 _symmetry_equiv_pos_as_xyz
  1  'x, y, z'
loop_
 _atom_site_type_symbol
 _atom_site_label
 _atom_site_symmetry_multiplicity
 _atom_site_fract_x
 _atom_site_fract_y
 _atom_site_fract_z
 _atom_site_occupancy
  Yb  Yb0  1  0.000000  0.266468  0.500000  1
  Yb  Yb1  1  0.733532  0.733532  0.500000  1
  Yb  Yb2  1  0.266468  0.000000  0.500000  1
  Yb  Yb3  1  0.000000  0.602358  0.000000  1
  Yb  Yb4  1  0.397642  0.397642  0.000000  1
  Yb  Yb5  1  0.602358  0.000000  0.000000  1
  Ta  Ta6  1  0.666667  0.333333  0.500000  1
  Ta  Ta7  1  0.333333  0.666667  0.500000  1
  Ta  Ta8  1  0.000000  0.000000  0.000000  1
  H  H9  1  0.820890  0.337254  0.767959  1
  H  H10  1  0.662746  0.483633  0.767959  1
  H  H11  1  0.516367  0.179110  0.767959  1
  H  H12  1  0.179110  0.516367  0.232041  1
  H  H13  1  0.516367  0.179110  0.232041  1
  H  H14  1  0.820890  0.337254  0.232041  1
  H  H15  1  0.662746  0.483633  0.232041  1
  H  H16  1  0.337254  0.820890  0.767959  1
  H  H17  1  0.483633  0.662746  0.767959  1
  H  H18  1  0.213433  0.000000  0.000000  1
  H  H19  1  0.786567  0.786567  0.000000  1
  H  H20  1  0.000000  0.213433  0.000000  1
  H  H21  1  0.845771  0.000000  0.260405  1
  H  H22  1  0.154229  0.154229  0.739595  1
  H  H23  1  0.000000  0.845771  0.739595  1
  H  H24  1  0.000000  0.845771  0.260405  1
  H  H25  1  0.154229  0.154229  0.260405  1
  H  H26  1  0.845771  0.000000  0.739595  1
  H  H27  1  0.132064  0.684089  0.500000  1
  H  H28  1  0.552025  0.867936  0.500000  1
  H  H29  1  0.315911  0.447975  0.500000  1
  H  H30  1  0.447975  0.315911  0.500000  1
  H  H31  1  0.867936  0.552025  0.500000  1
  H  H32  1  0.684089  0.132064  0.500000  1
  H  H33  1  0.179110  0.516367  0.767959  1
  H  H34  1  0.337254  0.820890  0.232041  1
  H  H35  1  0.483633  0.662746  0.232041  1
