# generated using pymatgen
data_Nb12Ga7Cu5N4
_symmetry_space_group_name_H-M   'P 1'
_cell_length_a   8.23303938
_cell_length_b   8.23303864
_cell_length_c   8.23304022
_cell_angle_alpha   60.22471692
_cell_angle_beta   60.22471754
_cell_angle_gamma   60.22472325
_symmetry_Int_Tables_number   1
_chemical_formula_structural   Nb12Ga7Cu5N4
_chemical_formula_sum   'Nb12 Ga7 Cu5 N4'
_cell_volume   396.61536504
_cell_formula_units_Z   1
loop_
 _symmetry_equiv_pos_site_id
 _symmetry_equiv_pos_as_xyz
  1  'x, y, z'
loop_
 _atom_site_type_symbol
 _atom_site_label
 _atom_site_symmetry_multiplicity
 _atom_site_fract_x
 _atom_site_fract_y
 _atom_site_fract_z
 _atom_site_occupancy
  Nb  Nb0  1  0.815905  0.815905  0.181769  1
  Nb  Nb1  1  0.185256  0.185256  0.813487  1
  Nb  Nb2  1  0.815905  0.181769  0.815905  1
  Nb  Nb3  1  0.185256  0.813487  0.185256  1
  Nb  Nb4  1  0.181769  0.815905  0.815905  1
  Nb  Nb5  1  0.813487  0.185256  0.185256  1
  Nb  Nb6  1  0.435064  0.435064  0.065174  1
  Nb  Nb7  1  0.063968  0.063968  0.435019  1
  Nb  Nb8  1  0.435064  0.065174  0.435064  1
  Nb  Nb9  1  0.063968  0.435019  0.063968  1
  Nb  Nb10  1  0.065174  0.435064  0.435064  1
  Nb  Nb11  1  0.435019  0.063968  0.063968  1
  Ga  Ga12  1  0.754277  0.415378  0.415378  1
  Ga  Ga13  1  0.415378  0.754277  0.415378  1
  Ga  Ga14  1  0.415378  0.415378  0.754277  1
  Ga  Ga15  1  0.415359  0.415359  0.415359  1
  Ga  Ga16  1  0.500458  0.835881  0.835881  1
  Ga  Ga17  1  0.835881  0.500458  0.835881  1
  Ga  Ga18  1  0.835881  0.835881  0.500458  1
  Cu  Cu19  1  0.127515  0.625197  0.625197  1
  Cu  Cu20  1  0.625197  0.127515  0.625197  1
  Cu  Cu21  1  0.625197  0.625197  0.127515  1
  Cu  Cu22  1  0.625819  0.625819  0.625819  1
  Cu  Cu23  1  0.830892  0.830892  0.830892  1
  N  N24  1  0.624240  0.124236  0.124236  1
  N  N25  1  0.124236  0.624240  0.124236  1
  N  N26  1  0.124236  0.124236  0.624240  1
  N  N27  1  0.124219  0.124219  0.124219  1
