# generated using pymatgen
data_NdSmBC
_symmetry_space_group_name_H-M   'P 1'
_cell_length_a   6.79932312
_cell_length_b   6.79932324
_cell_length_c   9.49578298
_cell_angle_alpha   50.72124465
_cell_angle_beta   50.72124207
_cell_angle_gamma   30.98167249
_symmetry_Int_Tables_number   1
_chemical_formula_structural   NdSmBC
_chemical_formula_sum   'Nd2 Sm2 B2 C2'
_cell_volume   170.37231308
_cell_formula_units_Z   2
loop_
 _symmetry_equiv_pos_site_id
 _symmetry_equiv_pos_as_xyz
  1  'x, y, z'
loop_
 _atom_site_type_symbol
 _atom_site_label
 _atom_site_symmetry_multiplicity
 _atom_site_fract_x
 _atom_site_fract_y
 _atom_site_fract_z
 _atom_site_occupancy
  Nd  Nd0  1  0.561156  0.561156  0.640898  1
  Nd  Nd1  1  0.438844  0.438844  0.359102  1
  Sm  Sm2  1  0.206976  0.206976  0.883730  1
  Sm  Sm3  1  0.793024  0.793024  0.116270  1
  B  B4  1  0.923327  0.923327  0.608214  1
  B  B5  1  0.076673  0.076673  0.391786  1
  C  C6  1  0.128385  0.128385  0.196174  1
  C  C7  1  0.871615  0.871615  0.803826  1
