# generated using pymatgen
data_Zr9NbGe6C
_symmetry_space_group_name_H-M   'P 1'
_cell_length_a   8.04543700
_cell_length_b   8.04543690
_cell_length_c   5.62993600
_cell_angle_alpha   90.00000000
_cell_angle_beta   90.00000000
_cell_angle_gamma   119.99999630
_symmetry_Int_Tables_number   1
_chemical_formula_structural   Zr9NbGe6C
_chemical_formula_sum   'Zr9 Nb1 Ge6 C1'
_cell_volume   315.59737136
_cell_formula_units_Z   1
loop_
 _symmetry_equiv_pos_site_id
 _symmetry_equiv_pos_as_xyz
  1  'x, y, z'
loop_
 _atom_site_type_symbol
 _atom_site_label
 _atom_site_symmetry_multiplicity
 _atom_site_fract_x
 _atom_site_fract_y
 _atom_site_fract_z
 _atom_site_occupancy
  Zr  Zr0  1  0.001002  0.759159  0.260287  1
  Zr  Zr1  1  0.240841  0.241843  0.260287  1
  Zr  Zr2  1  0.758157  0.998998  0.260287  1
  Zr  Zr3  1  0.001002  0.241843  0.739713  1
  Zr  Zr4  1  0.758157  0.759159  0.739713  1
  Zr  Zr5  1  0.240841  0.998998  0.739713  1
  Zr  Zr6  1  0.333333  0.666667  0.000000  1
  Zr  Zr7  1  0.666667  0.333333  0.000000  1
  Zr  Zr8  1  0.666667  0.333333  0.500000  1
  Nb  Nb9  1  0.333333  0.666667  0.500000  1
  Ge  Ge10  1  0.002420  0.399335  0.251154  1
  Ge  Ge11  1  0.600665  0.603085  0.251154  1
  Ge  Ge12  1  0.396915  0.997580  0.251154  1
  Ge  Ge13  1  0.002420  0.603085  0.748846  1
  Ge  Ge14  1  0.396915  0.399335  0.748846  1
  Ge  Ge15  1  0.600665  0.997580  0.748846  1
  C  C16  1  0.000000  0.000000  0.500000  1
