# generated using pymatgen
data_DyZnPt3Au
_symmetry_space_group_name_H-M   'P 1'
_cell_length_a   5.17390804
_cell_length_b   5.17390881
_cell_length_c   5.17390824
_cell_angle_alpha   63.97012799
_cell_angle_beta   63.97012847
_cell_angle_gamma   63.97012602
_symmetry_Int_Tables_number   1
_chemical_formula_structural   DyZnPt3Au
_chemical_formula_sum   'Dy1 Zn1 Pt3 Au1'
_cell_volume   106.50104267
_cell_formula_units_Z   1
loop_
 _symmetry_equiv_pos_site_id
 _symmetry_equiv_pos_as_xyz
  1  'x, y, z'
loop_
 _atom_site_type_symbol
 _atom_site_label
 _atom_site_symmetry_multiplicity
 _atom_site_fract_x
 _atom_site_fract_y
 _atom_site_fract_z
 _atom_site_occupancy
  Dy  Dy0  1  0.003960  0.003960  0.003960  1
  Zn  Zn1  1  0.623416  0.623416  0.623416  1
  Pt  Pt2  1  0.623122  0.623122  0.124900  1
  Pt  Pt3  1  0.623122  0.124900  0.623122  1
  Pt  Pt4  1  0.124900  0.623122  0.623122  1
  Au  Au5  1  0.251480  0.251480  0.251480  1
