# generated using pymatgen
data_Tb2Ho2Al12Pd
_symmetry_space_group_name_H-M   'P 1'
_cell_length_a   7.50874257
_cell_length_b   7.50874295
_cell_length_c   7.49419358
_cell_angle_alpha   109.46915457
_cell_angle_beta   109.46915744
_cell_angle_gamma   109.55388432
_symmetry_Int_Tables_number   1
_chemical_formula_structural   Tb2Ho2Al12Pd
_chemical_formula_sum   'Tb2 Ho2 Al12 Pd1'
_cell_volume   324.94928781
_cell_formula_units_Z   1
loop_
 _symmetry_equiv_pos_site_id
 _symmetry_equiv_pos_as_xyz
  1  'x, y, z'
loop_
 _atom_site_type_symbol
 _atom_site_label
 _atom_site_symmetry_multiplicity
 _atom_site_fract_x
 _atom_site_fract_y
 _atom_site_fract_z
 _atom_site_occupancy
  Tb  Tb0  1  0.000000  0.000000  0.500000  1
  Tb  Tb1  1  0.500000  0.500000  0.500000  1
  Ho  Ho2  1  0.000000  0.500000  0.000000  1
  Ho  Ho3  1  0.500000  0.000000  0.000000  1
  Al  Al4  1  0.750000  0.250000  0.500000  1
  Al  Al5  1  0.750002  0.499554  0.249556  1
  Al  Al6  1  0.500446  0.249998  0.750444  1
  Al  Al7  1  0.249998  0.500446  0.750444  1
  Al  Al8  1  0.250000  0.750000  0.500000  1
  Al  Al9  1  0.499554  0.750002  0.249556  1
  Al  Al10  1  0.706274  0.706274  0.000000  1
  Al  Al11  1  0.293724  0.999570  0.293294  1
  Al  Al12  1  0.999570  0.293724  0.293294  1
  Al  Al13  1  0.293726  0.293726  0.000000  1
  Al  Al14  1  0.706276  0.000430  0.706706  1
  Al  Al15  1  0.000430  0.706276  0.706706  1
  Pd  Pd16  1  0.000000  0.000000  0.000000  1
