# generated using pymatgen
data_Zn3Bi2Sb2PbO12
_symmetry_space_group_name_H-M   'P 1'
_cell_length_a   11.26415117
_cell_length_b   11.26456453
_cell_length_c   11.28796686
_cell_angle_alpha   109.38699294
_cell_angle_beta   109.38550268
_cell_angle_gamma   109.55681498
_symmetry_Int_Tables_number   1
_chemical_formula_structural   Zn3Bi2Sb2PbO12
_chemical_formula_sum   'Zn12 Bi8 Sb8 Pb4 O48'
_cell_volume   1103.71522008
_cell_formula_units_Z   4
loop_
 _symmetry_equiv_pos_site_id
 _symmetry_equiv_pos_as_xyz
  1  'x, y, z'
loop_
 _atom_site_type_symbol
 _atom_site_label
 _atom_site_symmetry_multiplicity
 _atom_site_fract_x
 _atom_site_fract_y
 _atom_site_fract_z
 _atom_site_occupancy
  Zn  Zn0  1  0.873389  0.248874  0.123261  1
  Zn  Zn1  1  0.749870  0.874386  0.123258  1
  Zn  Zn2  1  0.624987  0.375568  0.252327  1
  Zn  Zn3  1  0.127340  0.876759  0.252327  1
  Zn  Zn4  1  0.247765  0.622181  0.373134  1
  Zn  Zn5  1  0.625369  0.750954  0.373135  1
  Zn  Zn6  1  0.376097  0.250159  0.627489  1
  Zn  Zn7  1  0.751392  0.377330  0.627489  1
  Zn  Zn8  1  0.874857  0.125916  0.748837  1
  Zn  Zn9  1  0.373980  0.622921  0.748839  1
  Zn  Zn10  1  0.248414  0.124222  0.875205  1
  Zn  Zn11  1  0.126792  0.750983  0.875204  1
  Bi  Bi12  1  0.375174  0.747346  0.120960  1
  Bi  Bi13  1  0.245787  0.373615  0.120960  1
  Bi  Bi14  1  0.375412  0.125412  0.250824  1
  Bi  Bi15  1  0.872256  0.622255  0.244513  1
  Bi  Bi16  1  0.751928  0.124481  0.378413  1
  Bi  Bi17  1  0.126486  0.253932  0.378414  1
  Bi  Bi18  1  0.871659  0.749917  0.627688  1
  Bi  Bi19  1  0.256028  0.877771  0.627687  1
  Sb  Sb20  1  0.002686  0.002198  0.001046  1
  Sb  Sb21  1  0.498360  0.998848  0.001046  1
  Sb  Sb22  1  0.003106  0.501371  0.004347  1
  Sb  Sb23  1  0.501242  0.502975  0.004346  1
  Sb  Sb24  1  0.998187  0.997758  0.497348  1
  Sb  Sb25  1  0.498025  0.999185  0.497056  1
  Sb  Sb26  1  0.999160  0.499590  0.497349  1
  Sb  Sb27  1  0.499031  0.497872  0.497058  1
  Pb  Pb28  1  0.125357  0.375357  0.750714  1
  Pb  Pb29  1  0.627267  0.877267  0.754535  1
  Pb  Pb30  1  0.627703  0.250281  0.873067  1
  Pb  Pb31  1  0.745369  0.622788  0.873070  1
  O  O32  1  0.201640  0.122337  0.029938  1
  O  O33  1  0.328298  0.907601  0.029938  1
  O  O34  1  0.893713  0.416688  0.093403  1
  O  O35  1  0.699692  0.676715  0.093402  1
  O  O36  1  0.982495  0.672859  0.103666  1
  O  O37  1  0.621172  0.430807  0.103667  1
  O  O38  1  0.027870  0.199598  0.120339  1
  O  O39  1  0.592470  0.920742  0.120340  1
  O  O40  1  0.202550  0.579544  0.173237  1
  O  O41  1  0.470688  0.593693  0.173237  1
  O  O42  1  0.121997  0.026093  0.197411  1
  O  O43  1  0.575412  0.171318  0.197411  1
  O  O44  1  0.471063  0.376972  0.300078  1
  O  O45  1  0.329013  0.923105  0.300076  1
  O  O46  1  0.904947  0.025715  0.327044  1
  O  O47  1  0.922095  0.301328  0.327044  1
  O  O48  1  0.301138  0.471947  0.378134  1
  O  O49  1  0.576996  0.906187  0.378134  1
  O  O50  1  0.828864  0.524068  0.402849  1
  O  O51  1  0.073984  0.878781  0.402848  1
  O  O52  1  0.095284  0.621173  0.423635  1
  O  O53  1  0.828350  0.802462  0.423636  1
  O  O54  1  0.592083  0.173165  0.472809  1
  O  O55  1  0.380724  0.299645  0.472810  1
  O  O56  1  0.396712  0.826779  0.516688  1
  O  O57  1  0.619976  0.689910  0.516689  1
  O  O58  1  0.169257  0.190427  0.568047  1
  O  O59  1  0.898791  0.377621  0.568049  1
  O  O60  1  0.172845  0.475105  0.582728  1
  O  O61  1  0.909883  0.107622  0.582729  1
  O  O62  1  0.408851  0.083861  0.605906  1
  O  O63  1  0.697054  0.522045  0.605905  1
  O  O64  1  0.096509  0.978097  0.670692  1
  O  O65  1  0.074184  0.692596  0.670693  1
  O  O66  1  0.671952  0.079848  0.685921  1
  O  O67  1  0.513969  0.606076  0.685921  1
  O  O68  1  0.895617  0.980541  0.804187  1
  O  O69  1  0.408571  0.823646  0.804188  1
  O  O70  1  0.513431  0.408227  0.828389  1
  O  O71  1  0.814959  0.420161  0.828388  1
  O  O72  1  0.982387  0.810573  0.879497  1
  O  O73  1  0.397109  0.068923  0.879496  1
  O  O74  1  0.393408  0.593407  0.918599  1
  O  O75  1  0.025191  0.325191  0.918598  1
  O  O76  1  0.308081  0.329937  0.931978  1
  O  O77  1  0.123898  0.602041  0.931978  1
  O  O78  1  0.671924  0.091922  0.984348  1
  O  O79  1  0.812423  0.892425  0.984346  1
