# generated using pymatgen
data_Y2Lu6InPb3Au8
_symmetry_space_group_name_H-M   'P 1'
_cell_length_a   8.02287438
_cell_length_b   8.05065722
_cell_length_c   7.27170000
_cell_angle_alpha   90.00000000
_cell_angle_beta   90.00000000
_cell_angle_gamma   90.69966113
_symmetry_Int_Tables_number   1
_chemical_formula_structural   Y2Lu6InPb3Au8
_chemical_formula_sum   'Y2 Lu6 In1 Pb3 Au8'
_cell_volume   469.63980623
_cell_formula_units_Z   1
loop_
 _symmetry_equiv_pos_site_id
 _symmetry_equiv_pos_as_xyz
  1  'x, y, z'
loop_
 _atom_site_type_symbol
 _atom_site_label
 _atom_site_symmetry_multiplicity
 _atom_site_fract_x
 _atom_site_fract_y
 _atom_site_fract_z
 _atom_site_occupancy
  Y  Y0  1  0.846478  0.157291  0.497862  1
  Y  Y1  1  0.153522  0.842709  0.497862  1
  Lu  Lu2  1  0.342883  0.350224  0.002380  1
  Lu  Lu3  1  0.657117  0.649776  0.002380  1
  Lu  Lu4  1  0.682686  0.678251  0.498476  1
  Lu  Lu5  1  0.317314  0.321749  0.498476  1
  Lu  Lu6  1  0.179275  0.817977  0.001408  1
  Lu  Lu7  1  0.820726  0.182024  0.001408  1
  In  In8  1  0.000000  0.500000  0.251425  1
  Pb  Pb9  1  0.500000  0.000000  0.252003  1
  Pb  Pb10  1  0.000000  0.500000  0.747585  1
  Pb  Pb11  1  0.500000  0.000000  0.748920  1
  Au  Au12  1  0.630801  0.377442  0.273142  1
  Au  Au13  1  0.369199  0.622558  0.273142  1
  Au  Au14  1  0.128415  0.127817  0.784981  1
  Au  Au15  1  0.871585  0.872183  0.784981  1
  Au  Au16  1  0.375311  0.626035  0.724880  1
  Au  Au17  1  0.624689  0.373965  0.724880  1
  Au  Au18  1  0.874057  0.866737  0.216904  1
  Au  Au19  1  0.125943  0.133263  0.216904  1
