# generated using pymatgen
data_CeNd3Al23Ni6
_symmetry_space_group_name_H-M   'P 1'
_cell_length_a   8.32425149
_cell_length_b   8.32424959
_cell_length_c   18.33956946
_cell_angle_alpha   67.92634226
_cell_angle_beta   67.92634785
_cell_angle_gamma   28.66984587
_symmetry_Int_Tables_number   1
_chemical_formula_structural   CeNd3Al23Ni6
_chemical_formula_sum   'Ce1 Nd3 Al23 Ni6'
_cell_volume   561.95350627
_cell_formula_units_Z   1
loop_
 _symmetry_equiv_pos_site_id
 _symmetry_equiv_pos_as_xyz
  1  'x, y, z'
loop_
 _atom_site_type_symbol
 _atom_site_label
 _atom_site_symmetry_multiplicity
 _atom_site_fract_x
 _atom_site_fract_y
 _atom_site_fract_z
 _atom_site_occupancy
  Ce  Ce0  1  0.266034  0.266034  0.782383  1
  Nd  Nd1  1  0.568082  0.568082  0.594723  1
  Nd  Nd2  1  0.734004  0.734004  0.218659  1
  Nd  Nd3  1  0.431065  0.431065  0.406437  1
  Al  Al4  1  0.467573  0.467573  0.781181  1
  Al  Al5  1  0.083588  0.083588  0.313066  1
  Al  Al6  1  0.608679  0.608679  0.838765  1
  Al  Al7  1  0.257781  0.257781  0.952954  1
  Al  Al8  1  0.624734  0.624734  0.405499  1
  Al  Al9  1  0.091195  0.091195  0.951864  1
  Al  Al10  1  0.531533  0.531533  0.217872  1
  Al  Al11  1  0.202936  0.202936  0.479086  1
  Al  Al12  1  0.909030  0.909030  0.278003  1
  Al  Al13  1  0.391646  0.391646  0.159322  1
  Al  Al14  1  0.909494  0.909494  0.046885  1
  Al  Al15  1  0.742737  0.742737  0.046344  1
  Al  Al16  1  0.374694  0.374694  0.596866  1
  Al  Al17  1  0.276360  0.276360  0.324225  1
  Al  Al18  1  0.857531  0.857531  0.857138  1
  Al  Al19  1  0.143006  0.143006  0.141771  1
  Al  Al20  1  0.432220  0.432220  0.939646  1
  Al  Al21  1  0.795702  0.795702  0.521468  1
  Al  Al22  1  0.568248  0.568248  0.059186  1
  Al  Al23  1  0.724594  0.724594  0.676915  1
  Al  Al24  1  0.914445  0.914445  0.688438  1
  Al  Al25  1  0.091466  0.091466  0.722355  1
  Al  Al26  1  0.000143  0.000143  0.500482  1
  Ni  Ni27  1  0.992574  0.992574  0.133051  1
  Ni  Ni28  1  0.007839  0.007839  0.867103  1
  Ni  Ni29  1  0.309721  0.309721  0.066276  1
  Ni  Ni30  1  0.690674  0.690674  0.932058  1
  Ni  Ni31  1  0.773891  0.773891  0.397595  1
  Ni  Ni32  1  0.226781  0.226781  0.602384  1
