# generated using pymatgen
data_TbYbRh4
_symmetry_space_group_name_H-M   'P 1'
_cell_length_a   5.33231900
_cell_length_b   5.33231940
_cell_length_c   5.33232000
_cell_angle_alpha   60.00000871
_cell_angle_beta   60.00000618
_cell_angle_gamma   60.00000665
_symmetry_Int_Tables_number   1
_chemical_formula_structural   TbYbRh4
_chemical_formula_sum   'Tb1 Yb1 Rh4'
_cell_volume   107.20957024
_cell_formula_units_Z   1
loop_
 _symmetry_equiv_pos_site_id
 _symmetry_equiv_pos_as_xyz
  1  'x, y, z'
loop_
 _atom_site_type_symbol
 _atom_site_label
 _atom_site_symmetry_multiplicity
 _atom_site_fract_x
 _atom_site_fract_y
 _atom_site_fract_z
 _atom_site_occupancy
  Tb  Tb0  1  0.750000  0.750000  0.750000  1
  Yb  Yb1  1  0.500000  0.500000  0.500000  1
  Rh  Rh2  1  0.125175  0.624476  0.125175  1
  Rh  Rh3  1  0.125175  0.125175  0.624476  1
  Rh  Rh4  1  0.624476  0.125175  0.125175  1
  Rh  Rh5  1  0.125175  0.125175  0.125175  1
