# generated using pymatgen
data_K2Cr3(BrF3)2
_symmetry_space_group_name_H-M   'P 1'
_cell_length_a   11.55187900
_cell_length_b   6.78034742
_cell_length_c   7.60794416
_cell_angle_alpha   57.97244809
_cell_angle_beta   90.00000000
_cell_angle_gamma   90.00000000
_symmetry_Int_Tables_number   1
_chemical_formula_structural   K2Cr3(BrF3)2
_chemical_formula_sum   'K4 Cr6 Br4 F12'
_cell_volume   505.19821894
_cell_formula_units_Z   2
loop_
 _symmetry_equiv_pos_site_id
 _symmetry_equiv_pos_as_xyz
  1  'x, y, z'
loop_
 _atom_site_type_symbol
 _atom_site_label
 _atom_site_symmetry_multiplicity
 _atom_site_fract_x
 _atom_site_fract_y
 _atom_site_fract_z
 _atom_site_occupancy
  K  K0  1  0.046927  0.301708  0.365446  1
  K  K1  1  0.953073  0.698292  0.634554  1
  K  K2  1  0.453073  0.301708  0.865446  1
  K  K3  1  0.546927  0.698292  0.134554  1
  Cr  Cr4  1  0.247038  0.839709  0.777642  1
  Cr  Cr5  1  0.747038  0.160291  0.722358  1
  Cr  Cr6  1  0.000000  0.000000  0.000000  1
  Cr  Cr7  1  0.252962  0.839709  0.277642  1
  Cr  Cr8  1  0.752962  0.160291  0.222358  1
  Cr  Cr9  1  0.500000  0.000000  0.500000  1
  Br  Br10  1  0.328236  0.335361  0.470648  1
  Br  Br11  1  0.171764  0.335361  0.970648  1
  Br  Br12  1  0.828236  0.664639  0.029352  1
  Br  Br13  1  0.671764  0.664639  0.529352  1
  F  F14  1  0.688055  0.143420  0.983240  1
  F  F15  1  0.091667  0.744211  0.243938  1
  F  F16  1  0.085043  0.944186  0.794252  1
  F  F17  1  0.908333  0.255789  0.756062  1
  F  F18  1  0.914957  0.055814  0.205748  1
  F  F19  1  0.585043  0.055814  0.705748  1
  F  F20  1  0.591667  0.255789  0.256062  1
  F  F21  1  0.408333  0.744211  0.743938  1
  F  F22  1  0.811945  0.143420  0.483240  1
  F  F23  1  0.414957  0.944186  0.294252  1
  F  F24  1  0.188055  0.856580  0.516760  1
  F  F25  1  0.311945  0.856580  0.016760  1
