# generated using pymatgen
data_SrMo2P2O9
_symmetry_space_group_name_H-M   'P 1'
_cell_length_a   6.77747400
_cell_length_b   7.44016400
_cell_length_c   15.14450300
_cell_angle_alpha   90.00000000
_cell_angle_beta   90.00000000
_cell_angle_gamma   90.00000000
_symmetry_Int_Tables_number   1
_chemical_formula_structural   SrMo2P2O9
_chemical_formula_sum   'Sr4 Mo8 P8 O36'
_cell_volume   763.66940962
_cell_formula_units_Z   4
loop_
 _symmetry_equiv_pos_site_id
 _symmetry_equiv_pos_as_xyz
  1  'x, y, z'
loop_
 _atom_site_type_symbol
 _atom_site_label
 _atom_site_symmetry_multiplicity
 _atom_site_fract_x
 _atom_site_fract_y
 _atom_site_fract_z
 _atom_site_occupancy
  Sr  Sr0  1  0.750000  0.397272  0.281965  1
  Sr  Sr1  1  0.750000  0.102728  0.781965  1
  Sr  Sr2  1  0.250000  0.897272  0.218035  1
  Sr  Sr3  1  0.250000  0.602728  0.718035  1
  Mo  Mo4  1  0.750000  0.863911  0.376012  1
  Mo  Mo5  1  0.250000  0.136089  0.623988  1
  Mo  Mo6  1  0.250000  0.363911  0.123988  1
  Mo  Mo7  1  0.750000  0.636089  0.876012  1
  Mo  Mo8  1  0.500000  0.500000  0.500000  1
  Mo  Mo9  1  0.500000  0.000000  0.000000  1
  Mo  Mo10  1  0.000000  0.000000  0.000000  1
  Mo  Mo11  1  0.000000  0.500000  0.500000  1
  P  P12  1  0.250000  0.871169  0.430684  1
  P  P13  1  0.750000  0.128831  0.569316  1
  P  P14  1  0.750000  0.371169  0.069316  1
  P  P15  1  0.250000  0.628831  0.930684  1
  P  P16  1  0.750000  0.897927  0.188397  1
  P  P17  1  0.750000  0.602073  0.688397  1
  P  P18  1  0.250000  0.397927  0.311603  1
  P  P19  1  0.250000  0.102073  0.811603  1
  O  O20  1  0.062697  0.101628  0.869506  1
  O  O21  1  0.562697  0.898372  0.130494  1
  O  O22  1  0.937303  0.601628  0.630494  1
  O  O23  1  0.437303  0.398372  0.369506  1
  O  O24  1  0.937303  0.898372  0.130494  1
  O  O25  1  0.437303  0.101628  0.869506  1
  O  O26  1  0.062697  0.398372  0.369506  1
  O  O27  1  0.562697  0.601628  0.630494  1
  O  O28  1  0.250000  0.814483  0.982067  1
  O  O29  1  0.750000  0.185517  0.017933  1
  O  O30  1  0.750000  0.314483  0.517933  1
  O  O31  1  0.250000  0.685517  0.482067  1
  O  O32  1  0.750000  0.615628  0.436411  1
  O  O33  1  0.250000  0.384372  0.563589  1
  O  O34  1  0.250000  0.115628  0.063589  1
  O  O35  1  0.750000  0.884372  0.936411  1
  O  O36  1  0.750000  0.727734  0.248390  1
  O  O37  1  0.250000  0.272266  0.751610  1
  O  O38  1  0.250000  0.227734  0.251610  1
  O  O39  1  0.750000  0.772266  0.748390  1
  O  O40  1  0.431079  0.625143  0.868190  1
  O  O41  1  0.931079  0.374857  0.131810  1
  O  O42  1  0.568921  0.125143  0.631810  1
  O  O43  1  0.068921  0.874857  0.368190  1
  O  O44  1  0.568921  0.374857  0.131810  1
  O  O45  1  0.068921  0.625143  0.868190  1
  O  O46  1  0.431079  0.874857  0.368190  1
  O  O47  1  0.931079  0.125143  0.631810  1
  O  O48  1  0.750000  0.977166  0.503240  1
  O  O49  1  0.250000  0.555280  0.242922  1
  O  O50  1  0.250000  0.944720  0.742922  1
  O  O51  1  0.750000  0.055280  0.257078  1
  O  O52  1  0.750000  0.522834  0.003240  1
  O  O53  1  0.250000  0.477166  0.996760  1
  O  O54  1  0.250000  0.022834  0.496760  1
  O  O55  1  0.750000  0.444720  0.757078  1
