# generated using pymatgen
data_ZrNb(ReSi)2
_symmetry_space_group_name_H-M   'P 1'
_cell_length_a   3.38847000
_cell_length_b   6.97197698
_cell_length_c   11.98015616
_cell_angle_alpha   89.69461241
_cell_angle_beta   90.00000000
_cell_angle_gamma   90.00000000
_symmetry_Int_Tables_number   1
_chemical_formula_structural   ZrNb(ReSi)2
_chemical_formula_sum   'Zr3 Nb3 Re6 Si6'
_cell_volume   283.01920022
_cell_formula_units_Z   3
loop_
 _symmetry_equiv_pos_site_id
 _symmetry_equiv_pos_as_xyz
  1  'x, y, z'
loop_
 _atom_site_type_symbol
 _atom_site_label
 _atom_site_symmetry_multiplicity
 _atom_site_fract_x
 _atom_site_fract_y
 _atom_site_fract_z
 _atom_site_occupancy
  Zr  Zr0  1  0.500000  0.297291  0.298464  1
  Zr  Zr1  1  0.500000  0.295890  0.701073  1
  Zr  Zr2  1  0.500000  0.799387  0.201732  1
  Nb  Nb3  1  0.500000  0.406299  0.999780  1
  Nb  Nb4  1  0.500000  0.901482  0.501534  1
  Nb  Nb5  1  0.500000  0.796710  0.799228  1
  Re  Re6  1  0.000000  0.244016  0.501607  1
  Re  Re7  1  0.000000  0.746597  0.996878  1
  Re  Re8  1  0.000000  0.628789  0.627583  1
  Re  Re9  1  0.000000  0.130350  0.124487  1
  Re  Re10  1  0.000000  0.127253  0.872090  1
  Re  Re11  1  0.000000  0.629233  0.374486  1
  Si  Si12  1  0.500000  0.003815  0.998299  1
  Si  Si13  1  0.500000  0.501606  0.499905  1
  Si  Si14  1  0.000000  0.992396  0.667348  1
  Si  Si15  1  0.000000  0.499199  0.162310  1
  Si  Si16  1  0.000000  0.502293  0.835227  1
  Si  Si17  1  0.000000  0.997592  0.337969  1
