# generated using pymatgen
data_Er10Zn3Os
_symmetry_space_group_name_H-M   'P 1'
_cell_length_a   9.31764000
_cell_length_b   9.31764005
_cell_length_c   9.56909200
_cell_angle_alpha   90.00000000
_cell_angle_beta   90.00000000
_cell_angle_gamma   119.99999983
_symmetry_Int_Tables_number   1
_chemical_formula_structural   Er10Zn3Os
_chemical_formula_sum   'Er20 Zn6 Os2'
_cell_volume   719.47087602
_cell_formula_units_Z   2
loop_
 _symmetry_equiv_pos_site_id
 _symmetry_equiv_pos_as_xyz
  1  'x, y, z'
loop_
 _atom_site_type_symbol
 _atom_site_label
 _atom_site_symmetry_multiplicity
 _atom_site_fract_x
 _atom_site_fract_y
 _atom_site_fract_z
 _atom_site_occupancy
  Er  Er0  1  0.000000  0.000000  0.500000  1
  Er  Er1  1  0.000000  0.000000  0.000000  1
  Er  Er2  1  0.207468  0.792532  0.442829  1
  Er  Er3  1  0.207468  0.414935  0.442829  1
  Er  Er4  1  0.585065  0.792532  0.442829  1
  Er  Er5  1  0.792532  0.207468  0.557171  1
  Er  Er6  1  0.792532  0.585065  0.557171  1
  Er  Er7  1  0.414935  0.207468  0.557171  1
  Er  Er8  1  0.792532  0.207468  0.942829  1
  Er  Er9  1  0.792532  0.585065  0.942829  1
  Er  Er10  1  0.414935  0.207468  0.942829  1
  Er  Er11  1  0.207468  0.792532  0.057171  1
  Er  Er12  1  0.207468  0.414935  0.057171  1
  Er  Er13  1  0.585065  0.792532  0.057171  1
  Er  Er14  1  0.540161  0.459839  0.250000  1
  Er  Er15  1  0.540161  0.080322  0.250000  1
  Er  Er16  1  0.919678  0.459839  0.250000  1
  Er  Er17  1  0.459839  0.540161  0.750000  1
  Er  Er18  1  0.459839  0.919678  0.750000  1
  Er  Er19  1  0.080322  0.540161  0.750000  1
  Zn  Zn20  1  0.886122  0.113878  0.250000  1
  Zn  Zn21  1  0.886122  0.772245  0.250000  1
  Zn  Zn22  1  0.227755  0.113878  0.250000  1
  Zn  Zn23  1  0.113878  0.886122  0.750000  1
  Zn  Zn24  1  0.113878  0.227755  0.750000  1
  Zn  Zn25  1  0.772245  0.886122  0.750000  1
  Os  Os26  1  0.333333  0.666667  0.250000  1
  Os  Os27  1  0.666667  0.333333  0.750000  1
