# generated using pymatgen
data_Eu3Dy3(BiO7)2
_symmetry_space_group_name_H-M   'P 1'
_cell_length_a   6.61687421
_cell_length_b   6.61730564
_cell_length_c   7.78173300
_cell_angle_alpha   106.93148267
_cell_angle_beta   89.79533449
_cell_angle_gamma   98.82286363
_symmetry_Int_Tables_number   1
_chemical_formula_structural   Eu3Dy3(BiO7)2
_chemical_formula_sum   'Eu3 Dy3 Bi2 O14'
_cell_volume   321.79911104
_cell_formula_units_Z   1
loop_
 _symmetry_equiv_pos_site_id
 _symmetry_equiv_pos_as_xyz
  1  'x, y, z'
loop_
 _atom_site_type_symbol
 _atom_site_label
 _atom_site_symmetry_multiplicity
 _atom_site_fract_x
 _atom_site_fract_y
 _atom_site_fract_z
 _atom_site_occupancy
  Eu  Eu0  1  0.730155  0.468723  0.116640  1
  Eu  Eu1  1  0.742257  0.485169  0.620907  1
  Eu  Eu2  1  0.257378  0.515583  0.380516  1
  Dy  Dy3  1  0.462765  0.005625  0.252716  1
  Dy  Dy4  1  0.536698  0.994733  0.747834  1
  Dy  Dy5  1  0.270950  0.538651  0.883932  1
  Bi  Bi6  1  0.000810  0.001958  0.501242  1
  Bi  Bi7  1  0.001267  0.000293  0.998775  1
  O  O8  1  0.442894  0.652960  0.162207  1
  O  O9  1  0.545180  0.347647  0.836168  1
  O  O10  1  0.302182  0.923451  0.951143  1
  O  O11  1  0.698826  0.068597  0.048233  1
  O  O12  1  0.299886  0.932977  0.515498  1
  O  O13  1  0.700399  0.066180  0.484012  1
  O  O14  1  0.543247  0.362111  0.344178  1
  O  O15  1  0.453899  0.638016  0.660347  1
  O  O16  1  0.932080  0.664394  0.950480  1
  O  O17  1  0.078473  0.332151  0.039598  1
  O  O18  1  0.070278  0.346008  0.622452  1
  O  O19  1  0.931913  0.653278  0.383519  1
  O  O20  1  0.874081  0.910304  0.726711  1
  O  O21  1  0.124386  0.091193  0.272895  1
