# generated using pymatgen
data_La2Y3Er15Si15Pt
_symmetry_space_group_name_H-M   'P 1'
_cell_length_a   7.38794880
_cell_length_b   7.72230946
_cell_length_c   14.56642905
_cell_angle_alpha   89.60153086
_cell_angle_beta   89.92150864
_cell_angle_gamma   90.01029772
_symmetry_Int_Tables_number   1
_chemical_formula_structural   La2Y3Er15Si15Pt
_chemical_formula_sum   'La2 Y3 Er15 Si15 Pt1'
_cell_volume   831.02341043
_cell_formula_units_Z   1
loop_
 _symmetry_equiv_pos_site_id
 _symmetry_equiv_pos_as_xyz
  1  'x, y, z'
loop_
 _atom_site_type_symbol
 _atom_site_label
 _atom_site_symmetry_multiplicity
 _atom_site_fract_x
 _atom_site_fract_y
 _atom_site_fract_z
 _atom_site_occupancy
  La  La0  1  0.522064  0.571686  0.341618  1
  La  La1  1  0.022934  0.426953  0.657321  1
  Y  Y2  1  0.972991  0.068304  0.848321  1
  Y  Y3  1  0.526717  0.567116  0.652402  1
  Y  Y4  1  0.027111  0.432358  0.347129  1
  Er  Er5  1  0.810289  0.576920  0.875866  1
  Er  Er6  1  0.319082  0.426514  0.124708  1
  Er  Er7  1  0.182364  0.927794  0.373275  1
  Er  Er8  1  0.681683  0.069569  0.627059  1
  Er  Er9  1  0.182966  0.927305  0.627941  1
  Er  Er10  1  0.681900  0.070672  0.371366  1
  Er  Er11  1  0.814598  0.572770  0.125391  1
  Er  Er12  1  0.323105  0.431310  0.874757  1
  Er  Er13  1  0.644112  0.235558  0.999368  1
  Er  Er14  1  0.156169  0.759418  0.001084  1
  Er  Er15  1  0.350994  0.261873  0.499880  1
  Er  Er16  1  0.850143  0.737497  0.499758  1
  Er  Er17  1  0.476329  0.930830  0.847547  1
  Er  Er18  1  0.973366  0.066378  0.151918  1
  Er  Er19  1  0.474109  0.932844  0.151741  1
  Si  Si20  1  0.018757  0.352709  0.000663  1
  Si  Si21  1  0.477950  0.861966  0.501016  1
  Si  Si22  1  0.977944  0.137126  0.498988  1
  Si  Si23  1  0.650677  0.276332  0.791263  1
  Si  Si24  1  0.151040  0.722989  0.208527  1
  Si  Si25  1  0.350655  0.214270  0.287180  1
  Si  Si26  1  0.851052  0.784431  0.712869  1
  Si  Si27  1  0.359718  0.217648  0.711253  1
  Si  Si28  1  0.860419  0.782419  0.288223  1
  Si  Si29  1  0.648158  0.268261  0.205789  1
  Si  Si30  1  0.146911  0.728067  0.793581  1
  Si  Si31  1  0.772153  0.881986  0.001525  1
  Si  Si32  1  0.261083  0.124839  0.000099  1
  Si  Si33  1  0.231863  0.627071  0.501767  1
  Si  Si34  1  0.731590  0.373283  0.498440  1
  Pt  Pt35  1  0.517002  0.652930  0.000366  1
