# generated using pymatgen
data_Dy6Lu6AlInCo4
_symmetry_space_group_name_H-M   'P 1'
_cell_length_a   8.21628506
_cell_length_b   8.21628542
_cell_length_c   8.20783064
_cell_angle_alpha   112.28101237
_cell_angle_beta   109.77284852
_cell_angle_gamma   106.45705930
_symmetry_Int_Tables_number   1
_chemical_formula_structural   Dy6Lu6AlInCo4
_chemical_formula_sum   'Dy6 Lu6 Al1 In1 Co4'
_cell_volume   425.19740577
_cell_formula_units_Z   1
loop_
 _symmetry_equiv_pos_site_id
 _symmetry_equiv_pos_as_xyz
  1  'x, y, z'
loop_
 _atom_site_type_symbol
 _atom_site_label
 _atom_site_symmetry_multiplicity
 _atom_site_fract_x
 _atom_site_fract_y
 _atom_site_fract_z
 _atom_site_occupancy
  Dy  Dy0  1  0.437675  0.233709  0.199884  1
  Dy  Dy1  1  0.562325  0.766291  0.800116  1
  Dy  Dy2  1  0.033824  0.237791  0.800116  1
  Dy  Dy3  1  0.966176  0.762209  0.199884  1
  Dy  Dy4  1  0.180935  0.283431  0.464367  1
  Dy  Dy5  1  0.819065  0.716569  0.535633  1
  Lu  Lu6  1  0.182032  0.718282  0.900314  1
  Lu  Lu7  1  0.817968  0.281718  0.099686  1
  Lu  Lu8  1  0.323978  0.638594  0.311938  1
  Lu  Lu9  1  0.676022  0.361406  0.688062  1
  Lu  Lu10  1  0.326657  0.012039  0.688062  1
  Lu  Lu11  1  0.673343  0.987961  0.311938  1
  Al  Al12  1  0.000000  0.000000  0.000000  1
  In  In13  1  0.500000  0.500000  0.000000  1
  Co  Co14  1  0.338456  0.998467  0.336925  1
  Co  Co15  1  0.661544  0.001533  0.663075  1
  Co  Co16  1  0.115390  0.615390  0.500000  1
  Co  Co17  1  0.884610  0.384610  0.500000  1
