# generated using pymatgen
data_Y4Al18NiRh5
_symmetry_space_group_name_H-M   'P 1'
_cell_length_a   7.54150070
_cell_length_b   7.54150121
_cell_length_c   9.44648920
_cell_angle_alpha   90.16797613
_cell_angle_beta   90.16797509
_cell_angle_gamma   119.64756526
_symmetry_Int_Tables_number   1
_chemical_formula_structural   Y4Al18NiRh5
_chemical_formula_sum   'Y4 Al18 Ni1 Rh5'
_cell_volume   466.91805493
_cell_formula_units_Z   1
loop_
 _symmetry_equiv_pos_site_id
 _symmetry_equiv_pos_as_xyz
  1  'x, y, z'
loop_
 _atom_site_type_symbol
 _atom_site_label
 _atom_site_symmetry_multiplicity
 _atom_site_fract_x
 _atom_site_fract_y
 _atom_site_fract_z
 _atom_site_occupancy
  Y  Y0  1  0.994807  0.669809  0.249169  1
  Y  Y1  1  0.005193  0.330191  0.750831  1
  Y  Y2  1  0.669809  0.994807  0.249169  1
  Y  Y3  1  0.330191  0.005193  0.750831  1
  Al  Al4  1  0.125263  0.125263  0.246945  1
  Al  Al5  1  0.874737  0.874737  0.753055  1
  Al  Al6  1  0.000313  0.332294  0.074191  1
  Al  Al7  1  0.999687  0.667706  0.925809  1
  Al  Al8  1  0.999301  0.665615  0.574389  1
  Al  Al9  1  0.334385  0.000699  0.425611  1
  Al  Al10  1  0.000699  0.334385  0.425611  1
  Al  Al11  1  0.665615  0.999301  0.574389  1
  Al  Al12  1  0.667706  0.999687  0.925809  1
  Al  Al13  1  0.332294  0.000313  0.074191  1
  Al  Al14  1  0.333466  0.333466  0.550885  1
  Al  Al15  1  0.666534  0.666534  0.449115  1
  Al  Al16  1  0.668846  0.668846  0.050017  1
  Al  Al17  1  0.331154  0.331154  0.949983  1
  Al  Al18  1  0.338745  0.548353  0.249559  1
  Al  Al19  1  0.661255  0.451647  0.750441  1
  Al  Al20  1  0.548353  0.338745  0.249559  1
  Al  Al21  1  0.451647  0.661255  0.750441  1
  Ni  Ni22  1  0.000000  0.000000  0.000000  1
  Rh  Rh23  1  0.671969  0.328031  0.000000  1
  Rh  Rh24  1  0.328031  0.671969  0.000000  1
  Rh  Rh25  1  0.328010  0.671990  0.500000  1
  Rh  Rh26  1  0.671990  0.328010  0.500000  1
  Rh  Rh27  1  0.000000  0.000000  0.500000  1
