# generated using pymatgen
data_Sr6PrSc(BO3)6
_symmetry_space_group_name_H-M   'P 1'
_cell_length_a   7.88668973
_cell_length_b   7.88669078
_cell_length_c   7.88669099
_cell_angle_alpha   105.22629674
_cell_angle_beta   105.22629904
_cell_angle_gamma   105.22629085
_symmetry_Int_Tables_number   1
_chemical_formula_structural   Sr6PrSc(BO3)6
_chemical_formula_sum   'Sr6 Pr1 Sc1 B6 O18'
_cell_volume   426.76347915
_cell_formula_units_Z   1
loop_
 _symmetry_equiv_pos_site_id
 _symmetry_equiv_pos_as_xyz
  1  'x, y, z'
loop_
 _atom_site_type_symbol
 _atom_site_label
 _atom_site_symmetry_multiplicity
 _atom_site_fract_x
 _atom_site_fract_y
 _atom_site_fract_z
 _atom_site_occupancy
  Sr  Sr0  1  0.644034  0.268189  0.155322  1
  Sr  Sr1  1  0.155322  0.644034  0.268188  1
  Sr  Sr2  1  0.731811  0.844678  0.355966  1
  Sr  Sr3  1  0.268189  0.155322  0.644034  1
  Sr  Sr4  1  0.844678  0.355966  0.731811  1
  Sr  Sr5  1  0.355966  0.731811  0.844678  1
  Pr  Pr6  1  0.000000  0.000000  0.000000  1
  Sc  Sc7  1  0.500000  0.500000  0.500000  1
  B  B8  1  0.297145  0.386355  0.043558  1
  B  B9  1  0.386355  0.043559  0.297145  1
  B  B10  1  0.043559  0.297145  0.386355  1
  B  B11  1  0.956441  0.702855  0.613645  1
  B  B12  1  0.613645  0.956441  0.702855  1
  B  B13  1  0.702855  0.613645  0.956441  1
  O  O14  1  0.721259  0.802576  0.022009  1
  O  O15  1  0.808764  0.540127  0.063052  1
  O  O16  1  0.977991  0.278741  0.197424  1
  O  O17  1  0.459872  0.936947  0.191236  1
  O  O18  1  0.430230  0.500657  0.222447  1
  O  O19  1  0.197424  0.977991  0.278741  1
  O  O20  1  0.500657  0.222447  0.430229  1
  O  O21  1  0.936947  0.191237  0.459872  1
  O  O22  1  0.222447  0.430230  0.500657  1
  O  O23  1  0.777553  0.569770  0.499343  1
  O  O24  1  0.063053  0.808763  0.540128  1
  O  O25  1  0.499343  0.777553  0.569771  1
  O  O26  1  0.802576  0.022009  0.721259  1
  O  O27  1  0.569770  0.499343  0.777553  1
  O  O28  1  0.540128  0.063053  0.808764  1
  O  O29  1  0.022009  0.721259  0.802576  1
  O  O30  1  0.191236  0.459873  0.936948  1
  O  O31  1  0.278741  0.197424  0.977991  1
