# generated using pymatgen
data_Ho12CuNi4Sn
_symmetry_space_group_name_H-M   'P 1'
_cell_length_a   8.30194318
_cell_length_b   8.30194375
_cell_length_c   8.30194296
_cell_angle_alpha   111.84229934
_cell_angle_beta   109.73126895
_cell_angle_gamma   106.87818873
_symmetry_Int_Tables_number   1
_chemical_formula_structural   Ho12CuNi4Sn
_chemical_formula_sum   'Ho12 Cu1 Ni4 Sn1'
_cell_volume   439.64153441
_cell_formula_units_Z   1
loop_
 _symmetry_equiv_pos_site_id
 _symmetry_equiv_pos_as_xyz
  1  'x, y, z'
loop_
 _atom_site_type_symbol
 _atom_site_label
 _atom_site_symmetry_multiplicity
 _atom_site_fract_x
 _atom_site_fract_y
 _atom_site_fract_z
 _atom_site_occupancy
  Ho  Ho0  1  0.418179  0.223284  0.194894  1
  Ho  Ho1  1  0.581821  0.776716  0.805106  1
  Ho  Ho2  1  0.028390  0.223284  0.805106  1
  Ho  Ho3  1  0.971610  0.776716  0.194894  1
  Ho  Ho4  1  0.179487  0.287831  0.467318  1
  Ho  Ho5  1  0.820513  0.712169  0.532682  1
  Ho  Ho6  1  0.179487  0.712169  0.891656  1
  Ho  Ho7  1  0.820513  0.287831  0.108344  1
  Ho  Ho8  1  0.322779  0.629902  0.307123  1
  Ho  Ho9  1  0.677221  0.370098  0.692877  1
  Ho  Ho10  1  0.322779  0.015656  0.692877  1
  Ho  Ho11  1  0.677221  0.984344  0.307123  1
  Cu  Cu12  1  0.000000  0.000000  0.000000  1
  Ni  Ni13  1  0.356487  0.000000  0.356487  1
  Ni  Ni14  1  0.643513  0.000000  0.643513  1
  Ni  Ni15  1  0.122969  0.622969  0.500000  1
  Ni  Ni16  1  0.877031  0.377031  0.500000  1
  Sn  Sn17  1  0.500000  0.500000  0.000000  1
