# generated using pymatgen
data_Ho5Tm11MgCd(InIr2)2
_symmetry_space_group_name_H-M   'P 1'
_cell_length_a   9.55390398
_cell_length_b   9.56164898
_cell_length_c   9.56164800
_cell_angle_alpha   59.88964909
_cell_angle_beta   59.94224363
_cell_angle_gamma   59.94224130
_symmetry_Int_Tables_number   1
_chemical_formula_structural   Ho5Tm11MgCd(InIr2)2
_chemical_formula_sum   'Ho5 Tm11 Mg1 Cd1 In2 Ir4'
_cell_volume   616.57918708
_cell_formula_units_Z   1
loop_
 _symmetry_equiv_pos_site_id
 _symmetry_equiv_pos_as_xyz
  1  'x, y, z'
loop_
 _atom_site_type_symbol
 _atom_site_label
 _atom_site_symmetry_multiplicity
 _atom_site_fract_x
 _atom_site_fract_y
 _atom_site_fract_z
 _atom_site_occupancy
  Ho  Ho0  1  0.809746  0.190692  0.190692  1
  Ho  Ho1  1  0.814283  0.187298  0.811787  1
  Ho  Ho2  1  0.192572  0.809415  0.187495  1
  Ho  Ho3  1  0.814283  0.811787  0.187298  1
  Ho  Ho4  1  0.192572  0.187495  0.809415  1
  Tm  Tm5  1  0.600308  0.597875  0.597875  1
  Tm  Tm6  1  0.598599  0.599854  0.204943  1
  Tm  Tm7  1  0.598599  0.204943  0.599854  1
  Tm  Tm8  1  0.202679  0.599001  0.599001  1
  Tm  Tm9  1  0.058045  0.441581  0.441581  1
  Tm  Tm10  1  0.435377  0.062999  0.062999  1
  Tm  Tm11  1  0.441032  0.058819  0.440903  1
  Tm  Tm12  1  0.060254  0.438603  0.060385  1
  Tm  Tm13  1  0.441032  0.440903  0.058819  1
  Tm  Tm14  1  0.060254  0.060385  0.438603  1
  Tm  Tm15  1  0.192226  0.809960  0.809960  1
  Mg  Mg16  1  0.825156  0.827674  0.827674  1
  Cd  Cd17  1  0.502874  0.832447  0.832447  1
  In  In18  1  0.830534  0.832640  0.503356  1
  In  In19  1  0.830534  0.503356  0.832640  1
  Ir  Ir20  1  0.392098  0.391722  0.391722  1
  Ir  Ir21  1  0.390090  0.393549  0.826054  1
  Ir  Ir22  1  0.390090  0.826054  0.393549  1
  Ir  Ir23  1  0.826767  0.390948  0.390948  1
