# generated using pymatgen
data_Tb4Er2Al24Os7Ru
_symmetry_space_group_name_H-M   'P 1'
_cell_length_a   8.81031700
_cell_length_b   8.82093607
_cell_length_c   9.58953302
_cell_angle_alpha   90.00567782
_cell_angle_beta   90.00000000
_cell_angle_gamma   119.96018125
_symmetry_Int_Tables_number   1
_chemical_formula_structural   Tb4Er2Al24Os7Ru
_chemical_formula_sum   'Tb4 Er2 Al24 Os7 Ru1'
_cell_volume   645.66673734
_cell_formula_units_Z   1
loop_
 _symmetry_equiv_pos_site_id
 _symmetry_equiv_pos_as_xyz
  1  'x, y, z'
loop_
 _atom_site_type_symbol
 _atom_site_label
 _atom_site_symmetry_multiplicity
 _atom_site_fract_x
 _atom_site_fract_y
 _atom_site_fract_z
 _atom_site_occupancy
  Tb  Tb0  1  0.613672  0.807080  0.250018  1
  Tb  Tb1  1  0.386328  0.192920  0.749982  1
  Tb  Tb2  1  0.193410  0.807080  0.250018  1
  Tb  Tb3  1  0.806590  0.192920  0.749982  1
  Er  Er4  1  0.194574  0.389147  0.249604  1
  Er  Er5  1  0.805426  0.610853  0.750396  1
  Al  Al6  1  0.333340  0.666681  0.015756  1
  Al  Al7  1  0.666660  0.333319  0.984244  1
  Al  Al8  1  0.666688  0.333375  0.516472  1
  Al  Al9  1  0.333312  0.666625  0.483528  1
  Al  Al10  1  0.163440  0.326879  0.574984  1
  Al  Al11  1  0.836560  0.673121  0.425016  1
  Al  Al12  1  0.673311  0.836204  0.575017  1
  Al  Al13  1  0.836676  0.673354  0.075628  1
  Al  Al14  1  0.326689  0.163796  0.424983  1
  Al  Al15  1  0.163324  0.326646  0.924372  1
  Al  Al16  1  0.162894  0.836204  0.575017  1
  Al  Al17  1  0.326501  0.163767  0.075413  1
  Al  Al18  1  0.837106  0.163796  0.424983  1
  Al  Al19  1  0.673499  0.836233  0.924587  1
  Al  Al20  1  0.837263  0.163767  0.075413  1
  Al  Al21  1  0.162737  0.836233  0.924587  1
  Al  Al22  1  0.561683  0.123367  0.250068  1
  Al  Al23  1  0.438317  0.876633  0.749932  1
  Al  Al24  1  0.877633  0.438685  0.250062  1
  Al  Al25  1  0.122367  0.561315  0.749938  1
  Al  Al26  1  0.561050  0.438685  0.250062  1
  Al  Al27  1  0.438950  0.561315  0.749938  1
  Al  Al28  1  0.001037  0.002074  0.248337  1
  Al  Al29  1  0.998963  0.997926  0.751663  1
  Os  Os30  1  0.500000  0.000000  0.000000  1
  Os  Os31  1  0.000000  0.500000  0.000000  1
  Os  Os32  1  0.500000  0.000000  0.500000  1
  Os  Os33  1  0.500000  0.500000  0.000000  1
  Os  Os34  1  0.000000  0.500000  0.500000  1
  Os  Os35  1  0.500000  0.500000  0.500000  1
  Os  Os36  1  0.000000  0.000000  0.500000  1
  Ru  Ru37  1  0.000000  0.000000  0.000000  1
