# generated using pymatgen
data_CsSb27
_symmetry_space_group_name_H-M   'P 1'
_cell_length_a   4.22090900
_cell_length_b   10.64795984
_cell_length_c   21.12096646
_cell_angle_alpha   93.06741293
_cell_angle_beta   90.00000000
_cell_angle_gamma   90.00000000
_symmetry_Int_Tables_number   1
_chemical_formula_structural   CsSb27
_chemical_formula_sum   'Cs1 Sb27'
_cell_volume   947.90214480
_cell_formula_units_Z   1
loop_
 _symmetry_equiv_pos_site_id
 _symmetry_equiv_pos_as_xyz
  1  'x, y, z'
loop_
 _atom_site_type_symbol
 _atom_site_label
 _atom_site_symmetry_multiplicity
 _atom_site_fract_x
 _atom_site_fract_y
 _atom_site_fract_z
 _atom_site_occupancy
  Cs  Cs0  1  0.250000  0.249222  0.938509  1
  Sb  Sb1  1  0.250000  0.736450  0.575296  1
  Sb  Sb2  1  0.750000  0.255974  0.439439  1
  Sb  Sb3  1  0.750000  0.750505  0.056002  1
  Sb  Sb4  1  0.250000  0.616461  0.867756  1
  Sb  Sb5  1  0.750000  0.368774  0.151938  1
  Sb  Sb6  1  0.750000  0.874498  0.360760  1
  Sb  Sb7  1  0.250000  0.120584  0.607148  1
  Sb  Sb8  1  0.250000  0.598536  0.230647  1
  Sb  Sb9  1  0.750000  0.375249  0.753464  1
  Sb  Sb10  1  0.750000  0.909081  0.725937  1
  Sb  Sb11  1  0.250000  0.096764  0.279149  1
  Sb  Sb12  1  0.250000  0.564817  0.089522  1
  Sb  Sb13  1  0.750000  0.549407  0.955867  1
  Sb  Sb14  1  0.750000  0.933971  0.551768  1
  Sb  Sb15  1  0.250000  0.058424  0.437382  1
  Sb  Sb16  1  0.250000  0.860910  0.931282  1
  Sb  Sb17  1  0.750000  0.129941  0.083777  1
  Sb  Sb18  1  0.750000  0.650253  0.432041  1
  Sb  Sb19  1  0.250000  0.365693  0.550820  1
  Sb  Sb20  1  0.250000  0.992067  0.144109  1
  Sb  Sb21  1  0.750000  0.978568  0.860761  1
  Sb  Sb22  1  0.750000  0.492481  0.630980  1
  Sb  Sb23  1  0.250000  0.489611  0.377558  1
  Sb  Sb24  1  0.250000  0.719846  0.712876  1
  Sb  Sb25  1  0.750000  0.287504  0.283997  1
  Sb  Sb26  1  0.750000  0.788145  0.227764  1
  Sb  Sb27  1  0.250000  0.186264  0.743452  1
