# generated using pymatgen
data_NaAc(MoO4)2
_symmetry_space_group_name_H-M   'P 1'
_cell_length_a   7.16794089
_cell_length_b   7.16794126
_cell_length_c   7.16794110
_cell_angle_alpha   134.81351163
_cell_angle_beta   134.81352134
_cell_angle_gamma   65.82009098
_symmetry_Int_Tables_number   1
_chemical_formula_structural   NaAc(MoO4)2
_chemical_formula_sum   'Na1 Ac1 Mo2 O8'
_cell_volume   182.54113100
_cell_formula_units_Z   1
loop_
 _symmetry_equiv_pos_site_id
 _symmetry_equiv_pos_as_xyz
  1  'x, y, z'
loop_
 _atom_site_type_symbol
 _atom_site_label
 _atom_site_symmetry_multiplicity
 _atom_site_fract_x
 _atom_site_fract_y
 _atom_site_fract_z
 _atom_site_occupancy
  Na  Na0  1  0.750000  0.250000  0.500000  1
  Ac  Ac1  1  0.500000  0.500000  0.000000  1
  Mo  Mo2  1  0.000000  0.000000  0.000000  1
  Mo  Mo3  1  0.250000  0.750000  0.500000  1
  O  O4  1  0.471466  0.067998  0.869743  1
  O  O5  1  0.198255  0.601723  0.130257  1
  O  O6  1  0.932002  0.801745  0.403469  1
  O  O7  1  0.398277  0.528534  0.596531  1
  O  O8  1  0.319483  0.941608  0.099430  1
  O  O9  1  0.842178  0.220052  0.900570  1
  O  O10  1  0.058392  0.157822  0.377874  1
  O  O11  1  0.779948  0.680517  0.622126  1
