# generated using pymatgen
data_SmNp3(ReB6)2
_symmetry_space_group_name_H-M   'P 1'
_cell_length_a   3.64521900
_cell_length_b   9.30512451
_cell_length_c   11.37584683
_cell_angle_alpha   90.06510271
_cell_angle_beta   90.00000000
_cell_angle_gamma   90.00000000
_symmetry_Int_Tables_number   1
_chemical_formula_structural   SmNp3(ReB6)2
_chemical_formula_sum   'Sm2 Np6 Re4 B24'
_cell_volume   385.85956410
_cell_formula_units_Z   2
loop_
 _symmetry_equiv_pos_site_id
 _symmetry_equiv_pos_as_xyz
  1  'x, y, z'
loop_
 _atom_site_type_symbol
 _atom_site_label
 _atom_site_symmetry_multiplicity
 _atom_site_fract_x
 _atom_site_fract_y
 _atom_site_fract_z
 _atom_site_occupancy
  Sm  Sm0  1  0.000000  0.337202  0.407164  1
  Sm  Sm1  1  0.000000  0.662798  0.592836  1
  Np  Np2  1  0.000000  0.837205  0.093417  1
  Np  Np3  1  0.000000  0.162795  0.906583  1
  Np  Np4  1  0.000000  0.958918  0.400203  1
  Np  Np5  1  0.000000  0.041082  0.599797  1
  Np  Np6  1  0.000000  0.459298  0.098886  1
  Np  Np7  1  0.000000  0.540702  0.901114  1
  Re  Re8  1  0.000000  0.649268  0.315820  1
  Re  Re9  1  0.000000  0.350732  0.684180  1
  Re  Re10  1  0.000000  0.143787  0.179164  1
  Re  Re11  1  0.000000  0.856213  0.820836  1
  B  B12  1  0.500000  0.554326  0.429488  1
  B  B13  1  0.500000  0.445674  0.570512  1
  B  B14  1  0.500000  0.051919  0.068068  1
  B  B15  1  0.500000  0.948081  0.931932  1
  B  B16  1  0.500000  0.745673  0.421974  1
  B  B17  1  0.500000  0.254327  0.578026  1
  B  B18  1  0.500000  0.243102  0.076125  1
  B  B19  1  0.500000  0.756898  0.923875  1
  B  B20  1  0.500000  0.805488  0.273483  1
  B  B21  1  0.500000  0.194512  0.726517  1
  B  B22  1  0.500000  0.303497  0.223913  1
  B  B23  1  0.500000  0.696503  0.776087  1
  B  B24  1  0.500000  0.646060  0.187516  1
  B  B25  1  0.500000  0.353940  0.812484  1
  B  B26  1  0.500000  0.143716  0.311296  1
  B  B27  1  0.500000  0.856284  0.688704  1
  B  B28  1  0.500000  0.988098  0.219903  1
  B  B29  1  0.500000  0.011902  0.780097  1
  B  B30  1  0.500000  0.490281  0.278066  1
  B  B31  1  0.500000  0.509719  0.721934  1
  B  B32  1  0.500000  0.642466  0.039076  1
  B  B33  1  0.500000  0.357534  0.960924  1
  B  B34  1  0.500000  0.137209  0.461835  1
  B  B35  1  0.500000  0.862791  0.538165  1
