# generated using pymatgen
data_La2Pa(GeIr)3
_symmetry_space_group_name_H-M   'P 1'
_cell_length_a   7.32349600
_cell_length_b   7.38731012
_cell_length_c   3.96900300
_cell_angle_alpha   90.00000000
_cell_angle_beta   90.00000000
_cell_angle_gamma   119.71465494
_symmetry_Int_Tables_number   1
_chemical_formula_structural   La2Pa(GeIr)3
_chemical_formula_sum   'La2 Pa1 Ge3 Ir3'
_cell_volume   186.49122849
_cell_formula_units_Z   1
loop_
 _symmetry_equiv_pos_site_id
 _symmetry_equiv_pos_as_xyz
  1  'x, y, z'
loop_
 _atom_site_type_symbol
 _atom_site_label
 _atom_site_symmetry_multiplicity
 _atom_site_fract_x
 _atom_site_fract_y
 _atom_site_fract_z
 _atom_site_occupancy
  La  La0  1  0.999673  0.585403  0.000000  1
  La  La1  1  0.414270  0.414597  0.000000  1
  Pa  Pa2  1  0.583072  0.000000  0.000000  1
  Ge  Ge3  1  0.236156  0.000000  0.500000  1
  Ge  Ge4  1  0.000086  0.244294  0.500000  1
  Ge  Ge5  1  0.755792  0.755706  0.500000  1
  Ir  Ir6  1  0.369368  0.707725  0.500000  1
  Ir  Ir7  1  0.661644  0.292275  0.500000  1
  Ir  Ir8  1  0.979940  0.000000  0.000000  1
