# generated using pymatgen
data_NaNd6RuBr12
_symmetry_space_group_name_H-M   'P 1'
_cell_length_a   9.57711488
_cell_length_b   9.57952998
_cell_length_c   9.57640900
_cell_angle_alpha   107.09381851
_cell_angle_beta   107.09912727
_cell_angle_gamma   107.12204412
_symmetry_Int_Tables_number   1
_chemical_formula_structural   NaNd6RuBr12
_chemical_formula_sum   'Na1 Nd6 Ru1 Br12'
_cell_volume   729.58440660
_cell_formula_units_Z   1
loop_
 _symmetry_equiv_pos_site_id
 _symmetry_equiv_pos_as_xyz
  1  'x, y, z'
loop_
 _atom_site_type_symbol
 _atom_site_label
 _atom_site_symmetry_multiplicity
 _atom_site_fract_x
 _atom_site_fract_y
 _atom_site_fract_z
 _atom_site_occupancy
  Na  Na0  1  0.500000  0.500000  0.500000  1
  Nd  Nd1  1  0.318272  0.110007  0.031106  1
  Nd  Nd2  1  0.030962  0.318035  0.109610  1
  Nd  Nd3  1  0.109856  0.031176  0.318252  1
  Nd  Nd4  1  0.890143  0.968824  0.681748  1
  Nd  Nd5  1  0.969038  0.681965  0.890389  1
  Nd  Nd6  1  0.681728  0.889993  0.968893  1
  Ru  Ru7  1  0.000000  0.000000  0.000000  1
  Br  Br8  1  0.686661  0.218733  0.073241  1
  Br  Br9  1  0.370778  0.451275  0.152958  1
  Br  Br10  1  0.073323  0.686866  0.219215  1
  Br  Br11  1  0.780995  0.927087  0.313478  1
  Br  Br12  1  0.451280  0.153012  0.370766  1
  Br  Br13  1  0.152783  0.370647  0.451103  1
  Br  Br14  1  0.847218  0.629353  0.548898  1
  Br  Br15  1  0.548720  0.846989  0.629234  1
  Br  Br16  1  0.219004  0.072913  0.686522  1
  Br  Br17  1  0.926677  0.313134  0.780784  1
  Br  Br18  1  0.629223  0.548726  0.847042  1
  Br  Br19  1  0.313339  0.781266  0.926759  1
