# generated using pymatgen
data_DyNi3AsP
_symmetry_space_group_name_H-M   'P 1'
_cell_length_a   3.82465800
_cell_length_b   10.71058200
_cell_length_c   12.53506001
_cell_angle_alpha   89.99987181
_cell_angle_beta   89.99543626
_cell_angle_gamma   89.99994329
_symmetry_Int_Tables_number   1
_chemical_formula_structural   DyNi3AsP
_chemical_formula_sum   'Dy6 Ni18 As6 P6'
_cell_volume   513.49012214
_cell_formula_units_Z   6
loop_
 _symmetry_equiv_pos_site_id
 _symmetry_equiv_pos_as_xyz
  1  'x, y, z'
loop_
 _atom_site_type_symbol
 _atom_site_label
 _atom_site_symmetry_multiplicity
 _atom_site_fract_x
 _atom_site_fract_y
 _atom_site_fract_z
 _atom_site_occupancy
  Dy  Dy0  1  0.751976  0.000000  0.483833  1
  Dy  Dy1  1  0.251941  0.500000  0.519524  1
  Dy  Dy2  1  0.251815  0.684217  0.797224  1
  Dy  Dy3  1  0.251816  0.315784  0.797224  1
  Dy  Dy4  1  0.751853  0.821488  0.203826  1
  Dy  Dy5  1  0.751853  0.178511  0.203825  1
  Ni  Ni6  1  0.751711  0.000000  0.014722  1
  Ni  Ni7  1  0.251678  0.500000  0.975123  1
  Ni  Ni8  1  0.252077  0.186030  0.580846  1
  Ni  Ni9  1  0.252074  0.813966  0.580847  1
  Ni  Ni10  1  0.751946  0.311797  0.421346  1
  Ni  Ni11  1  0.751947  0.688202  0.421349  1
  Ni  Ni12  1  0.251884  0.615826  0.292981  1
  Ni  Ni13  1  0.251883  0.384174  0.292980  1
  Ni  Ni14  1  0.751746  0.883424  0.717284  1
  Ni  Ni15  1  0.751756  0.116577  0.717283  1
  Ni  Ni16  1  0.251752  0.161757  0.998577  1
  Ni  Ni17  1  0.251752  0.838244  0.998578  1
  Ni  Ni18  1  0.751717  0.330943  0.989341  1
  Ni  Ni19  1  0.751718  0.669058  0.989341  1
  Ni  Ni20  1  0.251027  0.000001  0.840608  1
  Ni  Ni21  1  0.751531  0.500000  0.161130  1
  Ni  Ni22  1  0.251985  0.000000  0.292448  1
  Ni  Ni23  1  0.751957  0.500000  0.705440  1
  As  As24  1  0.252049  0.185388  0.388462  1
  As  As25  1  0.252048  0.814612  0.388463  1
  As  As26  1  0.752027  0.312873  0.613276  1
  As  As27  1  0.752025  0.687127  0.613277  1
  As  As28  1  0.251783  0.652401  0.107367  1
  As  As29  1  0.251781  0.347599  0.107367  1
  P  P30  1  0.251767  0.000000  0.118793  1
  P  P31  1  0.751716  0.500000  0.877246  1
  P  P32  1  0.751689  0.848513  0.893516  1
  P  P33  1  0.751691  0.151488  0.893515  1
  P  P34  1  0.251799  0.999998  0.660946  1
  P  P35  1  0.751839  0.500000  0.342091  1
