# generated using pymatgen
data_Er16Al4Co3Pd
_symmetry_space_group_name_H-M   'P 1'
_cell_length_a   9.35317546
_cell_length_b   9.34636222
_cell_length_c   9.34636200
_cell_angle_alpha   60.00000079
_cell_angle_beta   60.02409450
_cell_angle_gamma   60.02409674
_symmetry_Int_Tables_number   1
_chemical_formula_structural   Er16Al4Co3Pd
_chemical_formula_sum   'Er16 Al4 Co3 Pd1'
_cell_volume   577.94614197
_cell_formula_units_Z   1
loop_
 _symmetry_equiv_pos_site_id
 _symmetry_equiv_pos_as_xyz
  1  'x, y, z'
loop_
 _atom_site_type_symbol
 _atom_site_label
 _atom_site_symmetry_multiplicity
 _atom_site_fract_x
 _atom_site_fract_y
 _atom_site_fract_z
 _atom_site_occupancy
  Er  Er0  1  0.343161  0.355907  0.355907  1
  Er  Er1  1  0.343161  0.355907  0.945024  1
  Er  Er2  1  0.343161  0.945024  0.355907  1
  Er  Er3  1  0.953465  0.348844  0.348844  1
  Er  Er4  1  0.817833  0.191764  0.191764  1
  Er  Er5  1  0.190717  0.809395  0.809395  1
  Er  Er6  1  0.190717  0.809395  0.190493  1
  Er  Er7  1  0.817833  0.191764  0.798640  1
  Er  Er8  1  0.190717  0.190493  0.809395  1
  Er  Er9  1  0.817833  0.798640  0.191764  1
  Er  Er10  1  0.936510  0.562803  0.562803  1
  Er  Er11  1  0.560705  0.937765  0.937765  1
  Er  Er12  1  0.560705  0.937765  0.563765  1
  Er  Er13  1  0.936510  0.562803  0.937885  1
  Er  Er14  1  0.560705  0.563765  0.937765  1
  Er  Er15  1  0.936510  0.937885  0.562803  1
  Al  Al16  1  0.578102  0.577622  0.577622  1
  Al  Al17  1  0.578102  0.577622  0.266654  1
  Al  Al18  1  0.578102  0.266654  0.577622  1
  Al  Al19  1  0.264900  0.578367  0.578367  1
  Co  Co20  1  0.142501  0.141920  0.141920  1
  Co  Co21  1  0.142501  0.141920  0.573660  1
  Co  Co22  1  0.142501  0.573660  0.141920  1
  Pd  Pd23  1  0.573046  0.142318  0.142318  1
