# generated using pymatgen
data_Ce(MnC)2
_symmetry_space_group_name_H-M   'P 1'
_cell_length_a   5.71174332
_cell_length_b   5.71174380
_cell_length_c   5.71174452
_cell_angle_alpha   145.06166829
_cell_angle_beta   145.06166954
_cell_angle_gamma   50.24263085
_symmetry_Int_Tables_number   1
_chemical_formula_structural   Ce(MnC)2
_chemical_formula_sum   'Ce1 Mn2 C2'
_cell_volume   60.81512090
_cell_formula_units_Z   1
loop_
 _symmetry_equiv_pos_site_id
 _symmetry_equiv_pos_as_xyz
  1  'x, y, z'
loop_
 _atom_site_type_symbol
 _atom_site_label
 _atom_site_symmetry_multiplicity
 _atom_site_fract_x
 _atom_site_fract_y
 _atom_site_fract_z
 _atom_site_occupancy
  Ce  Ce0  1  0.000000  0.000000  0.000000  1
  Mn  Mn1  1  0.750000  0.250000  0.500000  1
  Mn  Mn2  1  0.250000  0.750000  0.500000  1
  C  C3  1  0.346058  0.346058  0.000000  1
  C  C4  1  0.653942  0.653942  0.000000  1
