# generated using pymatgen
data_DyErAlZnPt2
_symmetry_space_group_name_H-M   'P 1'
_cell_length_a   4.37870500
_cell_length_b   6.82090630
_cell_length_c   7.86298837
_cell_angle_alpha   89.83399581
_cell_angle_beta   90.00000000
_cell_angle_gamma   90.00000000
_symmetry_Int_Tables_number   1
_chemical_formula_structural   DyErAlZnPt2
_chemical_formula_sum   'Dy2 Er2 Al2 Zn2 Pt4'
_cell_volume   234.84081643
_cell_formula_units_Z   2
loop_
 _symmetry_equiv_pos_site_id
 _symmetry_equiv_pos_as_xyz
  1  'x, y, z'
loop_
 _atom_site_type_symbol
 _atom_site_label
 _atom_site_symmetry_multiplicity
 _atom_site_fract_x
 _atom_site_fract_y
 _atom_site_fract_z
 _atom_site_occupancy
  Dy  Dy0  1  0.750000  0.027612  0.688071  1
  Dy  Dy1  1  0.250000  0.972388  0.311929  1
  Er  Er2  1  0.250000  0.469205  0.180512  1
  Er  Er3  1  0.750000  0.530795  0.819488  1
  Al  Al4  1  0.750000  0.645543  0.439871  1
  Al  Al5  1  0.250000  0.354457  0.560129  1
  Zn  Zn6  1  0.250000  0.850304  0.933110  1
  Zn  Zn7  1  0.750000  0.149696  0.066890  1
  Pt  Pt8  1  0.250000  0.727955  0.609115  1
  Pt  Pt9  1  0.750000  0.272045  0.390885  1
  Pt  Pt10  1  0.750000  0.758754  0.123944  1
  Pt  Pt11  1  0.250000  0.241246  0.876056  1
