# generated using pymatgen
data_Tb9Lu(Bi2Ir)2
_symmetry_space_group_name_H-M   'P 1'
_cell_length_a   8.03385793
_cell_length_b   9.03835716
_cell_length_c   12.51963099
_cell_angle_alpha   89.94266000
_cell_angle_beta   90.17982223
_cell_angle_gamma   89.98892574
_symmetry_Int_Tables_number   1
_chemical_formula_structural   Tb9Lu(Bi2Ir)2
_chemical_formula_sum   'Tb18 Lu2 Bi8 Ir4'
_cell_volume   909.08148035
_cell_formula_units_Z   2
loop_
 _symmetry_equiv_pos_site_id
 _symmetry_equiv_pos_as_xyz
  1  'x, y, z'
loop_
 _atom_site_type_symbol
 _atom_site_label
 _atom_site_symmetry_multiplicity
 _atom_site_fract_x
 _atom_site_fract_y
 _atom_site_fract_z
 _atom_site_occupancy
  Tb  Tb0  1  0.841755  0.750311  0.791988  1
  Tb  Tb1  1  0.158245  0.249689  0.208012  1
  Tb  Tb2  1  0.343203  0.249072  0.707090  1
  Tb  Tb3  1  0.656797  0.750928  0.292910  1
  Tb  Tb4  1  0.375748  0.751525  0.693303  1
  Tb  Tb5  1  0.624252  0.248475  0.306697  1
  Tb  Tb6  1  0.875395  0.250002  0.805081  1
  Tb  Tb7  1  0.124605  0.749998  0.194919  1
  Tb  Tb8  1  0.945192  0.752281  0.501325  1
  Tb  Tb9  1  0.054808  0.247719  0.498675  1
  Tb  Tb10  1  0.446390  0.250095  0.998842  1
  Tb  Tb11  1  0.553610  0.749905  0.001158  1
  Tb  Tb12  1  0.177263  0.958966  0.933771  1
  Tb  Tb13  1  0.322727  0.540374  0.434102  1
  Tb  Tb14  1  0.822737  0.041034  0.066229  1
  Tb  Tb15  1  0.677273  0.459626  0.565898  1
  Tb  Tb16  1  0.822570  0.458939  0.065868  1
  Tb  Tb17  1  0.177430  0.541061  0.934132  1
  Lu  Lu18  1  0.671107  0.040897  0.565235  1
  Lu  Lu19  1  0.328893  0.959103  0.434765  1
  Bi  Bi20  1  0.569512  0.491070  0.827198  1
  Bi  Bi21  1  0.430488  0.508930  0.172802  1
  Bi  Bi22  1  0.069759  0.509048  0.672239  1
  Bi  Bi23  1  0.429643  0.991015  0.173127  1
  Bi  Bi24  1  0.930241  0.490952  0.327761  1
  Bi  Bi25  1  0.570357  0.008985  0.826873  1
  Bi  Bi26  1  0.933104  0.008518  0.327681  1
  Bi  Bi27  1  0.066896  0.991482  0.672319  1
  Ir  Ir28  1  0.570090  0.753205  0.509174  1
  Ir  Ir29  1  0.429910  0.246795  0.490826  1
  Ir  Ir30  1  0.071125  0.249854  0.990202  1
  Ir  Ir31  1  0.928875  0.750146  0.009798  1
