# generated using pymatgen
data_Dy5Ti3P12Ir13Rh3
_symmetry_space_group_name_H-M   'P 1'
_cell_length_a   12.77172600
_cell_length_b   12.77172672
_cell_length_c   3.94343600
_cell_angle_alpha   90.00000000
_cell_angle_beta   90.00000000
_cell_angle_gamma   119.99999813
_symmetry_Int_Tables_number   1
_chemical_formula_structural   Dy5Ti3P12Ir13Rh3
_chemical_formula_sum   'Dy5 Ti3 P12 Ir13 Rh3'
_cell_volume   557.06342731
_cell_formula_units_Z   1
loop_
 _symmetry_equiv_pos_site_id
 _symmetry_equiv_pos_as_xyz
  1  'x, y, z'
loop_
 _atom_site_type_symbol
 _atom_site_label
 _atom_site_symmetry_multiplicity
 _atom_site_fract_x
 _atom_site_fract_y
 _atom_site_fract_z
 _atom_site_occupancy
  Dy  Dy0  1  0.333333  0.666667  0.500000  1
  Dy  Dy1  1  0.666667  0.333333  0.500000  1
  Dy  Dy2  1  0.000059  0.811912  0.000000  1
  Dy  Dy3  1  0.188088  0.188147  0.000000  1
  Dy  Dy4  1  0.811853  0.999941  0.000000  1
  Ti  Ti5  1  0.000035  0.446863  0.500000  1
  Ti  Ti6  1  0.553137  0.553173  0.500000  1
  Ti  Ti7  1  0.446827  0.999965  0.500000  1
  P  P8  1  0.999910  0.640288  0.500000  1
  P  P9  1  0.359712  0.359621  0.500000  1
  P  P10  1  0.640379  0.000090  0.500000  1
  P  P11  1  0.516756  0.684739  0.000000  1
  P  P12  1  0.315261  0.832019  0.000000  1
  P  P13  1  0.167981  0.483244  0.000000  1
  P  P14  1  0.482933  0.167133  0.000000  1
  P  P15  1  0.684201  0.517067  0.000000  1
  P  P16  1  0.832867  0.315799  0.000000  1
  P  P17  1  0.000238  0.176831  0.500000  1
  P  P18  1  0.823169  0.823407  0.500000  1
  P  P19  1  0.176593  0.999762  0.500000  1
  Ir  Ir20  1  0.490849  0.357504  0.000000  1
  Ir  Ir21  1  0.866656  0.509151  0.000000  1
  Ir  Ir22  1  0.642496  0.133344  0.000000  1
  Ir  Ir23  1  0.000183  0.282381  0.000000  1
  Ir  Ir24  1  0.717619  0.717802  0.000000  1
  Ir  Ir25  1  0.282198  0.999817  0.000000  1
  Ir  Ir26  1  0.625153  0.803989  0.500000  1
  Ir  Ir27  1  0.196011  0.821165  0.500000  1
  Ir  Ir28  1  0.178835  0.374847  0.500000  1
  Ir  Ir29  1  0.373585  0.178284  0.500000  1
  Ir  Ir30  1  0.804699  0.626415  0.500000  1
  Ir  Ir31  1  0.821716  0.195301  0.500000  1
  Ir  Ir32  1  0.000000  0.000000  0.500000  1
  Rh  Rh33  1  0.510437  0.868179  0.000000  1
  Rh  Rh34  1  0.131821  0.642260  0.000000  1
  Rh  Rh35  1  0.357740  0.489563  0.000000  1
