# generated using pymatgen
data_Tb2Nb3Sn(B2Ru5)2
_symmetry_space_group_name_H-M   'P 1'
_cell_length_a   9.54894330
_cell_length_b   9.65724163
_cell_length_c   3.10325300
_cell_angle_alpha   90.00000000
_cell_angle_beta   90.00000000
_cell_angle_gamma   91.23405298
_symmetry_Int_Tables_number   1
_chemical_formula_structural   Tb2Nb3Sn(B2Ru5)2
_chemical_formula_sum   'Tb2 Nb3 Sn1 B4 Ru10'
_cell_volume   286.10460921
_cell_formula_units_Z   1
loop_
 _symmetry_equiv_pos_site_id
 _symmetry_equiv_pos_as_xyz
  1  'x, y, z'
loop_
 _atom_site_type_symbol
 _atom_site_label
 _atom_site_symmetry_multiplicity
 _atom_site_fract_x
 _atom_site_fract_y
 _atom_site_fract_z
 _atom_site_occupancy
  Tb  Tb0  1  0.818533  0.672194  0.000000  1
  Tb  Tb1  1  0.181467  0.327806  0.000000  1
  Nb  Nb2  1  0.321710  0.828782  0.000000  1
  Nb  Nb3  1  0.678290  0.171218  0.000000  1
  Nb  Nb4  1  0.000000  0.000000  0.000000  1
  Sn  Sn5  1  0.500000  0.500000  0.000000  1
  B  B6  1  0.618220  0.879883  0.000000  1
  B  B7  1  0.381780  0.120117  0.000000  1
  B  B8  1  0.120110  0.624170  0.000000  1
  B  B9  1  0.879890  0.375830  0.000000  1
  Ru  Ru10  1  0.553772  0.730134  0.500000  1
  Ru  Ru11  1  0.446228  0.269866  0.500000  1
  Ru  Ru12  1  0.076822  0.786331  0.500000  1
  Ru  Ru13  1  0.923178  0.213669  0.500000  1
  Ru  Ru14  1  0.281525  0.593771  0.500000  1
  Ru  Ru15  1  0.718475  0.406229  0.500000  1
  Ru  Ru16  1  0.223073  0.059977  0.500000  1
  Ru  Ru17  1  0.776927  0.940023  0.500000  1
  Ru  Ru18  1  0.500000  0.000000  0.500000  1
  Ru  Ru19  1  0.000000  0.500000  0.500000  1
