# generated using pymatgen
data_Tb8Ho12Si15Os
_symmetry_space_group_name_H-M   'P 1'
_cell_length_a   7.35939365
_cell_length_b   7.74707114
_cell_length_c   14.55429300
_cell_angle_alpha   90.00000000
_cell_angle_beta   90.00000000
_cell_angle_gamma   90.06043223
_symmetry_Int_Tables_number   1
_chemical_formula_structural   Tb8Ho12Si15Os
_chemical_formula_sum   'Tb8 Ho12 Si15 Os1'
_cell_volume   829.79430440
_cell_formula_units_Z   1
loop_
 _symmetry_equiv_pos_site_id
 _symmetry_equiv_pos_as_xyz
  1  'x, y, z'
loop_
 _atom_site_type_symbol
 _atom_site_label
 _atom_site_symmetry_multiplicity
 _atom_site_fract_x
 _atom_site_fract_y
 _atom_site_fract_z
 _atom_site_occupancy
  Tb  Tb0  1  0.021229  0.184632  0.097351  1
  Tb  Tb1  1  0.982921  0.827519  0.903828  1
  Tb  Tb2  1  0.480397  0.680216  0.904274  1
  Tb  Tb3  1  0.982921  0.827519  0.596172  1
  Tb  Tb4  1  0.520051  0.318707  0.096630  1
  Tb  Tb5  1  0.021229  0.184632  0.402649  1
  Tb  Tb6  1  0.520051  0.318707  0.403370  1
  Tb  Tb7  1  0.480397  0.680216  0.595726  1
  Ho  Ho8  1  0.151994  0.512124  0.750000  1
  Ho  Ho9  1  0.842887  0.487462  0.250000  1
  Ho  Ho10  1  0.343230  0.015183  0.250000  1
  Ho  Ho11  1  0.664642  0.987002  0.750000  1
  Ho  Ho12  1  0.312723  0.174743  0.626704  1
  Ho  Ho13  1  0.678160  0.823359  0.375829  1
  Ho  Ho14  1  0.176643  0.680795  0.375997  1
  Ho  Ho15  1  0.678160  0.823359  0.124171  1
  Ho  Ho16  1  0.833938  0.313564  0.625927  1
  Ho  Ho17  1  0.312723  0.174743  0.873296  1
  Ho  Ho18  1  0.833938  0.313564  0.874073  1
  Ho  Ho19  1  0.176643  0.680795  0.124003  1
  Si  Si20  1  0.971960  0.894988  0.250000  1
  Si  Si21  1  0.473662  0.607759  0.250000  1
  Si  Si22  1  0.526186  0.396687  0.750000  1
  Si  Si23  1  0.275416  0.865973  0.750000  1
  Si  Si24  1  0.723674  0.129807  0.250000  1
  Si  Si25  1  0.226052  0.372453  0.250000  1
  Si  Si26  1  0.765185  0.622374  0.750000  1
  Si  Si27  1  0.154771  0.473061  0.537810  1
  Si  Si28  1  0.849116  0.531240  0.461957  1
  Si  Si29  1  0.348146  0.970155  0.461059  1
  Si  Si30  1  0.849116  0.531240  0.038043  1
  Si  Si31  1  0.647088  0.029802  0.538307  1
  Si  Si32  1  0.154771  0.473061  0.962190  1
  Si  Si33  1  0.647088  0.029802  0.961693  1
  Si  Si34  1  0.348146  0.970155  0.038941  1
  Os  Os35  1  0.024741  0.092602  0.750000  1
