# generated using pymatgen
data_DyY9(CoTe)4
_symmetry_space_group_name_H-M   'P 1'
_cell_length_a   7.76349964
_cell_length_b   7.76349935
_cell_length_c   14.93914403
_cell_angle_alpha   90.05782694
_cell_angle_beta   89.94217285
_cell_angle_gamma   150.28472439
_symmetry_Int_Tables_number   1
_chemical_formula_structural   DyY9(CoTe)4
_chemical_formula_sum   'Dy1 Y9 Co4 Te4'
_cell_volume   446.32467819
_cell_formula_units_Z   1
loop_
 _symmetry_equiv_pos_site_id
 _symmetry_equiv_pos_as_xyz
  1  'x, y, z'
loop_
 _atom_site_type_symbol
 _atom_site_label
 _atom_site_symmetry_multiplicity
 _atom_site_fract_x
 _atom_site_fract_y
 _atom_site_fract_z
 _atom_site_occupancy
  Dy  Dy0  1  0.960170  0.039830  0.126178  1
  Y  Y1  1  0.038999  0.961001  0.875633  1
  Y  Y2  1  0.039084  0.960916  0.624690  1
  Y  Y3  1  0.961017  0.038983  0.375182  1
  Y  Y4  1  0.742615  0.257385  0.629375  1
  Y  Y5  1  0.257362  0.742638  0.370395  1
  Y  Y6  1  0.257521  0.742479  0.129124  1
  Y  Y7  1  0.742618  0.257382  0.870619  1
  Y  Y8  1  0.604967  0.395033  0.249737  1
  Y  Y9  1  0.394879  0.605121  0.749976  1
  Co  Co10  1  0.410641  0.589359  0.249564  1
  Co  Co11  1  0.589872  0.410128  0.750033  1
  Co  Co12  1  0.820890  0.179110  0.249796  1
  Co  Co13  1  0.179182  0.820818  0.750001  1
  Te  Te14  1  0.617308  0.382692  0.038531  1
  Te  Te15  1  0.382825  0.617175  0.961335  1
  Te  Te16  1  0.382833  0.617167  0.538500  1
  Te  Te17  1  0.617217  0.382783  0.461329  1
