# generated using pymatgen
data_RbEu2TmF10
_symmetry_space_group_name_H-M   'P 1'
_cell_length_a   8.29941222
_cell_length_b   8.29940969
_cell_length_c   8.32541700
_cell_angle_alpha   59.81570757
_cell_angle_beta   59.81573373
_cell_angle_gamma   60.28002456
_symmetry_Int_Tables_number   1
_chemical_formula_structural   RbEu2TmF10
_chemical_formula_sum   'Rb2 Eu4 Tm2 F20'
_cell_volume   405.20585389
_cell_formula_units_Z   2
loop_
 _symmetry_equiv_pos_site_id
 _symmetry_equiv_pos_as_xyz
  1  'x, y, z'
loop_
 _atom_site_type_symbol
 _atom_site_label
 _atom_site_symmetry_multiplicity
 _atom_site_fract_x
 _atom_site_fract_y
 _atom_site_fract_z
 _atom_site_occupancy
  Rb  Rb0  1  0.250023  0.250021  0.249726  1
  Rb  Rb1  1  0.749977  0.749979  0.750274  1
  Eu  Eu2  1  0.759384  0.240354  0.240658  1
  Eu  Eu3  1  0.240616  0.759646  0.759342  1
  Eu  Eu4  1  0.240354  0.759384  0.240658  1
  Eu  Eu5  1  0.759646  0.240616  0.759342  1
  Tm  Tm6  1  0.238521  0.238521  0.761907  1
  Tm  Tm7  1  0.761479  0.761479  0.238093  1
  F  F8  1  0.827883  0.507287  0.492630  1
  F  F9  1  0.172117  0.492713  0.507370  1
  F  F10  1  0.507653  0.827735  0.172083  1
  F  F11  1  0.492347  0.172265  0.827917  1
  F  F12  1  0.507287  0.827883  0.492630  1
  F  F13  1  0.172265  0.492347  0.827917  1
  F  F14  1  0.492713  0.172117  0.507370  1
  F  F15  1  0.827735  0.507653  0.172083  1
  F  F16  1  0.499984  0.499984  0.837023  1
  F  F17  1  0.500016  0.500016  0.162977  1
  F  F18  1  0.162588  0.837412  0.500000  1
  F  F19  1  0.837412  0.162588  0.500000  1
  F  F20  1  0.115065  0.115065  0.104025  1
  F  F21  1  0.884935  0.884935  0.895975  1
  F  F22  1  0.115157  0.115158  0.665848  1
  F  F23  1  0.103801  0.665756  0.115245  1
  F  F24  1  0.884843  0.884842  0.334152  1
  F  F25  1  0.896199  0.334244  0.884755  1
  F  F26  1  0.665757  0.103801  0.115245  1
  F  F27  1  0.334243  0.896199  0.884755  1
