# generated using pymatgen
data_PrNd3Ni3Bi8
_symmetry_space_group_name_H-M   'P 1'
_cell_length_a   11.00137666
_cell_length_b   11.00137663
_cell_length_c   11.01052200
_cell_angle_alpha   145.72180337
_cell_angle_beta   145.72181242
_cell_angle_gamma   49.22479376
_symmetry_Int_Tables_number   1
_chemical_formula_structural   PrNd3Ni3Bi8
_chemical_formula_sum   'Pr1 Nd3 Ni3 Bi8'
_cell_volume   420.85563038
_cell_formula_units_Z   1
loop_
 _symmetry_equiv_pos_site_id
 _symmetry_equiv_pos_as_xyz
  1  'x, y, z'
loop_
 _atom_site_type_symbol
 _atom_site_label
 _atom_site_symmetry_multiplicity
 _atom_site_fract_x
 _atom_site_fract_y
 _atom_site_fract_z
 _atom_site_occupancy
  Pr  Pr0  1  0.131447  0.131447  0.488780  1
  Nd  Nd1  1  0.644041  0.644041  0.512604  1
  Nd  Nd2  1  0.356425  0.867645  0.999496  1
  Nd  Nd3  1  0.867645  0.356425  0.999496  1
  Ni  Ni4  1  0.998305  0.998305  0.995301  1
  Ni  Ni5  1  0.000419  0.502588  0.502471  1
  Ni  Ni6  1  0.502588  0.000419  0.502471  1
  Bi  Bi7  1  0.322695  0.322695  0.513461  1
  Bi  Bi8  1  0.807997  0.807997  0.483056  1
  Bi  Bi9  1  0.677667  0.193056  0.001760  1
  Bi  Bi10  1  0.193056  0.677667  0.001760  1
  Bi  Bi11  1  0.249829  0.249829  0.000139  1
  Bi  Bi12  1  0.749071  0.749071  0.999545  1
  Bi  Bi13  1  0.749000  0.249813  0.499827  1
  Bi  Bi14  1  0.249813  0.749000  0.499827  1
