# generated using pymatgen
data_Ho2B8RuRh
_symmetry_space_group_name_H-M   'P 1'
_cell_length_a   3.55663900
_cell_length_b   5.95326207
_cell_length_c   11.52908006
_cell_angle_alpha   90.06858636
_cell_angle_beta   90.00000000
_cell_angle_gamma   90.00000000
_symmetry_Int_Tables_number   1
_chemical_formula_structural   Ho2B8RuRh
_chemical_formula_sum   'Ho4 B16 Ru2 Rh2'
_cell_volume   244.11200137
_cell_formula_units_Z   2
loop_
 _symmetry_equiv_pos_site_id
 _symmetry_equiv_pos_as_xyz
  1  'x, y, z'
loop_
 _atom_site_type_symbol
 _atom_site_label
 _atom_site_symmetry_multiplicity
 _atom_site_fract_x
 _atom_site_fract_y
 _atom_site_fract_z
 _atom_site_occupancy
  Ho  Ho0  1  0.000000  0.630260  0.648611  1
  Ho  Ho1  1  0.000000  0.369740  0.351389  1
  Ho  Ho2  1  0.000000  0.130078  0.849959  1
  Ho  Ho3  1  0.000000  0.869922  0.150041  1
  B  B4  1  0.500000  0.974971  0.692105  1
  B  B5  1  0.500000  0.025029  0.307895  1
  B  B6  1  0.500000  0.476983  0.806824  1
  B  B7  1  0.500000  0.523017  0.193176  1
  B  B8  1  0.500000  0.789906  0.812726  1
  B  B9  1  0.500000  0.210094  0.187274  1
  B  B10  1  0.500000  0.289205  0.686347  1
  B  B11  1  0.500000  0.710795  0.313653  1
  B  B12  1  0.500000  0.863892  0.970097  1
  B  B13  1  0.500000  0.136108  0.029903  1
  B  B14  1  0.500000  0.363995  0.530246  1
  B  B15  1  0.500000  0.636005  0.469754  1
  B  B16  1  0.500000  0.888009  0.546652  1
  B  B17  1  0.500000  0.111991  0.453348  1
  B  B18  1  0.500000  0.387261  0.952657  1
  B  B19  1  0.500000  0.612739  0.047343  1
  Ru  Ru20  1  0.000000  0.141215  0.592754  1
  Ru  Ru21  1  0.000000  0.858785  0.407246  1
  Rh  Rh22  1  0.000000  0.641919  0.905317  1
  Rh  Rh23  1  0.000000  0.358081  0.094683  1
