# generated using pymatgen
data_Tm5CuTe4
_symmetry_space_group_name_H-M   'P 1'
_cell_length_a   7.50045177
_cell_length_b   7.50045075
_cell_length_c   10.62199639
_cell_angle_alpha   60.93983662
_cell_angle_beta   60.93983945
_cell_angle_gamma   32.12692229
_symmetry_Int_Tables_number   1
_chemical_formula_structural   Tm5CuTe4
_chemical_formula_sum   'Tm5 Cu1 Te4'
_cell_volume   274.19584442
_cell_formula_units_Z   1
loop_
 _symmetry_equiv_pos_site_id
 _symmetry_equiv_pos_as_xyz
  1  'x, y, z'
loop_
 _atom_site_type_symbol
 _atom_site_label
 _atom_site_symmetry_multiplicity
 _atom_site_fract_x
 _atom_site_fract_y
 _atom_site_fract_z
 _atom_site_occupancy
  Tm  Tm0  1  0.000000  0.000000  0.500000  1
  Tm  Tm1  1  0.580099  0.580099  0.087147  1
  Tm  Tm2  1  0.181782  0.181782  0.733992  1
  Tm  Tm3  1  0.818218  0.818218  0.266008  1
  Tm  Tm4  1  0.419901  0.419901  0.912853  1
  Cu  Cu5  1  0.000000  0.000000  0.000000  1
  Te  Te6  1  0.612030  0.612030  0.582559  1
  Te  Te7  1  0.190952  0.190952  0.194041  1
  Te  Te8  1  0.809048  0.809048  0.805959  1
  Te  Te9  1  0.387970  0.387970  0.417441  1
