# generated using pymatgen
data_Rb3NaLiVP3
_symmetry_space_group_name_H-M   'P 1'
_cell_length_a   10.29865157
_cell_length_b   10.29865148
_cell_length_c   15.49616900
_cell_angle_alpha   90.00000000
_cell_angle_beta   90.00000000
_cell_angle_gamma   143.76821107
_symmetry_Int_Tables_number   1
_chemical_formula_structural   Rb3NaLiVP3
_chemical_formula_sum   'Rb12 Na4 Li4 V4 P12'
_cell_volume   971.43045267
_cell_formula_units_Z   4
loop_
 _symmetry_equiv_pos_site_id
 _symmetry_equiv_pos_as_xyz
  1  'x, y, z'
loop_
 _atom_site_type_symbol
 _atom_site_label
 _atom_site_symmetry_multiplicity
 _atom_site_fract_x
 _atom_site_fract_y
 _atom_site_fract_z
 _atom_site_occupancy
  Rb  Rb0  1  0.941826  0.611585  0.828250  1
  Rb  Rb1  1  0.558174  0.888415  0.328250  1
  Rb  Rb2  1  0.388415  0.058174  0.171750  1
  Rb  Rb3  1  0.058174  0.388415  0.171750  1
  Rb  Rb4  1  0.888415  0.558174  0.328250  1
  Rb  Rb5  1  0.441826  0.111585  0.671750  1
  Rb  Rb6  1  0.611585  0.941826  0.828250  1
  Rb  Rb7  1  0.286670  0.286670  0.317851  1
  Rb  Rb8  1  0.786670  0.786670  0.182149  1
  Rb  Rb9  1  0.213330  0.213330  0.817851  1
  Rb  Rb10  1  0.713330  0.713330  0.682149  1
  Rb  Rb11  1  0.111585  0.441826  0.671750  1
  Na  Na12  1  0.755260  0.244740  0.000000  1
  Na  Na13  1  0.744740  0.255260  0.500000  1
  Na  Na14  1  0.244740  0.755260  0.000000  1
  Na  Na15  1  0.255260  0.744740  0.500000  1
  Li  Li16  1  0.922150  0.077850  0.000000  1
  Li  Li17  1  0.577850  0.422150  0.500000  1
  Li  Li18  1  0.077850  0.922150  0.000000  1
  Li  Li19  1  0.422150  0.577850  0.500000  1
  V  V20  1  0.579816  0.420184  0.000000  1
  V  V21  1  0.920184  0.079816  0.500000  1
  V  V22  1  0.420184  0.579816  0.000000  1
  V  V23  1  0.079816  0.920184  0.500000  1
  P  P24  1  0.864546  0.569043  0.086946  1
  P  P25  1  0.430957  0.135454  0.913054  1
  P  P26  1  0.635454  0.930957  0.586946  1
  P  P27  1  0.930957  0.635454  0.586946  1
  P  P28  1  0.135454  0.430957  0.913054  1
  P  P29  1  0.569043  0.864546  0.086946  1
  P  P30  1  0.364546  0.069043  0.413054  1
  P  P31  1  0.208918  0.208918  0.576101  1
  P  P32  1  0.708918  0.708918  0.923899  1
  P  P33  1  0.291082  0.291082  0.076101  1
  P  P34  1  0.069043  0.364546  0.413054  1
  P  P35  1  0.791082  0.791082  0.423899  1
