# generated using pymatgen
data_La3ErPaPd15
_symmetry_space_group_name_H-M   'P 1'
_cell_length_a   4.19420400
_cell_length_b   4.19420400
_cell_length_c   20.93130800
_cell_angle_alpha   90.00000000
_cell_angle_beta   90.00000000
_cell_angle_gamma   90.00000000
_symmetry_Int_Tables_number   1
_chemical_formula_structural   La3ErPaPd15
_chemical_formula_sum   'La3 Er1 Pa1 Pd15'
_cell_volume   368.20990624
_cell_formula_units_Z   1
loop_
 _symmetry_equiv_pos_site_id
 _symmetry_equiv_pos_as_xyz
  1  'x, y, z'
loop_
 _atom_site_type_symbol
 _atom_site_label
 _atom_site_symmetry_multiplicity
 _atom_site_fract_x
 _atom_site_fract_y
 _atom_site_fract_z
 _atom_site_occupancy
  La  La0  1  0.000000  0.000000  0.396574  1
  La  La1  1  0.000000  0.000000  0.598735  1
  La  La2  1  0.000000  0.000000  0.800125  1
  Er  Er3  1  0.000000  0.000000  0.200544  1
  Pa  Pa4  1  0.000000  0.000000  0.003569  1
  Pd  Pd5  1  0.500000  0.500000  0.002844  1
  Pd  Pd6  1  0.500000  0.500000  0.195651  1
  Pd  Pd7  1  0.500000  0.500000  0.396262  1
  Pd  Pd8  1  0.500000  0.500000  0.600296  1
  Pd  Pd9  1  0.500000  0.500000  0.805851  1
  Pd  Pd10  1  0.500000  0.000000  0.097842  1
  Pd  Pd11  1  0.500000  0.000000  0.292917  1
  Pd  Pd12  1  0.500000  0.000000  0.498139  1
  Pd  Pd13  1  0.500000  0.000000  0.702200  1
  Pd  Pd14  1  0.500000  0.000000  0.908677  1
  Pd  Pd15  1  0.000000  0.500000  0.097842  1
  Pd  Pd16  1  0.000000  0.500000  0.292917  1
  Pd  Pd17  1  0.000000  0.500000  0.498139  1
  Pd  Pd18  1  0.000000  0.500000  0.702200  1
  Pd  Pd19  1  0.000000  0.500000  0.908677  1
