# generated using pymatgen
data_CaHfReB6
_symmetry_space_group_name_H-M   'P 1'
_cell_length_a   3.56519200
_cell_length_b   9.05518200
_cell_length_c   11.43191600
_cell_angle_alpha   90.00000000
_cell_angle_beta   90.00000000
_cell_angle_gamma   90.00000000
_symmetry_Int_Tables_number   1
_chemical_formula_structural   CaHfReB6
_chemical_formula_sum   'Ca4 Hf4 Re4 B24'
_cell_volume   369.06183063
_cell_formula_units_Z   4
loop_
 _symmetry_equiv_pos_site_id
 _symmetry_equiv_pos_as_xyz
  1  'x, y, z'
loop_
 _atom_site_type_symbol
 _atom_site_label
 _atom_site_symmetry_multiplicity
 _atom_site_fract_x
 _atom_site_fract_y
 _atom_site_fract_z
 _atom_site_occupancy
  Ca  Ca0  1  0.000000  0.323772  0.415514  1
  Ca  Ca1  1  0.000000  0.676228  0.584486  1
  Ca  Ca2  1  0.000000  0.823772  0.084486  1
  Ca  Ca3  1  0.000000  0.176228  0.915514  1
  Hf  Hf4  1  0.000000  0.945333  0.369700  1
  Hf  Hf5  1  0.000000  0.054667  0.630300  1
  Hf  Hf6  1  0.000000  0.445333  0.130300  1
  Hf  Hf7  1  0.000000  0.554667  0.869700  1
  Re  Re8  1  0.000000  0.643282  0.316171  1
  Re  Re9  1  0.000000  0.356718  0.683829  1
  Re  Re10  1  0.000000  0.143282  0.183829  1
  Re  Re11  1  0.000000  0.856718  0.816171  1
  B  B12  1  0.500000  0.554859  0.432574  1
  B  B13  1  0.500000  0.445141  0.567426  1
  B  B14  1  0.500000  0.054859  0.067426  1
  B  B15  1  0.500000  0.945141  0.932574  1
  B  B16  1  0.500000  0.754176  0.417524  1
  B  B17  1  0.500000  0.245824  0.582476  1
  B  B18  1  0.500000  0.254176  0.082476  1
  B  B19  1  0.500000  0.745824  0.917524  1
  B  B20  1  0.500000  0.796921  0.263604  1
  B  B21  1  0.500000  0.203079  0.736396  1
  B  B22  1  0.500000  0.296921  0.236396  1
  B  B23  1  0.500000  0.703079  0.763604  1
  B  B24  1  0.500000  0.631291  0.182860  1
  B  B25  1  0.500000  0.368709  0.817140  1
  B  B26  1  0.500000  0.131291  0.317140  1
  B  B27  1  0.500000  0.868709  0.682860  1
  B  B28  1  0.500000  0.983485  0.213031  1
  B  B29  1  0.500000  0.016515  0.786969  1
  B  B30  1  0.500000  0.483485  0.286969  1
  B  B31  1  0.500000  0.516515  0.713031  1
  B  B32  1  0.500000  0.596217  0.025366  1
  B  B33  1  0.500000  0.403783  0.974634  1
  B  B34  1  0.500000  0.096217  0.474634  1
  B  B35  1  0.500000  0.903783  0.525366  1
