# generated using pymatgen
data_Lu5CS4
_symmetry_space_group_name_H-M   'P 1'
_cell_length_a   6.50819331
_cell_length_b   6.50819472
_cell_length_c   6.50822100
_cell_angle_alpha   99.62099663
_cell_angle_beta   99.62129341
_cell_angle_gamma   131.73850705
_symmetry_Int_Tables_number   1
_chemical_formula_structural   Lu5CS4
_chemical_formula_sum   'Lu5 C1 S4'
_cell_volume   187.72474654
_cell_formula_units_Z   1
loop_
 _symmetry_equiv_pos_site_id
 _symmetry_equiv_pos_as_xyz
  1  'x, y, z'
loop_
 _atom_site_type_symbol
 _atom_site_label
 _atom_site_symmetry_multiplicity
 _atom_site_fract_x
 _atom_site_fract_y
 _atom_site_fract_z
 _atom_site_occupancy
  Lu  Lu0  1  0.408079  0.770677  0.178760  1
  Lu  Lu1  1  0.000000  0.000000  0.000000  1
  Lu  Lu2  1  0.591921  0.229323  0.821240  1
  Lu  Lu3  1  0.229349  0.408054  0.637402  1
  Lu  Lu4  1  0.770651  0.591946  0.362598  1
  C  C5  1  0.500000  0.500000  0.000000  1
  S  S6  1  0.094328  0.696938  0.791266  1
  S  S7  1  0.696979  0.905809  0.602787  1
  S  S8  1  0.303021  0.094191  0.397213  1
  S  S9  1  0.905672  0.303062  0.208734  1
