# generated using pymatgen
data_Ho4PaOsRu
_symmetry_space_group_name_H-M   'P 1'
_cell_length_a   6.29800298
_cell_length_b   7.27745314
_cell_length_c   8.39991600
_cell_angle_alpha   96.93306167
_cell_angle_beta   112.13764532
_cell_angle_gamma   89.86537198
_symmetry_Int_Tables_number   1
_chemical_formula_structural   Ho4PaOsRu
_chemical_formula_sum   'Ho8 Pa2 Os2 Ru2'
_cell_volume   353.61798851
_cell_formula_units_Z   2
loop_
 _symmetry_equiv_pos_site_id
 _symmetry_equiv_pos_as_xyz
  1  'x, y, z'
loop_
 _atom_site_type_symbol
 _atom_site_label
 _atom_site_symmetry_multiplicity
 _atom_site_fract_x
 _atom_site_fract_y
 _atom_site_fract_z
 _atom_site_occupancy
  Ho  Ho0  1  0.523809  0.081191  0.811615  1
  Ho  Ho1  1  0.476191  0.918809  0.188385  1
  Ho  Ho2  1  0.713318  0.421420  0.186048  1
  Ho  Ho3  1  0.286682  0.578580  0.813952  1
  Ho  Ho4  1  0.299490  0.314309  0.444208  1
  Ho  Ho5  1  0.700510  0.685691  0.555792  1
  Ho  Ho6  1  0.854865  0.188750  0.559019  1
  Ho  Ho7  1  0.145135  0.811250  0.440981  1
  Pa  Pa8  1  0.082843  0.247178  0.998403  1
  Pa  Pa9  1  0.917157  0.752822  0.001597  1
  Os  Os10  1  0.288435  0.563755  0.200472  1
  Os  Os11  1  0.711565  0.436245  0.799528  1
  Ru  Ru12  1  0.086483  0.940718  0.805724  1
  Ru  Ru13  1  0.913517  0.059282  0.194276  1
