# generated using pymatgen
data_Nd4Sc4Ir3Os
_symmetry_space_group_name_H-M   'P 1'
_cell_length_a   7.29428488
_cell_length_b   4.30696500
_cell_length_c   8.93249701
_cell_angle_alpha   90.00000000
_cell_angle_beta   91.49207308
_cell_angle_gamma   90.00000000
_symmetry_Int_Tables_number   1
_chemical_formula_structural   Nd4Sc4Ir3Os
_chemical_formula_sum   'Nd4 Sc4 Ir3 Os1'
_cell_volume   280.53022796
_cell_formula_units_Z   1
loop_
 _symmetry_equiv_pos_site_id
 _symmetry_equiv_pos_as_xyz
  1  'x, y, z'
loop_
 _atom_site_type_symbol
 _atom_site_label
 _atom_site_symmetry_multiplicity
 _atom_site_fract_x
 _atom_site_fract_y
 _atom_site_fract_z
 _atom_site_occupancy
  Nd  Nd0  1  0.982373  0.250000  0.175565  1
  Nd  Nd1  1  0.482671  0.250000  0.321242  1
  Nd  Nd2  1  0.011902  0.750000  0.825388  1
  Nd  Nd3  1  0.520970  0.750000  0.681201  1
  Sc  Sc4  1  0.864885  0.250000  0.562972  1
  Sc  Sc5  1  0.359673  0.250000  0.936684  1
  Sc  Sc6  1  0.137310  0.750000  0.437863  1
  Sc  Sc7  1  0.639671  0.750000  0.060900  1
  Ir  Ir8  1  0.234130  0.250000  0.598794  1
  Ir  Ir9  1  0.269564  0.750000  0.105373  1
  Ir  Ir10  1  0.767078  0.750000  0.399472  1
  Os  Os11  1  0.729773  0.250000  0.894544  1
