# generated using pymatgen
data_Dy8InAgIr2
_symmetry_space_group_name_H-M   'P 1'
_cell_length_a   9.60735521
_cell_length_b   9.60735587
_cell_length_c   9.61805400
_cell_angle_alpha   59.96315772
_cell_angle_beta   59.96315542
_cell_angle_gamma   60.05355209
_symmetry_Int_Tables_number   1
_chemical_formula_structural   Dy8InAgIr2
_chemical_formula_sum   'Dy16 In2 Ag2 Ir4'
_cell_volume   627.64362816
_cell_formula_units_Z   2
loop_
 _symmetry_equiv_pos_site_id
 _symmetry_equiv_pos_as_xyz
  1  'x, y, z'
loop_
 _atom_site_type_symbol
 _atom_site_label
 _atom_site_symmetry_multiplicity
 _atom_site_fract_x
 _atom_site_fract_y
 _atom_site_fract_z
 _atom_site_occupancy
  Dy  Dy0  1  0.599694  0.599694  0.599670  1
  Dy  Dy1  1  0.599694  0.599694  0.200942  1
  Dy  Dy2  1  0.600482  0.199749  0.599885  1
  Dy  Dy3  1  0.199749  0.600482  0.599885  1
  Dy  Dy4  1  0.059567  0.439902  0.440789  1
  Dy  Dy5  1  0.439902  0.059567  0.059743  1
  Dy  Dy6  1  0.439902  0.059567  0.440789  1
  Dy  Dy7  1  0.059567  0.439902  0.059743  1
  Dy  Dy8  1  0.441543  0.441543  0.058457  1
  Dy  Dy9  1  0.060808  0.060808  0.439192  1
  Dy  Dy10  1  0.185374  0.811079  0.812431  1
  Dy  Dy11  1  0.811079  0.185374  0.191115  1
  Dy  Dy12  1  0.811079  0.185374  0.812431  1
  Dy  Dy13  1  0.185374  0.811079  0.191115  1
  Dy  Dy14  1  0.810802  0.810802  0.189198  1
  Dy  Dy15  1  0.187680  0.187680  0.812320  1
  In  In16  1  0.833069  0.507121  0.829905  1
  In  In17  1  0.507121  0.833069  0.829905  1
  Ag  Ag18  1  0.833113  0.833113  0.832406  1
  Ag  Ag19  1  0.833113  0.833113  0.501368  1
  Ir  Ir20  1  0.392218  0.392218  0.390398  1
  Ir  Ir21  1  0.392218  0.392218  0.825168  1
  Ir  Ir22  1  0.391974  0.824881  0.391573  1
  Ir  Ir23  1  0.824881  0.391974  0.391573  1
