# generated using pymatgen
data_Sr2AgPd3
_symmetry_space_group_name_H-M   'P 1'
_cell_length_a   5.61614885
_cell_length_b   5.61614900
_cell_length_c   5.61614877
_cell_angle_alpha   61.88457734
_cell_angle_beta   61.88458006
_cell_angle_gamma   61.88457862
_symmetry_Int_Tables_number   1
_chemical_formula_structural   Sr2AgPd3
_chemical_formula_sum   'Sr2 Ag1 Pd3'
_cell_volume   130.54106547
_cell_formula_units_Z   1
loop_
 _symmetry_equiv_pos_site_id
 _symmetry_equiv_pos_as_xyz
  1  'x, y, z'
loop_
 _atom_site_type_symbol
 _atom_site_label
 _atom_site_symmetry_multiplicity
 _atom_site_fract_x
 _atom_site_fract_y
 _atom_site_fract_z
 _atom_site_occupancy
  Sr  Sr0  1  0.249752  0.249752  0.249752  1
  Sr  Sr1  1  0.000248  0.000248  0.000248  1
  Ag  Ag2  1  0.625000  0.625000  0.625000  1
  Pd  Pd3  1  0.625000  0.625000  0.125000  1
  Pd  Pd4  1  0.625000  0.125000  0.625000  1
  Pd  Pd5  1  0.125000  0.625000  0.625000  1
