# generated using pymatgen
data_YHo4Lu5(Si5Ir2)4
_symmetry_space_group_name_H-M   'P 1'
_cell_length_a   12.58126903
_cell_length_b   12.58126915
_cell_length_c   4.22905400
_cell_angle_alpha   90.00000000
_cell_angle_beta   90.00000000
_cell_angle_gamma   89.96269774
_symmetry_Int_Tables_number   1
_chemical_formula_structural   YHo4Lu5(Si5Ir2)4
_chemical_formula_sum   'Y1 Ho4 Lu5 Si20 Ir8'
_cell_volume   669.40976135
_cell_formula_units_Z   1
loop_
 _symmetry_equiv_pos_site_id
 _symmetry_equiv_pos_as_xyz
  1  'x, y, z'
loop_
 _atom_site_type_symbol
 _atom_site_label
 _atom_site_symmetry_multiplicity
 _atom_site_fract_x
 _atom_site_fract_y
 _atom_site_fract_z
 _atom_site_occupancy
  Y  Y0  1  0.615719  0.884281  0.500000  1
  Ho  Ho1  1  0.823476  0.676524  0.500000  1
  Ho  Ho2  1  0.883683  0.383550  0.500000  1
  Ho  Ho3  1  0.116450  0.616317  0.500000  1
  Ho  Ho4  1  0.383846  0.116154  0.500000  1
  Lu  Lu5  1  0.499845  0.500181  0.000000  1
  Lu  Lu6  1  0.999819  0.000155  0.000000  1
  Lu  Lu7  1  0.676473  0.175750  0.500000  1
  Lu  Lu8  1  0.324250  0.823527  0.500000  1
  Lu  Lu9  1  0.176209  0.323791  0.500000  1
  Si  Si10  1  0.565988  0.066528  0.000000  1
  Si  Si11  1  0.433472  0.934012  0.000000  1
  Si  Si12  1  0.066457  0.433543  0.000000  1
  Si  Si13  1  0.934345  0.565655  0.000000  1
  Si  Si14  1  0.662240  0.701318  0.000000  1
  Si  Si15  1  0.336647  0.298667  0.000000  1
  Si  Si16  1  0.163790  0.799049  0.000000  1
  Si  Si17  1  0.836820  0.201571  0.000000  1
  Si  Si18  1  0.298429  0.663180  0.000000  1
  Si  Si19  1  0.700951  0.336210  0.000000  1
  Si  Si20  1  0.201333  0.163353  0.000000  1
  Si  Si21  1  0.798682  0.837760  0.000000  1
  Si  Si22  1  0.654122  0.501956  0.500000  1
  Si  Si23  1  0.345294  0.496025  0.500000  1
  Si  Si24  1  0.154200  0.995909  0.500000  1
  Si  Si25  1  0.845219  0.003288  0.500000  1
  Si  Si26  1  0.496712  0.654781  0.500000  1
  Si  Si27  1  0.504091  0.345800  0.500000  1
  Si  Si28  1  0.003975  0.154706  0.500000  1
  Si  Si29  1  0.998044  0.845878  0.500000  1
  Ir  Ir30  1  0.744264  0.521162  0.000000  1
  Ir  Ir31  1  0.255039  0.477635  0.000000  1
  Ir  Ir32  1  0.245119  0.978226  0.000000  1
  Ir  Ir33  1  0.755249  0.023229  0.000000  1
  Ir  Ir34  1  0.476771  0.744751  0.000000  1
  Ir  Ir35  1  0.521774  0.254881  0.000000  1
  Ir  Ir36  1  0.022365  0.244961  0.000000  1
  Ir  Ir37  1  0.978838  0.755736  0.000000  1
