# generated using pymatgen
data_Tb2NdHo(Ir2O7)2
_symmetry_space_group_name_H-M   'P 1'
_cell_length_a   7.30912852
_cell_length_b   7.30912823
_cell_length_c   7.30099218
_cell_angle_alpha   59.61082624
_cell_angle_beta   59.61082573
_cell_angle_gamma   59.65688343
_symmetry_Int_Tables_number   1
_chemical_formula_structural   Tb2NdHo(Ir2O7)2
_chemical_formula_sum   'Tb2 Nd1 Ho1 Ir4 O14'
_cell_volume   273.45930800
_cell_formula_units_Z   1
loop_
 _symmetry_equiv_pos_site_id
 _symmetry_equiv_pos_as_xyz
  1  'x, y, z'
loop_
 _atom_site_type_symbol
 _atom_site_label
 _atom_site_symmetry_multiplicity
 _atom_site_fract_x
 _atom_site_fract_y
 _atom_site_fract_z
 _atom_site_occupancy
  Tb  Tb0  1  0.625000  0.125000  0.125000  1
  Tb  Tb1  1  0.125000  0.625000  0.125000  1
  Nd  Nd2  1  0.125000  0.125000  0.125000  1
  Ho  Ho3  1  0.125000  0.125000  0.625000  1
  Ir  Ir4  1  0.125000  0.625000  0.625000  1
  Ir  Ir5  1  0.625000  0.125000  0.625000  1
  Ir  Ir6  1  0.625000  0.625000  0.125000  1
  Ir  Ir7  1  0.625000  0.625000  0.625000  1
  O  O8  1  0.710997  0.710997  0.289470  1
  O  O9  1  0.288732  0.288732  0.702732  1
  O  O10  1  0.712342  0.289194  0.710167  1
  O  O11  1  0.289020  0.703600  0.289095  1
  O  O12  1  0.289194  0.712342  0.710167  1
  O  O13  1  0.703600  0.289020  0.289095  1
  O  O14  1  0.539003  0.539003  0.960530  1
  O  O15  1  0.961268  0.961268  0.547268  1
  O  O16  1  0.537658  0.960806  0.539833  1
  O  O17  1  0.960980  0.546400  0.960905  1
  O  O18  1  0.960806  0.537658  0.539833  1
  O  O19  1  0.546400  0.960980  0.960905  1
  O  O20  1  0.251821  0.251821  0.255652  1
  O  O21  1  0.998179  0.998179  0.994348  1
