# generated using pymatgen
data_Cs12YbErSe8
_symmetry_space_group_name_H-M   'P 1'
_cell_length_a   11.52056300
_cell_length_b   11.52056306
_cell_length_c   8.87522000
_cell_angle_alpha   90.00000000
_cell_angle_beta   90.00000000
_cell_angle_gamma   120.00000271
_symmetry_Int_Tables_number   1
_chemical_formula_structural   Cs12YbErSe8
_chemical_formula_sum   'Cs12 Yb1 Er1 Se8'
_cell_volume   1020.13384303
_cell_formula_units_Z   1
loop_
 _symmetry_equiv_pos_site_id
 _symmetry_equiv_pos_as_xyz
  1  'x, y, z'
loop_
 _atom_site_type_symbol
 _atom_site_label
 _atom_site_symmetry_multiplicity
 _atom_site_fract_x
 _atom_site_fract_y
 _atom_site_fract_z
 _atom_site_occupancy
  Cs  Cs0  1  0.136210  0.863790  0.535619  1
  Cs  Cs1  1  0.282509  0.141255  0.052207  1
  Cs  Cs2  1  0.858745  0.717491  0.052207  1
  Cs  Cs3  1  0.136210  0.272422  0.535619  1
  Cs  Cs4  1  0.727578  0.863790  0.535619  1
  Cs  Cs5  1  0.858745  0.141255  0.052207  1
  Cs  Cs6  1  0.533732  0.466268  0.368461  1
  Cs  Cs7  1  0.058620  0.529309  0.854246  1
  Cs  Cs8  1  0.470691  0.941380  0.854246  1
  Cs  Cs9  1  0.533732  0.067463  0.368461  1
  Cs  Cs10  1  0.932537  0.466268  0.368461  1
  Cs  Cs11  1  0.470691  0.529309  0.854246  1
  Yb  Yb12  1  0.666667  0.333333  0.760871  1
  Er  Er13  1  0.333333  0.666667  0.252377  1
  Se  Se14  1  0.333333  0.666667  0.560039  1
  Se  Se15  1  0.666667  0.333333  0.082845  1
  Se  Se16  1  0.204837  0.795163  0.151685  1
  Se  Se17  1  0.393548  0.196774  0.658874  1
  Se  Se18  1  0.803226  0.606452  0.658874  1
  Se  Se19  1  0.204837  0.409673  0.151685  1
  Se  Se20  1  0.590327  0.795163  0.151685  1
  Se  Se21  1  0.803226  0.196774  0.658874  1
