# generated using pymatgen
data_Ho3(Sn2Ru)2
_symmetry_space_group_name_H-M   'P 1'
_cell_length_a   7.57325400
_cell_length_b   7.57325419
_cell_length_c   4.11406700
_cell_angle_alpha   90.00000000
_cell_angle_beta   90.00000000
_cell_angle_gamma   120.00000789
_symmetry_Int_Tables_number   1
_chemical_formula_structural   Ho3(Sn2Ru)2
_chemical_formula_sum   'Ho3 Sn4 Ru2'
_cell_volume   204.34641091
_cell_formula_units_Z   1
loop_
 _symmetry_equiv_pos_site_id
 _symmetry_equiv_pos_as_xyz
  1  'x, y, z'
loop_
 _atom_site_type_symbol
 _atom_site_label
 _atom_site_symmetry_multiplicity
 _atom_site_fract_x
 _atom_site_fract_y
 _atom_site_fract_z
 _atom_site_occupancy
  Ho  Ho0  1  0.976095  0.392415  0.500000  1
  Ho  Ho1  1  0.607585  0.583681  0.500000  1
  Ho  Ho2  1  0.416319  0.023905  0.500000  1
  Sn  Sn3  1  0.980136  0.742962  0.000000  1
  Sn  Sn4  1  0.257038  0.237174  0.000000  1
  Sn  Sn5  1  0.762826  0.019864  0.000000  1
  Sn  Sn6  1  0.333333  0.666667  0.000000  1
  Ru  Ru7  1  0.666667  0.333333  0.000000  1
  Ru  Ru8  1  0.000000  0.000000  0.500000  1
