# generated using pymatgen
data_Pr10ZnSi4Ir
_symmetry_space_group_name_H-M   'P 1'
_cell_length_a   7.72619265
_cell_length_b   7.72619216
_cell_length_c   9.27024224
_cell_angle_alpha   114.62769378
_cell_angle_beta   114.62769348
_cell_angle_gamma   89.99999849
_symmetry_Int_Tables_number   1
_chemical_formula_structural   Pr10ZnSi4Ir
_chemical_formula_sum   'Pr10 Zn1 Si4 Ir1'
_cell_volume   447.06957098
_cell_formula_units_Z   1
loop_
 _symmetry_equiv_pos_site_id
 _symmetry_equiv_pos_as_xyz
  1  'x, y, z'
loop_
 _atom_site_type_symbol
 _atom_site_label
 _atom_site_symmetry_multiplicity
 _atom_site_fract_x
 _atom_site_fract_y
 _atom_site_fract_z
 _atom_site_occupancy
  Pr  Pr0  1  0.469144  0.469144  0.938288  1
  Pr  Pr1  1  0.030856  0.030856  0.061712  1
  Pr  Pr2  1  0.946222  0.799505  0.283462  1
  Pr  Pr3  1  0.337239  0.483957  0.283462  1
  Pr  Pr4  1  0.799505  0.337239  0.283462  1
  Pr  Pr5  1  0.483957  0.946222  0.283462  1
  Pr  Pr6  1  0.016043  0.162761  0.716538  1
  Pr  Pr7  1  0.700495  0.553778  0.716538  1
  Pr  Pr8  1  0.162761  0.700495  0.716538  1
  Pr  Pr9  1  0.553778  0.016043  0.716538  1
  Zn  Zn10  1  0.250000  0.250000  0.500000  1
  Si  Si11  1  0.614674  0.885326  0.000000  1
  Si  Si12  1  0.385326  0.114674  0.000000  1
  Si  Si13  1  0.885326  0.385326  0.000000  1
  Si  Si14  1  0.114674  0.614674  0.000000  1
  Ir  Ir15  1  0.750000  0.750000  0.500000  1
