# generated using pymatgen
data_Y2Ho10Co4BiOs
_symmetry_space_group_name_H-M   'P 1'
_cell_length_a   8.31457943
_cell_length_b   8.31455097
_cell_length_c   8.28741783
_cell_angle_alpha   111.29835393
_cell_angle_beta   110.40587322
_cell_angle_gamma   106.88385031
_symmetry_Int_Tables_number   1
_chemical_formula_structural   Y2Ho10Co4BiOs
_chemical_formula_sum   'Y2 Ho10 Co4 Bi1 Os1'
_cell_volume   439.54418461
_cell_formula_units_Z   1
loop_
 _symmetry_equiv_pos_site_id
 _symmetry_equiv_pos_as_xyz
  1  'x, y, z'
loop_
 _atom_site_type_symbol
 _atom_site_label
 _atom_site_symmetry_multiplicity
 _atom_site_fract_x
 _atom_site_fract_y
 _atom_site_fract_z
 _atom_site_occupancy
  Y  Y0  1  0.817802  0.718001  0.535795  1
  Y  Y1  1  0.182198  0.281999  0.464205  1
  Ho  Ho2  1  0.180913  0.717945  0.898859  1
  Ho  Ho3  1  0.819087  0.282055  0.101141  1
  Ho  Ho4  1  0.688272  0.378519  0.691487  1
  Ho  Ho5  1  0.311728  0.621481  0.308513  1
  Ho  Ho6  1  0.687043  0.996777  0.308495  1
  Ho  Ho7  1  0.312957  0.003223  0.691505  1
  Ho  Ho8  1  0.590054  0.787029  0.804562  1
  Ho  Ho9  1  0.409946  0.212971  0.195438  1
  Ho  Ho10  1  0.982448  0.785499  0.195449  1
  Ho  Ho11  1  0.017552  0.214501  0.804551  1
  Co  Co12  1  0.624485  0.000134  0.624618  1
  Co  Co13  1  0.375515  0.999866  0.375382  1
  Co  Co14  1  0.111439  0.611452  0.499997  1
  Co  Co15  1  0.888561  0.388548  0.500003  1
  Bi  Bi16  1  0.500000  0.500000  0.000000  1
  Os  Os17  1  0.000000  0.000000  0.000000  1
