# generated using pymatgen
data_Tm8Nb12Si15B
_symmetry_space_group_name_H-M   'P 1'
_cell_length_a   6.80637860
_cell_length_b   6.99292384
_cell_length_c   13.33819100
_cell_angle_alpha   90.00000000
_cell_angle_beta   90.00000000
_cell_angle_gamma   89.68618342
_symmetry_Int_Tables_number   1
_chemical_formula_structural   Tm8Nb12Si15B
_chemical_formula_sum   'Tm8 Nb12 Si15 B1'
_cell_volume   634.84151496
_cell_formula_units_Z   1
loop_
 _symmetry_equiv_pos_site_id
 _symmetry_equiv_pos_as_xyz
  1  'x, y, z'
loop_
 _atom_site_type_symbol
 _atom_site_label
 _atom_site_symmetry_multiplicity
 _atom_site_fract_x
 _atom_site_fract_y
 _atom_site_fract_z
 _atom_site_occupancy
  Tm  Tm0  1  0.503058  0.666908  0.597579  1
  Tm  Tm1  1  0.004137  0.825553  0.901892  1
  Tm  Tm2  1  0.498179  0.328061  0.095439  1
  Tm  Tm3  1  0.997735  0.172855  0.405306  1
  Tm  Tm4  1  0.498179  0.328061  0.404561  1
  Tm  Tm5  1  0.997735  0.172855  0.094694  1
  Tm  Tm6  1  0.503058  0.666908  0.902421  1
  Tm  Tm7  1  0.004137  0.825553  0.598108  1
  Nb  Nb8  1  0.650766  0.186589  0.630200  1
  Nb  Nb9  1  0.170739  0.325346  0.872134  1
  Nb  Nb10  1  0.339174  0.825236  0.124667  1
  Nb  Nb11  1  0.838021  0.675775  0.375432  1
  Nb  Nb12  1  0.339174  0.825236  0.375333  1
  Nb  Nb13  1  0.838021  0.675775  0.124568  1
  Nb  Nb14  1  0.650766  0.186589  0.869800  1
  Nb  Nb15  1  0.170739  0.325346  0.627866  1
  Nb  Nb16  1  0.829685  0.492683  0.750000  1
  Nb  Nb17  1  0.336987  0.011442  0.750000  1
  Nb  Nb18  1  0.163450  0.508010  0.250000  1
  Nb  Nb19  1  0.663593  0.993128  0.250000  1
  Si  Si20  1  0.664431  0.965234  0.463093  1
  Si  Si21  1  0.165498  0.536597  0.038583  1
  Si  Si22  1  0.335345  0.034447  0.959667  1
  Si  Si23  1  0.837278  0.463550  0.541237  1
  Si  Si24  1  0.335345  0.034447  0.540333  1
  Si  Si25  1  0.837278  0.463550  0.958763  1
  Si  Si26  1  0.664431  0.965234  0.036907  1
  Si  Si27  1  0.165498  0.536597  0.461417  1
  Si  Si28  1  0.956718  0.123429  0.750000  1
  Si  Si29  1  0.542444  0.621764  0.250000  1
  Si  Si30  1  0.042001  0.879364  0.250000  1
  Si  Si31  1  0.704041  0.872634  0.750000  1
  Si  Si32  1  0.216159  0.617437  0.750000  1
  Si  Si33  1  0.294665  0.130487  0.250000  1
  Si  Si34  1  0.795671  0.369719  0.250000  1
  B  B35  1  0.445865  0.367600  0.750000  1
