# generated using pymatgen
data_La2Tb2Pr2OsBr10
_symmetry_space_group_name_H-M   'P 1'
_cell_length_a   7.62850630
_cell_length_b   9.47562956
_cell_length_c   9.72401140
_cell_angle_alpha   109.19487426
_cell_angle_beta   96.04402540
_cell_angle_gamma   104.90687998
_symmetry_Int_Tables_number   1
_chemical_formula_structural   La2Tb2Pr2OsBr10
_chemical_formula_sum   'La2 Tb2 Pr2 Os1 Br10'
_cell_volume   627.44442645
_cell_formula_units_Z   1
loop_
 _symmetry_equiv_pos_site_id
 _symmetry_equiv_pos_as_xyz
  1  'x, y, z'
loop_
 _atom_site_type_symbol
 _atom_site_label
 _atom_site_symmetry_multiplicity
 _atom_site_fract_x
 _atom_site_fract_y
 _atom_site_fract_z
 _atom_site_occupancy
  La  La0  1  0.531506  0.214133  0.410344  1
  La  La1  1  0.468494  0.785867  0.589656  1
  Tb  Tb2  1  0.137045  0.363179  0.320158  1
  Tb  Tb3  1  0.862955  0.636821  0.679842  1
  Pr  Pr4  1  0.630862  0.547561  0.245166  1
  Pr  Pr5  1  0.369138  0.452439  0.754834  1
  Os  Os6  1  0.500000  0.500000  0.500000  1
  Br  Br7  1  0.139866  0.054165  0.228105  1
  Br  Br8  1  0.860134  0.945835  0.771895  1
  Br  Br9  1  0.242255  0.413558  0.055378  1
  Br  Br10  1  0.757745  0.586442  0.944622  1
  Br  Br11  1  0.728116  0.248537  0.154087  1
  Br  Br12  1  0.271884  0.751463  0.845913  1
  Br  Br13  1  0.045592  0.667180  0.421223  1
  Br  Br14  1  0.954408  0.332820  0.578777  1
  Br  Br15  1  0.411300  0.133009  0.675506  1
  Br  Br16  1  0.588700  0.866991  0.324494  1
