# generated using pymatgen
data_Er4Mg3Sc(B6Ir)4
_symmetry_space_group_name_H-M   'P 1'
_cell_length_a   3.54313100
_cell_length_b   8.92189002
_cell_length_c   11.30766600
_cell_angle_alpha   90.05362731
_cell_angle_beta   90.00000000
_cell_angle_gamma   90.00000000
_symmetry_Int_Tables_number   1
_chemical_formula_structural   Er4Mg3Sc(B6Ir)4
_chemical_formula_sum   'Er4 Mg3 Sc1 B24 Ir4'
_cell_volume   357.45128035
_cell_formula_units_Z   1
loop_
 _symmetry_equiv_pos_site_id
 _symmetry_equiv_pos_as_xyz
  1  'x, y, z'
loop_
 _atom_site_type_symbol
 _atom_site_label
 _atom_site_symmetry_multiplicity
 _atom_site_fract_x
 _atom_site_fract_y
 _atom_site_fract_z
 _atom_site_occupancy
  Er  Er0  1  0.500000  0.318497  0.414981  1
  Er  Er1  1  0.500000  0.680876  0.586461  1
  Er  Er2  1  0.500000  0.181994  0.913912  1
  Er  Er3  1  0.500000  0.818310  0.084711  1
  Mg  Mg4  1  0.500000  0.448043  0.117971  1
  Mg  Mg5  1  0.500000  0.552204  0.881303  1
  Mg  Mg6  1  0.500000  0.053248  0.621307  1
  Sc  Sc7  1  0.500000  0.945835  0.377918  1
  B  B8  1  0.000000  0.101880  0.472790  1
  B  B9  1  0.000000  0.898464  0.527636  1
  B  B10  1  0.000000  0.399299  0.972595  1
  B  B11  1  0.000000  0.600727  0.027152  1
  B  B12  1  0.000000  0.129913  0.319258  1
  B  B13  1  0.000000  0.871073  0.681943  1
  B  B14  1  0.000000  0.371921  0.819297  1
  B  B15  1  0.000000  0.628252  0.180014  1
  B  B16  1  0.000000  0.056126  0.065637  1
  B  B17  1  0.000000  0.944589  0.933512  1
  B  B18  1  0.000000  0.444811  0.566853  1
  B  B19  1  0.000000  0.554843  0.434215  1
  B  B20  1  0.000000  0.480865  0.284512  1
  B  B21  1  0.000000  0.518667  0.715400  1
  B  B22  1  0.000000  0.019204  0.785000  1
  B  B23  1  0.000000  0.981280  0.214967  1
  B  B24  1  0.000000  0.255256  0.078654  1
  B  B25  1  0.000000  0.744914  0.920357  1
  B  B26  1  0.000000  0.245964  0.580265  1
  B  B27  1  0.000000  0.753762  0.421419  1
  B  B28  1  0.000000  0.295226  0.234793  1
  B  B29  1  0.000000  0.705457  0.765433  1
  B  B30  1  0.000000  0.206050  0.735242  1
  B  B31  1  0.000000  0.793472  0.264751  1
  Ir  Ir32  1  0.500000  0.141263  0.181700  1
  Ir  Ir33  1  0.500000  0.859891  0.817695  1
  Ir  Ir34  1  0.500000  0.359355  0.681174  1
  Ir  Ir35  1  0.500000  0.638467  0.319169  1
