# generated using pymatgen
data_Dy6ScCo16ReP12
_symmetry_space_group_name_H-M   'P 1'
_cell_length_a   3.71410700
_cell_length_b   10.58633500
_cell_length_c   12.29835500
_cell_angle_alpha   90.00000000
_cell_angle_beta   90.00000000
_cell_angle_gamma   90.00000000
_symmetry_Int_Tables_number   1
_chemical_formula_structural   Dy6ScCo16ReP12
_chemical_formula_sum   'Dy6 Sc1 Co16 Re1 P12'
_cell_volume   483.55632602
_cell_formula_units_Z   1
loop_
 _symmetry_equiv_pos_site_id
 _symmetry_equiv_pos_as_xyz
  1  'x, y, z'
loop_
 _atom_site_type_symbol
 _atom_site_label
 _atom_site_symmetry_multiplicity
 _atom_site_fract_x
 _atom_site_fract_y
 _atom_site_fract_z
 _atom_site_occupancy
  Dy  Dy0  1  0.000000  0.500000  0.526915  1
  Dy  Dy1  1  0.500000  0.000000  0.475498  1
  Dy  Dy2  1  0.500000  0.821067  0.205987  1
  Dy  Dy3  1  0.500000  0.178933  0.205987  1
  Dy  Dy4  1  0.000000  0.681355  0.795103  1
  Dy  Dy5  1  0.000000  0.318645  0.795103  1
  Sc  Sc6  1  0.500000  0.500000  0.153218  1
  Co  Co7  1  0.500000  0.500000  0.703434  1
  Co  Co8  1  0.000000  0.000000  0.297066  1
  Co  Co9  1  0.000000  0.500000  0.984351  1
  Co  Co10  1  0.500000  0.000000  0.009371  1
  Co  Co11  1  0.500000  0.326946  0.990231  1
  Co  Co12  1  0.500000  0.673054  0.990231  1
  Co  Co13  1  0.000000  0.163360  0.005391  1
  Co  Co14  1  0.000000  0.836640  0.005391  1
  Co  Co15  1  0.500000  0.294260  0.434443  1
  Co  Co16  1  0.500000  0.705740  0.434443  1
  Co  Co17  1  0.000000  0.202550  0.570528  1
  Co  Co18  1  0.000000  0.797450  0.570528  1
  Co  Co19  1  0.500000  0.880171  0.707033  1
  Co  Co20  1  0.500000  0.119829  0.707033  1
  Co  Co21  1  0.000000  0.623119  0.296261  1
  Co  Co22  1  0.000000  0.376881  0.296261  1
  Re  Re23  1  0.000000  0.000000  0.841023  1
  P  P24  1  0.500000  0.500000  0.883467  1
  P  P25  1  0.000000  0.000000  0.117956  1
  P  P26  1  0.500000  0.500000  0.358002  1
  P  P27  1  0.000000  0.000000  0.649451  1
  P  P28  1  0.500000  0.310221  0.617157  1
  P  P29  1  0.500000  0.689779  0.617157  1
  P  P30  1  0.000000  0.188725  0.385596  1
  P  P31  1  0.000000  0.811275  0.385596  1
  P  P32  1  0.500000  0.846812  0.889029  1
  P  P33  1  0.500000  0.153188  0.889029  1
  P  P34  1  0.000000  0.661672  0.103364  1
  P  P35  1  0.000000  0.338328  0.103364  1
