# generated using pymatgen
data_Er6FeCo15(MoP6)2
_symmetry_space_group_name_H-M   'P 1'
_cell_length_a   3.70593200
_cell_length_b   10.55205400
_cell_length_c   12.19448200
_cell_angle_alpha   90.00000000
_cell_angle_beta   90.00000000
_cell_angle_gamma   90.00000000
_symmetry_Int_Tables_number   1
_chemical_formula_structural   Er6FeCo15(MoP6)2
_chemical_formula_sum   'Er6 Fe1 Co15 Mo2 P12'
_cell_volume   476.86759147
_cell_formula_units_Z   1
loop_
 _symmetry_equiv_pos_site_id
 _symmetry_equiv_pos_as_xyz
  1  'x, y, z'
loop_
 _atom_site_type_symbol
 _atom_site_label
 _atom_site_symmetry_multiplicity
 _atom_site_fract_x
 _atom_site_fract_y
 _atom_site_fract_z
 _atom_site_occupancy
  Er  Er0  1  0.750000  0.250000  0.475353  1
  Er  Er1  1  0.250000  0.750000  0.524686  1
  Er  Er2  1  0.250000  0.931432  0.795381  1
  Er  Er3  1  0.250000  0.568568  0.795381  1
  Er  Er4  1  0.750000  0.070018  0.204208  1
  Er  Er5  1  0.750000  0.429982  0.204208  1
  Fe  Fe6  1  0.750000  0.250000  0.013791  1
  Co  Co7  1  0.250000  0.250000  0.300198  1
  Co  Co8  1  0.750000  0.750000  0.700586  1
  Co  Co9  1  0.250000  0.750000  0.985774  1
  Co  Co10  1  0.250000  0.419335  0.009391  1
  Co  Co11  1  0.250000  0.080665  0.009391  1
  Co  Co12  1  0.750000  0.583060  0.990286  1
  Co  Co13  1  0.750000  0.916940  0.990286  1
  Co  Co14  1  0.250000  0.454405  0.568287  1
  Co  Co15  1  0.250000  0.045595  0.568287  1
  Co  Co16  1  0.750000  0.545665  0.431339  1
  Co  Co17  1  0.750000  0.954335  0.431339  1
  Co  Co18  1  0.250000  0.872025  0.293608  1
  Co  Co19  1  0.250000  0.627975  0.293608  1
  Co  Co20  1  0.750000  0.127463  0.706423  1
  Co  Co21  1  0.750000  0.372537  0.706423  1
  Mo  Mo22  1  0.250000  0.250000  0.843603  1
  Mo  Mo23  1  0.750000  0.750000  0.156766  1
  P  P24  1  0.250000  0.250000  0.118126  1
  P  P25  1  0.750000  0.750000  0.880244  1
  P  P26  1  0.250000  0.250000  0.650130  1
  P  P27  1  0.750000  0.750000  0.350167  1
  P  P28  1  0.250000  0.438555  0.383643  1
  P  P29  1  0.250000  0.061445  0.383643  1
  P  P30  1  0.750000  0.561624  0.616214  1
  P  P31  1  0.750000  0.938376  0.616214  1
  P  P32  1  0.250000  0.905754  0.107549  1
  P  P33  1  0.250000  0.594246  0.107549  1
  P  P34  1  0.750000  0.095106  0.893959  1
  P  P35  1  0.750000  0.404894  0.893959  1
