# generated using pymatgen
data_Ba(SiPt)4
_symmetry_space_group_name_H-M   'P 1'
_cell_length_a   6.48625493
_cell_length_b   6.48626340
_cell_length_c   6.48626209
_cell_angle_alpha   97.45954005
_cell_angle_beta   97.45949422
_cell_angle_gamma   137.76101441
_symmetry_Int_Tables_number   1
_chemical_formula_structural   Ba(SiPt)4
_chemical_formula_sum   'Ba1 Si4 Pt4'
_cell_volume   171.11998361
_cell_formula_units_Z   1
loop_
 _symmetry_equiv_pos_site_id
 _symmetry_equiv_pos_as_xyz
  1  'x, y, z'
loop_
 _atom_site_type_symbol
 _atom_site_label
 _atom_site_symmetry_multiplicity
 _atom_site_fract_x
 _atom_site_fract_y
 _atom_site_fract_z
 _atom_site_occupancy
  Ba  Ba0  1  0.299397  0.299397  0.000000  1
  Si  Si1  1  0.384054  0.885936  0.269985  1
  Si  Si2  1  0.615951  0.114069  0.730015  1
  Si  Si3  1  0.114069  0.384054  0.498118  1
  Si  Si4  1  0.885936  0.615951  0.501882  1
  Pt  Pt5  1  0.169842  0.675662  0.845208  1
  Pt  Pt6  1  0.830454  0.324633  0.154792  1
  Pt  Pt7  1  0.324634  0.169842  0.494179  1
  Pt  Pt8  1  0.675662  0.830454  0.505821  1
