# generated using pymatgen
data_Yb3(GdSn2)2
_symmetry_space_group_name_H-M   'P 1'
_cell_length_a   7.73182900
_cell_length_b   8.28421800
_cell_length_c   15.81265600
_cell_angle_alpha   90.00000000
_cell_angle_beta   90.00000000
_cell_angle_gamma   90.00000000
_symmetry_Int_Tables_number   1
_chemical_formula_structural   Yb3(GdSn2)2
_chemical_formula_sum   'Yb12 Gd8 Sn16'
_cell_volume   1012.83472430
_cell_formula_units_Z   4
loop_
 _symmetry_equiv_pos_site_id
 _symmetry_equiv_pos_as_xyz
  1  'x, y, z'
loop_
 _atom_site_type_symbol
 _atom_site_label
 _atom_site_symmetry_multiplicity
 _atom_site_fract_x
 _atom_site_fract_y
 _atom_site_fract_z
 _atom_site_occupancy
  Yb  Yb0  1  0.505626  0.686720  0.592924  1
  Yb  Yb1  1  0.005626  0.813280  0.907076  1
  Yb  Yb2  1  0.494374  0.313280  0.092924  1
  Yb  Yb3  1  0.994374  0.186720  0.407076  1
  Yb  Yb4  1  0.494374  0.313280  0.407076  1
  Yb  Yb5  1  0.994374  0.186720  0.092924  1
  Yb  Yb6  1  0.505626  0.686720  0.907076  1
  Yb  Yb7  1  0.005626  0.813280  0.592924  1
  Yb  Yb8  1  0.841027  0.509616  0.750000  1
  Yb  Yb9  1  0.341027  0.990384  0.750000  1
  Yb  Yb10  1  0.158973  0.490384  0.250000  1
  Yb  Yb11  1  0.658973  0.009616  0.250000  1
  Gd  Gd12  1  0.674094  0.166426  0.621989  1
  Gd  Gd13  1  0.174094  0.333574  0.878011  1
  Gd  Gd14  1  0.325906  0.833574  0.121989  1
  Gd  Gd15  1  0.825906  0.666426  0.378011  1
  Gd  Gd16  1  0.325906  0.833574  0.378011  1
  Gd  Gd17  1  0.825906  0.666426  0.121989  1
  Gd  Gd18  1  0.674094  0.166426  0.878011  1
  Gd  Gd19  1  0.174094  0.333574  0.621989  1
  Sn  Sn20  1  0.670373  0.965494  0.458713  1
  Sn  Sn21  1  0.170373  0.534506  0.041287  1
  Sn  Sn22  1  0.329627  0.034506  0.958713  1
  Sn  Sn23  1  0.829627  0.465494  0.541287  1
  Sn  Sn24  1  0.329627  0.034506  0.541287  1
  Sn  Sn25  1  0.829627  0.465494  0.958713  1
  Sn  Sn26  1  0.670373  0.965494  0.041287  1
  Sn  Sn27  1  0.170373  0.534506  0.458713  1
  Sn  Sn28  1  0.473993  0.381753  0.750000  1
  Sn  Sn29  1  0.973993  0.118247  0.750000  1
  Sn  Sn30  1  0.526007  0.618247  0.250000  1
  Sn  Sn31  1  0.026007  0.881753  0.250000  1
  Sn  Sn32  1  0.718908  0.867453  0.750000  1
  Sn  Sn33  1  0.218908  0.632547  0.750000  1
  Sn  Sn34  1  0.281092  0.132547  0.250000  1
  Sn  Sn35  1  0.781092  0.367453  0.250000  1
