# generated using pymatgen
data_Yb(MnC)2
_symmetry_space_group_name_H-M   'P 1'
_cell_length_a   5.44507095
_cell_length_b   5.44507161
_cell_length_c   5.44507029
_cell_angle_alpha   141.86387744
_cell_angle_beta   141.86388664
_cell_angle_gamma   55.03389360
_symmetry_Int_Tables_number   1
_chemical_formula_structural   Yb(MnC)2
_chemical_formula_sum   'Yb1 Mn2 C2'
_cell_volume   61.12335103
_cell_formula_units_Z   1
loop_
 _symmetry_equiv_pos_site_id
 _symmetry_equiv_pos_as_xyz
  1  'x, y, z'
loop_
 _atom_site_type_symbol
 _atom_site_label
 _atom_site_symmetry_multiplicity
 _atom_site_fract_x
 _atom_site_fract_y
 _atom_site_fract_z
 _atom_site_occupancy
  Yb  Yb0  1  0.000000  0.000000  0.000000  1
  Mn  Mn1  1  0.750000  0.250000  0.500000  1
  Mn  Mn2  1  0.250000  0.750000  0.500000  1
  C  C3  1  0.671308  0.671308  0.000000  1
  C  C4  1  0.328692  0.328692  0.000000  1
