# generated using pymatgen
data_Pr4MgZn(CoO6)2
_symmetry_space_group_name_H-M   'P 1'
_cell_length_a   5.48707871
_cell_length_b   5.54247973
_cell_length_c   7.76957223
_cell_angle_alpha   89.86920032
_cell_angle_beta   90.23076687
_cell_angle_gamma   90.09978947
_symmetry_Int_Tables_number   1
_chemical_formula_structural   Pr4MgZn(CoO6)2
_chemical_formula_sum   'Pr4 Mg1 Zn1 Co2 O12'
_cell_volume   236.28551876
_cell_formula_units_Z   1
loop_
 _symmetry_equiv_pos_site_id
 _symmetry_equiv_pos_as_xyz
  1  'x, y, z'
loop_
 _atom_site_type_symbol
 _atom_site_label
 _atom_site_symmetry_multiplicity
 _atom_site_fract_x
 _atom_site_fract_y
 _atom_site_fract_z
 _atom_site_occupancy
  Pr  Pr0  1  0.009905  0.956082  0.749625  1
  Pr  Pr1  1  0.488153  0.455972  0.749495  1
  Pr  Pr2  1  0.511847  0.544028  0.250505  1
  Pr  Pr3  1  0.990095  0.043918  0.250375  1
  Mg  Mg4  1  0.500000  0.000000  0.500000  1
  Zn  Zn5  1  0.000000  0.500000  0.000000  1
  Co  Co6  1  0.000000  0.500000  0.500000  1
  Co  Co7  1  0.500000  0.000000  0.000000  1
  O  O8  1  0.726171  0.292747  0.458464  1
  O  O9  1  0.775015  0.795034  0.043313  1
  O  O10  1  0.203340  0.227147  0.542003  1
  O  O11  1  0.298722  0.726609  0.956725  1
  O  O12  1  0.273829  0.707253  0.541536  1
  O  O13  1  0.224985  0.204966  0.956687  1
  O  O14  1  0.796660  0.772853  0.457997  1
  O  O15  1  0.701278  0.273391  0.043275  1
  O  O16  1  0.079274  0.483806  0.260993  1
  O  O17  1  0.422589  0.983731  0.239929  1
  O  O18  1  0.577411  0.016269  0.760071  1
  O  O19  1  0.920726  0.516194  0.739007  1
