# generated using pymatgen
data_BaSrBHN2
_symmetry_space_group_name_H-M   'P 1'
_cell_length_a   4.04910800
_cell_length_b   10.64335100
_cell_length_c   10.02733300
_cell_angle_alpha   90.00000000
_cell_angle_beta   90.00000000
_cell_angle_gamma   90.00000000
_symmetry_Int_Tables_number   1
_chemical_formula_structural   BaSrBHN2
_chemical_formula_sum   'Ba4 Sr4 B4 H4 N8'
_cell_volume   432.13872190
_cell_formula_units_Z   4
loop_
 _symmetry_equiv_pos_site_id
 _symmetry_equiv_pos_as_xyz
  1  'x, y, z'
loop_
 _atom_site_type_symbol
 _atom_site_label
 _atom_site_symmetry_multiplicity
 _atom_site_fract_x
 _atom_site_fract_y
 _atom_site_fract_z
 _atom_site_occupancy
  Ba  Ba0  1  0.250000  0.678072  0.507062  1
  Ba  Ba1  1  0.750000  0.321928  0.492938  1
  Ba  Ba2  1  0.250000  0.178072  0.992938  1
  Ba  Ba3  1  0.750000  0.821928  0.007062  1
  Sr  Sr4  1  0.250000  0.532637  0.160488  1
  Sr  Sr5  1  0.750000  0.467363  0.839512  1
  Sr  Sr6  1  0.250000  0.032637  0.339512  1
  Sr  Sr7  1  0.750000  0.967363  0.660488  1
  B  B8  1  0.250000  0.716185  0.825118  1
  B  B9  1  0.750000  0.283815  0.174882  1
  B  B10  1  0.250000  0.216185  0.674882  1
  B  B11  1  0.750000  0.783815  0.325118  1
  H  H12  1  0.250000  0.949192  0.107255  1
  H  H13  1  0.750000  0.050808  0.892745  1
  H  H14  1  0.250000  0.449192  0.392745  1
  H  H15  1  0.750000  0.550808  0.607255  1
  N  N16  1  0.750000  0.681106  0.246980  1
  N  N17  1  0.250000  0.318894  0.753020  1
  N  N18  1  0.750000  0.181106  0.253020  1
  N  N19  1  0.250000  0.818894  0.746980  1
  N  N20  1  0.750000  0.874535  0.419768  1
  N  N21  1  0.250000  0.125465  0.580232  1
  N  N22  1  0.750000  0.374535  0.080232  1
  N  N23  1  0.250000  0.625465  0.919768  1
