# generated using pymatgen
data_Tm7Sc(AlRu)8
_symmetry_space_group_name_H-M   'P 1'
_cell_length_a   4.03099800
_cell_length_b   6.91768900
_cell_length_c   15.85707211
_cell_angle_alpha   90.31260581
_cell_angle_beta   90.00000000
_cell_angle_gamma   90.00000000
_symmetry_Int_Tables_number   1
_chemical_formula_structural   Tm7Sc(AlRu)8
_chemical_formula_sum   'Tm7 Sc1 Al8 Ru8'
_cell_volume   442.17089553
_cell_formula_units_Z   1
loop_
 _symmetry_equiv_pos_site_id
 _symmetry_equiv_pos_as_xyz
  1  'x, y, z'
loop_
 _atom_site_type_symbol
 _atom_site_label
 _atom_site_symmetry_multiplicity
 _atom_site_fract_x
 _atom_site_fract_y
 _atom_site_fract_z
 _atom_site_occupancy
  Tm  Tm0  1  0.750000  0.962569  0.219060  1
  Tm  Tm1  1  0.250000  0.159704  0.565910  1
  Tm  Tm2  1  0.750000  0.844213  0.436699  1
  Tm  Tm3  1  0.750000  0.462472  0.281399  1
  Tm  Tm4  1  0.750000  0.341709  0.063357  1
  Tm  Tm5  1  0.250000  0.654814  0.934229  1
  Tm  Tm6  1  0.250000  0.036668  0.780044  1
  Sc  Sc7  1  0.250000  0.542195  0.716246  1
  Al  Al8  1  0.750000  0.504037  0.568454  1
  Al  Al9  1  0.750000  0.365710  0.846411  1
  Al  Al10  1  0.750000  0.997876  0.932273  1
  Al  Al11  1  0.750000  0.865709  0.652864  1
  Al  Al12  1  0.250000  0.499906  0.434859  1
  Al  Al13  1  0.250000  0.997669  0.065566  1
  Al  Al14  1  0.250000  0.633588  0.151559  1
  Al  Al15  1  0.250000  0.134488  0.348891  1
  Ru  Ru16  1  0.750000  0.737126  0.809897  1
  Ru  Ru17  1  0.250000  0.234567  0.937031  1
  Ru  Ru18  1  0.750000  0.263711  0.439269  1
  Ru  Ru19  1  0.250000  0.752622  0.313058  1
  Ru  Ru20  1  0.750000  0.761489  0.061417  1
  Ru  Ru21  1  0.750000  0.255987  0.689351  1
  Ru  Ru22  1  0.250000  0.253209  0.187650  1
  Ru  Ru23  1  0.250000  0.737963  0.564511  1
