# generated using pymatgen
data_Cs5BaTaP4
_symmetry_space_group_name_H-M   'P 1'
_cell_length_a   11.02235630
_cell_length_b   11.02235603
_cell_length_c   8.38441741
_cell_angle_alpha   87.98629969
_cell_angle_beta   87.98629860
_cell_angle_gamma   121.09811380
_symmetry_Int_Tables_number   1
_chemical_formula_structural   Cs5BaTaP4
_chemical_formula_sum   'Cs10 Ba2 Ta2 P8'
_cell_volume   870.01699240
_cell_formula_units_Z   2
loop_
 _symmetry_equiv_pos_site_id
 _symmetry_equiv_pos_as_xyz
  1  'x, y, z'
loop_
 _atom_site_type_symbol
 _atom_site_label
 _atom_site_symmetry_multiplicity
 _atom_site_fract_x
 _atom_site_fract_y
 _atom_site_fract_z
 _atom_site_occupancy
  Cs  Cs0  1  0.461551  0.526809  0.493167  1
  Cs  Cs1  1  0.067626  0.530805  0.498926  1
  Cs  Cs2  1  0.526809  0.461551  0.993167  1
  Cs  Cs3  1  0.530805  0.067626  0.998926  1
  Cs  Cs4  1  0.865262  0.141175  0.679460  1
  Cs  Cs5  1  0.290386  0.149538  0.719228  1
  Cs  Cs6  1  0.855386  0.713728  0.652929  1
  Cs  Cs7  1  0.141175  0.865262  0.179460  1
  Cs  Cs8  1  0.713728  0.855386  0.152929  1
  Cs  Cs9  1  0.149538  0.290386  0.219228  1
  Ba  Ba10  1  0.464530  0.935509  0.495775  1
  Ba  Ba11  1  0.935509  0.464530  0.995775  1
  Ta  Ta12  1  0.671568  0.329017  0.394325  1
  Ta  Ta13  1  0.329017  0.671568  0.894325  1
  P  P14  1  0.688307  0.338230  0.682252  1
  P  P15  1  0.338230  0.688307  0.182252  1
  P  P16  1  0.785391  0.205324  0.293250  1
  P  P17  1  0.423058  0.195515  0.334634  1
  P  P18  1  0.793686  0.567598  0.270342  1
  P  P19  1  0.205324  0.785391  0.793250  1
  P  P20  1  0.567598  0.793686  0.770342  1
  P  P21  1  0.195515  0.423058  0.834634  1
