# generated using pymatgen
data_La4Sc4Re(TcB8)3
_symmetry_space_group_name_H-M   'P 1'
_cell_length_a   3.68731400
_cell_length_b   9.11351781
_cell_length_c   11.62515034
_cell_angle_alpha   90.02220394
_cell_angle_beta   90.00000000
_cell_angle_gamma   90.00000000
_symmetry_Int_Tables_number   1
_chemical_formula_structural   La4Sc4Re(TcB8)3
_chemical_formula_sum   'La4 Sc4 Re1 Tc3 B24'
_cell_volume   390.65619403
_cell_formula_units_Z   1
loop_
 _symmetry_equiv_pos_site_id
 _symmetry_equiv_pos_as_xyz
  1  'x, y, z'
loop_
 _atom_site_type_symbol
 _atom_site_label
 _atom_site_symmetry_multiplicity
 _atom_site_fract_x
 _atom_site_fract_y
 _atom_site_fract_z
 _atom_site_occupancy
  La  La0  1  0.000000  0.322617  0.415930  1
  La  La1  1  0.000000  0.677191  0.583716  1
  La  La2  1  0.000000  0.822609  0.084451  1
  La  La3  1  0.000000  0.177990  0.915890  1
  Sc  Sc4  1  0.000000  0.943377  0.366668  1
  Sc  Sc5  1  0.000000  0.056669  0.632754  1
  Sc  Sc6  1  0.000000  0.443072  0.133473  1
  Sc  Sc7  1  0.000000  0.556284  0.867019  1
  Re  Re8  1  0.000000  0.857354  0.815507  1
  Tc  Tc9  1  0.000000  0.643007  0.315253  1
  Tc  Tc10  1  0.000000  0.357017  0.684722  1
  Tc  Tc11  1  0.000000  0.143028  0.184662  1
  B  B12  1  0.500000  0.558717  0.426726  1
  B  B13  1  0.500000  0.441162  0.573217  1
  B  B14  1  0.500000  0.058649  0.073086  1
  B  B15  1  0.500000  0.941555  0.927164  1
  B  B16  1  0.500000  0.755547  0.413303  1
  B  B17  1  0.500000  0.244553  0.586677  1
  B  B18  1  0.500000  0.255543  0.086737  1
  B  B19  1  0.500000  0.744404  0.913568  1
  B  B20  1  0.500000  0.794928  0.264818  1
  B  B21  1  0.500000  0.205097  0.735200  1
  B  B22  1  0.500000  0.294881  0.235289  1
  B  B23  1  0.500000  0.704792  0.764540  1
  B  B24  1  0.500000  0.628167  0.183506  1
  B  B25  1  0.500000  0.371829  0.816525  1
  B  B26  1  0.500000  0.128270  0.316552  1
  B  B27  1  0.500000  0.871675  0.683188  1
  B  B28  1  0.500000  0.984763  0.215550  1
  B  B29  1  0.500000  0.015660  0.784374  1
  B  B30  1  0.500000  0.484671  0.284475  1
  B  B31  1  0.500000  0.515230  0.715554  1
  B  B32  1  0.500000  0.591895  0.024251  1
  B  B33  1  0.500000  0.407961  0.976017  1
  B  B34  1  0.500000  0.091973  0.475707  1
  B  B35  1  0.500000  0.907864  0.523930  1
