# generated using pymatgen
data_CaHo3U4(ReB6)4
_symmetry_space_group_name_H-M   'P 1'
_cell_length_a   3.63576800
_cell_length_b   9.29056827
_cell_length_c   11.41522621
_cell_angle_alpha   90.02195385
_cell_angle_beta   90.00000000
_cell_angle_gamma   90.00000000
_symmetry_Int_Tables_number   1
_chemical_formula_structural   CaHo3U4(ReB6)4
_chemical_formula_sum   'Ca1 Ho3 U4 Re4 B24'
_cell_volume   385.58748727
_cell_formula_units_Z   1
loop_
 _symmetry_equiv_pos_site_id
 _symmetry_equiv_pos_as_xyz
  1  'x, y, z'
loop_
 _atom_site_type_symbol
 _atom_site_label
 _atom_site_symmetry_multiplicity
 _atom_site_fract_x
 _atom_site_fract_y
 _atom_site_fract_z
 _atom_site_occupancy
  Ca  Ca0  1  0.000000  0.162326  0.908075  1
  Ho  Ho1  1  0.000000  0.336973  0.408157  1
  Ho  Ho2  1  0.000000  0.662776  0.592528  1
  Ho  Ho3  1  0.000000  0.837719  0.091533  1
  U  U4  1  0.000000  0.956635  0.396294  1
  U  U5  1  0.000000  0.043852  0.604482  1
  U  U6  1  0.000000  0.455492  0.103609  1
  U  U7  1  0.000000  0.543372  0.895687  1
  Re  Re8  1  0.000000  0.645594  0.318330  1
  Re  Re9  1  0.000000  0.355383  0.680685  1
  Re  Re10  1  0.000000  0.146110  0.182937  1
  Re  Re11  1  0.000000  0.852084  0.817861  1
  B  B12  1  0.500000  0.551817  0.430946  1
  B  B13  1  0.500000  0.448418  0.568564  1
  B  B14  1  0.500000  0.051955  0.069307  1
  B  B15  1  0.500000  0.947504  0.930778  1
  B  B16  1  0.500000  0.743054  0.423070  1
  B  B17  1  0.500000  0.257311  0.576728  1
  B  B18  1  0.500000  0.243357  0.077671  1
  B  B19  1  0.500000  0.756701  0.923011  1
  B  B20  1  0.500000  0.802105  0.275095  1
  B  B21  1  0.500000  0.198375  0.724286  1
  B  B22  1  0.500000  0.302143  0.225127  1
  B  B23  1  0.500000  0.697259  0.775157  1
  B  B24  1  0.500000  0.644313  0.188580  1
  B  B25  1  0.500000  0.356728  0.810736  1
  B  B26  1  0.500000  0.144293  0.311596  1
  B  B27  1  0.500000  0.855156  0.688776  1
  B  B28  1  0.500000  0.989227  0.219398  1
  B  B29  1  0.500000  0.009846  0.780515  1
  B  B30  1  0.500000  0.489190  0.280613  1
  B  B31  1  0.500000  0.510975  0.719079  1
  B  B32  1  0.500000  0.639758  0.038979  1
  B  B33  1  0.500000  0.362386  0.961529  1
  B  B34  1  0.500000  0.140082  0.461318  1
  B  B35  1  0.500000  0.859731  0.538964  1
