# generated using pymatgen
data_Cs2Zn(GeO3)2
_symmetry_space_group_name_H-M   'P 1'
_cell_length_a   6.16433598
_cell_length_b   6.16433654
_cell_length_c   11.26033300
_cell_angle_alpha   90.00000000
_cell_angle_beta   90.00000000
_cell_angle_gamma   111.01554808
_symmetry_Int_Tables_number   1
_chemical_formula_structural   Cs2Zn(GeO3)2
_chemical_formula_sum   'Cs4 Zn2 Ge4 O12'
_cell_volume   399.42050482
_cell_formula_units_Z   2
loop_
 _symmetry_equiv_pos_site_id
 _symmetry_equiv_pos_as_xyz
  1  'x, y, z'
loop_
 _atom_site_type_symbol
 _atom_site_label
 _atom_site_symmetry_multiplicity
 _atom_site_fract_x
 _atom_site_fract_y
 _atom_site_fract_z
 _atom_site_occupancy
  Cs  Cs0  1  0.787534  0.443723  0.924105  1
  Cs  Cs1  1  0.556277  0.212466  0.575895  1
  Cs  Cs2  1  0.212466  0.556277  0.424105  1
  Cs  Cs3  1  0.443723  0.787534  0.075895  1
  Zn  Zn4  1  0.691396  0.308604  0.250000  1
  Zn  Zn5  1  0.308604  0.691396  0.750000  1
  Ge  Ge6  1  0.828136  0.864615  0.358401  1
  Ge  Ge7  1  0.135385  0.171864  0.141599  1
  Ge  Ge8  1  0.171864  0.135385  0.858401  1
  Ge  Ge9  1  0.864615  0.828136  0.641599  1
  O  O10  1  0.627579  0.001030  0.330648  1
  O  O11  1  0.559221  0.711224  0.634115  1
  O  O12  1  0.711224  0.559221  0.365885  1
  O  O13  1  0.372421  0.998970  0.830648  1
  O  O14  1  0.973940  0.973940  0.500000  1
  O  O15  1  0.440779  0.288776  0.134115  1
  O  O16  1  0.059768  0.940232  0.250000  1
  O  O17  1  0.288776  0.440779  0.865885  1
  O  O18  1  0.026060  0.026060  0.000000  1
  O  O19  1  0.940232  0.059768  0.750000  1
  O  O20  1  0.998970  0.372421  0.169352  1
  O  O21  1  0.001030  0.627579  0.669352  1
