# generated using pymatgen
data_PaNbO5
_symmetry_space_group_name_H-M   'P 1'
_cell_length_a   4.17840500
_cell_length_b   6.53179100
_cell_length_c   7.59900400
_cell_angle_alpha   90.00000000
_cell_angle_beta   90.00000000
_cell_angle_gamma   90.00000000
_symmetry_Int_Tables_number   1
_chemical_formula_structural   PaNbO5
_chemical_formula_sum   'Pa2 Nb2 O10'
_cell_volume   207.39557482
_cell_formula_units_Z   2
loop_
 _symmetry_equiv_pos_site_id
 _symmetry_equiv_pos_as_xyz
  1  'x, y, z'
loop_
 _atom_site_type_symbol
 _atom_site_label
 _atom_site_symmetry_multiplicity
 _atom_site_fract_x
 _atom_site_fract_y
 _atom_site_fract_z
 _atom_site_occupancy
  Pa  Pa0  1  0.000000  0.547505  0.250000  1
  Pa  Pa1  1  0.000000  0.452495  0.750000  1
  Nb  Nb2  1  0.920938  0.000000  0.500000  1
  Nb  Nb3  1  0.079062  0.000000  0.000000  1
  O  O4  1  0.000000  0.911473  0.250000  1
  O  O5  1  0.000000  0.088527  0.750000  1
  O  O6  1  0.500000  0.549875  0.250000  1
  O  O7  1  0.500000  0.450125  0.750000  1
  O  O8  1  0.993461  0.695832  0.543464  1
  O  O9  1  0.993461  0.304168  0.456536  1
  O  O10  1  0.006539  0.695832  0.956536  1
  O  O11  1  0.006539  0.304168  0.043464  1
  O  O12  1  0.507784  0.000000  0.000000  1
  O  O13  1  0.492216  0.000000  0.500000  1
