# generated using pymatgen
data_Gd2Tm2ReB12Ru
_symmetry_space_group_name_H-M   'P 1'
_cell_length_a   3.66198900
_cell_length_b   9.13761941
_cell_length_c   11.54397001
_cell_angle_alpha   89.81197468
_cell_angle_beta   90.00000000
_cell_angle_gamma   90.00000000
_symmetry_Int_Tables_number   1
_chemical_formula_structural   Gd2Tm2ReB12Ru
_chemical_formula_sum   'Gd4 Tm4 Re2 B24 Ru2'
_cell_volume   386.28064880
_cell_formula_units_Z   2
loop_
 _symmetry_equiv_pos_site_id
 _symmetry_equiv_pos_as_xyz
  1  'x, y, z'
loop_
 _atom_site_type_symbol
 _atom_site_label
 _atom_site_symmetry_multiplicity
 _atom_site_fract_x
 _atom_site_fract_y
 _atom_site_fract_z
 _atom_site_occupancy
  Gd  Gd0  1  0.000000  0.324010  0.415546  1
  Gd  Gd1  1  0.000000  0.675990  0.584454  1
  Gd  Gd2  1  0.000000  0.821036  0.087043  1
  Gd  Gd3  1  0.000000  0.178964  0.912957  1
  Tm  Tm4  1  0.000000  0.942961  0.370760  1
  Tm  Tm5  1  0.000000  0.057039  0.629240  1
  Tm  Tm6  1  0.000000  0.442931  0.129532  1
  Tm  Tm7  1  0.000000  0.557069  0.870468  1
  Re  Re8  1  0.000000  0.638969  0.319215  1
  Re  Re9  1  0.000000  0.361031  0.680785  1
  B  B10  1  0.500000  0.553795  0.432219  1
  B  B11  1  0.500000  0.446205  0.567781  1
  B  B12  1  0.500000  0.054615  0.067848  1
  B  B13  1  0.500000  0.945385  0.932152  1
  B  B14  1  0.500000  0.749825  0.417935  1
  B  B15  1  0.500000  0.250175  0.582065  1
  B  B16  1  0.500000  0.249535  0.082146  1
  B  B17  1  0.500000  0.750465  0.917854  1
  B  B18  1  0.500000  0.792062  0.265047  1
  B  B19  1  0.500000  0.207938  0.734953  1
  B  B20  1  0.500000  0.290868  0.234311  1
  B  B21  1  0.500000  0.709132  0.765689  1
  B  B22  1  0.500000  0.630497  0.184548  1
  B  B23  1  0.500000  0.369503  0.815452  1
  B  B24  1  0.500000  0.130214  0.314505  1
  B  B25  1  0.500000  0.869786  0.685495  1
  B  B26  1  0.500000  0.983457  0.212513  1
  B  B27  1  0.500000  0.016543  0.787487  1
  B  B28  1  0.500000  0.482578  0.286852  1
  B  B29  1  0.500000  0.517422  0.713148  1
  B  B30  1  0.500000  0.600746  0.027487  1
  B  B31  1  0.500000  0.399254  0.972513  1
  B  B32  1  0.500000  0.100572  0.472216  1
  B  B33  1  0.500000  0.899428  0.527784  1
  Ru  Ru34  1  0.000000  0.138556  0.179712  1
  Ru  Ru35  1  0.000000  0.861444  0.820288  1
