# generated using pymatgen
data_UPa4Tc7
_symmetry_space_group_name_H-M   'P 1'
_cell_length_a   5.14931186
_cell_length_b   5.14931285
_cell_length_c   9.24711800
_cell_angle_alpha   90.00000000
_cell_angle_beta   90.00000000
_cell_angle_gamma   111.95430772
_symmetry_Int_Tables_number   1
_chemical_formula_structural   UPa4Tc7
_chemical_formula_sum   'U1 Pa4 Tc7'
_cell_volume   227.41049511
_cell_formula_units_Z   1
loop_
 _symmetry_equiv_pos_site_id
 _symmetry_equiv_pos_as_xyz
  1  'x, y, z'
loop_
 _atom_site_type_symbol
 _atom_site_label
 _atom_site_symmetry_multiplicity
 _atom_site_fract_x
 _atom_site_fract_y
 _atom_site_fract_z
 _atom_site_occupancy
  U  U0  1  0.845710  0.154290  0.250000  1
  Pa  Pa1  1  0.340240  0.659760  0.443436  1
  Pa  Pa2  1  0.657446  0.342554  0.571765  1
  Pa  Pa3  1  0.657446  0.342554  0.928235  1
  Pa  Pa4  1  0.340240  0.659760  0.056564  1
  Tc  Tc5  1  0.994532  0.005468  0.503771  1
  Tc  Tc6  1  0.994532  0.005468  0.996229  1
  Tc  Tc7  1  0.850535  0.645514  0.250000  1
  Tc  Tc8  1  0.354486  0.149465  0.250000  1
  Tc  Tc9  1  0.159000  0.841000  0.750000  1
  Tc  Tc10  1  0.157395  0.351562  0.750000  1
  Tc  Tc11  1  0.648438  0.842605  0.750000  1
