# generated using pymatgen
data_LiNd3Ag2SnGe2
_symmetry_space_group_name_H-M   'P 1'
_cell_length_a   7.38220812
_cell_length_b   7.35650946
_cell_length_c   4.45769500
_cell_angle_alpha   90.00000000
_cell_angle_beta   90.00000000
_cell_angle_gamma   119.88490399
_symmetry_Int_Tables_number   1
_chemical_formula_structural   LiNd3Ag2SnGe2
_chemical_formula_sum   'Li1 Nd3 Ag2 Sn1 Ge2'
_cell_volume   209.89475428
_cell_formula_units_Z   1
loop_
 _symmetry_equiv_pos_site_id
 _symmetry_equiv_pos_as_xyz
  1  'x, y, z'
loop_
 _atom_site_type_symbol
 _atom_site_label
 _atom_site_symmetry_multiplicity
 _atom_site_fract_x
 _atom_site_fract_y
 _atom_site_fract_z
 _atom_site_occupancy
  Li  Li0  1  0.000000  0.238197  0.500000  1
  Nd  Nd1  1  0.000000  0.570254  0.000000  1
  Nd  Nd2  1  0.563640  0.998766  0.000000  1
  Nd  Nd3  1  0.436360  0.435125  0.000000  1
  Ag  Ag4  1  0.251968  0.001519  0.500000  1
  Ag  Ag5  1  0.748032  0.749551  0.500000  1
  Sn  Sn6  1  0.000000  0.007200  0.000000  1
  Ge  Ge7  1  0.329284  0.664337  0.500000  1
  Ge  Ge8  1  0.670716  0.335052  0.500000  1
