# generated using pymatgen
data_K4Zr5Sn3S16
_symmetry_space_group_name_H-M   'P 1'
_cell_length_a   6.61986530
_cell_length_b   7.54811000
_cell_length_c   16.02691400
_cell_angle_alpha   90.00000000
_cell_angle_beta   90.39872764
_cell_angle_gamma   90.00000000
_symmetry_Int_Tables_number   1
_chemical_formula_structural   K4Zr5Sn3S16
_chemical_formula_sum   'K4 Zr5 Sn3 S16'
_cell_volume   800.80497608
_cell_formula_units_Z   1
loop_
 _symmetry_equiv_pos_site_id
 _symmetry_equiv_pos_as_xyz
  1  'x, y, z'
loop_
 _atom_site_type_symbol
 _atom_site_label
 _atom_site_symmetry_multiplicity
 _atom_site_fract_x
 _atom_site_fract_y
 _atom_site_fract_z
 _atom_site_occupancy
  K  K0  1  0.347257  0.000000  0.998065  1
  K  K1  1  0.647269  0.500000  0.501167  1
  K  K2  1  0.028667  0.000000  0.501040  1
  K  K3  1  0.971101  0.500000  0.001806  1
  Zr  Zr4  1  0.998363  0.500000  0.747134  1
  Zr  Zr5  1  0.499948  0.249918  0.250044  1
  Zr  Zr6  1  0.499795  0.750943  0.749788  1
  Zr  Zr7  1  0.499948  0.750082  0.250044  1
  Zr  Zr8  1  0.499795  0.249057  0.749788  1
  Sn  Sn9  1  0.004679  0.000000  0.246708  1
  Sn  Sn10  1  0.004529  0.000000  0.753041  1
  Sn  Sn11  1  0.995072  0.500000  0.253462  1
  S  S12  1  0.817111  0.248179  0.343657  1
  S  S13  1  0.820590  0.736582  0.657849  1
  S  S14  1  0.182869  0.748543  0.156435  1
  S  S15  1  0.180581  0.267876  0.842288  1
  S  S16  1  0.182869  0.251457  0.156435  1
  S  S17  1  0.180581  0.732124  0.842288  1
  S  S18  1  0.817111  0.751821  0.343657  1
  S  S19  1  0.820590  0.263418  0.657849  1
  S  S20  1  0.660960  0.000000  0.160002  1
  S  S21  1  0.646281  0.000000  0.841104  1
  S  S22  1  0.338815  0.500000  0.339916  1
  S  S23  1  0.326857  0.500000  0.658845  1
  S  S24  1  0.340014  0.000000  0.340311  1
  S  S25  1  0.355591  0.000000  0.658094  1
  S  S26  1  0.659362  0.500000  0.159868  1
  S  S27  1  0.673393  0.500000  0.839321  1
