# generated using pymatgen
data_Pr17Nd3Si15Sn
_symmetry_space_group_name_H-M   'P 1'
_cell_length_a   7.94405033
_cell_length_b   7.96223849
_cell_length_c   15.46090855
_cell_angle_alpha   89.99189976
_cell_angle_beta   90.13215052
_cell_angle_gamma   90.01664973
_symmetry_Int_Tables_number   1
_chemical_formula_structural   Pr17Nd3Si15Sn
_chemical_formula_sum   'Pr17 Nd3 Si15 Sn1'
_cell_volume   977.93727912
_cell_formula_units_Z   1
loop_
 _symmetry_equiv_pos_site_id
 _symmetry_equiv_pos_as_xyz
  1  'x, y, z'
loop_
 _atom_site_type_symbol
 _atom_site_label
 _atom_site_symmetry_multiplicity
 _atom_site_fract_x
 _atom_site_fract_y
 _atom_site_fract_z
 _atom_site_occupancy
  Pr  Pr0  1  0.480186  0.372612  0.126207  1
  Pr  Pr1  1  0.967928  0.136409  0.628538  1
  Pr  Pr2  1  0.872808  0.020928  0.877121  1
  Pr  Pr3  1  0.125370  0.980863  0.372996  1
  Pr  Pr4  1  0.523817  0.619360  0.628373  1
  Pr  Pr5  1  0.374050  0.480006  0.874518  1
  Pr  Pr6  1  0.629833  0.517188  0.370045  1
  Pr  Pr7  1  0.019660  0.873768  0.122403  1
  Pr  Pr8  1  0.626400  0.990089  0.442364  1
  Pr  Pr9  1  0.380765  0.011496  0.948521  1
  Pr  Pr10  1  0.986836  0.615981  0.554225  1
  Pr  Pr11  1  0.488415  0.879938  0.196236  1
  Pr  Pr12  1  0.518078  0.128076  0.704878  1
  Pr  Pr13  1  0.880825  0.487705  0.804779  1
  Pr  Pr14  1  0.117961  0.509343  0.300934  1
  Pr  Pr15  1  0.010764  0.378766  0.053037  1
  Pr  Pr16  1  0.307324  0.319224  0.498132  1
  Nd  Nd17  1  0.189879  0.807306  0.757342  1
  Nd  Nd18  1  0.810157  0.188731  0.248576  1
  Nd  Nd19  1  0.691118  0.690698  0.000180  1
  Si  Si20  1  0.711876  0.078688  0.060297  1
  Si  Si21  1  0.920858  0.285363  0.438671  1
  Si  Si22  1  0.421122  0.210864  0.309032  1
  Si  Si23  1  0.578620  0.786729  0.810673  1
  Si  Si24  1  0.212127  0.421630  0.690976  1
  Si  Si25  1  0.786455  0.579408  0.187671  1
  Si  Si26  1  0.078373  0.712170  0.941600  1
  Si  Si27  1  0.806535  0.828691  0.705518  1
  Si  Si28  1  0.194845  0.168919  0.202315  1
  Si  Si29  1  0.830237  0.805647  0.293689  1
  Si  Si30  1  0.334247  0.689311  0.445038  1
  Si  Si31  1  0.668114  0.304191  0.953881  1
  Si  Si32  1  0.692723  0.330410  0.542621  1
  Si  Si33  1  0.305383  0.668471  0.046756  1
  Si  Si34  1  0.170330  0.194230  0.797309  1
  Sn  Sn35  1  0.285975  0.926790  0.564546  1
