# generated using pymatgen
data_Zr2Ti4CBr12
_symmetry_space_group_name_H-M   'P 1'
_cell_length_a   8.50248077
_cell_length_b   8.47478709
_cell_length_c   8.76775534
_cell_angle_alpha   106.98506444
_cell_angle_beta   106.54387411
_cell_angle_gamma   106.57536027
_symmetry_Int_Tables_number   1
_chemical_formula_structural   Zr2Ti4CBr12
_chemical_formula_sum   'Zr2 Ti4 C1 Br12'
_cell_volume   530.36810203
_cell_formula_units_Z   1
loop_
 _symmetry_equiv_pos_site_id
 _symmetry_equiv_pos_as_xyz
  1  'x, y, z'
loop_
 _atom_site_type_symbol
 _atom_site_label
 _atom_site_symmetry_multiplicity
 _atom_site_fract_x
 _atom_site_fract_y
 _atom_site_fract_z
 _atom_site_occupancy
  Zr  Zr0  1  0.711425  0.905192  0.970466  1
  Zr  Zr1  1  0.028064  0.289995  0.092717  1
  Ti  Ti2  1  0.976381  0.736676  0.913418  1
  Ti  Ti3  1  0.263256  0.085978  0.026530  1
  Ti  Ti4  1  0.083702  0.021828  0.254796  1
  Ti  Ti5  1  0.917659  0.976042  0.743195  1
  C  C6  1  0.995650  0.003229  0.000375  1
  Br  Br7  1  0.923830  0.296370  0.773815  1
  Br  Br8  1  0.690582  0.230223  0.081313  1
  Br  Br9  1  0.420819  0.128805  0.344524  1
  Br  Br10  1  0.872928  0.649809  0.585593  1
  Br  Br11  1  0.220889  0.077599  0.717491  1
  Br  Br12  1  0.646839  0.557515  0.856227  1
  Br  Br13  1  0.368773  0.431203  0.139635  1
  Br  Br14  1  0.787944  0.918581  0.298826  1
  Br  Br15  1  0.137214  0.350236  0.429656  1
  Br  Br16  1  0.574376  0.864747  0.639632  1
  Br  Br17  1  0.304561  0.783518  0.926605  1
  Br  Br18  1  0.075108  0.692456  0.205184  1
