# generated using pymatgen
data_YLu5ScCo17P12
_symmetry_space_group_name_H-M   'P 1'
_cell_length_a   3.68119600
_cell_length_b   10.53511800
_cell_length_c   12.19615500
_cell_angle_alpha   90.00000000
_cell_angle_beta   90.00000000
_cell_angle_gamma   90.00000000
_symmetry_Int_Tables_number   1
_chemical_formula_structural   YLu5ScCo17P12
_chemical_formula_sum   'Y1 Lu5 Sc1 Co17 P12'
_cell_volume   472.98926159
_cell_formula_units_Z   1
loop_
 _symmetry_equiv_pos_site_id
 _symmetry_equiv_pos_as_xyz
  1  'x, y, z'
loop_
 _atom_site_type_symbol
 _atom_site_label
 _atom_site_symmetry_multiplicity
 _atom_site_fract_x
 _atom_site_fract_y
 _atom_site_fract_z
 _atom_site_occupancy
  Y  Y0  1  0.500000  0.000000  0.477060  1
  Lu  Lu1  1  0.000000  0.500000  0.528169  1
  Lu  Lu2  1  0.500000  0.822013  0.207344  1
  Lu  Lu3  1  0.500000  0.177987  0.207344  1
  Lu  Lu4  1  0.000000  0.681698  0.795543  1
  Lu  Lu5  1  0.000000  0.318302  0.795543  1
  Sc  Sc6  1  0.500000  0.500000  0.153552  1
  Co  Co7  1  0.000000  0.000000  0.837249  1
  Co  Co8  1  0.500000  0.500000  0.703110  1
  Co  Co9  1  0.000000  0.000000  0.294400  1
  Co  Co10  1  0.000000  0.500000  0.983954  1
  Co  Co11  1  0.500000  0.000000  0.013663  1
  Co  Co12  1  0.500000  0.326762  0.989098  1
  Co  Co13  1  0.500000  0.673238  0.989098  1
  Co  Co14  1  0.000000  0.162551  0.001699  1
  Co  Co15  1  0.000000  0.837449  0.001699  1
  Co  Co16  1  0.500000  0.295923  0.434478  1
  Co  Co17  1  0.500000  0.704077  0.434478  1
  Co  Co18  1  0.000000  0.203218  0.570921  1
  Co  Co19  1  0.000000  0.796782  0.570921  1
  Co  Co20  1  0.500000  0.878966  0.708215  1
  Co  Co21  1  0.500000  0.121034  0.708215  1
  Co  Co22  1  0.000000  0.623401  0.295762  1
  Co  Co23  1  0.000000  0.376599  0.295762  1
  P  P24  1  0.500000  0.500000  0.881600  1
  P  P25  1  0.000000  0.000000  0.116826  1
  P  P26  1  0.500000  0.500000  0.360089  1
  P  P27  1  0.000000  0.000000  0.654606  1
  P  P28  1  0.500000  0.311383  0.618869  1
  P  P29  1  0.500000  0.688617  0.618869  1
  P  P30  1  0.000000  0.188463  0.384633  1
  P  P31  1  0.000000  0.811537  0.384633  1
  P  P32  1  0.500000  0.850642  0.888110  1
  P  P33  1  0.500000  0.149358  0.888110  1
  P  P34  1  0.000000  0.664306  0.103189  1
  P  P35  1  0.000000  0.335694  0.103189  1
