# generated using pymatgen
data_Nd3ThCd2CuPd3
_symmetry_space_group_name_H-M   'P 1'
_cell_length_a   7.87636382
_cell_length_b   7.87636259
_cell_length_c   3.85579900
_cell_angle_alpha   90.00000000
_cell_angle_beta   90.00000000
_cell_angle_gamma   91.52565966
_symmetry_Int_Tables_number   1
_chemical_formula_structural   Nd3ThCd2CuPd3
_chemical_formula_sum   'Nd3 Th1 Cd2 Cu1 Pd3'
_cell_volume   239.11778088
_cell_formula_units_Z   1
loop_
 _symmetry_equiv_pos_site_id
 _symmetry_equiv_pos_as_xyz
  1  'x, y, z'
loop_
 _atom_site_type_symbol
 _atom_site_label
 _atom_site_symmetry_multiplicity
 _atom_site_fract_x
 _atom_site_fract_y
 _atom_site_fract_z
 _atom_site_occupancy
  Nd  Nd0  1  0.326286  0.826286  0.500000  1
  Nd  Nd1  1  0.173157  0.325401  0.500000  1
  Nd  Nd2  1  0.825401  0.673157  0.500000  1
  Th  Th3  1  0.672293  0.172293  0.500000  1
  Cd  Cd4  1  0.003897  0.997255  0.000000  1
  Cd  Cd5  1  0.497255  0.503897  0.000000  1
  Cu  Cu6  1  0.119686  0.619686  0.000000  1
  Pd  Pd7  1  0.870566  0.370566  0.000000  1
  Pd  Pd8  1  0.630773  0.880687  0.000000  1
  Pd  Pd9  1  0.380687  0.130773  0.000000  1
