# generated using pymatgen
data_Er4Al11Si7IrOs5
_symmetry_space_group_name_H-M   'P 1'
_cell_length_a   7.47084837
_cell_length_b   7.42509757
_cell_length_c   9.30289401
_cell_angle_alpha   90.03539817
_cell_angle_beta   90.05530498
_cell_angle_gamma   119.95940194
_symmetry_Int_Tables_number   1
_chemical_formula_structural   Er4Al11Si7IrOs5
_chemical_formula_sum   'Er4 Al11 Si7 Ir1 Os5'
_cell_volume   447.09288726
_cell_formula_units_Z   1
loop_
 _symmetry_equiv_pos_site_id
 _symmetry_equiv_pos_as_xyz
  1  'x, y, z'
loop_
 _atom_site_type_symbol
 _atom_site_label
 _atom_site_symmetry_multiplicity
 _atom_site_fract_x
 _atom_site_fract_y
 _atom_site_fract_z
 _atom_site_occupancy
  Er  Er0  1  0.998351  0.667723  0.253091  1
  Er  Er1  1  0.006488  0.335897  0.749423  1
  Er  Er2  1  0.680318  0.007177  0.251708  1
  Er  Er3  1  0.314591  0.992437  0.746879  1
  Al  Al4  1  0.663427  0.994031  0.578879  1
  Al  Al5  1  0.661153  0.995460  0.922392  1
  Al  Al6  1  0.340670  0.004912  0.072790  1
  Al  Al7  1  0.337650  0.337804  0.561617  1
  Al  Al8  1  0.660496  0.667705  0.437320  1
  Al  Al9  1  0.661702  0.665755  0.060472  1
  Al  Al10  1  0.340250  0.334624  0.939489  1
  Al  Al11  1  0.332335  0.546374  0.249645  1
  Al  Al12  1  0.667987  0.453097  0.751806  1
  Al  Al13  1  0.544990  0.337685  0.249459  1
  Al  Al14  1  0.450799  0.661267  0.748892  1
  Si  Si15  1  0.131317  0.125039  0.249717  1
  Si  Si16  1  0.869958  0.876682  0.749419  1
  Si  Si17  1  0.003696  0.330767  0.067285  1
  Si  Si18  1  0.996882  0.667309  0.933868  1
  Si  Si19  1  0.991596  0.665234  0.572288  1
  Si  Si20  1  0.338789  0.004140  0.426155  1
  Si  Si21  1  0.005767  0.330753  0.429578  1
  Ir  Ir22  1  0.681233  0.329292  0.498226  1
  Os  Os23  1  0.689609  0.336025  0.003364  1
  Os  Os24  1  0.311211  0.663437  0.998472  1
  Os  Os25  1  0.310219  0.671560  0.499442  1
  Os  Os26  1  0.000935  0.999043  0.000350  1
  Os  Os27  1  0.007581  0.998772  0.497976  1
