# generated using pymatgen
data_La2PIrPt7
_symmetry_space_group_name_H-M   'P 1'
_cell_length_a   9.20935020
_cell_length_b   9.24249475
_cell_length_c   4.31228200
_cell_angle_alpha   90.00000000
_cell_angle_beta   90.00000000
_cell_angle_gamma   145.53290115
_symmetry_Int_Tables_number   1
_chemical_formula_structural   La2PIrPt7
_chemical_formula_sum   'La2 P1 Ir1 Pt7'
_cell_volume   207.72573226
_cell_formula_units_Z   1
loop_
 _symmetry_equiv_pos_site_id
 _symmetry_equiv_pos_as_xyz
  1  'x, y, z'
loop_
 _atom_site_type_symbol
 _atom_site_label
 _atom_site_symmetry_multiplicity
 _atom_site_fract_x
 _atom_site_fract_y
 _atom_site_fract_z
 _atom_site_occupancy
  La  La0  1  0.615709  0.370481  0.500000  1
  La  La1  1  0.372069  0.619254  0.500000  1
  P  P2  1  0.224332  0.219671  0.000000  1
  Ir  Ir3  1  0.112473  0.891280  0.000000  1
  Pt  Pt4  1  0.892201  0.110615  0.000000  1
  Pt  Pt5  1  0.489303  0.988582  0.000000  1
  Pt  Pt6  1  0.985455  0.490863  0.000000  1
  Pt  Pt7  1  0.190288  0.793563  0.500000  1
  Pt  Pt8  1  0.792330  0.193724  0.500000  1
  Pt  Pt9  1  0.004920  0.003311  0.500000  1
  Pt  Pt10  1  0.634518  0.632254  0.000000  1
