# generated using pymatgen
data_NdDy19(SnPb)8
_symmetry_space_group_name_H-M   'P 1'
_cell_length_a   8.08933951
_cell_length_b   8.20663166
_cell_length_c   15.52387500
_cell_angle_alpha   89.98482889
_cell_angle_beta   89.68724702
_cell_angle_gamma   89.91808653
_symmetry_Int_Tables_number   1
_chemical_formula_structural   NdDy19(SnPb)8
_chemical_formula_sum   'Nd1 Dy19 Sn8 Pb8'
_cell_volume   1030.55509176
_cell_formula_units_Z   1
loop_
 _symmetry_equiv_pos_site_id
 _symmetry_equiv_pos_as_xyz
  1  'x, y, z'
loop_
 _atom_site_type_symbol
 _atom_site_label
 _atom_site_symmetry_multiplicity
 _atom_site_fract_x
 _atom_site_fract_y
 _atom_site_fract_z
 _atom_site_occupancy
  Nd  Nd0  1  0.022092  0.178497  0.900654  1
  Dy  Dy1  1  0.368507  0.838130  0.875464  1
  Dy  Dy2  1  0.870322  0.661569  0.622853  1
  Dy  Dy3  1  0.629440  0.161225  0.375931  1
  Dy  Dy4  1  0.132178  0.339055  0.124528  1
  Dy  Dy5  1  0.631785  0.161421  0.124768  1
  Dy  Dy6  1  0.129463  0.338945  0.376311  1
  Dy  Dy7  1  0.371011  0.838601  0.623622  1
  Dy  Dy8  1  0.868929  0.661198  0.875926  1
  Dy  Dy9  1  0.525448  0.323497  0.898870  1
  Dy  Dy10  1  0.027585  0.177186  0.601953  1
  Dy  Dy11  1  0.472987  0.677017  0.398075  1
  Dy  Dy12  1  0.975343  0.821662  0.101446  1
  Dy  Dy13  1  0.474864  0.677094  0.101508  1
  Dy  Dy14  1  0.973119  0.823011  0.398281  1
  Dy  Dy15  1  0.526486  0.323087  0.600820  1
  Dy  Dy16  1  0.200532  0.503146  0.749294  1
  Dy  Dy17  1  0.700037  0.996685  0.749088  1
  Dy  Dy18  1  0.799811  0.497058  0.250301  1
  Dy  Dy19  1  0.300099  0.002969  0.250741  1
  Sn  Sn20  1  0.566091  0.620308  0.749654  1
  Sn  Sn21  1  0.065650  0.878697  0.749347  1
  Sn  Sn22  1  0.434220  0.380220  0.250220  1
  Sn  Sn23  1  0.934910  0.120086  0.250149  1
  Sn  Sn24  1  0.334618  0.149220  0.749689  1
  Sn  Sn25  1  0.830905  0.352825  0.748395  1
  Sn  Sn26  1  0.667354  0.850636  0.249839  1
  Sn  Sn27  1  0.166862  0.649562  0.249854  1
  Pb  Pb28  1  0.292923  0.035182  0.042801  1
  Pb  Pb29  1  0.788034  0.463714  0.458439  1
  Pb  Pb30  1  0.711988  0.964749  0.540928  1
  Pb  Pb31  1  0.211193  0.538931  0.959299  1
  Pb  Pb32  1  0.705145  0.959301  0.959807  1
  Pb  Pb33  1  0.211641  0.536618  0.540907  1
  Pb  Pb34  1  0.288377  0.036246  0.458854  1
  Pb  Pb35  1  0.790054  0.462649  0.041384  1
