# generated using pymatgen
data_YHo4Bi2Ir
_symmetry_space_group_name_H-M   'P 1'
_cell_length_a   7.99560300
_cell_length_b   8.98827400
_cell_length_c   12.50827100
_cell_angle_alpha   90.00000000
_cell_angle_beta   90.00000000
_cell_angle_gamma   90.00000000
_symmetry_Int_Tables_number   1
_chemical_formula_structural   YHo4Bi2Ir
_chemical_formula_sum   'Y4 Ho16 Bi8 Ir4'
_cell_volume   898.92779122
_cell_formula_units_Z   4
loop_
 _symmetry_equiv_pos_site_id
 _symmetry_equiv_pos_as_xyz
  1  'x, y, z'
loop_
 _atom_site_type_symbol
 _atom_site_label
 _atom_site_symmetry_multiplicity
 _atom_site_fract_x
 _atom_site_fract_y
 _atom_site_fract_z
 _atom_site_occupancy
  Y  Y0  1  0.838557  0.750000  0.792885  1
  Y  Y1  1  0.161443  0.250000  0.207115  1
  Y  Y2  1  0.338557  0.250000  0.707115  1
  Y  Y3  1  0.661443  0.750000  0.292885  1
  Ho  Ho4  1  0.375819  0.750000  0.691369  1
  Ho  Ho5  1  0.624181  0.250000  0.308631  1
  Ho  Ho6  1  0.875819  0.250000  0.808631  1
  Ho  Ho7  1  0.124181  0.750000  0.191369  1
  Ho  Ho8  1  0.947022  0.750000  0.501517  1
  Ho  Ho9  1  0.052978  0.250000  0.498483  1
  Ho  Ho10  1  0.447022  0.250000  0.998483  1
  Ho  Ho11  1  0.552978  0.750000  0.001517  1
  Ho  Ho12  1  0.675607  0.041951  0.565821  1
  Ho  Ho13  1  0.324393  0.958049  0.434179  1
  Ho  Ho14  1  0.175607  0.958049  0.934179  1
  Ho  Ho15  1  0.324393  0.541951  0.434179  1
  Ho  Ho16  1  0.824393  0.041951  0.065821  1
  Ho  Ho17  1  0.675607  0.458049  0.565821  1
  Ho  Ho18  1  0.824393  0.458049  0.065821  1
  Ho  Ho19  1  0.175607  0.541951  0.934179  1
  Bi  Bi20  1  0.566600  0.491435  0.827295  1
  Bi  Bi21  1  0.433400  0.508565  0.172705  1
  Bi  Bi22  1  0.066600  0.508565  0.672705  1
  Bi  Bi23  1  0.433400  0.991435  0.172705  1
  Bi  Bi24  1  0.933400  0.491435  0.327295  1
  Bi  Bi25  1  0.566600  0.008565  0.827295  1
  Bi  Bi26  1  0.933400  0.008565  0.327295  1
  Bi  Bi27  1  0.066600  0.991435  0.672705  1
  Ir  Ir28  1  0.571034  0.750000  0.509893  1
  Ir  Ir29  1  0.428966  0.250000  0.490107  1
  Ir  Ir30  1  0.071034  0.250000  0.990107  1
  Ir  Ir31  1  0.928966  0.750000  0.009893  1
