# generated using pymatgen
data_Pu3CBr5
_symmetry_space_group_name_H-M   'P 1'
_cell_length_a   7.43727356
_cell_length_b   9.06963661
_cell_length_c   9.08634629
_cell_angle_alpha   107.92413514
_cell_angle_beta   96.55721581
_cell_angle_gamma   105.58696049
_symmetry_Int_Tables_number   1
_chemical_formula_structural   Pu3CBr5
_chemical_formula_sum   'Pu6 C2 Br10'
_cell_volume   548.59524148
_cell_formula_units_Z   2
loop_
 _symmetry_equiv_pos_site_id
 _symmetry_equiv_pos_as_xyz
  1  'x, y, z'
loop_
 _atom_site_type_symbol
 _atom_site_label
 _atom_site_symmetry_multiplicity
 _atom_site_fract_x
 _atom_site_fract_y
 _atom_site_fract_z
 _atom_site_occupancy
  Pu  Pu0  1  0.885125  0.954620  0.229747  1
  Pu  Pu1  1  0.114875  0.045380  0.770253  1
  Pu  Pu2  1  0.032393  0.724554  0.920639  1
  Pu  Pu3  1  0.967607  0.275446  0.079361  1
  Pu  Pu4  1  0.601559  0.851008  0.803117  1
  Pu  Pu5  1  0.398441  0.148992  0.196883  1
  C  C6  1  0.903290  0.965098  0.953046  1
  C  C7  1  0.096710  0.034902  0.046954  1
  Br  Br8  1  0.748076  0.913739  0.536359  1
  Br  Br9  1  0.251924  0.086261  0.463641  1
  Br  Br10  1  0.455261  0.818426  0.088599  1
  Br  Br11  1  0.544739  0.181574  0.911401  1
  Br  Br12  1  0.818060  0.269535  0.363414  1
  Br  Br13  1  0.181940  0.730465  0.636586  1
  Br  Br14  1  0.910659  0.622254  0.179388  1
  Br  Br15  1  0.089341  0.377746  0.820612  1
  Br  Br16  1  0.654366  0.539357  0.724191  1
  Br  Br17  1  0.345634  0.460643  0.275809  1
