# generated using pymatgen
data_Sc22FeOs2Ru5
_symmetry_space_group_name_H-M   'P 1'
_cell_length_a   9.43489220
_cell_length_b   9.43489156
_cell_length_c   9.42218600
_cell_angle_alpha   60.04454406
_cell_angle_beta   60.04454630
_cell_angle_gamma   59.91092144
_symmetry_Int_Tables_number   1
_chemical_formula_structural   Sc22FeOs2Ru5
_chemical_formula_sum   'Sc22 Fe1 Os2 Ru5'
_cell_volume   593.07415125
_cell_formula_units_Z   1
loop_
 _symmetry_equiv_pos_site_id
 _symmetry_equiv_pos_as_xyz
  1  'x, y, z'
loop_
 _atom_site_type_symbol
 _atom_site_label
 _atom_site_symmetry_multiplicity
 _atom_site_fract_x
 _atom_site_fract_y
 _atom_site_fract_z
 _atom_site_occupancy
  Sc  Sc0  1  0.842144  0.842144  0.844440  1
  Sc  Sc1  1  0.528728  0.155560  0.157856  1
  Sc  Sc2  1  0.157856  0.157856  0.528728  1
  Sc  Sc3  1  0.155560  0.528728  0.157856  1
  Sc  Sc4  1  0.842144  0.842144  0.471272  1
  Sc  Sc5  1  0.844440  0.471272  0.842144  1
  Sc  Sc6  1  0.471272  0.844440  0.842144  1
  Sc  Sc7  1  0.157856  0.157856  0.155560  1
  Sc  Sc8  1  0.198701  0.801299  0.198701  1
  Sc  Sc9  1  0.198701  0.801299  0.801299  1
  Sc  Sc10  1  0.801299  0.198701  0.198701  1
  Sc  Sc11  1  0.800920  0.800920  0.199080  1
  Sc  Sc12  1  0.199080  0.199080  0.800920  1
  Sc  Sc13  1  0.801299  0.198701  0.801299  1
  Sc  Sc14  1  0.386042  0.386042  0.383313  1
  Sc  Sc15  1  0.155398  0.616687  0.613958  1
  Sc  Sc16  1  0.616687  0.155398  0.613958  1
  Sc  Sc17  1  0.613958  0.613958  0.155398  1
  Sc  Sc18  1  0.383313  0.844602  0.386042  1
  Sc  Sc19  1  0.386042  0.386042  0.844602  1
  Sc  Sc20  1  0.844602  0.383313  0.386042  1
  Sc  Sc21  1  0.613958  0.613958  0.616687  1
  Fe  Fe22  1  0.500000  0.500000  0.500000  1
  Os  Os23  1  0.500000  0.500000  0.000000  1
  Os  Os24  1  0.000000  0.000000  0.500000  1
  Ru  Ru25  1  0.500000  0.000000  0.500000  1
  Ru  Ru26  1  0.000000  0.500000  0.500000  1
  Ru  Ru27  1  0.500000  0.000000  0.000000  1
  Ru  Ru28  1  0.000000  0.500000  0.000000  1
  Ru  Ru29  1  0.000000  0.000000  0.000000  1
