# generated using pymatgen
data_NaYb3AuO6
_symmetry_space_group_name_H-M   'P 1'
_cell_length_a   6.43458730
_cell_length_b   6.43458653
_cell_length_c   6.43458700
_cell_angle_alpha   89.87505413
_cell_angle_beta   89.87505414
_cell_angle_gamma   89.87505799
_symmetry_Int_Tables_number   1
_chemical_formula_structural   NaYb3AuO6
_chemical_formula_sum   'Na2 Yb6 Au2 O12'
_cell_volume   266.41515556
_cell_formula_units_Z   2
loop_
 _symmetry_equiv_pos_site_id
 _symmetry_equiv_pos_as_xyz
  1  'x, y, z'
loop_
 _atom_site_type_symbol
 _atom_site_label
 _atom_site_symmetry_multiplicity
 _atom_site_fract_x
 _atom_site_fract_y
 _atom_site_fract_z
 _atom_site_occupancy
  Na  Na0  1  0.250000  0.250000  0.250000  1
  Na  Na1  1  0.750000  0.750000  0.750000  1
  Yb  Yb2  1  0.750000  0.111692  0.388308  1
  Yb  Yb3  1  0.388308  0.750000  0.111692  1
  Yb  Yb4  1  0.111692  0.388308  0.750000  1
  Yb  Yb5  1  0.250000  0.888308  0.611692  1
  Yb  Yb6  1  0.611692  0.250000  0.888308  1
  Yb  Yb7  1  0.888308  0.611692  0.250000  1
  Au  Au8  1  0.500000  0.500000  0.500000  1
  Au  Au9  1  0.000000  0.000000  0.000000  1
  O  O10  1  0.431199  0.199174  0.561390  1
  O  O11  1  0.561390  0.431199  0.199174  1
  O  O12  1  0.199174  0.561390  0.431199  1
  O  O13  1  0.068801  0.938610  0.300826  1
  O  O14  1  0.300826  0.068801  0.938610  1
  O  O15  1  0.938610  0.300826  0.068801  1
  O  O16  1  0.568801  0.800826  0.438610  1
  O  O17  1  0.438610  0.568801  0.800826  1
  O  O18  1  0.800826  0.438610  0.568801  1
  O  O19  1  0.931199  0.061390  0.699174  1
  O  O20  1  0.061390  0.699174  0.931199  1
  O  O21  1  0.699174  0.931199  0.061390  1
