# generated using pymatgen
data_ErU(AlC)6
_symmetry_space_group_name_H-M   'P 1'
_cell_length_a   3.40522700
_cell_length_b   3.40522667
_cell_length_c   17.30714000
_cell_angle_alpha   90.00000000
_cell_angle_beta   90.00000000
_cell_angle_gamma   119.99999345
_symmetry_Int_Tables_number   1
_chemical_formula_structural   ErU(AlC)6
_chemical_formula_sum   'Er1 U1 Al6 C6'
_cell_volume   173.79931565
_cell_formula_units_Z   1
loop_
 _symmetry_equiv_pos_site_id
 _symmetry_equiv_pos_as_xyz
  1  'x, y, z'
loop_
 _atom_site_type_symbol
 _atom_site_label
 _atom_site_symmetry_multiplicity
 _atom_site_fract_x
 _atom_site_fract_y
 _atom_site_fract_z
 _atom_site_occupancy
  Er  Er0  1  0.000000  0.000000  0.003194  1
  U  U1  1  0.000000  0.000000  0.503163  1
  Al  Al2  1  0.333333  0.666667  0.134431  1
  Al  Al3  1  0.666667  0.333333  0.871979  1
  Al  Al4  1  0.666667  0.333333  0.638657  1
  Al  Al5  1  0.333333  0.666667  0.761735  1
  Al  Al6  1  0.333333  0.666667  0.367761  1
  Al  Al7  1  0.666667  0.333333  0.244902  1
  C  C8  1  0.333333  0.666667  0.595296  1
  C  C9  1  0.666667  0.333333  0.410872  1
  C  C10  1  0.333333  0.666667  0.908818  1
  C  C11  1  0.666667  0.333333  0.097393  1
  C  C12  1  0.666667  0.333333  0.754622  1
  C  C13  1  0.333333  0.666667  0.251776  1
