# generated using pymatgen
data_Pr20Ir3(RuRh2)3
_symmetry_space_group_name_H-M   'P 1'
_cell_length_a   11.34615944
_cell_length_b   11.34709444
_cell_length_c   6.65946301
_cell_angle_alpha   90.00398605
_cell_angle_beta   89.99562656
_cell_angle_gamma   90.05757547
_symmetry_Int_Tables_number   1
_chemical_formula_structural   Pr20Ir3(RuRh2)3
_chemical_formula_sum   'Pr20 Ir3 Ru3 Rh6'
_cell_volume   857.37840545
_cell_formula_units_Z   1
loop_
 _symmetry_equiv_pos_site_id
 _symmetry_equiv_pos_as_xyz
  1  'x, y, z'
loop_
 _atom_site_type_symbol
 _atom_site_label
 _atom_site_symmetry_multiplicity
 _atom_site_fract_x
 _atom_site_fract_y
 _atom_site_fract_z
 _atom_site_occupancy
  Pr  Pr0  1  0.294404  0.089169  0.381732  1
  Pr  Pr1  1  0.294732  0.911174  0.881931  1
  Pr  Pr2  1  0.705358  0.086904  0.881871  1
  Pr  Pr3  1  0.705441  0.910562  0.381603  1
  Pr  Pr4  1  0.586444  0.792694  0.883750  1
  Pr  Pr5  1  0.586843  0.206149  0.381483  1
  Pr  Pr6  1  0.412632  0.793182  0.383079  1
  Pr  Pr7  1  0.411790  0.206284  0.883911  1
  Pr  Pr8  1  0.209158  0.411652  0.619498  1
  Pr  Pr9  1  0.208545  0.588654  0.114986  1
  Pr  Pr10  1  0.791965  0.411803  0.115841  1
  Pr  Pr11  1  0.791817  0.590134  0.619041  1
  Pr  Pr12  1  0.909333  0.707563  0.115580  1
  Pr  Pr13  1  0.910880  0.292538  0.621178  1
  Pr  Pr14  1  0.090859  0.707406  0.621087  1
  Pr  Pr15  1  0.090822  0.292567  0.115858  1
  Pr  Pr16  1  0.999975  0.999944  0.497879  1
  Pr  Pr17  1  0.000059  0.999996  0.998405  1
  Pr  Pr18  1  0.499725  0.500021  0.997807  1
  Pr  Pr19  1  0.499984  0.500115  0.497908  1
  Ir  Ir20  1  0.654435  0.652002  0.250245  1
  Ir  Ir21  1  0.345824  0.347702  0.249895  1
  Ir  Ir22  1  0.345560  0.653547  0.749530  1
  Ru  Ru23  1  0.500508  0.000627  0.118739  1
  Ru  Ru24  1  0.500499  0.000977  0.618143  1
  Ru  Ru25  1  0.999049  0.499562  0.884562  1
  Rh  Rh26  1  0.848198  0.153976  0.250412  1
  Rh  Rh27  1  0.847717  0.846876  0.749649  1
  Rh  Rh28  1  0.152154  0.153144  0.749783  1
  Rh  Rh29  1  0.151366  0.846731  0.250336  1
  Rh  Rh30  1  0.654359  0.346717  0.749711  1
  Rh  Rh31  1  0.999565  0.499627  0.384568  1
