# generated using pymatgen
data_Ho8Tm2Ru3Rh
_symmetry_space_group_name_H-M   'P 1'
_cell_length_a   6.29980070
_cell_length_b   7.27374404
_cell_length_c   8.41564363
_cell_angle_alpha   96.78477455
_cell_angle_beta   111.89836533
_cell_angle_gamma   90.04257717
_symmetry_Int_Tables_number   1
_chemical_formula_structural   Ho8Tm2Ru3Rh
_chemical_formula_sum   'Ho8 Tm2 Ru3 Rh1'
_cell_volume   354.88060365
_cell_formula_units_Z   1
loop_
 _symmetry_equiv_pos_site_id
 _symmetry_equiv_pos_as_xyz
  1  'x, y, z'
loop_
 _atom_site_type_symbol
 _atom_site_label
 _atom_site_symmetry_multiplicity
 _atom_site_fract_x
 _atom_site_fract_y
 _atom_site_fract_z
 _atom_site_occupancy
  Ho  Ho0  1  0.792640  0.081938  0.815206  1
  Ho  Ho1  1  0.979234  0.415227  0.188208  1
  Ho  Ho2  1  0.208581  0.915566  0.185673  1
  Ho  Ho3  1  0.024921  0.585816  0.815073  1
  Ho  Ho4  1  0.203907  0.183201  0.564366  1
  Ho  Ho5  1  0.642224  0.315058  0.432199  1
  Ho  Ho6  1  0.792800  0.814949  0.434160  1
  Ho  Ho7  1  0.357283  0.686514  0.564309  1
  Tm  Tm8  1  0.419411  0.249095  0.000804  1
  Tm  Tm9  1  0.580131  0.752118  0.001313  1
  Ru  Ru10  1  0.822436  0.076818  0.218609  1
  Ru  Ru11  1  0.396418  0.575510  0.219759  1
  Ru  Ru12  1  0.178858  0.924192  0.780506  1
  Rh  Rh13  1  0.601154  0.423998  0.779816  1
