# generated using pymatgen
data_LiTb6Co2(P4Ir5)3
_symmetry_space_group_name_H-M   'P 1'
_cell_length_a   3.92972200
_cell_length_b   11.14970100
_cell_length_c   12.78663200
_cell_angle_alpha   90.00000000
_cell_angle_beta   90.00000000
_cell_angle_gamma   90.00000000
_symmetry_Int_Tables_number   1
_chemical_formula_structural   LiTb6Co2(P4Ir5)3
_chemical_formula_sum   'Li1 Tb6 Co2 P12 Ir15'
_cell_volume   560.24916208
_cell_formula_units_Z   1
loop_
 _symmetry_equiv_pos_site_id
 _symmetry_equiv_pos_as_xyz
  1  'x, y, z'
loop_
 _atom_site_type_symbol
 _atom_site_label
 _atom_site_symmetry_multiplicity
 _atom_site_fract_x
 _atom_site_fract_y
 _atom_site_fract_z
 _atom_site_occupancy
  Li  Li0  1  0.500000  0.500000  0.156027  1
  Tb  Tb1  1  0.000000  0.500000  0.517718  1
  Tb  Tb2  1  0.500000  0.000000  0.478683  1
  Tb  Tb3  1  0.500000  0.816455  0.200869  1
  Tb  Tb4  1  0.500000  0.183545  0.200869  1
  Tb  Tb5  1  0.000000  0.682316  0.799442  1
  Tb  Tb6  1  0.000000  0.317684  0.799442  1
  Co  Co7  1  0.000000  0.500000  0.985644  1
  Co  Co8  1  0.500000  0.000000  0.020564  1
  P  P9  1  0.500000  0.500000  0.883935  1
  P  P10  1  0.000000  0.000000  0.118986  1
  P  P11  1  0.500000  0.500000  0.344913  1
  P  P12  1  0.000000  0.000000  0.644822  1
  P  P13  1  0.500000  0.315051  0.619479  1
  P  P14  1  0.500000  0.684949  0.619479  1
  P  P15  1  0.000000  0.186675  0.381338  1
  P  P16  1  0.000000  0.813325  0.381338  1
  P  P17  1  0.500000  0.851493  0.896913  1
  P  P18  1  0.500000  0.148507  0.896913  1
  P  P19  1  0.000000  0.651628  0.104863  1
  P  P20  1  0.000000  0.348372  0.104863  1
  Ir  Ir21  1  0.000000  0.000000  0.825493  1
  Ir  Ir22  1  0.500000  0.500000  0.703277  1
  Ir  Ir23  1  0.000000  0.000000  0.298276  1
  Ir  Ir24  1  0.500000  0.335427  0.995353  1
  Ir  Ir25  1  0.500000  0.664573  0.995353  1
  Ir  Ir26  1  0.000000  0.161155  0.004377  1
  Ir  Ir27  1  0.000000  0.838845  0.004377  1
  Ir  Ir28  1  0.500000  0.289876  0.432019  1
  Ir  Ir29  1  0.500000  0.710124  0.432019  1
  Ir  Ir30  1  0.000000  0.205200  0.573112  1
  Ir  Ir31  1  0.000000  0.794800  0.573112  1
  Ir  Ir32  1  0.500000  0.871407  0.715874  1
  Ir  Ir33  1  0.500000  0.128593  0.715874  1
  Ir  Ir34  1  0.000000  0.626925  0.287192  1
  Ir  Ir35  1  0.000000  0.373075  0.287192  1
