# generated using pymatgen
data_YEr7Sc2(SiB4)4
_symmetry_space_group_name_H-M   'P 1'
_cell_length_a   7.14242602
_cell_length_b   7.14242609
_cell_length_c   7.85372200
_cell_angle_alpha   89.99516332
_cell_angle_beta   90.00483679
_cell_angle_gamma   89.99115212
_symmetry_Int_Tables_number   1
_chemical_formula_structural   YEr7Sc2(SiB4)4
_chemical_formula_sum   'Y1 Er7 Sc2 Si4 B16'
_cell_volume   400.65172939
_cell_formula_units_Z   1
loop_
 _symmetry_equiv_pos_site_id
 _symmetry_equiv_pos_as_xyz
  1  'x, y, z'
loop_
 _atom_site_type_symbol
 _atom_site_label
 _atom_site_symmetry_multiplicity
 _atom_site_fract_x
 _atom_site_fract_y
 _atom_site_fract_z
 _atom_site_occupancy
  Y  Y0  1  0.180604  0.319396  0.230177  1
  Er  Er1  1  0.680577  0.180442  0.227906  1
  Er  Er2  1  0.319438  0.819422  0.772187  1
  Er  Er3  1  0.319558  0.819423  0.227906  1
  Er  Er4  1  0.819350  0.680650  0.227816  1
  Er  Er5  1  0.819350  0.680650  0.772069  1
  Er  Er6  1  0.680578  0.180562  0.772187  1
  Er  Er7  1  0.180573  0.319427  0.772040  1
  Sc  Sc8  1  0.999714  0.999680  0.500334  1
  Sc  Sc9  1  0.500320  0.500286  0.500334  1
  Si  Si10  1  0.117105  0.618344  0.500880  1
  Si  Si11  1  0.881656  0.382895  0.500880  1
  Si  Si12  1  0.383183  0.116817  0.501139  1
  Si  Si13  1  0.617829  0.882171  0.500114  1
  B  B14  1  0.172830  0.038499  0.999693  1
  B  B15  1  0.826870  0.960993  0.999785  1
  B  B16  1  0.960836  0.172782  0.999550  1
  B  B17  1  0.327218  0.539164  0.999550  1
  B  B18  1  0.038665  0.826836  0.999673  1
  B  B19  1  0.673164  0.461335  0.999673  1
  B  B20  1  0.539007  0.673130  0.999785  1
  B  B21  1  0.461501  0.327170  0.999693  1
  B  B22  1  0.089102  0.589342  0.999177  1
  B  B23  1  0.910658  0.410898  0.999177  1
  B  B24  1  0.410897  0.089103  0.999679  1
  B  B25  1  0.589184  0.910816  0.999781  1
  B  B26  1  0.999517  0.999225  0.167849  1
  B  B27  1  0.999960  0.000019  0.831560  1
  B  B28  1  0.499981  0.500040  0.831560  1
  B  B29  1  0.500775  0.500483  0.167849  1
