# generated using pymatgen
data_BaEuU2(NiAs)4
_symmetry_space_group_name_H-M   'P 1'
_cell_length_a   4.10842400
_cell_length_b   4.10842489
_cell_length_c   16.19861300
_cell_angle_alpha   90.00000000
_cell_angle_beta   90.00000000
_cell_angle_gamma   120.00000896
_symmetry_Int_Tables_number   1
_chemical_formula_structural   BaEuU2(NiAs)4
_chemical_formula_sum   'Ba1 Eu1 U2 Ni4 As4'
_cell_volume   236.78764114
_cell_formula_units_Z   1
loop_
 _symmetry_equiv_pos_site_id
 _symmetry_equiv_pos_as_xyz
  1  'x, y, z'
loop_
 _atom_site_type_symbol
 _atom_site_label
 _atom_site_symmetry_multiplicity
 _atom_site_fract_x
 _atom_site_fract_y
 _atom_site_fract_z
 _atom_site_occupancy
  Ba  Ba0  1  0.000000  0.000000  0.000000  1
  Eu  Eu1  1  0.000000  0.000000  0.500000  1
  U  U2  1  0.000000  0.000000  0.263398  1
  U  U3  1  0.000000  0.000000  0.736602  1
  Ni  Ni4  1  0.333333  0.666667  0.174022  1
  Ni  Ni5  1  0.666667  0.333333  0.825978  1
  Ni  Ni6  1  0.666667  0.333333  0.642539  1
  Ni  Ni7  1  0.333333  0.666667  0.357461  1
  As  As8  1  0.333333  0.666667  0.615021  1
  As  As9  1  0.666667  0.333333  0.384979  1
  As  As10  1  0.666667  0.333333  0.144697  1
  As  As11  1  0.333333  0.666667  0.855303  1
