# generated using pymatgen
data_Rb2Cd3(SeO3)4
_symmetry_space_group_name_H-M   'P 1'
_cell_length_a   5.77995940
_cell_length_b   7.66150611
_cell_length_c   9.49850900
_cell_angle_alpha   90.17976599
_cell_angle_beta   107.75172497
_cell_angle_gamma   90.23679359
_symmetry_Int_Tables_number   1
_chemical_formula_structural   Rb2Cd3(SeO3)4
_chemical_formula_sum   'Rb2 Cd3 Se4 O12'
_cell_volume   400.58928197
_cell_formula_units_Z   1
loop_
 _symmetry_equiv_pos_site_id
 _symmetry_equiv_pos_as_xyz
  1  'x, y, z'
loop_
 _atom_site_type_symbol
 _atom_site_label
 _atom_site_symmetry_multiplicity
 _atom_site_fract_x
 _atom_site_fract_y
 _atom_site_fract_z
 _atom_site_occupancy
  Rb  Rb0  1  0.822165  0.379564  0.644895  1
  Rb  Rb1  1  0.177835  0.620436  0.355105  1
  Cd  Cd2  1  0.598464  0.312842  0.196963  1
  Cd  Cd3  1  0.401536  0.687158  0.803037  1
  Cd  Cd4  1  0.000000  0.000000  0.000000  1
  Se  Se5  1  0.432262  0.200428  0.865378  1
  Se  Se6  1  0.198881  0.134689  0.399043  1
  Se  Se7  1  0.801119  0.865311  0.600957  1
  Se  Se8  1  0.567738  0.799572  0.134622  1
  O  O9  1  0.581748  0.726542  0.628253  1
  O  O10  1  0.719665  0.226227  0.993625  1
  O  O11  1  0.953141  0.273160  0.371460  1
  O  O12  1  0.383113  0.390197  0.765679  1
  O  O13  1  0.874012  0.010551  0.746267  1
  O  O14  1  0.616887  0.609803  0.234321  1
  O  O15  1  0.046859  0.726840  0.628540  1
  O  O16  1  0.280335  0.773773  0.006375  1
  O  O17  1  0.726117  0.773493  0.006236  1
  O  O18  1  0.273883  0.226507  0.993764  1
  O  O19  1  0.418252  0.273458  0.371747  1
  O  O20  1  0.125988  0.989449  0.253733  1
