# generated using pymatgen
data_Ho3Lu9InCo4Ir
_symmetry_space_group_name_H-M   'P 1'
_cell_length_a   8.13195862
_cell_length_b   8.13195927
_cell_length_c   8.13025882
_cell_angle_alpha   111.12976046
_cell_angle_beta   111.09766542
_cell_angle_gamma   106.24292279
_symmetry_Int_Tables_number   1
_chemical_formula_structural   Ho3Lu9InCo4Ir
_chemical_formula_sum   'Ho3 Lu9 In1 Co4 Ir1'
_cell_volume   412.85148703
_cell_formula_units_Z   1
loop_
 _symmetry_equiv_pos_site_id
 _symmetry_equiv_pos_as_xyz
  1  'x, y, z'
loop_
 _atom_site_type_symbol
 _atom_site_label
 _atom_site_symmetry_multiplicity
 _atom_site_fract_x
 _atom_site_fract_y
 _atom_site_fract_z
 _atom_site_occupancy
  Ho  Ho0  1  0.184816  0.283874  0.468690  1
  Ho  Ho1  1  0.814281  0.715605  0.529887  1
  Ho  Ho2  1  0.185897  0.716005  0.901903  1
  Lu  Lu3  1  0.814794  0.282239  0.097033  1
  Lu  Lu4  1  0.314978  0.621761  0.306743  1
  Lu  Lu5  1  0.685507  0.377982  0.694458  1
  Lu  Lu6  1  0.316476  0.008951  0.694458  1
  Lu  Lu7  1  0.684982  0.991765  0.306743  1
  Lu  Lu8  1  0.415646  0.219762  0.194713  1
  Lu  Lu9  1  0.587616  0.781666  0.806990  1
  Lu  Lu10  1  0.025323  0.219374  0.806990  1
  Lu  Lu11  1  0.974951  0.779068  0.194713  1
  In  In12  1  0.498492  0.500031  0.998522  1
  Co  Co13  1  0.110656  0.611875  0.496662  1
  Co  Co14  1  0.884787  0.386006  0.496662  1
  Co  Co15  1  0.375848  0.999904  0.375754  1
  Co  Co16  1  0.624878  0.001485  0.626363  1
  Ir  Ir17  1  0.000072  0.002646  0.002718  1
