# generated using pymatgen
data_Pr9Nd9(YPb8)2
_symmetry_space_group_name_H-M   'P 1'
_cell_length_a   8.44236887
_cell_length_b   8.56806109
_cell_length_c   16.26137500
_cell_angle_alpha   90.00686769
_cell_angle_beta   90.11789854
_cell_angle_gamma   90.00463342
_symmetry_Int_Tables_number   1
_chemical_formula_structural   Pr9Nd9(YPb8)2
_chemical_formula_sum   'Pr9 Nd9 Y2 Pb16'
_cell_volume   1176.25970404
_cell_formula_units_Z   1
loop_
 _symmetry_equiv_pos_site_id
 _symmetry_equiv_pos_as_xyz
  1  'x, y, z'
loop_
 _atom_site_type_symbol
 _atom_site_label
 _atom_site_symmetry_multiplicity
 _atom_site_fract_x
 _atom_site_fract_y
 _atom_site_fract_z
 _atom_site_occupancy
  Pr  Pr0  1  0.127281  0.340509  0.617942  1
  Pr  Pr1  1  0.470793  0.678534  0.599392  1
  Pr  Pr2  1  0.972847  0.821758  0.901898  1
  Pr  Pr3  1  0.527376  0.321835  0.099470  1
  Pr  Pr4  1  0.029408  0.177494  0.398810  1
  Pr  Pr5  1  0.527800  0.321954  0.399626  1
  Pr  Pr6  1  0.027311  0.178192  0.099765  1
  Pr  Pr7  1  0.473206  0.678417  0.901655  1
  Pr  Pr8  1  0.971741  0.822075  0.599539  1
  Nd  Nd9  1  0.628708  0.158894  0.619665  1
  Nd  Nd10  1  0.129201  0.341322  0.881012  1
  Nd  Nd11  1  0.370521  0.841965  0.120661  1
  Nd  Nd12  1  0.871060  0.657544  0.379435  1
  Nd  Nd13  1  0.372879  0.841961  0.378268  1
  Nd  Nd14  1  0.870874  0.658484  0.120715  1
  Nd  Nd15  1  0.628958  0.158553  0.881495  1
  Nd  Nd16  1  0.796668  0.496931  0.750345  1
  Nd  Nd17  1  0.296944  0.002862  0.750196  1
  Y  Y18  1  0.204574  0.503343  0.249306  1
  Y  Y19  1  0.705008  0.997102  0.250023  1
  Pb  Pb20  1  0.714251  0.966072  0.454585  1
  Pb  Pb21  1  0.212289  0.535058  0.045493  1
  Pb  Pb22  1  0.287079  0.036004  0.957073  1
  Pb  Pb23  1  0.782849  0.466547  0.543418  1
  Pb  Pb24  1  0.287863  0.032960  0.542800  1
  Pb  Pb25  1  0.787855  0.464102  0.957079  1
  Pb  Pb26  1  0.712423  0.964928  0.045952  1
  Pb  Pb27  1  0.213695  0.535373  0.453051  1
  Pb  Pb28  1  0.430843  0.374937  0.750807  1
  Pb  Pb29  1  0.930692  0.123974  0.750836  1
  Pb  Pb30  1  0.566361  0.625532  0.249411  1
  Pb  Pb31  1  0.065838  0.873964  0.250079  1
  Pb  Pb32  1  0.663360  0.850759  0.750660  1
  Pb  Pb33  1  0.163364  0.649389  0.750719  1
  Pb  Pb34  1  0.339108  0.153204  0.249326  1
  Pb  Pb35  1  0.838970  0.347470  0.249491  1
