# generated using pymatgen
data_Eu2Ga3Si2Pt3
_symmetry_space_group_name_H-M   'P 1'
_cell_length_a   8.54196432
_cell_length_b   8.54196406
_cell_length_c   8.54196475
_cell_angle_alpha   138.35254349
_cell_angle_beta   106.98056016
_cell_angle_gamma   87.74797630
_symmetry_Int_Tables_number   1
_chemical_formula_structural   Eu2Ga3Si2Pt3
_chemical_formula_sum   'Eu4 Ga6 Si4 Pt6'
_cell_volume   380.10818257
_cell_formula_units_Z   2
loop_
 _symmetry_equiv_pos_site_id
 _symmetry_equiv_pos_as_xyz
  1  'x, y, z'
loop_
 _atom_site_type_symbol
 _atom_site_label
 _atom_site_symmetry_multiplicity
 _atom_site_fract_x
 _atom_site_fract_y
 _atom_site_fract_z
 _atom_site_occupancy
  Eu  Eu0  1  0.105119  0.869544  0.235575  1
  Eu  Eu1  1  0.894881  0.130456  0.764425  1
  Eu  Eu2  1  0.633969  0.369544  0.264425  1
  Eu  Eu3  1  0.366031  0.630456  0.735575  1
  Ga  Ga4  1  0.000000  0.750000  0.750000  1
  Ga  Ga5  1  0.000000  0.250000  0.250000  1
  Ga  Ga6  1  0.270681  0.020681  0.750000  1
  Ga  Ga7  1  0.729319  0.479319  0.750000  1
  Ga  Ga8  1  0.729319  0.979319  0.250000  1
  Ga  Ga9  1  0.270681  0.520681  0.250000  1
  Si  Si10  1  0.752105  0.605427  0.146678  1
  Si  Si11  1  0.247895  0.394573  0.853322  1
  Si  Si12  1  0.458750  0.105427  0.353322  1
  Si  Si13  1  0.541250  0.894573  0.646678  1
  Pt  Pt14  1  0.500000  0.750000  0.250000  1
  Pt  Pt15  1  0.500000  0.250000  0.750000  1
  Pt  Pt16  1  0.012402  0.635425  0.376978  1
  Pt  Pt17  1  0.987598  0.364575  0.623022  1
  Pt  Pt18  1  0.258447  0.135425  0.123022  1
  Pt  Pt19  1  0.741553  0.864575  0.876978  1
