# generated using pymatgen
data_LaCoH5
_symmetry_space_group_name_H-M   'P 1'
_cell_length_a   4.54953500
_cell_length_b   4.54377400
_cell_length_c   11.93977700
_cell_angle_alpha   90.00000000
_cell_angle_beta   90.00000000
_cell_angle_gamma   90.00000000
_symmetry_Int_Tables_number   1
_chemical_formula_structural   LaCoH5
_chemical_formula_sum   'La4 Co4 H20'
_cell_volume   246.81977274
_cell_formula_units_Z   4
loop_
 _symmetry_equiv_pos_site_id
 _symmetry_equiv_pos_as_xyz
  1  'x, y, z'
loop_
 _atom_site_type_symbol
 _atom_site_label
 _atom_site_symmetry_multiplicity
 _atom_site_fract_x
 _atom_site_fract_y
 _atom_site_fract_z
 _atom_site_occupancy
  La  La0  1  0.241403  0.163381  0.638474  1
  La  La1  1  0.741403  0.336619  0.361526  1
  La  La2  1  0.258597  0.836619  0.138474  1
  La  La3  1  0.758597  0.663381  0.861526  1
  Co  Co4  1  0.265039  0.176226  0.901840  1
  Co  Co5  1  0.765039  0.323774  0.098160  1
  Co  Co6  1  0.234961  0.823774  0.401840  1
  Co  Co7  1  0.734961  0.676226  0.598160  1
  H  H8  1  0.733655  0.345435  0.565649  1
  H  H9  1  0.233655  0.154565  0.434351  1
  H  H10  1  0.766345  0.654565  0.065649  1
  H  H11  1  0.266345  0.845435  0.934351  1
  H  H12  1  0.994880  0.137317  0.819887  1
  H  H13  1  0.494880  0.362683  0.180113  1
  H  H14  1  0.505120  0.862683  0.319887  1
  H  H15  1  0.005120  0.637317  0.680113  1
  H  H16  1  0.261284  0.487886  0.851853  1
  H  H17  1  0.761284  0.012114  0.148147  1
  H  H18  1  0.238716  0.512114  0.351853  1
  H  H19  1  0.738716  0.987886  0.648147  1
  H  H20  1  0.524710  0.138439  0.814944  1
  H  H21  1  0.024710  0.361561  0.185056  1
  H  H22  1  0.975290  0.861561  0.314944  1
  H  H23  1  0.475290  0.638439  0.685056  1
  H  H24  1  0.025416  0.254014  0.003649  1
  H  H25  1  0.525416  0.245986  0.996351  1
  H  H26  1  0.474584  0.745986  0.503649  1
  H  H27  1  0.974584  0.754014  0.496351  1
