# generated using pymatgen
data_Ta24GaSiAs6
_symmetry_space_group_name_H-M   'P 1'
_cell_length_a   10.31729681
_cell_length_b   10.39145003
_cell_length_c   5.19913863
_cell_angle_alpha   90.11569767
_cell_angle_beta   90.12398474
_cell_angle_gamma   90.05055953
_symmetry_Int_Tables_number   1
_chemical_formula_structural   Ta24GaSiAs6
_chemical_formula_sum   'Ta24 Ga1 Si1 As6'
_cell_volume   557.40569688
_cell_formula_units_Z   1
loop_
 _symmetry_equiv_pos_site_id
 _symmetry_equiv_pos_as_xyz
  1  'x, y, z'
loop_
 _atom_site_type_symbol
 _atom_site_label
 _atom_site_symmetry_multiplicity
 _atom_site_fract_x
 _atom_site_fract_y
 _atom_site_fract_z
 _atom_site_occupancy
  Ta  Ta0  1  0.510293  0.649611  0.266780  1
  Ta  Ta1  1  0.402942  0.086870  0.021486  1
  Ta  Ta2  1  0.707824  0.805474  0.512799  1
  Ta  Ta3  1  0.906952  0.588988  0.478782  1
  Ta  Ta4  1  0.850037  0.013005  0.765584  1
  Ta  Ta5  1  0.008246  0.148417  0.229347  1
  Ta  Ta6  1  0.788497  0.693590  0.988834  1
  Ta  Ta7  1  0.289961  0.194039  0.508071  1
  Ta  Ta8  1  0.693949  0.208356  0.008790  1
  Ta  Ta9  1  0.416085  0.901831  0.523324  1
  Ta  Ta10  1  0.805578  0.291726  0.490674  1
  Ta  Ta11  1  0.352760  0.510380  0.731475  1
  Ta  Ta12  1  0.647677  0.492028  0.733521  1
  Ta  Ta13  1  0.150677  0.993489  0.773578  1
  Ta  Ta14  1  0.210225  0.306125  0.992008  1
  Ta  Ta15  1  0.912568  0.403571  0.977960  1
  Ta  Ta16  1  0.307140  0.789515  0.005078  1
  Ta  Ta17  1  0.592629  0.909687  0.017399  1
  Ta  Ta18  1  0.085363  0.595841  0.978417  1
  Ta  Ta19  1  0.096706  0.413190  0.478219  1
  Ta  Ta20  1  0.989456  0.849529  0.233940  1
  Ta  Ta21  1  0.195251  0.709689  0.492309  1
  Ta  Ta22  1  0.491217  0.350655  0.268616  1
  Ta  Ta23  1  0.587056  0.096296  0.520600  1
  Ga  Ga24  1  0.981911  0.797712  0.731113  1
  Si  Si25  1  0.518419  0.704202  0.769979  1
  As  As26  1  0.206464  0.978818  0.276363  1
  As  As27  1  0.792443  0.014709  0.267168  1
  As  As28  1  0.481892  0.293600  0.771302  1
  As  As29  1  0.294125  0.518822  0.228060  1
  As  As30  1  0.018729  0.206751  0.726743  1
  As  As31  1  0.706927  0.483483  0.231678  1
