# generated using pymatgen
data_RbPPbO4
_symmetry_space_group_name_H-M   'P 1'
_cell_length_a   5.69021400
_cell_length_b   9.24988500
_cell_length_c   9.60525500
_cell_angle_alpha   90.00000000
_cell_angle_beta   90.00000000
_cell_angle_gamma   90.00000000
_symmetry_Int_Tables_number   1
_chemical_formula_structural   RbPPbO4
_chemical_formula_sum   'Rb4 P4 Pb4 O16'
_cell_volume   505.56131195
_cell_formula_units_Z   4
loop_
 _symmetry_equiv_pos_site_id
 _symmetry_equiv_pos_as_xyz
  1  'x, y, z'
loop_
 _atom_site_type_symbol
 _atom_site_label
 _atom_site_symmetry_multiplicity
 _atom_site_fract_x
 _atom_site_fract_y
 _atom_site_fract_z
 _atom_site_occupancy
  Rb  Rb0  1  0.750000  0.659689  0.020433  1
  Rb  Rb1  1  0.750000  0.840311  0.520433  1
  Rb  Rb2  1  0.250000  0.340311  0.979567  1
  Rb  Rb3  1  0.250000  0.159689  0.479567  1
  P  P4  1  0.750000  0.078937  0.817009  1
  P  P5  1  0.750000  0.421063  0.317009  1
  P  P6  1  0.250000  0.921063  0.182991  1
  P  P7  1  0.250000  0.578937  0.682991  1
  Pb  Pb8  1  0.750000  0.094071  0.161026  1
  Pb  Pb9  1  0.750000  0.405929  0.661026  1
  Pb  Pb10  1  0.250000  0.905929  0.838974  1
  Pb  Pb11  1  0.250000  0.594071  0.338974  1
  O  O12  1  0.750000  0.956781  0.930422  1
  O  O13  1  0.750000  0.543219  0.430422  1
  O  O14  1  0.250000  0.043219  0.069578  1
  O  O15  1  0.250000  0.456781  0.569578  1
  O  O16  1  0.750000  0.230474  0.886621  1
  O  O17  1  0.750000  0.269526  0.386621  1
  O  O18  1  0.250000  0.769526  0.113379  1
  O  O19  1  0.250000  0.730474  0.613379  1
  O  O20  1  0.973759  0.059739  0.723318  1
  O  O21  1  0.526241  0.440261  0.223318  1
  O  O22  1  0.473759  0.940261  0.276682  1
  O  O23  1  0.026241  0.559739  0.776682  1
  O  O24  1  0.026241  0.940261  0.276682  1
  O  O25  1  0.473759  0.559739  0.776682  1
  O  O26  1  0.526241  0.059739  0.723318  1
  O  O27  1  0.973759  0.440261  0.223318  1
