# generated using pymatgen
data_Pr20Co3Bi8Os
_symmetry_space_group_name_H-M   'P 1'
_cell_length_a   8.42976148
_cell_length_b   9.19033300
_cell_length_c   12.97661714
_cell_angle_alpha   90.00000000
_cell_angle_beta   90.31610540
_cell_angle_gamma   90.00000000
_symmetry_Int_Tables_number   1
_chemical_formula_structural   Pr20Co3Bi8Os
_chemical_formula_sum   'Pr20 Co3 Bi8 Os1'
_cell_volume   1005.31327180
_cell_formula_units_Z   1
loop_
 _symmetry_equiv_pos_site_id
 _symmetry_equiv_pos_as_xyz
  1  'x, y, z'
loop_
 _atom_site_type_symbol
 _atom_site_label
 _atom_site_symmetry_multiplicity
 _atom_site_fract_x
 _atom_site_fract_y
 _atom_site_fract_z
 _atom_site_occupancy
  Pr  Pr0  1  0.847711  0.750000  0.798135  1
  Pr  Pr1  1  0.151213  0.250000  0.199716  1
  Pr  Pr2  1  0.349677  0.250000  0.699236  1
  Pr  Pr3  1  0.650004  0.750000  0.295959  1
  Pr  Pr4  1  0.377942  0.750000  0.694598  1
  Pr  Pr5  1  0.621325  0.250000  0.307675  1
  Pr  Pr6  1  0.878568  0.250000  0.809463  1
  Pr  Pr7  1  0.120869  0.750000  0.189989  1
  Pr  Pr8  1  0.946563  0.750000  0.503279  1
  Pr  Pr9  1  0.050058  0.250000  0.495647  1
  Pr  Pr10  1  0.451374  0.250000  0.997241  1
  Pr  Pr11  1  0.549427  0.750000  0.002701  1
  Pr  Pr12  1  0.680800  0.038419  0.566153  1
  Pr  Pr13  1  0.320967  0.965097  0.436948  1
  Pr  Pr14  1  0.179063  0.967641  0.937144  1
  Pr  Pr15  1  0.320967  0.534903  0.436948  1
  Pr  Pr16  1  0.819468  0.033451  0.062931  1
  Pr  Pr17  1  0.680800  0.461581  0.566153  1
  Pr  Pr18  1  0.819468  0.466549  0.062931  1
  Pr  Pr19  1  0.179063  0.532359  0.937144  1
  Co  Co20  1  0.429293  0.250000  0.490246  1
  Co  Co21  1  0.063840  0.250000  0.991946  1
  Co  Co22  1  0.934496  0.750000  0.006982  1
  Bi  Bi23  1  0.573921  0.492107  0.826787  1
  Bi  Bi24  1  0.425485  0.506657  0.173835  1
  Bi  Bi25  1  0.073779  0.506247  0.674713  1
  Bi  Bi26  1  0.425485  0.993343  0.173835  1
  Bi  Bi27  1  0.927714  0.493392  0.324633  1
  Bi  Bi28  1  0.573921  0.007893  0.826787  1
  Bi  Bi29  1  0.927714  0.006608  0.324633  1
  Bi  Bi30  1  0.073779  0.993753  0.674713  1
  Os  Os31  1  0.575250  0.750000  0.510897  1
