# generated using pymatgen
data_Pa(Ni2As)2
_symmetry_space_group_name_H-M   'P 1'
_cell_length_a   7.22205100
_cell_length_b   7.22205100
_cell_length_c   3.84921600
_cell_angle_alpha   90.00000000
_cell_angle_beta   90.00000000
_cell_angle_gamma   90.00000000
_symmetry_Int_Tables_number   1
_chemical_formula_structural   Pa(Ni2As)2
_chemical_formula_sum   'Pa2 Ni8 As4'
_cell_volume   200.76748760
_cell_formula_units_Z   2
loop_
 _symmetry_equiv_pos_site_id
 _symmetry_equiv_pos_as_xyz
  1  'x, y, z'
loop_
 _atom_site_type_symbol
 _atom_site_label
 _atom_site_symmetry_multiplicity
 _atom_site_fract_x
 _atom_site_fract_y
 _atom_site_fract_z
 _atom_site_occupancy
  Pa  Pa0  1  0.500000  0.500000  0.000000  1
  Pa  Pa1  1  0.000000  0.000000  0.500000  1
  Ni  Ni2  1  0.592464  0.153392  0.500000  1
  Ni  Ni3  1  0.407536  0.846608  0.500000  1
  Ni  Ni4  1  0.092464  0.346608  0.000000  1
  Ni  Ni5  1  0.907536  0.653392  0.000000  1
  Ni  Ni6  1  0.153392  0.592464  0.500000  1
  Ni  Ni7  1  0.846608  0.407536  0.500000  1
  Ni  Ni8  1  0.346608  0.092464  0.000000  1
  Ni  Ni9  1  0.653392  0.907536  0.000000  1
  As  As10  1  0.716966  0.716966  0.500000  1
  As  As11  1  0.283034  0.283034  0.500000  1
  As  As12  1  0.216966  0.783034  0.000000  1
  As  As13  1  0.783034  0.216966  0.000000  1
