# generated using pymatgen
data_Zr10Bi7
_symmetry_space_group_name_H-M   'P 1'
_cell_length_a   6.03766304
_cell_length_b   8.86598321
_cell_length_c   8.86616103
_cell_angle_alpha   120.00049952
_cell_angle_beta   89.99991385
_cell_angle_gamma   90.00070489
_symmetry_Int_Tables_number   1
_chemical_formula_structural   Zr10Bi7
_chemical_formula_sum   'Zr10 Bi7'
_cell_volume   411.01704888
_cell_formula_units_Z   1
loop_
 _symmetry_equiv_pos_site_id
 _symmetry_equiv_pos_as_xyz
  1  'x, y, z'
loop_
 _atom_site_type_symbol
 _atom_site_label
 _atom_site_symmetry_multiplicity
 _atom_site_fract_x
 _atom_site_fract_y
 _atom_site_fract_z
 _atom_site_occupancy
  Zr  Zr0  1  0.499999  0.333325  0.666660  1
  Zr  Zr1  1  0.500000  0.666669  0.333341  1
  Zr  Zr2  1  0.000001  0.666672  0.333342  1
  Zr  Zr3  1  0.000000  0.333324  0.666659  1
  Zr  Zr4  1  0.778159  0.269014  0.999996  1
  Zr  Zr5  1  0.778145  0.730989  0.730984  1
  Zr  Zr6  1  0.778143  0.000002  0.269018  1
  Zr  Zr7  1  0.221857  0.730985  0.000001  1
  Zr  Zr8  1  0.221851  0.269015  0.269009  1
  Zr  Zr9  1  0.221851  0.000009  0.730988  1
  Bi  Bi10  1  0.743791  0.613849  0.000000  1
  Bi  Bi11  1  0.743795  0.386143  0.386140  1
  Bi  Bi12  1  0.743797  0.000005  0.613861  1
  Bi  Bi13  1  0.256209  0.386138  0.000000  1
  Bi  Bi14  1  0.256201  0.613857  0.613852  1
  Bi  Bi15  1  0.256200  0.000003  0.386149  1
  Bi  Bi16  1  0.500002  0.000004  0.000001  1
