# generated using pymatgen
data_Pr2NdThSe6
_symmetry_space_group_name_H-M   'P 1'
_cell_length_a   11.53070100
_cell_length_b   4.15988800
_cell_length_c   11.28685500
_cell_angle_alpha   90.00000000
_cell_angle_beta   90.00000000
_cell_angle_gamma   90.00000000
_symmetry_Int_Tables_number   1
_chemical_formula_structural   Pr2NdThSe6
_chemical_formula_sum   'Pr4 Nd2 Th2 Se12'
_cell_volume   541.39008070
_cell_formula_units_Z   2
loop_
 _symmetry_equiv_pos_site_id
 _symmetry_equiv_pos_as_xyz
  1  'x, y, z'
loop_
 _atom_site_type_symbol
 _atom_site_label
 _atom_site_symmetry_multiplicity
 _atom_site_fract_x
 _atom_site_fract_y
 _atom_site_fract_z
 _atom_site_occupancy
  Pr  Pr0  1  0.515406  0.750000  0.813669  1
  Pr  Pr1  1  0.015406  0.750000  0.686331  1
  Pr  Pr2  1  0.305844  0.250000  0.506025  1
  Pr  Pr3  1  0.805844  0.250000  0.993975  1
  Nd  Nd4  1  0.485332  0.250000  0.186270  1
  Nd  Nd5  1  0.985332  0.250000  0.313730  1
  Th  Th6  1  0.692238  0.750000  0.499489  1
  Th  Th7  1  0.192238  0.750000  0.000511  1
  Se  Se8  1  0.550778  0.250000  0.624199  1
  Se  Se9  1  0.050778  0.250000  0.875801  1
  Se  Se10  1  0.455652  0.750000  0.374841  1
  Se  Se11  1  0.955652  0.750000  0.125159  1
  Se  Se12  1  0.621328  0.750000  0.055687  1
  Se  Se13  1  0.121328  0.750000  0.444313  1
  Se  Se14  1  0.376051  0.250000  0.946867  1
  Se  Se15  1  0.876051  0.250000  0.553133  1
  Se  Se16  1  0.722831  0.250000  0.303887  1
  Se  Se17  1  0.222831  0.250000  0.196113  1
  Se  Se18  1  0.274541  0.750000  0.705584  1
  Se  Se19  1  0.774541  0.750000  0.794416  1
