# generated using pymatgen
data_Tb19Dy(Pt2Rh)4
_symmetry_space_group_name_H-M   'P 1'
_cell_length_a   11.11887500
_cell_length_b   11.11887500
_cell_length_c   6.36585000
_cell_angle_alpha   90.00000000
_cell_angle_beta   90.00000000
_cell_angle_gamma   90.00000000
_symmetry_Int_Tables_number   1
_chemical_formula_structural   Tb19Dy(Pt2Rh)4
_chemical_formula_sum   'Tb19 Dy1 Pt8 Rh4'
_cell_volume   787.00609673
_cell_formula_units_Z   1
loop_
 _symmetry_equiv_pos_site_id
 _symmetry_equiv_pos_as_xyz
  1  'x, y, z'
loop_
 _atom_site_type_symbol
 _atom_site_label
 _atom_site_symmetry_multiplicity
 _atom_site_fract_x
 _atom_site_fract_y
 _atom_site_fract_z
 _atom_site_occupancy
  Tb  Tb0  1  0.293863  0.088719  0.374717  1
  Tb  Tb1  1  0.293870  0.911283  0.874740  1
  Tb  Tb2  1  0.706130  0.088717  0.874740  1
  Tb  Tb3  1  0.706137  0.911281  0.374717  1
  Tb  Tb4  1  0.588677  0.793766  0.874784  1
  Tb  Tb5  1  0.588646  0.206305  0.374901  1
  Tb  Tb6  1  0.411354  0.793695  0.374901  1
  Tb  Tb7  1  0.411323  0.206234  0.874784  1
  Tb  Tb8  1  0.206305  0.411354  0.625099  1
  Tb  Tb9  1  0.206234  0.588677  0.125216  1
  Tb  Tb10  1  0.793766  0.411323  0.125216  1
  Tb  Tb11  1  0.793695  0.588646  0.625099  1
  Tb  Tb12  1  0.911283  0.706130  0.125260  1
  Tb  Tb13  1  0.911281  0.293863  0.625283  1
  Tb  Tb14  1  0.088719  0.706137  0.625283  1
  Tb  Tb15  1  0.088717  0.293870  0.125260  1
  Tb  Tb16  1  0.000000  0.000000  0.500000  1
  Tb  Tb17  1  0.000000  0.000000  0.000000  1
  Tb  Tb18  1  0.500000  0.500000  0.000000  1
  Dy  Dy19  1  0.500000  0.500000  0.500000  1
  Pt  Pt20  1  0.845708  0.154299  0.250027  1
  Pt  Pt21  1  0.845701  0.845708  0.749973  1
  Pt  Pt22  1  0.154299  0.154292  0.749973  1
  Pt  Pt23  1  0.154292  0.845701  0.250027  1
  Pt  Pt24  1  0.653966  0.346063  0.749407  1
  Pt  Pt25  1  0.653937  0.653966  0.250593  1
  Pt  Pt26  1  0.346063  0.346034  0.250593  1
  Pt  Pt27  1  0.346034  0.653937  0.749407  1
  Rh  Rh28  1  0.500000  0.000000  0.119814  1
  Rh  Rh29  1  0.500000  0.000000  0.619867  1
  Rh  Rh30  1  0.000000  0.500000  0.880186  1
  Rh  Rh31  1  0.000000  0.500000  0.380133  1
