# generated using pymatgen
data_HoTm3(Lu3Ru2)2
_symmetry_space_group_name_H-M   'P 1'
_cell_length_a   6.21071266
_cell_length_b   7.22492368
_cell_length_c   8.31187184
_cell_angle_alpha   97.10380762
_cell_angle_beta   111.92910402
_cell_angle_gamma   89.96270974
_symmetry_Int_Tables_number   1
_chemical_formula_structural   HoTm3(Lu3Ru2)2
_chemical_formula_sum   'Ho1 Tm3 Lu6 Ru4'
_cell_volume   342.90793648
_cell_formula_units_Z   1
loop_
 _symmetry_equiv_pos_site_id
 _symmetry_equiv_pos_as_xyz
  1  'x, y, z'
loop_
 _atom_site_type_symbol
 _atom_site_label
 _atom_site_symmetry_multiplicity
 _atom_site_fract_x
 _atom_site_fract_y
 _atom_site_fract_z
 _atom_site_occupancy
  Ho  Ho0  1  0.522155  0.083319  0.812173  1
  Tm  Tm1  1  0.478464  0.916195  0.187795  1
  Tm  Tm2  1  0.708952  0.416625  0.187690  1
  Tm  Tm3  1  0.290788  0.583466  0.812822  1
  Lu  Lu4  1  0.300025  0.313789  0.433240  1
  Lu  Lu5  1  0.699851  0.686493  0.566300  1
  Lu  Lu6  1  0.866564  0.186353  0.565958  1
  Lu  Lu7  1  0.133327  0.813108  0.433336  1
  Lu  Lu8  1  0.080748  0.250549  0.000436  1
  Lu  Lu9  1  0.919902  0.749487  0.000172  1
  Ru  Ru10  1  0.321634  0.577351  0.220918  1
  Ru  Ru11  1  0.679168  0.423612  0.778713  1
  Ru  Ru12  1  0.098397  0.922348  0.778563  1
  Ru  Ru13  1  0.900025  0.077307  0.221883  1
