# generated using pymatgen
data_Tb2Al9Co2Cu
_symmetry_space_group_name_H-M   'P 1'
_cell_length_a   7.44153805
_cell_length_b   7.44153773
_cell_length_c   9.30073000
_cell_angle_alpha   90.00000000
_cell_angle_beta   90.00000000
_cell_angle_gamma   119.43172641
_symmetry_Int_Tables_number   1
_chemical_formula_structural   Tb2Al9Co2Cu
_chemical_formula_sum   'Tb4 Al18 Co4 Cu2'
_cell_volume   448.57141113
_cell_formula_units_Z   2
loop_
 _symmetry_equiv_pos_site_id
 _symmetry_equiv_pos_as_xyz
  1  'x, y, z'
loop_
 _atom_site_type_symbol
 _atom_site_label
 _atom_site_symmetry_multiplicity
 _atom_site_fract_x
 _atom_site_fract_y
 _atom_site_fract_z
 _atom_site_occupancy
  Tb  Tb0  1  0.993812  0.676598  0.250000  1
  Tb  Tb1  1  0.006188  0.323402  0.750000  1
  Tb  Tb2  1  0.676598  0.993812  0.250000  1
  Tb  Tb3  1  0.323402  0.006188  0.750000  1
  Al  Al4  1  0.133781  0.133781  0.250000  1
  Al  Al5  1  0.866219  0.866219  0.750000  1
  Al  Al6  1  0.338595  0.338595  0.547564  1
  Al  Al7  1  0.661405  0.661405  0.047564  1
  Al  Al8  1  0.338595  0.338595  0.952436  1
  Al  Al9  1  0.661405  0.661405  0.452436  1
  Al  Al10  1  0.338249  0.555792  0.250000  1
  Al  Al11  1  0.661751  0.444208  0.750000  1
  Al  Al12  1  0.555792  0.338249  0.250000  1
  Al  Al13  1  0.444208  0.661751  0.750000  1
  Al  Al14  1  0.998077  0.342994  0.073119  1
  Al  Al15  1  0.001923  0.657006  0.573119  1
  Al  Al16  1  0.342994  0.998077  0.426881  1
  Al  Al17  1  0.657006  0.001923  0.926881  1
  Al  Al18  1  0.001923  0.657006  0.926881  1
  Al  Al19  1  0.998077  0.342994  0.426881  1
  Al  Al20  1  0.657006  0.001923  0.573119  1
  Al  Al21  1  0.342994  0.998077  0.073119  1
  Co  Co22  1  0.670505  0.329495  0.000000  1
  Co  Co23  1  0.329495  0.670505  0.500000  1
  Co  Co24  1  0.329495  0.670505  0.000000  1
  Co  Co25  1  0.670505  0.329495  0.500000  1
  Cu  Cu26  1  0.000000  0.000000  0.000000  1
  Cu  Cu27  1  0.000000  0.000000  0.500000  1
