# generated using pymatgen
data_DyY(Al5Os)4
_symmetry_space_group_name_H-M   'P 1'
_cell_length_a   6.86239485
_cell_length_b   6.86239521
_cell_length_c   9.16910700
_cell_angle_alpha   90.00000000
_cell_angle_beta   90.00000000
_cell_angle_gamma   96.52542733
_symmetry_Int_Tables_number   1
_chemical_formula_structural   DyY(Al5Os)4
_chemical_formula_sum   'Dy1 Y1 Al20 Os4'
_cell_volume   428.99847422
_cell_formula_units_Z   1
loop_
 _symmetry_equiv_pos_site_id
 _symmetry_equiv_pos_as_xyz
  1  'x, y, z'
loop_
 _atom_site_type_symbol
 _atom_site_label
 _atom_site_symmetry_multiplicity
 _atom_site_fract_x
 _atom_site_fract_y
 _atom_site_fract_z
 _atom_site_occupancy
  Dy  Dy0  1  0.629121  0.370879  0.750000  1
  Y  Y1  1  0.371001  0.628999  0.250000  1
  Al  Al2  1  0.281577  0.019119  0.750000  1
  Al  Al3  1  0.019766  0.281932  0.250000  1
  Al  Al4  1  0.718068  0.980234  0.250000  1
  Al  Al5  1  0.980881  0.718423  0.750000  1
  Al  Al6  1  0.876469  0.123531  0.951564  1
  Al  Al7  1  0.123384  0.876616  0.044388  1
  Al  Al8  1  0.876469  0.123531  0.548436  1
  Al  Al9  1  0.123384  0.876616  0.455612  1
  Al  Al10  1  0.645697  0.916100  0.750000  1
  Al  Al11  1  0.914616  0.646065  0.250000  1
  Al  Al12  1  0.353935  0.085384  0.250000  1
  Al  Al13  1  0.083900  0.354303  0.750000  1
  Al  Al14  1  0.344347  0.655653  0.898805  1
  Al  Al15  1  0.657231  0.342769  0.101013  1
  Al  Al16  1  0.344347  0.655653  0.601195  1
  Al  Al17  1  0.657231  0.342769  0.398987  1
  Al  Al18  1  0.723789  0.724080  0.999663  1
  Al  Al19  1  0.723789  0.724080  0.500337  1
  Al  Al20  1  0.275920  0.276211  0.999663  1
  Al  Al21  1  0.275920  0.276211  0.500337  1
  Os  Os22  1  0.499804  0.000225  0.000028  1
  Os  Os23  1  0.999775  0.500196  0.000028  1
  Os  Os24  1  0.499804  0.000225  0.499972  1
  Os  Os25  1  0.999775  0.500196  0.499972  1
