# generated using pymatgen
data_ErLuBi2(SeO3)6
_symmetry_space_group_name_H-M   'P 1'
_cell_length_a   7.20443263
_cell_length_b   8.19998001
_cell_length_c   9.24730311
_cell_angle_alpha   70.97980800
_cell_angle_beta   70.31516341
_cell_angle_gamma   65.61856868
_symmetry_Int_Tables_number   1
_chemical_formula_structural   ErLuBi2(SeO3)6
_chemical_formula_sum   'Er1 Lu1 Bi2 Se6 O18'
_cell_volume   457.24213063
_cell_formula_units_Z   1
loop_
 _symmetry_equiv_pos_site_id
 _symmetry_equiv_pos_as_xyz
  1  'x, y, z'
loop_
 _atom_site_type_symbol
 _atom_site_label
 _atom_site_symmetry_multiplicity
 _atom_site_fract_x
 _atom_site_fract_y
 _atom_site_fract_z
 _atom_site_occupancy
  Er  Er0  1  0.260911  0.263533  0.197666  1
  Lu  Lu1  1  0.739795  0.737964  0.801821  1
  Bi  Bi2  1  0.330505  0.727747  0.601645  1
  Bi  Bi3  1  0.670223  0.271526  0.399499  1
  Se  Se4  1  0.428469  0.778038  0.191318  1
  Se  Se5  1  0.573219  0.218692  0.807874  1
  Se  Se6  1  0.146233  0.751149  0.968721  1
  Se  Se7  1  0.852180  0.253379  0.029075  1
  Se  Se8  1  0.882959  0.749270  0.428412  1
  Se  Se9  1  0.116518  0.249747  0.574436  1
  O  O10  1  0.646890  0.785407  0.043941  1
  O  O11  1  0.352965  0.212715  0.952858  1
  O  O12  1  0.370980  0.952170  0.283085  1
  O  O13  1  0.633061  0.043147  0.716517  1
  O  O14  1  0.522325  0.598084  0.344159  1
  O  O15  1  0.481347  0.398215  0.654056  1
  O  O16  1  0.169366  0.565481  0.120037  1
  O  O17  1  0.827125  0.441074  0.879476  1
  O  O18  1  0.402685  0.711614  0.850463  1
  O  O19  1  0.596856  0.289464  0.147794  1
  O  O20  1  0.348887  0.240764  0.427700  1
  O  O21  1  0.650639  0.759372  0.575855  1
  O  O22  1  0.980819  0.296145  0.431784  1
  O  O23  1  0.017105  0.704838  0.571750  1
  O  O24  1  0.143410  0.028735  0.665355  1
  O  O25  1  0.856447  0.969740  0.335597  1
  O  O26  1  0.941744  0.300193  0.159719  1
  O  O27  1  0.056336  0.701797  0.839388  1
