# generated using pymatgen
data_Er4NbCrOs6
_symmetry_space_group_name_H-M   'P 1'
_cell_length_a   5.22705572
_cell_length_b   5.22705540
_cell_length_c   8.91097300
_cell_angle_alpha   90.00000000
_cell_angle_beta   90.00000000
_cell_angle_gamma   116.58508003
_symmetry_Int_Tables_number   1
_chemical_formula_structural   Er4NbCrOs6
_chemical_formula_sum   'Er4 Nb1 Cr1 Os6'
_cell_volume   217.72505694
_cell_formula_units_Z   1
loop_
 _symmetry_equiv_pos_site_id
 _symmetry_equiv_pos_as_xyz
  1  'x, y, z'
loop_
 _atom_site_type_symbol
 _atom_site_label
 _atom_site_symmetry_multiplicity
 _atom_site_fract_x
 _atom_site_fract_y
 _atom_site_fract_z
 _atom_site_occupancy
  Er  Er0  1  0.331438  0.668562  0.431204  1
  Er  Er1  1  0.670786  0.329214  0.559410  1
  Er  Er2  1  0.670786  0.329214  0.940590  1
  Er  Er3  1  0.331438  0.668562  0.068796  1
  Nb  Nb4  1  0.159542  0.840458  0.750000  1
  Cr  Cr5  1  0.838653  0.161347  0.250000  1
  Os  Os6  1  0.995494  0.004506  0.490878  1
  Os  Os7  1  0.995494  0.004506  0.009122  1
  Os  Os8  1  0.824352  0.645104  0.250000  1
  Os  Os9  1  0.354896  0.175648  0.250000  1
  Os  Os10  1  0.175958  0.348835  0.750000  1
  Os  Os11  1  0.651165  0.824042  0.750000  1
