# generated using pymatgen
data_YEr2In3Ga2Rh
_symmetry_space_group_name_H-M   'P 1'
_cell_length_a   7.29208400
_cell_length_b   7.27922039
_cell_length_c   4.42050100
_cell_angle_alpha   90.00000000
_cell_angle_beta   90.00000000
_cell_angle_gamma   120.05847469
_symmetry_Int_Tables_number   1
_chemical_formula_structural   YEr2In3Ga2Rh
_chemical_formula_sum   'Y1 Er2 In3 Ga2 Rh1'
_cell_volume   203.08715490
_cell_formula_units_Z   1
loop_
 _symmetry_equiv_pos_site_id
 _symmetry_equiv_pos_as_xyz
  1  'x, y, z'
loop_
 _atom_site_type_symbol
 _atom_site_label
 _atom_site_symmetry_multiplicity
 _atom_site_fract_x
 _atom_site_fract_y
 _atom_site_fract_z
 _atom_site_occupancy
  Y  Y0  1  0.592627  0.000000  0.500000  1
  Er  Er1  1  0.999736  0.594298  0.500000  1
  Er  Er2  1  0.405438  0.405702  0.500000  1
  In  In3  1  0.000612  0.246502  0.000000  1
  In  In4  1  0.245322  0.000000  0.000000  1
  In  In5  1  0.754109  0.753498  0.000000  1
  Ga  Ga6  1  0.332699  0.665727  0.000000  1
  Ga  Ga7  1  0.666975  0.334273  0.000000  1
  Rh  Rh8  1  0.002482  0.000000  0.500000  1
