# generated using pymatgen
data_Hf18Re8GeOs
_symmetry_space_group_name_H-M   'P 1'
_cell_length_a   8.60958901
_cell_length_b   8.60950413
_cell_length_c   8.63656400
_cell_angle_alpha   90.00000000
_cell_angle_beta   90.00000000
_cell_angle_gamma   119.99608407
_symmetry_Int_Tables_number   1
_chemical_formula_structural   Hf18Re8GeOs
_chemical_formula_sum   'Hf18 Re8 Ge1 Os1'
_cell_volume   554.43331933
_cell_formula_units_Z   1
loop_
 _symmetry_equiv_pos_site_id
 _symmetry_equiv_pos_as_xyz
  1  'x, y, z'
loop_
 _atom_site_type_symbol
 _atom_site_label
 _atom_site_symmetry_multiplicity
 _atom_site_fract_x
 _atom_site_fract_y
 _atom_site_fract_z
 _atom_site_occupancy
  Hf  Hf0  1  0.197667  0.802454  0.448057  1
  Hf  Hf1  1  0.197500  0.394997  0.448115  1
  Hf  Hf2  1  0.604926  0.802518  0.448083  1
  Hf  Hf3  1  0.807199  0.192687  0.546856  1
  Hf  Hf4  1  0.807356  0.614740  0.546825  1
  Hf  Hf5  1  0.385351  0.192615  0.546858  1
  Hf  Hf6  1  0.807199  0.192687  0.953144  1
  Hf  Hf7  1  0.807356  0.614740  0.953175  1
  Hf  Hf8  1  0.385351  0.192615  0.953142  1
  Hf  Hf9  1  0.197667  0.802454  0.051943  1
  Hf  Hf10  1  0.197500  0.394997  0.051885  1
  Hf  Hf11  1  0.604926  0.802518  0.051917  1
  Hf  Hf12  1  0.540512  0.459429  0.250000  1
  Hf  Hf13  1  0.540539  0.081008  0.250000  1
  Hf  Hf14  1  0.918980  0.459441  0.250000  1
  Hf  Hf15  1  0.460210  0.539775  0.750000  1
  Hf  Hf16  1  0.460180  0.920400  0.750000  1
  Hf  Hf17  1  0.079580  0.539808  0.750000  1
  Re  Re18  1  0.889688  0.110319  0.250000  1
  Re  Re19  1  0.889728  0.779529  0.250000  1
  Re  Re20  1  0.220538  0.110296  0.250000  1
  Re  Re21  1  0.109572  0.890533  0.750000  1
  Re  Re22  1  0.109535  0.219076  0.750000  1
  Re  Re23  1  0.780935  0.890512  0.750000  1
  Re  Re24  1  0.999962  0.000034  0.498321  1
  Re  Re25  1  0.999962  0.000034  0.001679  1
  Ge  Ge26  1  0.666758  0.333279  0.750000  1
  Os  Os27  1  0.333322  0.666505  0.250000  1
