# generated using pymatgen
data_CrB2MoO6
_symmetry_space_group_name_H-M   'P 1'
_cell_length_a   5.72468204
_cell_length_b   5.72468243
_cell_length_c   5.72468261
_cell_angle_alpha   49.00776788
_cell_angle_beta   49.00777147
_cell_angle_gamma   49.00777410
_symmetry_Int_Tables_number   1
_chemical_formula_structural   CrB2MoO6
_chemical_formula_sum   'Cr1 B2 Mo1 O6'
_cell_volume   98.14159505
_cell_formula_units_Z   1
loop_
 _symmetry_equiv_pos_site_id
 _symmetry_equiv_pos_as_xyz
  1  'x, y, z'
loop_
 _atom_site_type_symbol
 _atom_site_label
 _atom_site_symmetry_multiplicity
 _atom_site_fract_x
 _atom_site_fract_y
 _atom_site_fract_z
 _atom_site_occupancy
  Cr  Cr0  1  0.500000  0.500000  0.500000  1
  B  B1  1  0.754752  0.754752  0.754752  1
  B  B2  1  0.245248  0.245248  0.245248  1
  Mo  Mo3  1  0.000000  0.000000  0.000000  1
  O  O4  1  0.470048  0.052571  0.737431  1
  O  O5  1  0.737431  0.470048  0.052571  1
  O  O6  1  0.947429  0.262569  0.529952  1
  O  O7  1  0.529952  0.947429  0.262569  1
  O  O8  1  0.262569  0.529952  0.947429  1
  O  O9  1  0.052571  0.737431  0.470048  1
