# generated using pymatgen
data_NdTm7(AlRu)8
_symmetry_space_group_name_H-M   'P 1'
_cell_length_a   4.07494000
_cell_length_b   6.96910411
_cell_length_c   15.85629586
_cell_angle_alpha   89.82904315
_cell_angle_beta   90.00000000
_cell_angle_gamma   90.00000000
_symmetry_Int_Tables_number   1
_chemical_formula_structural   NdTm7(AlRu)8
_chemical_formula_sum   'Nd1 Tm7 Al8 Ru8'
_cell_volume   450.29588531
_cell_formula_units_Z   1
loop_
 _symmetry_equiv_pos_site_id
 _symmetry_equiv_pos_as_xyz
  1  'x, y, z'
loop_
 _atom_site_type_symbol
 _atom_site_label
 _atom_site_symmetry_multiplicity
 _atom_site_fract_x
 _atom_site_fract_y
 _atom_site_fract_z
 _atom_site_occupancy
  Nd  Nd0  1  0.250000  0.534894  0.720904  1
  Tm  Tm1  1  0.750000  0.962845  0.219246  1
  Tm  Tm2  1  0.250000  0.157381  0.561770  1
  Tm  Tm3  1  0.750000  0.843923  0.435461  1
  Tm  Tm4  1  0.750000  0.462398  0.281132  1
  Tm  Tm5  1  0.750000  0.342081  0.064413  1
  Tm  Tm6  1  0.250000  0.657147  0.938202  1
  Tm  Tm7  1  0.250000  0.037555  0.782188  1
  Al  Al8  1  0.750000  0.503212  0.562534  1
  Al  Al9  1  0.750000  0.361895  0.852332  1
  Al  Al10  1  0.750000  0.999903  0.935722  1
  Al  Al11  1  0.750000  0.871076  0.649312  1
  Al  Al12  1  0.250000  0.499682  0.433170  1
  Al  Al13  1  0.250000  0.997168  0.066922  1
  Al  Al14  1  0.250000  0.632904  0.151849  1
  Al  Al15  1  0.250000  0.133944  0.348129  1
  Ru  Ru16  1  0.750000  0.753987  0.814074  1
  Ru  Ru17  1  0.250000  0.235746  0.938982  1
  Ru  Ru18  1  0.750000  0.263283  0.436327  1
  Ru  Ru19  1  0.250000  0.752956  0.311737  1
  Ru  Ru20  1  0.750000  0.761721  0.063862  1
  Ru  Ru21  1  0.750000  0.240680  0.684884  1
  Ru  Ru22  1  0.250000  0.252458  0.187292  1
  Ru  Ru23  1  0.250000  0.741165  0.559555  1
