# generated using pymatgen
data_HoCu3RhAu
_symmetry_space_group_name_H-M   'P 1'
_cell_length_a   5.19324119
_cell_length_b   5.19324180
_cell_length_c   5.19324220
_cell_angle_alpha   57.64449565
_cell_angle_beta   57.64449363
_cell_angle_gamma   57.64449778
_symmetry_Int_Tables_number   1
_chemical_formula_structural   HoCu3RhAu
_chemical_formula_sum   'Ho1 Cu3 Rh1 Au1'
_cell_volume   93.67634252
_cell_formula_units_Z   1
loop_
 _symmetry_equiv_pos_site_id
 _symmetry_equiv_pos_as_xyz
  1  'x, y, z'
loop_
 _atom_site_type_symbol
 _atom_site_label
 _atom_site_symmetry_multiplicity
 _atom_site_fract_x
 _atom_site_fract_y
 _atom_site_fract_z
 _atom_site_occupancy
  Ho  Ho0  1  0.251602  0.251602  0.251602  1
  Cu  Cu1  1  0.622629  0.622629  0.121647  1
  Cu  Cu2  1  0.622629  0.121647  0.622629  1
  Cu  Cu3  1  0.121647  0.622629  0.622629  1
  Rh  Rh4  1  0.622335  0.622335  0.622335  1
  Au  Au5  1  0.009157  0.009157  0.009157  1
