# generated using pymatgen
data_Lu6UFe22
_symmetry_space_group_name_H-M   'P 1'
_cell_length_a   8.43242605
_cell_length_b   8.43352321
_cell_length_c   8.43242601
_cell_angle_alpha   119.99384706
_cell_angle_beta   90.00939706
_cell_angle_gamma   119.99384311
_symmetry_Int_Tables_number   1
_chemical_formula_structural   Lu6UFe22
_chemical_formula_sum   'Lu6 U1 Fe22'
_cell_volume   424.07660179
_cell_formula_units_Z   1
loop_
 _symmetry_equiv_pos_site_id
 _symmetry_equiv_pos_as_xyz
  1  'x, y, z'
loop_
 _atom_site_type_symbol
 _atom_site_label
 _atom_site_symmetry_multiplicity
 _atom_site_fract_x
 _atom_site_fract_y
 _atom_site_fract_z
 _atom_site_occupancy
  Lu  Lu0  1  0.706490  0.000038  0.293575  1
  Lu  Lu1  1  0.293580  0.000064  0.293580  1
  Lu  Lu2  1  0.293559  0.587058  0.293559  1
  Lu  Lu3  1  0.706445  0.000013  0.706445  1
  Lu  Lu4  1  0.293575  0.000038  0.706490  1
  Lu  Lu5  1  0.706445  0.412890  0.706445  1
  U  U6  1  0.000109  0.000113  0.000109  1
  Fe  Fe7  1  0.500003  0.000035  0.000002  1
  Fe  Fe8  1  0.999970  0.499969  0.999970  1
  Fe  Fe9  1  0.499998  0.499969  0.000000  1
  Fe  Fe10  1  0.674148  0.348254  0.022395  1
  Fe  Fe11  1  0.366540  0.244321  0.122127  1
  Fe  Fe12  1  0.877789  0.244382  0.122192  1
  Fe  Fe13  1  0.877810  0.755626  0.122203  1
  Fe  Fe14  1  0.674095  0.348236  0.325841  1
  Fe  Fe15  1  0.674119  0.651725  0.325874  1
  Fe  Fe16  1  0.977617  0.651736  0.325837  1
  Fe  Fe17  1  0.122127  0.244321  0.366540  1
  Fe  Fe18  1  0.000002  0.000035  0.500003  1
  Fe  Fe19  1  0.000000  0.499969  0.499998  1
  Fe  Fe20  1  0.499972  0.499970  0.499972  1
  Fe  Fe21  1  0.877844  0.755633  0.633416  1
  Fe  Fe22  1  0.022395  0.348254  0.674148  1
  Fe  Fe23  1  0.325841  0.348236  0.674095  1
  Fe  Fe24  1  0.325874  0.651725  0.674119  1
  Fe  Fe25  1  0.122192  0.244382  0.877789  1
  Fe  Fe26  1  0.122203  0.755626  0.877810  1
  Fe  Fe27  1  0.633416  0.755633  0.877844  1
  Fe  Fe28  1  0.325837  0.651736  0.977617  1
