# generated using pymatgen
data_LiHo8InRh2
_symmetry_space_group_name_H-M   'P 1'
_cell_length_a   9.60098256
_cell_length_b   9.60098230
_cell_length_c   9.62027300
_cell_angle_alpha   59.93351598
_cell_angle_beta   59.93351685
_cell_angle_gamma   59.86448091
_symmetry_Int_Tables_number   1
_chemical_formula_structural   LiHo8InRh2
_chemical_formula_sum   'Li2 Ho16 In2 Rh4'
_cell_volume   625.77861214
_cell_formula_units_Z   2
loop_
 _symmetry_equiv_pos_site_id
 _symmetry_equiv_pos_as_xyz
  1  'x, y, z'
loop_
 _atom_site_type_symbol
 _atom_site_label
 _atom_site_symmetry_multiplicity
 _atom_site_fract_x
 _atom_site_fract_y
 _atom_site_fract_z
 _atom_site_occupancy
  Li  Li0  1  0.823691  0.823691  0.826130  1
  Li  Li1  1  0.823691  0.823691  0.526489  1
  Ho  Ho2  1  0.185686  0.185686  0.814314  1
  Ho  Ho3  1  0.599163  0.599163  0.201039  1
  Ho  Ho4  1  0.438534  0.061517  0.439040  1
  Ho  Ho5  1  0.441741  0.441741  0.058259  1
  Ho  Ho6  1  0.813544  0.186540  0.813644  1
  Ho  Ho7  1  0.186540  0.813544  0.186273  1
  Ho  Ho8  1  0.438534  0.061517  0.060909  1
  Ho  Ho9  1  0.186540  0.813544  0.813644  1
  Ho  Ho10  1  0.061517  0.438534  0.060909  1
  Ho  Ho11  1  0.812309  0.812309  0.187691  1
  Ho  Ho12  1  0.206607  0.597466  0.597963  1
  Ho  Ho13  1  0.061517  0.438534  0.439040  1
  Ho  Ho14  1  0.065876  0.065876  0.434124  1
  Ho  Ho15  1  0.813544  0.186540  0.186273  1
  Ho  Ho16  1  0.597466  0.206607  0.597963  1
  Ho  Ho17  1  0.599163  0.599163  0.600636  1
  In  In18  1  0.506070  0.834151  0.829890  1
  In  In19  1  0.834151  0.506070  0.829890  1
  Rh  Rh20  1  0.394722  0.822627  0.391326  1
  Rh  Rh21  1  0.393385  0.393385  0.390050  1
  Rh  Rh22  1  0.822627  0.394722  0.391326  1
  Rh  Rh23  1  0.393385  0.393385  0.823181  1
