# generated using pymatgen
data_DyHo19(Ir2Os)4
_symmetry_space_group_name_H-M   'P 1'
_cell_length_a   10.82043802
_cell_length_b   10.81977503
_cell_length_c   6.39386000
_cell_angle_alpha   90.00322276
_cell_angle_beta   90.00152938
_cell_angle_gamma   90.00736045
_symmetry_Int_Tables_number   1
_chemical_formula_structural   DyHo19(Ir2Os)4
_chemical_formula_sum   'Dy1 Ho19 Ir8 Os4'
_cell_volume   748.55926669
_cell_formula_units_Z   1
loop_
 _symmetry_equiv_pos_site_id
 _symmetry_equiv_pos_as_xyz
  1  'x, y, z'
loop_
 _atom_site_type_symbol
 _atom_site_label
 _atom_site_symmetry_multiplicity
 _atom_site_fract_x
 _atom_site_fract_y
 _atom_site_fract_z
 _atom_site_occupancy
  Dy  Dy0  1  0.293546  0.086213  0.376674  1
  Ho  Ho1  1  0.293735  0.913799  0.876869  1
  Ho  Ho2  1  0.706269  0.086150  0.876844  1
  Ho  Ho3  1  0.706278  0.913891  0.376832  1
  Ho  Ho4  1  0.586116  0.793746  0.876860  1
  Ho  Ho5  1  0.586222  0.206341  0.376858  1
  Ho  Ho6  1  0.413933  0.793610  0.376824  1
  Ho  Ho7  1  0.413955  0.206318  0.876846  1
  Ho  Ho8  1  0.206261  0.413911  0.623195  1
  Ho  Ho9  1  0.206286  0.586120  0.123181  1
  Ho  Ho10  1  0.793716  0.413859  0.123184  1
  Ho  Ho11  1  0.793730  0.586114  0.623156  1
  Ho  Ho12  1  0.913869  0.706248  0.123172  1
  Ho  Ho13  1  0.913847  0.293697  0.623123  1
  Ho  Ho14  1  0.086144  0.706265  0.623153  1
  Ho  Ho15  1  0.086065  0.293775  0.123125  1
  Ho  Ho16  1  0.999902  0.999964  0.500045  1
  Ho  Ho17  1  0.999978  0.999996  0.999928  1
  Ho  Ho18  1  0.500010  0.500002  0.999995  1
  Ho  Ho19  1  0.500034  0.499992  0.499992  1
  Ir  Ir20  1  0.847766  0.152228  0.250013  1
  Ir  Ir21  1  0.847748  0.847733  0.750004  1
  Ir  Ir22  1  0.152144  0.152303  0.750317  1
  Ir  Ir23  1  0.152154  0.847657  0.249947  1
  Ir  Ir24  1  0.652237  0.347776  0.749999  1
  Ir  Ir25  1  0.652238  0.652247  0.250024  1
  Ir  Ir26  1  0.347785  0.347944  0.249905  1
  Ir  Ir27  1  0.347769  0.652226  0.749982  1
  Os  Os28  1  0.500098  0.999945  0.122370  1
  Os  Os29  1  0.500142  0.999925  0.622754  1
  Os  Os30  1  0.000011  0.499992  0.877362  1
  Os  Os31  1  0.000011  0.500012  0.377469  1
