# generated using pymatgen
data_Tm2Lu10GaCo5
_symmetry_space_group_name_H-M   'P 1'
_cell_length_a   8.03110349
_cell_length_b   8.02683101
_cell_length_c   8.03110299
_cell_angle_alpha   110.92088856
_cell_angle_beta   110.98864780
_cell_angle_gamma   106.56363573
_symmetry_Int_Tables_number   1
_chemical_formula_structural   Tm2Lu10GaCo5
_chemical_formula_sum   'Tm2 Lu10 Ga1 Co5'
_cell_volume   397.66993815
_cell_formula_units_Z   1
loop_
 _symmetry_equiv_pos_site_id
 _symmetry_equiv_pos_as_xyz
  1  'x, y, z'
loop_
 _atom_site_type_symbol
 _atom_site_label
 _atom_site_symmetry_multiplicity
 _atom_site_fract_x
 _atom_site_fract_y
 _atom_site_fract_z
 _atom_site_occupancy
  Tm  Tm0  1  0.219442  0.027813  0.808371  1
  Tm  Tm1  1  0.780558  0.972187  0.191629  1
  Lu  Lu2  1  0.286510  0.185356  0.471098  1
  Lu  Lu3  1  0.713490  0.814644  0.528902  1
  Lu  Lu4  1  0.285741  0.814644  0.101153  1
  Lu  Lu5  1  0.714259  0.185356  0.898847  1
  Lu  Lu6  1  0.618911  0.317190  0.303258  1
  Lu  Lu7  1  0.381089  0.682810  0.696742  1
  Lu  Lu8  1  0.013932  0.317190  0.698279  1
  Lu  Lu9  1  0.986068  0.682810  0.301721  1
  Lu  Lu10  1  0.219261  0.411384  0.192124  1
  Lu  Lu11  1  0.780739  0.588616  0.807876  1
  Ga  Ga12  1  0.500000  0.500000  0.000000  1
  Co  Co13  1  0.000449  0.373890  0.373442  1
  Co  Co14  1  0.999551  0.626110  0.626558  1
  Co  Co15  1  0.385200  0.884678  0.499479  1
  Co  Co16  1  0.614800  0.115322  0.500521  1
  Co  Co17  1  0.000000  0.000000  0.000000  1
