# generated using pymatgen
data_Ho8In2NiHg
_symmetry_space_group_name_H-M   'P 1'
_cell_length_a   10.31224818
_cell_length_b   10.31224984
_cell_length_c   6.94830642
_cell_angle_alpha   90.10023936
_cell_angle_beta   89.89976109
_cell_angle_gamma   119.86562602
_symmetry_Int_Tables_number   1
_chemical_formula_structural   Ho8In2NiHg
_chemical_formula_sum   'Ho16 In4 Ni2 Hg2'
_cell_volume   640.76967670
_cell_formula_units_Z   2
loop_
 _symmetry_equiv_pos_site_id
 _symmetry_equiv_pos_as_xyz
  1  'x, y, z'
loop_
 _atom_site_type_symbol
 _atom_site_label
 _atom_site_symmetry_multiplicity
 _atom_site_fract_x
 _atom_site_fract_y
 _atom_site_fract_z
 _atom_site_occupancy
  Ho  Ho0  1  0.527661  0.066909  0.508977  1
  Ho  Ho1  1  0.933091  0.472339  0.508977  1
  Ho  Ho2  1  0.536057  0.463943  0.507984  1
  Ho  Ho3  1  0.468834  0.931741  0.005854  1
  Ho  Ho4  1  0.068259  0.531166  0.005854  1
  Ho  Ho5  1  0.465174  0.534826  0.009299  1
  Ho  Ho6  1  0.179160  0.348386  0.713186  1
  Ho  Ho7  1  0.651614  0.820840  0.713186  1
  Ho  Ho8  1  0.172604  0.827396  0.722136  1
  Ho  Ho9  1  0.823715  0.645515  0.199181  1
  Ho  Ho10  1  0.354485  0.176285  0.199181  1
  Ho  Ho11  1  0.821321  0.178679  0.218409  1
  Ho  Ho12  1  0.665088  0.334912  0.889191  1
  Ho  Ho13  1  0.332784  0.667216  0.395462  1
  Ho  Ho14  1  0.001675  0.998325  0.490043  1
  Ho  Ho15  1  0.997498  0.002502  0.993562  1
  In  In16  1  0.835746  0.164254  0.750208  1
  In  In17  1  0.163008  0.325723  0.252131  1
  In  In18  1  0.674277  0.836992  0.252131  1
  In  In19  1  0.163206  0.836794  0.253424  1
  Ni  Ni20  1  0.666053  0.333947  0.276396  1
  Ni  Ni21  1  0.333001  0.666999  0.778474  1
  Hg  Hg22  1  0.835709  0.670019  0.757396  1
  Hg  Hg23  1  0.329981  0.164291  0.757396  1
