# generated using pymatgen
data_La4Ga10(IrPt)3
_symmetry_space_group_name_H-M   'P 1'
_cell_length_a   8.73731620
_cell_length_b   8.74548071
_cell_length_c   8.74524934
_cell_angle_alpha   140.38566231
_cell_angle_beta   107.65733062
_cell_angle_gamma   85.78662590
_symmetry_Int_Tables_number   1
_chemical_formula_structural   La4Ga10(IrPt)3
_chemical_formula_sum   'La4 Ga10 Ir3 Pt3'
_cell_volume   391.64208835
_cell_formula_units_Z   1
loop_
 _symmetry_equiv_pos_site_id
 _symmetry_equiv_pos_as_xyz
  1  'x, y, z'
loop_
 _atom_site_type_symbol
 _atom_site_label
 _atom_site_symmetry_multiplicity
 _atom_site_fract_x
 _atom_site_fract_y
 _atom_site_fract_z
 _atom_site_occupancy
  La  La0  1  0.094281  0.865420  0.228951  1
  La  La1  1  0.634049  0.363553  0.270500  1
  La  La2  1  0.906486  0.135047  0.771407  1
  La  La3  1  0.362919  0.635243  0.727845  1
  Ga  Ga4  1  0.291373  0.041906  0.753518  1
  Ga  Ga5  1  0.291406  0.537830  0.249464  1
  Ga  Ga6  1  0.002462  0.248821  0.249342  1
  Ga  Ga7  1  0.245290  0.406637  0.838564  1
  Ga  Ga8  1  0.755403  0.593851  0.161638  1
  Ga  Ga9  1  0.709045  0.459463  0.750120  1
  Ga  Ga10  1  0.568151  0.906403  0.661659  1
  Ga  Ga11  1  0.708981  0.958914  0.249560  1
  Ga  Ga12  1  0.429239  0.094192  0.335031  1
  Ga  Ga13  1  0.002490  0.753116  0.753673  1
  Ir  Ir14  1  0.244770  0.145473  0.099305  1
  Ir  Ir15  1  0.500200  0.750406  0.250299  1
  Ir  Ir16  1  0.500236  0.249903  0.749816  1
  Pt  Pt17  1  0.044604  0.645588  0.398977  1
  Pt  Pt18  1  0.753743  0.854396  0.899315  1
  Pt  Pt19  1  0.954873  0.353840  0.601017  1
