# generated using pymatgen
data_AlCr2Pt5
_symmetry_space_group_name_H-M   'P 1'
_cell_length_a   4.04873900
_cell_length_b   5.47147000
_cell_length_c   10.85761100
_cell_angle_alpha   90.00000000
_cell_angle_beta   90.00000000
_cell_angle_gamma   90.00000000
_symmetry_Int_Tables_number   1
_chemical_formula_structural   AlCr2Pt5
_chemical_formula_sum   'Al2 Cr4 Pt10'
_cell_volume   240.52381373
_cell_formula_units_Z   2
loop_
 _symmetry_equiv_pos_site_id
 _symmetry_equiv_pos_as_xyz
  1  'x, y, z'
loop_
 _atom_site_type_symbol
 _atom_site_label
 _atom_site_symmetry_multiplicity
 _atom_site_fract_x
 _atom_site_fract_y
 _atom_site_fract_z
 _atom_site_occupancy
  Al  Al0  1  0.000000  0.500000  0.500000  1
  Al  Al1  1  0.000000  0.000000  0.000000  1
  Cr  Cr2  1  0.500000  0.191456  0.637578  1
  Cr  Cr3  1  0.500000  0.808544  0.362422  1
  Cr  Cr4  1  0.500000  0.691456  0.862422  1
  Cr  Cr5  1  0.500000  0.308544  0.137578  1
  Pt  Pt6  1  0.500000  0.301433  0.390655  1
  Pt  Pt7  1  0.500000  0.698567  0.609345  1
  Pt  Pt8  1  0.500000  0.801433  0.109345  1
  Pt  Pt9  1  0.500000  0.198567  0.890655  1
  Pt  Pt10  1  0.000000  0.440875  0.740603  1
  Pt  Pt11  1  0.000000  0.559125  0.259397  1
  Pt  Pt12  1  0.000000  0.940875  0.759397  1
  Pt  Pt13  1  0.000000  0.059125  0.240603  1
  Pt  Pt14  1  0.000000  0.500000  0.000000  1
  Pt  Pt15  1  0.000000  0.000000  0.500000  1
