# generated using pymatgen
data_KSr2CaB24
_symmetry_space_group_name_H-M   'P 1'
_cell_length_a   7.22478000
_cell_length_b   7.22477948
_cell_length_c   5.93077500
_cell_angle_alpha   90.00000000
_cell_angle_beta   90.00000000
_cell_angle_gamma   109.30047389
_symmetry_Int_Tables_number   1
_chemical_formula_structural   KSr2CaB24
_chemical_formula_sum   'K1 Sr2 Ca1 B24'
_cell_volume   292.17282795
_cell_formula_units_Z   1
loop_
 _symmetry_equiv_pos_site_id
 _symmetry_equiv_pos_as_xyz
  1  'x, y, z'
loop_
 _atom_site_type_symbol
 _atom_site_label
 _atom_site_symmetry_multiplicity
 _atom_site_fract_x
 _atom_site_fract_y
 _atom_site_fract_z
 _atom_site_occupancy
  K  K0  1  0.000000  0.000000  0.000000  1
  Sr  Sr1  1  0.751721  0.248279  0.500000  1
  Sr  Sr2  1  0.248279  0.751721  0.500000  1
  Ca  Ca3  1  0.500000  0.500000  0.000000  1
  B  B4  1  0.176633  0.325768  0.649333  1
  B  B5  1  0.924264  0.574661  0.148174  1
  B  B6  1  0.674232  0.823367  0.649333  1
  B  B7  1  0.425339  0.075736  0.148174  1
  B  B8  1  0.176633  0.325768  0.350667  1
  B  B9  1  0.924264  0.574661  0.851826  1
  B  B10  1  0.674232  0.823367  0.350667  1
  B  B11  1  0.425339  0.075736  0.851826  1
  B  B12  1  0.400030  0.400030  0.500000  1
  B  B13  1  0.148774  0.649920  0.000000  1
  B  B14  1  0.898599  0.898599  0.500000  1
  B  B15  1  0.649920  0.148774  0.000000  1
  B  B16  1  0.325768  0.176633  0.649333  1
  B  B17  1  0.075736  0.425339  0.148174  1
  B  B18  1  0.823367  0.674232  0.649333  1
  B  B19  1  0.574661  0.924264  0.148174  1
  B  B20  1  0.101401  0.101401  0.500000  1
  B  B21  1  0.851226  0.350080  0.000000  1
  B  B22  1  0.599970  0.599970  0.500000  1
  B  B23  1  0.350080  0.851226  0.000000  1
  B  B24  1  0.325768  0.176633  0.350667  1
  B  B25  1  0.075736  0.425339  0.851826  1
  B  B26  1  0.823367  0.674232  0.350667  1
  B  B27  1  0.574661  0.924264  0.851826  1
