# generated using pymatgen
data_HfZr5Ti4Al12Ru6Rh
_symmetry_space_group_name_H-M   'P 1'
_cell_length_a   8.78630569
_cell_length_b   8.78630525
_cell_length_c   8.77321100
_cell_angle_alpha   60.04928279
_cell_angle_beta   60.04928445
_cell_angle_gamma   59.82660232
_symmetry_Int_Tables_number   1
_chemical_formula_structural   HfZr5Ti4Al12Ru6Rh
_chemical_formula_sum   'Hf1 Zr5 Ti4 Al12 Ru6 Rh1'
_cell_volume   478.63680142
_cell_formula_units_Z   1
loop_
 _symmetry_equiv_pos_site_id
 _symmetry_equiv_pos_as_xyz
  1  'x, y, z'
loop_
 _atom_site_type_symbol
 _atom_site_label
 _atom_site_symmetry_multiplicity
 _atom_site_fract_x
 _atom_site_fract_y
 _atom_site_fract_z
 _atom_site_occupancy
  Hf  Hf0  1  0.704004  0.699533  0.301387  1
  Zr  Zr1  1  0.298762  0.697569  0.302676  1
  Zr  Zr2  1  0.698304  0.302210  0.301379  1
  Zr  Zr3  1  0.295366  0.300162  0.700469  1
  Zr  Zr4  1  0.700739  0.303505  0.697414  1
  Zr  Zr5  1  0.304646  0.695975  0.695690  1
  Ti  Ti6  1  0.879727  0.880996  0.359959  1
  Ti  Ti7  1  0.878638  0.360321  0.881147  1
  Ti  Ti8  1  0.358269  0.878343  0.879388  1
  Ti  Ti9  1  0.883868  0.879299  0.878700  1
  Al  Al10  1  0.118688  0.119017  0.642546  1
  Al  Al11  1  0.119144  0.642943  0.119062  1
  Al  Al12  1  0.643569  0.119097  0.119088  1
  Al  Al13  1  0.117921  0.118978  0.119743  1
  Al  Al14  1  0.663812  0.665865  0.007724  1
  Al  Al15  1  0.662904  0.007752  0.665444  1
  Al  Al16  1  0.005168  0.664570  0.665286  1
  Al  Al17  1  0.664902  0.665287  0.664677  1
  Al  Al18  1  0.334853  0.333716  0.996648  1
  Al  Al19  1  0.335424  0.996307  0.333294  1
  Al  Al20  1  0.998831  0.333542  0.333457  1
  Al  Al21  1  0.334241  0.333312  0.333559  1
  Ru  Ru22  1  0.999828  0.000514  0.000016  1
  Ru  Ru23  1  0.998982  0.998554  0.501637  1
  Ru  Ru24  1  0.501598  0.997382  0.500705  1
  Ru  Ru25  1  0.997492  0.502098  0.500362  1
  Ru  Ru26  1  0.501102  0.502173  0.998599  1
  Ru  Ru27  1  0.997689  0.502712  0.999880  1
  Rh  Rh28  1  0.501523  0.998262  0.000062  1
