# generated using pymatgen
data_Li3TlSiS4
_symmetry_space_group_name_H-M   'P 1'
_cell_length_a   6.03773600
_cell_length_b   6.03773600
_cell_length_c   6.03773600
_cell_angle_alpha   90.00000000
_cell_angle_beta   90.00000000
_cell_angle_gamma   90.00000000
_symmetry_Int_Tables_number   1
_chemical_formula_structural   Li3TlSiS4
_chemical_formula_sum   'Li3 Tl1 Si1 S4'
_cell_volume   220.10117384
_cell_formula_units_Z   1
loop_
 _symmetry_equiv_pos_site_id
 _symmetry_equiv_pos_as_xyz
  1  'x, y, z'
loop_
 _atom_site_type_symbol
 _atom_site_label
 _atom_site_symmetry_multiplicity
 _atom_site_fract_x
 _atom_site_fract_y
 _atom_site_fract_z
 _atom_site_occupancy
  Li  Li0  1  0.000000  0.500000  0.000000  1
  Li  Li1  1  0.000000  0.000000  0.500000  1
  Li  Li2  1  0.500000  0.000000  0.000000  1
  Tl  Tl3  1  0.500000  0.500000  0.500000  1
  Si  Si4  1  0.000000  0.000000  0.000000  1
  S  S5  1  0.204727  0.204727  0.204727  1
  S  S6  1  0.795273  0.795273  0.204727  1
  S  S7  1  0.204727  0.795273  0.795273  1
  S  S8  1  0.795273  0.204727  0.795273  1
