# generated using pymatgen
data_Y8SiPtBr12
_symmetry_space_group_name_H-M   'P 1'
_cell_length_a   4.06417700
_cell_length_b   13.35589065
_cell_length_c   14.14550970
_cell_angle_alpha   90.03587422
_cell_angle_beta   90.00000000
_cell_angle_gamma   90.00000000
_symmetry_Int_Tables_number   1
_chemical_formula_structural   Y8SiPtBr12
_chemical_formula_sum   'Y8 Si1 Pt1 Br12'
_cell_volume   767.82806860
_cell_formula_units_Z   1
loop_
 _symmetry_equiv_pos_site_id
 _symmetry_equiv_pos_as_xyz
  1  'x, y, z'
loop_
 _atom_site_type_symbol
 _atom_site_label
 _atom_site_symmetry_multiplicity
 _atom_site_fract_x
 _atom_site_fract_y
 _atom_site_fract_z
 _atom_site_occupancy
  Y  Y0  1  0.500000  0.119037  0.340761  1
  Y  Y1  1  0.500000  0.880963  0.659239  1
  Y  Y2  1  0.500000  0.617698  0.158015  1
  Y  Y3  1  0.500000  0.382302  0.841985  1
  Y  Y4  1  0.000000  0.117243  0.579195  1
  Y  Y5  1  0.000000  0.882757  0.420805  1
  Y  Y6  1  0.000000  0.617141  0.921971  1
  Y  Y7  1  0.000000  0.382859  0.078029  1
  Si  Si8  1  0.500000  0.500000  0.000000  1
  Pt  Pt9  1  0.500000  0.000000  0.500000  1
  Br  Br10  1  0.500000  0.245941  0.161418  1
  Br  Br11  1  0.500000  0.754059  0.838582  1
  Br  Br12  1  0.500000  0.740790  0.334387  1
  Br  Br13  1  0.500000  0.259210  0.665613  1
  Br  Br14  1  0.000000  0.257471  0.409314  1
  Br  Br15  1  0.000000  0.742529  0.590686  1
  Br  Br16  1  0.000000  0.753643  0.088602  1
  Br  Br17  1  0.000000  0.246357  0.911398  1
  Br  Br18  1  0.000000  0.004072  0.240083  1
  Br  Br19  1  0.000000  0.995928  0.759917  1
  Br  Br20  1  0.000000  0.502071  0.254869  1
  Br  Br21  1  0.000000  0.497929  0.745131  1
