# generated using pymatgen
data_HoTm2Zr(Al8Pt3)3
_symmetry_space_group_name_H-M   'P 1'
_cell_length_a   7.51530857
_cell_length_b   7.52241724
_cell_length_c   13.07860422
_cell_angle_alpha   84.55147649
_cell_angle_beta   79.02113779
_cell_angle_gamma   59.90697038
_symmetry_Int_Tables_number   1
_chemical_formula_structural   HoTm2Zr(Al8Pt3)3
_chemical_formula_sum   'Ho1 Tm2 Zr1 Al24 Pt9'
_cell_volume   628.00916718
_cell_formula_units_Z   1
loop_
 _symmetry_equiv_pos_site_id
 _symmetry_equiv_pos_as_xyz
  1  'x, y, z'
loop_
 _atom_site_type_symbol
 _atom_site_label
 _atom_site_symmetry_multiplicity
 _atom_site_fract_x
 _atom_site_fract_y
 _atom_site_fract_z
 _atom_site_occupancy
  Ho  Ho0  1  0.266579  0.501466  0.192037  1
  Tm  Tm1  1  0.606287  0.831655  0.192451  1
  Tm  Tm2  1  0.734081  0.498742  0.806954  1
  Zr  Zr3  1  0.393290  0.167999  0.809557  1
  Al  Al4  1  0.682231  0.835730  0.941626  1
  Al  Al5  1  0.317071  0.165980  0.054259  1
  Al  Al6  1  0.146408  0.832784  0.562622  1
  Al  Al7  1  0.853119  0.167162  0.438195  1
  Al  Al8  1  0.479833  0.166740  0.560904  1
  Al  Al9  1  0.519374  0.833764  0.441162  1
  Al  Al10  1  0.217599  0.165196  0.329498  1
  Al  Al11  1  0.779235  0.836719  0.673528  1
  Al  Al12  1  0.435997  0.504411  0.673897  1
  Al  Al13  1  0.562619  0.493887  0.328774  1
  Al  Al14  1  0.110869  0.159971  0.672775  1
  Al  Al15  1  0.890092  0.839820  0.330046  1
  Al  Al16  1  0.354722  0.496560  0.941291  1
  Al  Al17  1  0.647702  0.500641  0.055360  1
  Al  Al18  1  0.018443  0.168556  0.949650  1
  Al  Al19  1  0.984041  0.832683  0.046831  1
  Al  Al20  1  0.186773  0.499254  0.441281  1
  Al  Al21  1  0.813552  0.500433  0.559057  1
  Al  Al22  1  0.733920  0.163342  0.183476  1
  Al  Al23  1  0.266524  0.840888  0.816455  1
  Al  Al24  1  0.065665  0.626186  0.815136  1
  Al  Al25  1  0.938848  0.368817  0.184221  1
  Al  Al26  1  0.850380  0.042119  0.815700  1
  Al  Al27  1  0.145234  0.958664  0.183690  1
  Pt  Pt28  1  0.119181  0.491013  0.639426  1
  Pt  Pt29  1  0.879166  0.508886  0.361088  1
  Pt  Pt30  1  0.657454  0.172011  0.998897  1
  Pt  Pt31  1  0.343955  0.827640  0.999385  1
  Pt  Pt32  1  0.537391  0.166475  0.361579  1
  Pt  Pt33  1  0.463522  0.832250  0.639360  1
  Pt  Pt34  1  0.778094  0.176685  0.637977  1
  Pt  Pt35  1  0.221190  0.824522  0.362813  1
  Pt  Pt36  1  0.999553  0.500349  0.999039  1
