# generated using pymatgen
data_Hf4Ti2ReSi4W
_symmetry_space_group_name_H-M   'P 1'
_cell_length_a   3.55517700
_cell_length_b   6.88111643
_cell_length_c   8.22487152
_cell_angle_alpha   89.95936555
_cell_angle_beta   90.00000000
_cell_angle_gamma   90.00000000
_symmetry_Int_Tables_number   1
_chemical_formula_structural   Hf4Ti2ReSi4W
_chemical_formula_sum   'Hf4 Ti2 Re1 Si4 W1'
_cell_volume   201.20980830
_cell_formula_units_Z   1
loop_
 _symmetry_equiv_pos_site_id
 _symmetry_equiv_pos_as_xyz
  1  'x, y, z'
loop_
 _atom_site_type_symbol
 _atom_site_label
 _atom_site_symmetry_multiplicity
 _atom_site_fract_x
 _atom_site_fract_y
 _atom_site_fract_z
 _atom_site_occupancy
  Hf  Hf0  1  0.250000  0.547444  0.166125  1
  Hf  Hf1  1  0.250000  0.048422  0.334229  1
  Hf  Hf2  1  0.750000  0.458201  0.832981  1
  Hf  Hf3  1  0.750000  0.958428  0.666383  1
  Ti  Ti4  1  0.250000  0.625709  0.559459  1
  Ti  Ti5  1  0.250000  0.128142  0.939540  1
  Re  Re6  1  0.750000  0.367199  0.440158  1
  Si  Si7  1  0.250000  0.754862  0.860335  1
  Si  Si8  1  0.250000  0.255591  0.638222  1
  Si  Si9  1  0.750000  0.245264  0.139800  1
  Si  Si10  1  0.750000  0.743774  0.361340  1
  W  W11  1  0.750000  0.866965  0.061427  1
