# generated using pymatgen
data_Dy3Sc3TaTe2
_symmetry_space_group_name_H-M   'P 1'
_cell_length_a   7.92869700
_cell_length_b   7.92869810
_cell_length_c   4.29803300
_cell_angle_alpha   90.00000000
_cell_angle_beta   90.00000000
_cell_angle_gamma   119.99999959
_symmetry_Int_Tables_number   1
_chemical_formula_structural   Dy3Sc3TaTe2
_chemical_formula_sum   'Dy3 Sc3 Ta1 Te2'
_cell_volume   233.99365541
_cell_formula_units_Z   1
loop_
 _symmetry_equiv_pos_site_id
 _symmetry_equiv_pos_as_xyz
  1  'x, y, z'
loop_
 _atom_site_type_symbol
 _atom_site_label
 _atom_site_symmetry_multiplicity
 _atom_site_fract_x
 _atom_site_fract_y
 _atom_site_fract_z
 _atom_site_occupancy
  Dy  Dy0  1  0.604649  0.000000  0.000000  1
  Dy  Dy1  1  0.395351  0.395351  0.000000  1
  Dy  Dy2  1  0.000000  0.604649  0.000000  1
  Sc  Sc3  1  0.230227  0.000000  0.500000  1
  Sc  Sc4  1  0.769773  0.769773  0.500000  1
  Sc  Sc5  1  0.000000  0.230227  0.500000  1
  Ta  Ta6  1  0.000000  0.000000  0.000000  1
  Te  Te7  1  0.333333  0.666667  0.500000  1
  Te  Te8  1  0.666667  0.333333  0.500000  1
