# generated using pymatgen
data_Ac4CdGe4
_symmetry_space_group_name_H-M   'P 1'
_cell_length_a   7.91420200
_cell_length_b   8.54335600
_cell_length_c   15.99445100
_cell_angle_alpha   90.00000000
_cell_angle_beta   90.00000000
_cell_angle_gamma   90.00000000
_symmetry_Int_Tables_number   1
_chemical_formula_structural   Ac4CdGe4
_chemical_formula_sum   'Ac16 Cd4 Ge16'
_cell_volume   1081.44633304
_cell_formula_units_Z   4
loop_
 _symmetry_equiv_pos_site_id
 _symmetry_equiv_pos_as_xyz
  1  'x, y, z'
loop_
 _atom_site_type_symbol
 _atom_site_label
 _atom_site_symmetry_multiplicity
 _atom_site_fract_x
 _atom_site_fract_y
 _atom_site_fract_z
 _atom_site_occupancy
  Ac  Ac0  1  0.525438  0.306997  0.101124  1
  Ac  Ac1  1  0.025438  0.193003  0.398876  1
  Ac  Ac2  1  0.474562  0.693003  0.601124  1
  Ac  Ac3  1  0.974562  0.806997  0.898876  1
  Ac  Ac4  1  0.474562  0.693003  0.898876  1
  Ac  Ac5  1  0.974562  0.806997  0.601124  1
  Ac  Ac6  1  0.525438  0.306997  0.398876  1
  Ac  Ac7  1  0.025438  0.193003  0.101124  1
  Ac  Ac8  1  0.824208  0.319137  0.632088  1
  Ac  Ac9  1  0.324208  0.180863  0.867912  1
  Ac  Ac10  1  0.175792  0.680863  0.132088  1
  Ac  Ac11  1  0.675792  0.819137  0.367912  1
  Ac  Ac12  1  0.175792  0.680863  0.367912  1
  Ac  Ac13  1  0.675792  0.819137  0.132088  1
  Ac  Ac14  1  0.824208  0.319137  0.867912  1
  Ac  Ac15  1  0.324208  0.180863  0.632088  1
  Cd  Cd16  1  0.657071  0.975907  0.750000  1
  Cd  Cd17  1  0.157071  0.524093  0.750000  1
  Cd  Cd18  1  0.342929  0.024093  0.250000  1
  Cd  Cd19  1  0.842929  0.475907  0.250000  1
  Ge  Ge20  1  0.653713  0.028926  0.533589  1
  Ge  Ge21  1  0.153713  0.471074  0.966411  1
  Ge  Ge22  1  0.346287  0.971074  0.033589  1
  Ge  Ge23  1  0.846287  0.528926  0.466411  1
  Ge  Ge24  1  0.346287  0.971074  0.466411  1
  Ge  Ge25  1  0.846287  0.528926  0.033589  1
  Ge  Ge26  1  0.653713  0.028926  0.966411  1
  Ge  Ge27  1  0.153713  0.471074  0.533589  1
  Ge  Ge28  1  0.512771  0.433746  0.750000  1
  Ge  Ge29  1  0.012771  0.066254  0.750000  1
  Ge  Ge30  1  0.487229  0.566254  0.250000  1
  Ge  Ge31  1  0.987229  0.933746  0.250000  1
  Ge  Ge32  1  0.762076  0.634509  0.750000  1
  Ge  Ge33  1  0.262076  0.865491  0.750000  1
  Ge  Ge34  1  0.237924  0.365491  0.250000  1
  Ge  Ge35  1  0.737924  0.134509  0.250000  1
