# generated using pymatgen
data_Ca2Mn(Ni3As2)3
_symmetry_space_group_name_H-M   'P 1'
_cell_length_a   3.81344900
_cell_length_b   10.91138300
_cell_length_c   12.63399500
_cell_angle_alpha   90.00000000
_cell_angle_beta   90.00000000
_cell_angle_gamma   90.00000000
_symmetry_Int_Tables_number   1
_chemical_formula_structural   Ca2Mn(Ni3As2)3
_chemical_formula_sum   'Ca4 Mn2 Ni18 As12'
_cell_volume   525.70056467
_cell_formula_units_Z   2
loop_
 _symmetry_equiv_pos_site_id
 _symmetry_equiv_pos_as_xyz
  1  'x, y, z'
loop_
 _atom_site_type_symbol
 _atom_site_label
 _atom_site_symmetry_multiplicity
 _atom_site_fract_x
 _atom_site_fract_y
 _atom_site_fract_z
 _atom_site_occupancy
  Ca  Ca0  1  0.250000  0.581533  0.705144  1
  Ca  Ca1  1  0.250000  0.918467  0.205144  1
  Ca  Ca2  1  0.750000  0.418017  0.295409  1
  Ca  Ca3  1  0.750000  0.081983  0.795409  1
  Mn  Mn4  1  0.250000  0.705410  0.987758  1
  Mn  Mn5  1  0.250000  0.794590  0.487758  1
  Ni  Ni6  1  0.750000  0.292281  0.010423  1
  Ni  Ni7  1  0.750000  0.207719  0.510423  1
  Ni  Ni8  1  0.250000  0.407387  0.489407  1
  Ni  Ni9  1  0.250000  0.092613  0.989407  1
  Ni  Ni10  1  0.750000  0.593198  0.510934  1
  Ni  Ni11  1  0.750000  0.906802  0.010934  1
  Ni  Ni12  1  0.250000  0.214293  0.178521  1
  Ni  Ni13  1  0.250000  0.285707  0.678521  1
  Ni  Ni14  1  0.750000  0.785452  0.821292  1
  Ni  Ni15  1  0.750000  0.714548  0.321292  1
  Ni  Ni16  1  0.250000  0.881685  0.697241  1
  Ni  Ni17  1  0.250000  0.618315  0.197241  1
  Ni  Ni18  1  0.750000  0.118989  0.303434  1
  Ni  Ni19  1  0.750000  0.381011  0.803434  1
  Ni  Ni20  1  0.250000  0.467617  0.932836  1
  Ni  Ni21  1  0.250000  0.032383  0.432836  1
  Ni  Ni22  1  0.750000  0.531621  0.067671  1
  Ni  Ni23  1  0.750000  0.968379  0.567671  1
  As  As24  1  0.250000  0.413728  0.113070  1
  As  As25  1  0.250000  0.086272  0.613070  1
  As  As26  1  0.750000  0.588790  0.888541  1
  As  As27  1  0.750000  0.911210  0.388541  1
  As  As28  1  0.250000  0.268539  0.870698  1
  As  As29  1  0.250000  0.231461  0.370698  1
  As  As30  1  0.750000  0.732475  0.126245  1
  As  As31  1  0.750000  0.767525  0.626245  1
  As  As32  1  0.250000  0.603225  0.392190  1
  As  As33  1  0.250000  0.896775  0.892190  1
  As  As34  1  0.750000  0.397046  0.609185  1
  As  As35  1  0.750000  0.102954  0.109185  1
