# generated using pymatgen
data_Y7Ho(Nb3Si4)4
_symmetry_space_group_name_H-M   'P 1'
_cell_length_a   7.06967505
_cell_length_b   7.06950019
_cell_length_c   13.06482500
_cell_angle_alpha   90.00908395
_cell_angle_beta   89.99939749
_cell_angle_gamma   90.01702777
_symmetry_Int_Tables_number   1
_chemical_formula_structural   Y7Ho(Nb3Si4)4
_chemical_formula_sum   'Y7 Ho1 Nb12 Si16'
_cell_volume   652.96775415
_cell_formula_units_Z   1
loop_
 _symmetry_equiv_pos_site_id
 _symmetry_equiv_pos_as_xyz
  1  'x, y, z'
loop_
 _atom_site_type_symbol
 _atom_site_label
 _atom_site_symmetry_multiplicity
 _atom_site_fract_x
 _atom_site_fract_y
 _atom_site_fract_z
 _atom_site_occupancy
  Y  Y0  1  0.342476  0.002417  0.467560  1
  Y  Y1  1  0.497602  0.842470  0.717637  1
  Y  Y2  1  0.502492  0.157475  0.217365  1
  Y  Y3  1  0.842491  0.497566  0.282365  1
  Y  Y4  1  0.157426  0.502482  0.782539  1
  Y  Y5  1  0.657617  0.997487  0.967689  1
  Y  Y6  1  0.002391  0.342485  0.532408  1
  Ho  Ho7  1  0.998067  0.657224  0.032409  1
  Nb  Nb8  1  0.327624  0.327998  0.000050  1
  Nb  Nb9  1  0.172174  0.827564  0.249866  1
  Nb  Nb10  1  0.827771  0.172258  0.750116  1
  Nb  Nb11  1  0.672208  0.672217  0.499996  1
  Nb  Nb12  1  0.152732  0.007246  0.874302  1
  Nb  Nb13  1  0.492807  0.652928  0.123980  1
  Nb  Nb14  1  0.507210  0.347049  0.624055  1
  Nb  Nb15  1  0.653075  0.493097  0.876146  1
  Nb  Nb16  1  0.347036  0.507243  0.375854  1
  Nb  Nb17  1  0.846994  0.992605  0.374022  1
  Nb  Nb18  1  0.007248  0.152895  0.125793  1
  Nb  Nb19  1  0.992621  0.846985  0.625886  1
  Si  Si20  1  0.203477  0.133650  0.682858  1
  Si  Si21  1  0.365768  0.703504  0.932906  1
  Si  Si22  1  0.633632  0.296350  0.432728  1
  Si  Si23  1  0.704188  0.366872  0.067307  1
  Si  Si24  1  0.296379  0.633644  0.567237  1
  Si  Si25  1  0.796918  0.865801  0.182350  1
  Si  Si26  1  0.133659  0.203542  0.317137  1
  Si  Si27  1  0.866453  0.796299  0.817529  1
  Si  Si28  1  0.292332  0.952717  0.063576  1
  Si  Si29  1  0.546852  0.792735  0.313477  1
  Si  Si30  1  0.453258  0.207347  0.813663  1
  Si  Si31  1  0.792728  0.546762  0.686500  1
  Si  Si32  1  0.206832  0.453561  0.186162  1
  Si  Si33  1  0.707317  0.046927  0.563617  1
  Si  Si34  1  0.953248  0.293314  0.936531  1
  Si  Si35  1  0.046899  0.707282  0.436386  1
