# generated using pymatgen
data_La7HoEr2Si8O3
_symmetry_space_group_name_H-M   'P 1'
_cell_length_a   10.74996953
_cell_length_b   10.75584214
_cell_length_c   4.52707400
_cell_angle_alpha   90.00000000
_cell_angle_beta   90.00000000
_cell_angle_gamma   120.01807925
_symmetry_Int_Tables_number   1
_chemical_formula_structural   La7HoEr2Si8O3
_chemical_formula_sum   'La7 Ho1 Er2 Si8 O3'
_cell_volume   453.23217256
_cell_formula_units_Z   1
loop_
 _symmetry_equiv_pos_site_id
 _symmetry_equiv_pos_as_xyz
  1  'x, y, z'
loop_
 _atom_site_type_symbol
 _atom_site_label
 _atom_site_symmetry_multiplicity
 _atom_site_fract_x
 _atom_site_fract_y
 _atom_site_fract_z
 _atom_site_occupancy
  La  La0  1  0.211701  0.788314  0.000000  1
  La  La1  1  0.576674  0.788337  0.000000  1
  La  La2  1  0.788299  0.576612  0.000000  1
  La  La3  1  0.000000  0.000000  0.000000  1
  La  La4  1  0.211701  0.423388  0.000000  1
  La  La5  1  0.423326  0.211663  0.000000  1
  La  La6  1  0.788299  0.211686  0.000000  1
  Ho  Ho7  1  0.000000  0.500000  0.500000  1
  Er  Er8  1  0.500000  0.500000  0.500000  1
  Er  Er9  1  0.500000  0.000000  0.500000  1
  Si  Si10  1  0.000000  0.776344  0.500000  1
  Si  Si11  1  0.000000  0.223656  0.500000  1
  Si  Si12  1  0.223776  0.223722  0.500000  1
  Si  Si13  1  0.776224  0.999945  0.500000  1
  Si  Si14  1  0.333623  0.666812  0.500000  1
  Si  Si15  1  0.223776  0.000055  0.500000  1
  Si  Si16  1  0.666377  0.333188  0.500000  1
  Si  Si17  1  0.776224  0.776278  0.500000  1
  O  O18  1  0.000000  0.500000  0.000000  1
  O  O19  1  0.500000  0.500000  0.000000  1
  O  O20  1  0.500000  0.000000  0.000000  1
