# generated using pymatgen
data_K(NdB9)2
_symmetry_space_group_name_H-M   'P 1'
_cell_length_a   4.16342100
_cell_length_b   4.16342100
_cell_length_c   12.51038000
_cell_angle_alpha   90.00000000
_cell_angle_beta   90.00000000
_cell_angle_gamma   90.00000000
_symmetry_Int_Tables_number   1
_chemical_formula_structural   K(NdB9)2
_chemical_formula_sum   'K1 Nd2 B18'
_cell_volume   216.85585798
_cell_formula_units_Z   1
loop_
 _symmetry_equiv_pos_site_id
 _symmetry_equiv_pos_as_xyz
  1  'x, y, z'
loop_
 _atom_site_type_symbol
 _atom_site_label
 _atom_site_symmetry_multiplicity
 _atom_site_fract_x
 _atom_site_fract_y
 _atom_site_fract_z
 _atom_site_occupancy
  K  K0  1  0.000000  0.000000  0.000000  1
  Nd  Nd1  1  0.000000  0.000000  0.328784  1
  Nd  Nd2  1  0.000000  0.000000  0.671216  1
  B  B3  1  0.201937  0.500000  0.169776  1
  B  B4  1  0.200402  0.500000  0.500000  1
  B  B5  1  0.201937  0.500000  0.830224  1
  B  B6  1  0.500000  0.500000  0.268721  1
  B  B7  1  0.500000  0.500000  0.598943  1
  B  B8  1  0.500000  0.500000  0.931124  1
  B  B9  1  0.500000  0.201937  0.169776  1
  B  B10  1  0.500000  0.200402  0.500000  1
  B  B11  1  0.500000  0.201937  0.830224  1
  B  B12  1  0.500000  0.500000  0.068876  1
  B  B13  1  0.500000  0.500000  0.401057  1
  B  B14  1  0.500000  0.500000  0.731279  1
  B  B15  1  0.500000  0.798063  0.169776  1
  B  B16  1  0.500000  0.799598  0.500000  1
  B  B17  1  0.500000  0.798063  0.830224  1
  B  B18  1  0.798063  0.500000  0.169776  1
  B  B19  1  0.799598  0.500000  0.500000  1
  B  B20  1  0.798063  0.500000  0.830224  1
