# generated using pymatgen
data_SmTm3Tc4F28
_symmetry_space_group_name_H-M   'P 1'
_cell_length_a   5.57972499
_cell_length_b   8.86958000
_cell_length_c   11.97997332
_cell_angle_alpha   62.85440702
_cell_angle_beta   90.06034707
_cell_angle_gamma   89.93660327
_symmetry_Int_Tables_number   1
_chemical_formula_structural   SmTm3Tc4F28
_chemical_formula_sum   'Sm1 Tm3 Tc4 F28'
_cell_volume   527.57910313
_cell_formula_units_Z   1
loop_
 _symmetry_equiv_pos_site_id
 _symmetry_equiv_pos_as_xyz
  1  'x, y, z'
loop_
 _atom_site_type_symbol
 _atom_site_label
 _atom_site_symmetry_multiplicity
 _atom_site_fract_x
 _atom_site_fract_y
 _atom_site_fract_z
 _atom_site_occupancy
  Sm  Sm0  1  0.741212  0.815887  0.264720  1
  Tm  Tm1  1  0.758926  0.816294  0.764052  1
  Tm  Tm2  1  0.258982  0.184882  0.735980  1
  Tm  Tm3  1  0.239793  0.189813  0.235218  1
  Tc  Tc4  1  0.758386  0.276091  0.955163  1
  Tc  Tc5  1  0.257193  0.725732  0.546628  1
  Tc  Tc6  1  0.243636  0.726046  0.039450  1
  Tc  Tc7  1  0.742538  0.269813  0.458784  1
  F  F8  1  0.449627  0.707347  0.914290  1
  F  F9  1  0.950083  0.290546  0.583094  1
  F  F10  1  0.551984  0.293286  0.081147  1
  F  F11  1  0.056127  0.705505  0.420283  1
  F  F12  1  0.449758  0.276579  0.549799  1
  F  F13  1  0.947480  0.721716  0.949980  1
  F  F14  1  0.549679  0.717352  0.458154  1
  F  F15  1  0.050778  0.280185  0.047404  1
  F  F16  1  0.770693  0.523989  0.857323  1
  F  F17  1  0.268821  0.476801  0.643582  1
  F  F18  1  0.229799  0.477752  0.139804  1
  F  F19  1  0.728379  0.516403  0.360209  1
  F  F20  1  0.758352  0.029135  0.050271  1
  F  F21  1  0.258768  0.972422  0.447608  1
  F  F22  1  0.242677  0.973488  0.944241  1
  F  F23  1  0.742094  0.022875  0.555570  1
  F  F24  1  0.973304  0.731190  0.642141  1
  F  F25  1  0.476402  0.269389  0.858370  1
  F  F26  1  0.025591  0.268835  0.360916  1
  F  F27  1  0.526940  0.727928  0.135354  1
  F  F28  1  0.049222  0.743545  0.169822  1
  F  F29  1  0.540232  0.251390  0.329546  1
  F  F30  1  0.960965  0.254426  0.827449  1
  F  F31  1  0.458488  0.746702  0.674449  1
  F  F32  1  0.406836  0.977062  0.230480  1
  F  F33  1  0.920942  0.038729  0.268532  1
  F  F34  1  0.577736  0.027520  0.767458  1
  F  F35  1  0.077578  0.973346  0.732727  1
