# generated using pymatgen
data_Dy3Mg3Hg2Os
_symmetry_space_group_name_H-M   'P 1'
_cell_length_a   7.93082100
_cell_length_b   7.93082172
_cell_length_c   3.92503100
_cell_angle_alpha   90.00000000
_cell_angle_beta   90.00000000
_cell_angle_gamma   120.00000117
_symmetry_Int_Tables_number   1
_chemical_formula_structural   Dy3Mg3Hg2Os
_chemical_formula_sum   'Dy3 Mg3 Hg2 Os1'
_cell_volume   213.80115786
_cell_formula_units_Z   1
loop_
 _symmetry_equiv_pos_site_id
 _symmetry_equiv_pos_as_xyz
  1  'x, y, z'
loop_
 _atom_site_type_symbol
 _atom_site_label
 _atom_site_symmetry_multiplicity
 _atom_site_fract_x
 _atom_site_fract_y
 _atom_site_fract_z
 _atom_site_occupancy
  Dy  Dy0  1  0.433821  0.393108  0.500000  1
  Dy  Dy1  1  0.606892  0.040712  0.500000  1
  Dy  Dy2  1  0.959288  0.566179  0.500000  1
  Mg  Mg3  1  0.736676  0.734040  0.000000  1
  Mg  Mg4  1  0.265960  0.002635  0.000000  1
  Mg  Mg5  1  0.997365  0.263324  0.000000  1
  Hg  Hg6  1  0.333333  0.666667  0.000000  1
  Hg  Hg7  1  0.000000  0.000000  0.500000  1
  Os  Os8  1  0.666667  0.333333  0.000000  1
