# generated using pymatgen
data_Ti3BeMo(POs)2
_symmetry_space_group_name_H-M   'P 1'
_cell_length_a   6.53699035
_cell_length_b   6.53698959
_cell_length_c   3.26937700
_cell_angle_alpha   90.00000000
_cell_angle_beta   90.00000000
_cell_angle_gamma   119.43538010
_symmetry_Int_Tables_number   1
_chemical_formula_structural   Ti3BeMo(POs)2
_chemical_formula_sum   'Ti3 Be1 Mo1 P2 Os2'
_cell_volume   121.67298780
_cell_formula_units_Z   1
loop_
 _symmetry_equiv_pos_site_id
 _symmetry_equiv_pos_as_xyz
  1  'x, y, z'
loop_
 _atom_site_type_symbol
 _atom_site_label
 _atom_site_symmetry_multiplicity
 _atom_site_fract_x
 _atom_site_fract_y
 _atom_site_fract_z
 _atom_site_occupancy
  Ti  Ti0  1  0.405283  0.405283  0.500000  1
  Ti  Ti1  1  0.598219  0.991166  0.500000  1
  Ti  Ti2  1  0.991166  0.598219  0.500000  1
  Be  Be3  1  0.008364  0.008364  0.500000  1
  Mo  Mo4  1  0.749743  0.749743  0.000000  1
  P  P5  1  0.664751  0.329452  0.000000  1
  P  P6  1  0.329452  0.664751  0.000000  1
  Os  Os7  1  0.253451  0.999570  0.000000  1
  Os  Os8  1  0.999570  0.253451  0.000000  1
