# generated using pymatgen
data_Re6IrPt
_symmetry_space_group_name_H-M   'P 1'
_cell_length_a   5.59733700
_cell_length_b   5.59733635
_cell_length_c   4.41041800
_cell_angle_alpha   90.00000000
_cell_angle_beta   90.00000000
_cell_angle_gamma   120.00000973
_symmetry_Int_Tables_number   1
_chemical_formula_structural   Re6IrPt
_chemical_formula_sum   'Re6 Ir1 Pt1'
_cell_volume   119.66666879
_cell_formula_units_Z   1
loop_
 _symmetry_equiv_pos_site_id
 _symmetry_equiv_pos_as_xyz
  1  'x, y, z'
loop_
 _atom_site_type_symbol
 _atom_site_label
 _atom_site_symmetry_multiplicity
 _atom_site_fract_x
 _atom_site_fract_y
 _atom_site_fract_z
 _atom_site_occupancy
  Re  Re0  1  0.160058  0.320117  0.250000  1
  Re  Re1  1  0.679883  0.839942  0.250000  1
  Re  Re2  1  0.160058  0.839942  0.250000  1
  Re  Re3  1  0.840058  0.680114  0.750000  1
  Re  Re4  1  0.319886  0.159942  0.750000  1
  Re  Re5  1  0.840058  0.159942  0.750000  1
  Ir  Ir6  1  0.333333  0.666667  0.750000  1
  Pt  Pt7  1  0.666667  0.333333  0.250000  1
