# generated using pymatgen
data_K3RbSn2(BSe)18
_symmetry_space_group_name_H-M   'P 1'
_cell_length_a   9.73743412
_cell_length_b   11.04472296
_cell_length_c   11.48217650
_cell_angle_alpha   105.55842103
_cell_angle_beta   91.73783661
_cell_angle_gamma   115.74559882
_symmetry_Int_Tables_number   1
_chemical_formula_structural   K3RbSn2(BSe)18
_chemical_formula_sum   'K3 Rb1 Sn2 B18 Se18'
_cell_volume   1056.08221221
_cell_formula_units_Z   1
loop_
 _symmetry_equiv_pos_site_id
 _symmetry_equiv_pos_as_xyz
  1  'x, y, z'
loop_
 _atom_site_type_symbol
 _atom_site_label
 _atom_site_symmetry_multiplicity
 _atom_site_fract_x
 _atom_site_fract_y
 _atom_site_fract_z
 _atom_site_occupancy
  K  K0  1  0.776540  0.148434  0.017643  1
  K  K1  1  0.226167  0.853432  0.980825  1
  K  K2  1  0.195371  0.359936  0.511582  1
  Rb  Rb3  1  0.815329  0.647083  0.487278  1
  Sn  Sn4  1  0.338386  0.379772  0.049114  1
  Sn  Sn5  1  0.659226  0.620617  0.953511  1
  B  B6  1  0.512061  0.161438  0.556124  1
  B  B7  1  0.487714  0.838258  0.443642  1
  B  B8  1  0.670024  0.129145  0.591337  1
  B  B9  1  0.329539  0.870387  0.408242  1
  B  B10  1  0.495354  0.054646  0.650160  1
  B  B11  1  0.504032  0.944843  0.349488  1
  B  B12  1  0.334703  0.006893  0.538378  1
  B  B13  1  0.664930  0.992969  0.461291  1
  B  B14  1  0.409895  0.050137  0.405937  1
  B  B15  1  0.589499  0.949508  0.593874  1
  B  B16  1  0.615151  0.123629  0.439836  1
  B  B17  1  0.384118  0.875882  0.559700  1
  B  B18  1  0.763654  0.432375  0.713041  1
  B  B19  1  0.235509  0.566222  0.288886  1
  B  B20  1  0.254671  0.085910  0.786205  1
  B  B21  1  0.745544  0.915546  0.213583  1
  B  B22  1  0.547018  0.256110  0.269958  1
  B  B23  1  0.451445  0.742512  0.729190  1
  Se  Se24  1  0.551059  0.361895  0.632677  1
  Se  Se25  1  0.448795  0.637688  0.367905  1
  Se  Se26  1  0.855740  0.303008  0.702136  1
  Se  Se27  1  0.144409  0.695905  0.297130  1
  Se  Se28  1  0.467534  0.117933  0.825116  1
  Se  Se29  1  0.531829  0.881275  0.174574  1
  Se  Se30  1  0.157660  0.026970  0.614089  1
  Se  Se31  1  0.843491  0.976140  0.385616  1
  Se  Se32  1  0.337433  0.129626  0.291205  1
  Se  Se33  1  0.661155  0.870557  0.709701  1
  Se  Se34  1  0.732236  0.268435  0.357611  1
  Se  Se35  1  0.266372  0.729985  0.640889  1
  Se  Se36  1  0.877353  0.634938  0.802242  1
  Se  Se37  1  0.121918  0.362473  0.203706  1
  Se  Se38  1  0.135241  0.106207  0.916887  1
  Se  Se39  1  0.864132  0.894630  0.082376  1
  Se  Se40  1  0.591157  0.373337  0.163456  1
  Se  Se41  1  0.406605  0.623311  0.833864  1
