# generated using pymatgen
data_HoNp5(Ni3Sb4)2
_symmetry_space_group_name_H-M   'P 1'
_cell_length_a   8.12831548
_cell_length_b   8.12831465
_cell_length_c   8.12831600
_cell_angle_alpha   109.27904448
_cell_angle_beta   109.27906482
_cell_angle_gamma   109.85623548
_symmetry_Int_Tables_number   1
_chemical_formula_structural   HoNp5(Ni3Sb4)2
_chemical_formula_sum   'Ho1 Np5 Ni6 Sb8'
_cell_volume   413.39483970
_cell_formula_units_Z   1
loop_
 _symmetry_equiv_pos_site_id
 _symmetry_equiv_pos_as_xyz
  1  'x, y, z'
loop_
 _atom_site_type_symbol
 _atom_site_label
 _atom_site_symmetry_multiplicity
 _atom_site_fract_x
 _atom_site_fract_y
 _atom_site_fract_z
 _atom_site_occupancy
  Ho  Ho0  1  0.375569  0.625709  0.750701  1
  Np  Np1  1  0.875613  0.250445  0.125561  1
  Np  Np2  1  0.623906  0.749625  0.376330  1
  Np  Np3  1  0.252625  0.127291  0.874403  1
  Np  Np4  1  0.751905  0.376717  0.623176  1
  Np  Np5  1  0.123742  0.875483  0.248163  1
  Ni  Ni6  1  0.372830  0.248092  0.624692  1
  Ni  Ni7  1  0.125219  0.750854  0.876021  1
  Ni  Ni8  1  0.247783  0.623588  0.373066  1
  Ni  Ni9  1  0.753290  0.875427  0.125582  1
  Ni  Ni10  1  0.623799  0.374511  0.249899  1
  Ni  Ni11  1  0.875677  0.125193  0.750448  1
  Sb  Sb12  1  0.663341  0.501248  0.999660  1
  Sb  Sb13  1  0.499128  0.001158  0.663115  1
  Sb  Sb14  1  0.001940  0.663722  0.501043  1
  Sb  Sb15  1  0.838282  0.836187  0.836303  1
  Sb  Sb16  1  0.499482  0.997717  0.162345  1
  Sb  Sb17  1  0.162678  0.498827  0.000878  1
  Sb  Sb18  1  0.996911  0.161590  0.498942  1
  Sb  Sb19  1  0.336282  0.336615  0.339670  1
