# generated using pymatgen
data_Eu3AlCd2Pt3
_symmetry_space_group_name_H-M   'P 1'
_cell_length_a   7.51065905
_cell_length_b   7.40622297
_cell_length_c   4.20838500
_cell_angle_alpha   90.00000000
_cell_angle_beta   90.00000000
_cell_angle_gamma   119.54108571
_symmetry_Int_Tables_number   1
_chemical_formula_structural   Eu3AlCd2Pt3
_chemical_formula_sum   'Eu3 Al1 Cd2 Pt3'
_cell_volume   203.66233894
_cell_formula_units_Z   1
loop_
 _symmetry_equiv_pos_site_id
 _symmetry_equiv_pos_as_xyz
  1  'x, y, z'
loop_
 _atom_site_type_symbol
 _atom_site_label
 _atom_site_symmetry_multiplicity
 _atom_site_fract_x
 _atom_site_fract_y
 _atom_site_fract_z
 _atom_site_occupancy
  Eu  Eu0  1  0.416375  0.410360  0.500000  1
  Eu  Eu1  1  0.583625  0.993984  0.500000  1
  Eu  Eu2  1  0.000000  0.587174  0.500000  1
  Al  Al3  1  0.000000  0.247578  0.000000  1
  Cd  Cd4  1  0.755549  0.754623  0.000000  1
  Cd  Cd5  1  0.244451  0.999073  0.000000  1
  Pt  Pt6  1  0.689533  0.325711  0.000000  1
  Pt  Pt7  1  0.310467  0.636178  0.000000  1
  Pt  Pt8  1  0.000000  0.045318  0.500000  1
