# generated using pymatgen
data_KBaMnCo3P4
_symmetry_space_group_name_H-M   'P 1'
_cell_length_a   6.92549334
_cell_length_b   6.93051825
_cell_length_c   5.32120800
_cell_angle_alpha   90.00000000
_cell_angle_beta   90.00000000
_cell_angle_gamma   134.86252924
_symmetry_Int_Tables_number   1
_chemical_formula_structural   KBaMnCo3P4
_chemical_formula_sum   'K1 Ba1 Mn1 Co3 P4'
_cell_volume   181.03026170
_cell_formula_units_Z   1
loop_
 _symmetry_equiv_pos_site_id
 _symmetry_equiv_pos_as_xyz
  1  'x, y, z'
loop_
 _atom_site_type_symbol
 _atom_site_label
 _atom_site_symmetry_multiplicity
 _atom_site_fract_x
 _atom_site_fract_y
 _atom_site_fract_z
 _atom_site_occupancy
  K  K0  1  0.000000  0.000000  0.001039  1
  Ba  Ba1  1  0.500000  0.500000  0.498286  1
  Mn  Mn2  1  0.500000  0.000000  0.750336  1
  Co  Co3  1  0.000000  0.500000  0.250033  1
  Co  Co4  1  0.000000  0.500000  0.749674  1
  Co  Co5  1  0.500000  0.000000  0.249930  1
  P  P6  1  0.656684  0.338281  0.997692  1
  P  P7  1  0.161792  0.843482  0.502659  1
  P  P8  1  0.838208  0.156518  0.502659  1
  P  P9  1  0.343316  0.661719  0.997692  1
