# generated using pymatgen
data_La2HoLu3(WO7)2
_symmetry_space_group_name_H-M   'P 1'
_cell_length_a   6.43510200
_cell_length_b   6.43083380
_cell_length_c   7.54537600
_cell_angle_alpha   90.00024947
_cell_angle_beta   89.99976851
_cell_angle_gamma   109.23025156
_symmetry_Int_Tables_number   1
_chemical_formula_structural   La2HoLu3(WO7)2
_chemical_formula_sum   'La2 Ho1 Lu3 W2 O14'
_cell_volume   294.82804970
_cell_formula_units_Z   1
loop_
 _symmetry_equiv_pos_site_id
 _symmetry_equiv_pos_as_xyz
  1  'x, y, z'
loop_
 _atom_site_type_symbol
 _atom_site_label
 _atom_site_symmetry_multiplicity
 _atom_site_fract_x
 _atom_site_fract_y
 _atom_site_fract_z
 _atom_site_occupancy
  La  La0  1  0.501342  0.501382  0.500868  1
  La  La1  1  0.501215  0.501285  0.999124  1
  Ho  Ho2  1  0.466840  0.998533  0.249325  1
  Lu  Lu3  1  0.003181  0.531231  0.250780  1
  Lu  Lu4  1  0.997612  0.468004  0.749147  1
  Lu  Lu5  1  0.531498  0.002801  0.750808  1
  W  W6  1  0.999634  0.999802  0.501014  1
  W  W7  1  0.999612  0.999789  0.998902  1
  O  O8  1  0.926881  0.077331  0.749988  1
  O  O9  1  0.072012  0.923665  0.250026  1
  O  O10  1  0.353207  0.642174  0.249984  1
  O  O11  1  0.647791  0.353263  0.750012  1
  O  O12  1  0.356252  0.642752  0.749956  1
  O  O13  1  0.646152  0.363601  0.250000  1
  O  O14  1  0.323907  0.071204  0.966831  1
  O  O15  1  0.676014  0.927559  0.472767  1
  O  O16  1  0.322404  0.070600  0.533963  1
  O  O17  1  0.674581  0.926997  0.026568  1
  O  O18  1  0.067486  0.323058  0.467547  1
  O  O19  1  0.933046  0.677407  0.967059  1
  O  O20  1  0.932397  0.675928  0.532363  1
  O  O21  1  0.066940  0.321632  0.032971  1
