# generated using pymatgen
data_Ta12TcB12Os11
_symmetry_space_group_name_H-M   'P 1'
_cell_length_a   3.11033800
_cell_length_b   9.08671688
_cell_length_c   15.82073706
_cell_angle_alpha   90.14662425
_cell_angle_beta   90.00000000
_cell_angle_gamma   90.00000000
_symmetry_Int_Tables_number   1
_chemical_formula_structural   Ta12TcB12Os11
_chemical_formula_sum   'Ta12 Tc1 B12 Os11'
_cell_volume   447.13624290
_cell_formula_units_Z   1
loop_
 _symmetry_equiv_pos_site_id
 _symmetry_equiv_pos_as_xyz
  1  'x, y, z'
loop_
 _atom_site_type_symbol
 _atom_site_label
 _atom_site_symmetry_multiplicity
 _atom_site_fract_x
 _atom_site_fract_y
 _atom_site_fract_z
 _atom_site_occupancy
  Ta  Ta0  1  0.000000  0.799417  0.495172  1
  Ta  Ta1  1  0.000000  0.200290  0.504281  1
  Ta  Ta2  1  0.000000  0.300120  0.004310  1
  Ta  Ta3  1  0.000000  0.700850  0.995744  1
  Ta  Ta4  1  0.000000  0.516206  0.593508  1
  Ta  Ta5  1  0.000000  0.483879  0.406205  1
  Ta  Ta6  1  0.000000  0.016330  0.906537  1
  Ta  Ta7  1  0.000000  0.984774  0.094433  1
  Ta  Ta8  1  0.000000  0.689762  0.203253  1
  Ta  Ta9  1  0.000000  0.312194  0.797527  1
  Ta  Ta10  1  0.000000  0.184005  0.296421  1
  Ta  Ta11  1  0.000000  0.811456  0.702373  1
  Tc  Tc12  1  0.500000  0.936866  0.233539  1
  B  B13  1  0.500000  0.604664  0.496850  1
  B  B14  1  0.500000  0.394658  0.502841  1
  B  B15  1  0.500000  0.105639  0.003624  1
  B  B16  1  0.500000  0.895250  0.996785  1
  B  B17  1  0.000000  0.609401  0.832679  1
  B  B18  1  0.000000  0.391008  0.167425  1
  B  B19  1  0.000000  0.109080  0.667371  1
  B  B20  1  0.000000  0.891642  0.331022  1
  B  B21  1  0.500000  0.715728  0.598072  1
  B  B22  1  0.500000  0.283781  0.401349  1
  B  B23  1  0.500000  0.215999  0.901754  1
  B  B24  1  0.500000  0.786253  0.099175  1
  Os  Os25  1  0.500000  0.718326  0.356251  1
  Os  Os26  1  0.500000  0.280570  0.644567  1
  Os  Os27  1  0.500000  0.220693  0.143243  1
  Os  Os28  1  0.500000  0.781022  0.855795  1
  Os  Os29  1  0.500000  0.517761  0.094248  1
  Os  Os30  1  0.500000  0.484420  0.906548  1
  Os  Os31  1  0.500000  0.015726  0.406715  1
  Os  Os32  1  0.500000  0.983947  0.593935  1
  Os  Os33  1  0.500000  0.560083  0.734558  1
  Os  Os34  1  0.500000  0.437312  0.265868  1
  Os  Os35  1  0.500000  0.060885  0.766025  1
