# generated using pymatgen
data_AlCu2Pd3Se8
_symmetry_space_group_name_H-M   'P 1'
_cell_length_a   7.53958016
_cell_length_b   7.53957939
_cell_length_c   7.38404582
_cell_angle_alpha   120.69926436
_cell_angle_beta   120.69925940
_cell_angle_gamma   60.00000724
_symmetry_Int_Tables_number   1
_chemical_formula_structural   AlCu2Pd3Se8
_chemical_formula_sum   'Al1 Cu2 Pd3 Se8'
_cell_volume   293.63085994
_cell_formula_units_Z   1
loop_
 _symmetry_equiv_pos_site_id
 _symmetry_equiv_pos_as_xyz
  1  'x, y, z'
loop_
 _atom_site_type_symbol
 _atom_site_label
 _atom_site_symmetry_multiplicity
 _atom_site_fract_x
 _atom_site_fract_y
 _atom_site_fract_z
 _atom_site_occupancy
  Al  Al0  1  0.375000  0.375000  0.125000  1
  Cu  Cu1  1  0.996523  0.996523  0.989570  1
  Cu  Cu2  1  0.753477  0.753477  0.260430  1
  Pd  Pd3  1  0.874999  0.375000  0.624999  1
  Pd  Pd4  1  0.375000  0.874999  0.624999  1
  Pd  Pd5  1  0.375001  0.375001  0.625000  1
  Se  Se6  1  0.616403  0.150811  0.383613  1
  Se  Se7  1  0.150811  0.616403  0.383613  1
  Se  Se8  1  0.616402  0.616402  0.383613  1
  Se  Se9  1  0.132396  0.132396  0.397187  1
  Se  Se10  1  0.617604  0.617604  0.852810  1
  Se  Se11  1  0.133597  0.133597  0.866386  1
  Se  Se12  1  0.599191  0.133596  0.866386  1
  Se  Se13  1  0.133596  0.599191  0.866386  1
