# generated using pymatgen
data_YbPr2IrC4
_symmetry_space_group_name_H-M   'P 1'
_cell_length_a   8.61078182
_cell_length_b   8.61078193
_cell_length_c   4.31734849
_cell_angle_alpha   97.32562819
_cell_angle_beta   97.32562867
_cell_angle_gamma   24.57805745
_symmetry_Int_Tables_number   1
_chemical_formula_structural   YbPr2IrC4
_chemical_formula_sum   'Yb1 Pr2 Ir1 C4'
_cell_volume   132.00651243
_cell_formula_units_Z   1
loop_
 _symmetry_equiv_pos_site_id
 _symmetry_equiv_pos_as_xyz
  1  'x, y, z'
loop_
 _atom_site_type_symbol
 _atom_site_label
 _atom_site_symmetry_multiplicity
 _atom_site_fract_x
 _atom_site_fract_y
 _atom_site_fract_z
 _atom_site_occupancy
  Yb  Yb0  1  0.000000  0.000000  0.500000  1
  Pr  Pr1  1  0.173884  0.173884  0.224781  1
  Pr  Pr2  1  0.826117  0.826117  0.775219  1
  Ir  Ir3  1  0.500000  0.500000  0.000000  1
  C  C4  1  0.398850  0.398850  0.190264  1
  C  C5  1  0.325805  0.325805  0.274004  1
  C  C6  1  0.674195  0.674195  0.725994  1
  C  C7  1  0.601150  0.601150  0.809737  1
