# generated using pymatgen
data_Sc3Al3Cu2Hg
_symmetry_space_group_name_H-M   'P 1'
_cell_length_a   7.05415600
_cell_length_b   7.05415488
_cell_length_c   3.72669400
_cell_angle_alpha   90.00000000
_cell_angle_beta   90.00000000
_cell_angle_gamma   120.00000527
_symmetry_Int_Tables_number   1
_chemical_formula_structural   Sc3Al3Cu2Hg
_chemical_formula_sum   'Sc3 Al3 Cu2 Hg1'
_cell_volume   160.59957548
_cell_formula_units_Z   1
loop_
 _symmetry_equiv_pos_site_id
 _symmetry_equiv_pos_as_xyz
  1  'x, y, z'
loop_
 _atom_site_type_symbol
 _atom_site_label
 _atom_site_symmetry_multiplicity
 _atom_site_fract_x
 _atom_site_fract_y
 _atom_site_fract_z
 _atom_site_occupancy
  Sc  Sc0  1  0.396338  0.980581  0.000000  1
  Sc  Sc1  1  0.019419  0.415755  0.000000  1
  Sc  Sc2  1  0.584245  0.603663  0.000000  1
  Al  Al3  1  0.752962  0.990455  0.500000  1
  Al  Al4  1  0.237493  0.247038  0.500000  1
  Al  Al5  1  0.009545  0.762507  0.500000  1
  Cu  Cu6  1  0.000000  0.000000  0.000000  1
  Cu  Cu7  1  0.333333  0.666666  0.500000  1
  Hg  Hg8  1  0.666667  0.333334  0.500000  1
