# generated using pymatgen
data_PaCo2(SiRh)3
_symmetry_space_group_name_H-M   'P 1'
_cell_length_a   3.79492600
_cell_length_b   10.90648600
_cell_length_c   12.38493400
_cell_angle_alpha   90.00000000
_cell_angle_beta   90.00000000
_cell_angle_gamma   90.00000000
_symmetry_Int_Tables_number   1
_chemical_formula_structural   PaCo2(SiRh)3
_chemical_formula_sum   'Pa4 Co8 Si12 Rh12'
_cell_volume   512.60383909
_cell_formula_units_Z   4
loop_
 _symmetry_equiv_pos_site_id
 _symmetry_equiv_pos_as_xyz
  1  'x, y, z'
loop_
 _atom_site_type_symbol
 _atom_site_label
 _atom_site_symmetry_multiplicity
 _atom_site_fract_x
 _atom_site_fract_y
 _atom_site_fract_z
 _atom_site_occupancy
  Pa  Pa0  1  0.250000  0.580623  0.710655  1
  Pa  Pa1  1  0.250000  0.919377  0.210655  1
  Pa  Pa2  1  0.750000  0.419377  0.289345  1
  Pa  Pa3  1  0.750000  0.080623  0.789345  1
  Co  Co4  1  0.250000  0.894695  0.698811  1
  Co  Co5  1  0.250000  0.605305  0.198811  1
  Co  Co6  1  0.750000  0.105305  0.301189  1
  Co  Co7  1  0.750000  0.394695  0.801189  1
  Co  Co8  1  0.250000  0.471257  0.927462  1
  Co  Co9  1  0.250000  0.028743  0.427462  1
  Co  Co10  1  0.750000  0.528743  0.072538  1
  Co  Co11  1  0.750000  0.971257  0.572538  1
  Si  Si12  1  0.250000  0.420489  0.102874  1
  Si  Si13  1  0.250000  0.079511  0.602874  1
  Si  Si14  1  0.750000  0.579511  0.897126  1
  Si  Si15  1  0.750000  0.920489  0.397126  1
  Si  Si16  1  0.250000  0.279855  0.872154  1
  Si  Si17  1  0.250000  0.220145  0.372154  1
  Si  Si18  1  0.750000  0.720145  0.127846  1
  Si  Si19  1  0.750000  0.779855  0.627846  1
  Si  Si20  1  0.250000  0.604202  0.387365  1
  Si  Si21  1  0.250000  0.895798  0.887365  1
  Si  Si22  1  0.750000  0.395798  0.612635  1
  Si  Si23  1  0.750000  0.104202  0.112635  1
  Rh  Rh24  1  0.250000  0.710295  0.995076  1
  Rh  Rh25  1  0.250000  0.789705  0.495076  1
  Rh  Rh26  1  0.750000  0.289705  0.004924  1
  Rh  Rh27  1  0.750000  0.210295  0.504924  1
  Rh  Rh28  1  0.250000  0.406671  0.481450  1
  Rh  Rh29  1  0.250000  0.093329  0.981450  1
  Rh  Rh30  1  0.750000  0.593329  0.518550  1
  Rh  Rh31  1  0.750000  0.906671  0.018550  1
  Rh  Rh32  1  0.250000  0.222879  0.179919  1
  Rh  Rh33  1  0.250000  0.277121  0.679919  1
  Rh  Rh34  1  0.750000  0.777121  0.820081  1
  Rh  Rh35  1  0.750000  0.722879  0.320081  1
