# generated using pymatgen
data_La12Tc(NiI4)3
_symmetry_space_group_name_H-M   'P 1'
_cell_length_a   10.96931345
_cell_length_b   10.88174578
_cell_length_c   10.88174613
_cell_angle_alpha   109.30763603
_cell_angle_beta   109.63431931
_cell_angle_gamma   109.63431593
_symmetry_Int_Tables_number   1
_chemical_formula_structural   La12Tc(NiI4)3
_chemical_formula_sum   'La12 Tc1 Ni3 I12'
_cell_volume   997.87599754
_cell_formula_units_Z   1
loop_
 _symmetry_equiv_pos_site_id
 _symmetry_equiv_pos_as_xyz
  1  'x, y, z'
loop_
 _atom_site_type_symbol
 _atom_site_label
 _atom_site_symmetry_multiplicity
 _atom_site_fract_x
 _atom_site_fract_y
 _atom_site_fract_z
 _atom_site_occupancy
  La  La0  1  0.459552  0.483923  0.227612  1
  La  La1  1  0.750000  0.228178  0.271822  1
  La  La2  1  0.750000  0.023896  0.476104  1
  La  La3  1  0.226104  0.452207  0.476104  1
  La  La4  1  0.268059  0.743689  0.227612  1
  La  La5  1  0.040448  0.272388  0.016077  1
  La  La6  1  0.021822  0.043646  0.271822  1
  La  La7  1  0.475630  0.743689  0.016077  1
  La  La8  1  0.478178  0.228178  0.456354  1
  La  La9  1  0.024370  0.483923  0.756311  1
  La  La10  1  0.273896  0.023896  0.047793  1
  La  La11  1  0.231941  0.272388  0.756311  1
  Tc  Tc12  1  0.250000  0.500000  0.000000  1
  Ni  Ni13  1  0.250000  0.249417  0.250583  1
  Ni  Ni14  1  0.500583  0.001167  0.250583  1
  Ni  Ni15  1  0.999417  0.249417  0.498833  1
  I  I16  1  0.250000  0.760756  0.739244  1
  I  I17  1  0.520214  0.508359  0.758044  1
  I  I18  1  0.979786  0.741956  0.991641  1
  I  I19  1  0.737831  0.249686  0.758044  1
  I  I20  1  0.989244  0.978487  0.739244  1
  I  I21  1  0.250000  0.990797  0.509203  1
  I  I22  1  0.759203  0.518406  0.509203  1
  I  I23  1  0.511855  0.249686  0.991641  1
  I  I24  1  0.762169  0.741956  0.250314  1
  I  I25  1  0.740797  0.990797  0.981594  1
  I  I26  1  0.988145  0.508359  0.250314  1
  I  I27  1  0.510756  0.760756  0.521513  1
