# generated using pymatgen
data_Ba5Ru3BrO15
_symmetry_space_group_name_H-M   'P 1'
_cell_length_a   10.94894200
_cell_length_b   10.94894207
_cell_length_c   7.79281300
_cell_angle_alpha   90.00000000
_cell_angle_beta   90.00000000
_cell_angle_gamma   119.99999978
_symmetry_Int_Tables_number   1
_chemical_formula_structural   Ba5Ru3BrO15
_chemical_formula_sum   'Ba10 Ru6 Br2 O30'
_cell_volume   809.03852176
_cell_formula_units_Z   2
loop_
 _symmetry_equiv_pos_site_id
 _symmetry_equiv_pos_as_xyz
  1  'x, y, z'
loop_
 _atom_site_type_symbol
 _atom_site_label
 _atom_site_symmetry_multiplicity
 _atom_site_fract_x
 _atom_site_fract_y
 _atom_site_fract_z
 _atom_site_occupancy
  Ba  Ba0  1  0.264876  0.264876  0.768896  1
  Ba  Ba1  1  0.000000  0.735124  0.768896  1
  Ba  Ba2  1  0.735124  0.735124  0.268896  1
  Ba  Ba3  1  0.000000  0.264876  0.268896  1
  Ba  Ba4  1  0.735124  0.000000  0.768896  1
  Ba  Ba5  1  0.264876  0.000000  0.268896  1
  Ba  Ba6  1  0.666667  0.333333  0.533687  1
  Ba  Ba7  1  0.333333  0.666667  0.033687  1
  Ba  Ba8  1  0.666667  0.333333  0.033687  1
  Ba  Ba9  1  0.333333  0.666667  0.533687  1
  Ru  Ru10  1  0.611963  0.611963  0.819598  1
  Ru  Ru11  1  0.000000  0.388037  0.819598  1
  Ru  Ru12  1  0.388037  0.388037  0.319598  1
  Ru  Ru13  1  0.000000  0.611963  0.319598  1
  Ru  Ru14  1  0.388037  0.000000  0.819598  1
  Ru  Ru15  1  0.611963  0.000000  0.319598  1
  Br  Br16  1  0.000000  0.000000  0.004663  1
  Br  Br17  1  0.000000  0.000000  0.504663  1
  O  O18  1  0.707063  0.707063  0.641131  1
  O  O19  1  0.000000  0.292937  0.641131  1
  O  O20  1  0.292937  0.292937  0.141131  1
  O  O21  1  0.000000  0.707063  0.141131  1
  O  O22  1  0.292937  0.000000  0.641131  1
  O  O23  1  0.707063  0.000000  0.141131  1
  O  O24  1  0.869038  0.447391  0.787455  1
  O  O25  1  0.578354  0.130962  0.787455  1
  O  O26  1  0.130962  0.552609  0.287455  1
  O  O27  1  0.578354  0.447391  0.287455  1
  O  O28  1  0.552609  0.421646  0.787455  1
  O  O29  1  0.421646  0.869038  0.287455  1
  O  O30  1  0.552609  0.130962  0.287455  1
  O  O31  1  0.421646  0.552609  0.787455  1
  O  O32  1  0.447391  0.578354  0.287455  1
  O  O33  1  0.447391  0.869038  0.787455  1
  O  O34  1  0.869038  0.421646  0.287455  1
  O  O35  1  0.130962  0.578354  0.787455  1
  O  O36  1  0.866965  0.255360  0.967527  1
  O  O37  1  0.388395  0.133035  0.967527  1
  O  O38  1  0.133035  0.744640  0.467527  1
  O  O39  1  0.388395  0.255360  0.467527  1
  O  O40  1  0.744640  0.611605  0.967527  1
  O  O41  1  0.611605  0.866965  0.467527  1
  O  O42  1  0.744640  0.133035  0.467527  1
  O  O43  1  0.611605  0.744640  0.967527  1
  O  O44  1  0.255360  0.388395  0.467527  1
  O  O45  1  0.255360  0.866965  0.967527  1
  O  O46  1  0.866965  0.611605  0.467527  1
  O  O47  1  0.133035  0.388395  0.967527  1
