# generated using pymatgen
data_Tb5Nd3(Si3Ir)4
_symmetry_space_group_name_H-M   'P 1'
_cell_length_a   8.19806600
_cell_length_b   8.20482193
_cell_length_c   8.22631400
_cell_angle_alpha   90.00000000
_cell_angle_beta   90.00000000
_cell_angle_gamma   119.97275750
_symmetry_Int_Tables_number   1
_chemical_formula_structural   Tb5Nd3(Si3Ir)4
_chemical_formula_sum   'Tb5 Nd3 Si12 Ir4'
_cell_volume   479.33113422
_cell_formula_units_Z   1
loop_
 _symmetry_equiv_pos_site_id
 _symmetry_equiv_pos_as_xyz
  1  'x, y, z'
loop_
 _atom_site_type_symbol
 _atom_site_label
 _atom_site_symmetry_multiplicity
 _atom_site_fract_x
 _atom_site_fract_y
 _atom_site_fract_z
 _atom_site_occupancy
  Tb  Tb0  1  0.499787  0.500282  0.750000  1
  Tb  Tb1  1  0.500237  0.499876  0.250000  1
  Tb  Tb2  1  0.000495  0.500282  0.750000  1
  Tb  Tb3  1  0.999639  0.499876  0.250000  1
  Tb  Tb4  1  0.499716  0.999432  0.750000  1
  Nd  Nd5  1  0.500226  0.000453  0.250000  1
  Nd  Nd6  1  0.999953  0.999906  0.750000  1
  Nd  Nd7  1  0.000022  0.000043  0.250000  1
  Si  Si8  1  0.833226  0.167838  0.997090  1
  Si  Si9  1  0.166781  0.832163  0.998364  1
  Si  Si10  1  0.334612  0.167838  0.997090  1
  Si  Si11  1  0.166781  0.832163  0.501636  1
  Si  Si12  1  0.665381  0.832163  0.998364  1
  Si  Si13  1  0.833226  0.167838  0.502910  1
  Si  Si14  1  0.832803  0.665606  0.999669  1
  Si  Si15  1  0.665381  0.832163  0.501636  1
  Si  Si16  1  0.167176  0.334353  0.000626  1
  Si  Si17  1  0.334612  0.167838  0.502910  1
  Si  Si18  1  0.167176  0.334353  0.499374  1
  Si  Si19  1  0.832803  0.665606  0.500331  1
  Ir  Ir20  1  0.667324  0.334646  0.996053  1
  Ir  Ir21  1  0.332659  0.665318  0.995510  1
  Ir  Ir22  1  0.332659  0.665318  0.504490  1
  Ir  Ir23  1  0.667324  0.334646  0.503947  1
