# generated using pymatgen
data_Ho5Er5(GaSb)4
_symmetry_space_group_name_H-M   'P 1'
_cell_length_a   8.67339229
_cell_length_b   8.53680231
_cell_length_c   7.88001200
_cell_angle_alpha   90.05148485
_cell_angle_beta   90.03128566
_cell_angle_gamma   125.48538247
_symmetry_Int_Tables_number   1
_chemical_formula_structural   Ho5Er5(GaSb)4
_chemical_formula_sum   'Ho5 Er5 Ga4 Sb4'
_cell_volume   475.08967058
_cell_formula_units_Z   1
loop_
 _symmetry_equiv_pos_site_id
 _symmetry_equiv_pos_as_xyz
  1  'x, y, z'
loop_
 _atom_site_type_symbol
 _atom_site_label
 _atom_site_symmetry_multiplicity
 _atom_site_fract_x
 _atom_site_fract_y
 _atom_site_fract_z
 _atom_site_occupancy
  Ho  Ho0  1  0.043309  0.308160  0.329816  1
  Ho  Ho1  1  0.955809  0.691017  0.670465  1
  Ho  Ho2  1  0.456421  0.191456  0.829214  1
  Ho  Ho3  1  0.794235  0.536014  0.167192  1
  Ho  Ho4  1  0.544140  0.809788  0.170966  1
  Er  Er5  1  0.207363  0.464394  0.833310  1
  Er  Er6  1  0.706949  0.963366  0.666698  1
  Er  Er7  1  0.291963  0.035944  0.333460  1
  Er  Er8  1  0.000598  0.000520  0.999437  1
  Er  Er9  1  0.499217  0.499553  0.500061  1
  Ga  Ga10  1  0.374626  0.376207  0.124575  1
  Ga  Ga11  1  0.625115  0.624417  0.875672  1
  Ga  Ga12  1  0.126010  0.124131  0.624721  1
  Ga  Ga13  1  0.873626  0.875320  0.375476  1
  Sb  Sb14  1  0.801139  0.211707  0.991082  1
  Sb  Sb15  1  0.201115  0.789585  0.007275  1
  Sb  Sb16  1  0.698511  0.286442  0.492527  1
  Sb  Sb17  1  0.299854  0.711981  0.508054  1
