# generated using pymatgen
data_Tm12Si12Tc3Rh
_symmetry_space_group_name_H-M   'P 1'
_cell_length_a   4.13355000
_cell_length_b   10.73805369
_cell_length_c   12.27938032
_cell_angle_alpha   90.16680326
_cell_angle_beta   90.00000000
_cell_angle_gamma   90.00000000
_symmetry_Int_Tables_number   1
_chemical_formula_structural   Tm12Si12Tc3Rh
_chemical_formula_sum   'Tm12 Si12 Tc3 Rh1'
_cell_volume   545.03372563
_cell_formula_units_Z   1
loop_
 _symmetry_equiv_pos_site_id
 _symmetry_equiv_pos_as_xyz
  1  'x, y, z'
loop_
 _atom_site_type_symbol
 _atom_site_label
 _atom_site_symmetry_multiplicity
 _atom_site_fract_x
 _atom_site_fract_y
 _atom_site_fract_z
 _atom_site_occupancy
  Tm  Tm0  1  0.250000  0.878847  0.020497  1
  Tm  Tm1  1  0.250000  0.622760  0.520673  1
  Tm  Tm2  1  0.750000  0.121273  0.980900  1
  Tm  Tm3  1  0.750000  0.379555  0.480702  1
  Tm  Tm4  1  0.250000  0.922714  0.604979  1
  Tm  Tm5  1  0.250000  0.576795  0.104849  1
  Tm  Tm6  1  0.750000  0.077102  0.394536  1
  Tm  Tm7  1  0.750000  0.422535  0.893388  1
  Tm  Tm8  1  0.250000  0.665598  0.799338  1
  Tm  Tm9  1  0.250000  0.833948  0.298963  1
  Tm  Tm10  1  0.750000  0.335200  0.200705  1
  Tm  Tm11  1  0.750000  0.159998  0.699967  1
  Si  Si12  1  0.250000  0.014470  0.823216  1
  Si  Si13  1  0.250000  0.487167  0.322048  1
  Si  Si14  1  0.750000  0.985883  0.178174  1
  Si  Si15  1  0.750000  0.515611  0.678874  1
  Si  Si16  1  0.250000  0.248810  0.842713  1
  Si  Si17  1  0.250000  0.248727  0.344715  1
  Si  Si18  1  0.750000  0.748752  0.154966  1
  Si  Si19  1  0.750000  0.751724  0.656849  1
  Si  Si20  1  0.250000  0.198516  0.542401  1
  Si  Si21  1  0.250000  0.301545  0.041693  1
  Si  Si22  1  0.750000  0.803309  0.457987  1
  Si  Si23  1  0.750000  0.697072  0.957502  1
  Tc  Tc24  1  0.250000  0.391504  0.680644  1
  Tc  Tc25  1  0.250000  0.109723  0.179438  1
  Tc  Tc26  1  0.750000  0.611274  0.319628  1
  Rh  Rh27  1  0.750000  0.889590  0.819657  1
