# generated using pymatgen
data_Dy2Ho3Lu5Bi6
_symmetry_space_group_name_H-M   'P 1'
_cell_length_a   8.17651400
_cell_length_b   9.42921419
_cell_length_c   11.94274924
_cell_angle_alpha   90.02280661
_cell_angle_beta   90.00000000
_cell_angle_gamma   90.00000000
_symmetry_Int_Tables_number   1
_chemical_formula_structural   Dy2Ho3Lu5Bi6
_chemical_formula_sum   'Dy4 Ho6 Lu10 Bi12'
_cell_volume   920.76322355
_cell_formula_units_Z   2
loop_
 _symmetry_equiv_pos_site_id
 _symmetry_equiv_pos_as_xyz
  1  'x, y, z'
loop_
 _atom_site_type_symbol
 _atom_site_label
 _atom_site_symmetry_multiplicity
 _atom_site_fract_x
 _atom_site_fract_y
 _atom_site_fract_z
 _atom_site_occupancy
  Dy  Dy0  1  0.313539  0.249816  0.217903  1
  Dy  Dy1  1  0.813539  0.250184  0.282097  1
  Dy  Dy2  1  0.686845  0.750248  0.782089  1
  Dy  Dy3  1  0.186845  0.749752  0.717911  1
  Ho  Ho4  1  0.352667  0.749808  0.217353  1
  Ho  Ho5  1  0.852667  0.750192  0.282647  1
  Ho  Ho6  1  0.647809  0.250246  0.782626  1
  Ho  Ho7  1  0.147809  0.249754  0.717374  1
  Ho  Ho8  1  0.691393  0.564608  0.058837  1
  Ho  Ho9  1  0.191393  0.935392  0.441163  1
  Lu  Lu10  1  0.307700  0.066960  0.940590  1
  Lu  Lu11  1  0.807700  0.433040  0.559410  1
  Lu  Lu12  1  0.308444  0.432764  0.941070  1
  Lu  Lu13  1  0.808444  0.067236  0.558930  1
  Lu  Lu14  1  0.691977  0.932928  0.059218  1
  Lu  Lu15  1  0.191977  0.567072  0.440782  1
  Lu  Lu16  1  0.477503  0.250057  0.489276  1
  Lu  Lu17  1  0.977503  0.249943  0.010724  1
  Lu  Lu18  1  0.523288  0.749817  0.510865  1
  Lu  Lu19  1  0.023288  0.750183  0.989135  1
  Bi  Bi20  1  0.402618  0.750720  0.957328  1
  Bi  Bi21  1  0.902618  0.749280  0.542672  1
  Bi  Bi22  1  0.596356  0.246927  0.041995  1
  Bi  Bi23  1  0.096356  0.253073  0.458005  1
  Bi  Bi24  1  0.565600  0.995617  0.327380  1
  Bi  Bi25  1  0.065600  0.504383  0.172620  1
  Bi  Bi26  1  0.434683  0.495521  0.672620  1
  Bi  Bi27  1  0.934683  0.004479  0.827380  1
  Bi  Bi28  1  0.434572  0.004357  0.672833  1
  Bi  Bi29  1  0.934572  0.495643  0.827167  1
  Bi  Bi30  1  0.565006  0.504260  0.327372  1
  Bi  Bi31  1  0.065006  0.995740  0.172628  1
