# generated using pymatgen
data_Rb4SnSb2F14
_symmetry_space_group_name_H-M   'P 1'
_cell_length_a   7.09942123
_cell_length_b   7.73613679
_cell_length_c   8.09472624
_cell_angle_alpha   91.86977309
_cell_angle_beta   90.60914183
_cell_angle_gamma   114.89573455
_symmetry_Int_Tables_number   1
_chemical_formula_structural   Rb4SnSb2F14
_chemical_formula_sum   'Rb4 Sn1 Sb2 F14'
_cell_volume   402.90662227
_cell_formula_units_Z   1
loop_
 _symmetry_equiv_pos_site_id
 _symmetry_equiv_pos_as_xyz
  1  'x, y, z'
loop_
 _atom_site_type_symbol
 _atom_site_label
 _atom_site_symmetry_multiplicity
 _atom_site_fract_x
 _atom_site_fract_y
 _atom_site_fract_z
 _atom_site_occupancy
  Rb  Rb0  1  0.284751  0.552775  0.140842  1
  Rb  Rb1  1  0.855142  0.739112  0.409355  1
  Rb  Rb2  1  0.715249  0.447225  0.859158  1
  Rb  Rb3  1  0.144858  0.260888  0.590645  1
  Sn  Sn4  1  0.000000  0.000000  0.000000  1
  Sb  Sb5  1  0.390116  0.813160  0.677496  1
  Sb  Sb6  1  0.609884  0.186840  0.322504  1
  F  F7  1  0.909825  0.367554  0.330903  1
  F  F8  1  0.272663  0.115690  0.883392  1
  F  F9  1  0.427956  0.665283  0.486015  1
  F  F10  1  0.727337  0.884310  0.116608  1
  F  F11  1  0.950227  0.230628  0.947628  1
  F  F12  1  0.283890  0.939908  0.492792  1
  F  F13  1  0.049773  0.769372  0.052372  1
  F  F14  1  0.860758  0.874388  0.783221  1
  F  F15  1  0.090175  0.632446  0.669097  1
  F  F16  1  0.139242  0.125612  0.216779  1
  F  F17  1  0.403955  0.586687  0.805637  1
  F  F18  1  0.596045  0.413313  0.194363  1
  F  F19  1  0.716110  0.060092  0.507208  1
  F  F20  1  0.572044  0.334717  0.513985  1
