# generated using pymatgen
data_SmThCCl
_symmetry_space_group_name_H-M   'P 1'
_cell_length_a   3.74920600
_cell_length_b   3.74920681
_cell_length_c   14.22599000
_cell_angle_alpha   90.00000000
_cell_angle_beta   90.00000000
_cell_angle_gamma   120.00001048
_symmetry_Int_Tables_number   1
_chemical_formula_structural   SmThCCl
_chemical_formula_sum   'Sm2 Th2 C2 Cl2'
_cell_volume   173.17762753
_cell_formula_units_Z   2
loop_
 _symmetry_equiv_pos_site_id
 _symmetry_equiv_pos_as_xyz
  1  'x, y, z'
loop_
 _atom_site_type_symbol
 _atom_site_label
 _atom_site_symmetry_multiplicity
 _atom_site_fract_x
 _atom_site_fract_y
 _atom_site_fract_z
 _atom_site_occupancy
  Sm  Sm0  1  0.333333  0.666667  0.403035  1
  Sm  Sm1  1  0.666667  0.333333  0.903035  1
  Th  Th2  1  0.666667  0.333333  0.593136  1
  Th  Th3  1  0.333333  0.666667  0.093136  1
  C  C4  1  0.000000  0.000000  0.498441  1
  C  C5  1  0.000000  0.000000  0.998441  1
  Cl  Cl6  1  0.666667  0.333333  0.255387  1
  Cl  Cl7  1  0.333333  0.666667  0.755387  1
