# generated using pymatgen
data_TbHo9In5Hg3Pd4
_symmetry_space_group_name_H-M   'P 1'
_cell_length_a   3.60902600
_cell_length_b   8.06303398
_cell_length_c   18.28194508
_cell_angle_alpha   89.95450122
_cell_angle_beta   90.00000000
_cell_angle_gamma   90.00000000
_symmetry_Int_Tables_number   1
_chemical_formula_structural   TbHo9In5Hg3Pd4
_chemical_formula_sum   'Tb1 Ho9 In5 Hg3 Pd4'
_cell_volume   531.99893633
_cell_formula_units_Z   1
loop_
 _symmetry_equiv_pos_site_id
 _symmetry_equiv_pos_as_xyz
  1  'x, y, z'
loop_
 _atom_site_type_symbol
 _atom_site_label
 _atom_site_symmetry_multiplicity
 _atom_site_fract_x
 _atom_site_fract_y
 _atom_site_fract_z
 _atom_site_occupancy
  Tb  Tb0  1  0.000000  0.503148  0.497808  1
  Ho  Ho1  1  0.000000  0.000050  0.000434  1
  Ho  Ho2  1  0.000000  0.743960  0.284658  1
  Ho  Ho3  1  0.000000  0.256591  0.719245  1
  Ho  Ho4  1  0.000000  0.756116  0.783692  1
  Ho  Ho5  1  0.000000  0.243880  0.215258  1
  Ho  Ho6  1  0.000000  0.610246  0.083987  1
  Ho  Ho7  1  0.000000  0.391678  0.917252  1
  Ho  Ho8  1  0.000000  0.883173  0.583650  1
  Ho  Ho9  1  0.000000  0.109883  0.415582  1
  In  In10  1  0.500000  0.209641  0.567422  1
  In  In11  1  0.500000  0.577395  0.649399  1
  In  In12  1  0.500000  0.417343  0.349867  1
  In  In13  1  0.500000  0.919344  0.149025  1
  In  In14  1  0.500000  0.081132  0.851629  1
  Hg  Hg15  1  0.500000  0.713198  0.933574  1
  Hg  Hg16  1  0.500000  0.288972  0.065780  1
  Hg  Hg17  1  0.500000  0.789940  0.433172  1
  Pd  Pd18  1  0.500000  0.530697  0.198054  1
  Pd  Pd19  1  0.500000  0.471119  0.802616  1
  Pd  Pd20  1  0.500000  0.972114  0.696554  1
  Pd  Pd21  1  0.500000  0.030379  0.301342  1
