# generated using pymatgen
data_Tb2Y7Er3In20
_symmetry_space_group_name_H-M   'P 1'
_cell_length_a   6.52078627
_cell_length_b   10.42999601
_cell_length_c   12.28741700
_cell_angle_alpha   90.00037327
_cell_angle_beta   90.01682092
_cell_angle_gamma   90.00446755
_symmetry_Int_Tables_number   1
_chemical_formula_structural   Tb2Y7Er3In20
_chemical_formula_sum   'Tb2 Y7 Er3 In20'
_cell_volume   835.68899880
_cell_formula_units_Z   1
loop_
 _symmetry_equiv_pos_site_id
 _symmetry_equiv_pos_as_xyz
  1  'x, y, z'
loop_
 _atom_site_type_symbol
 _atom_site_label
 _atom_site_symmetry_multiplicity
 _atom_site_fract_x
 _atom_site_fract_y
 _atom_site_fract_z
 _atom_site_occupancy
  Tb  Tb0  1  0.890085  0.492580  0.142073  1
  Tb  Tb1  1  0.609585  0.006904  0.642434  1
  Y  Y2  1  0.850991  0.249999  0.443635  1
  Y  Y3  1  0.110007  0.992371  0.858242  1
  Y  Y4  1  0.389780  0.506918  0.358027  1
  Y  Y5  1  0.110000  0.507633  0.858247  1
  Y  Y6  1  0.389782  0.993077  0.358029  1
  Y  Y7  1  0.890091  0.007416  0.142080  1
  Y  Y8  1  0.609584  0.493102  0.642440  1
  Er  Er9  1  0.350132  0.749979  0.055583  1
  Er  Er10  1  0.149800  0.750013  0.555983  1
  Er  Er11  1  0.649865  0.250007  0.944577  1
  In  In12  1  0.614729  0.749989  0.505111  1
  In  In13  1  0.885086  0.750012  0.005278  1
  In  In14  1  0.383478  0.250003  0.495488  1
  In  In15  1  0.115297  0.249997  0.994384  1
  In  In16  1  0.650780  0.749998  0.244571  1
  In  In17  1  0.849230  0.750002  0.744986  1
  In  In18  1  0.349298  0.249999  0.755555  1
  In  In19  1  0.152710  0.250001  0.253995  1
  In  In20  1  0.125154  0.749998  0.283477  1
  In  In21  1  0.375594  0.750002  0.783677  1
  In  In22  1  0.875326  0.250003  0.716882  1
  In  In23  1  0.624633  0.249997  0.214997  1
  In  In24  1  0.875165  0.544856  0.401205  1
  In  In25  1  0.624686  0.956262  0.901259  1
  In  In26  1  0.124423  0.043510  0.599238  1
  In  In27  1  0.375219  0.456393  0.098426  1
  In  In28  1  0.124438  0.456487  0.599238  1
  In  In29  1  0.375203  0.043609  0.098427  1
  In  In30  1  0.875170  0.955145  0.401201  1
  In  In31  1  0.624682  0.543738  0.901254  1
