# generated using pymatgen
data_Lu6TlCoSi
_symmetry_space_group_name_H-M   'P 1'
_cell_length_a   8.23310134
_cell_length_b   8.23310052
_cell_length_c   8.23310100
_cell_angle_alpha   112.75220187
_cell_angle_beta   111.35685190
_cell_angle_gamma   104.42296312
_symmetry_Int_Tables_number   1
_chemical_formula_structural   Lu6TlCoSi
_chemical_formula_sum   'Lu12 Tl2 Co2 Si2'
_cell_volume   427.06245343
_cell_formula_units_Z   2
loop_
 _symmetry_equiv_pos_site_id
 _symmetry_equiv_pos_as_xyz
  1  'x, y, z'
loop_
 _atom_site_type_symbol
 _atom_site_label
 _atom_site_symmetry_multiplicity
 _atom_site_fract_x
 _atom_site_fract_y
 _atom_site_fract_z
 _atom_site_occupancy
  Lu  Lu0  1  0.445547  0.244159  0.201391  1
  Lu  Lu1  1  0.554453  0.755841  0.798609  1
  Lu  Lu2  1  0.042768  0.244159  0.798609  1
  Lu  Lu3  1  0.957232  0.755841  0.201391  1
  Lu  Lu4  1  0.186448  0.288104  0.474551  1
  Lu  Lu5  1  0.813552  0.711896  0.525449  1
  Lu  Lu6  1  0.186448  0.711896  0.898345  1
  Lu  Lu7  1  0.813552  0.288104  0.101655  1
  Lu  Lu8  1  0.306086  0.617126  0.311039  1
  Lu  Lu9  1  0.693914  0.382874  0.688961  1
  Lu  Lu10  1  0.306086  0.995046  0.688961  1
  Lu  Lu11  1  0.693914  0.004954  0.311039  1
  Tl  Tl12  1  0.500000  0.500000  0.000000  1
  Tl  Tl13  1  0.000000  0.000000  0.000000  1
  Co  Co14  1  0.109697  0.609697  0.500000  1
  Co  Co15  1  0.890303  0.390303  0.500000  1
  Si  Si16  1  0.359281  0.000000  0.359281  1
  Si  Si17  1  0.640719  0.000000  0.640719  1
