# generated using pymatgen
data_Er10In7Hg(PdPt)2
_symmetry_space_group_name_H-M   'P 1'
_cell_length_a   3.62809400
_cell_length_b   8.07050792
_cell_length_c   18.11276266
_cell_angle_alpha   90.16936035
_cell_angle_beta   90.00000000
_cell_angle_gamma   90.00000000
_symmetry_Int_Tables_number   1
_chemical_formula_structural   Er10In7Hg(PdPt)2
_chemical_formula_sum   'Er10 In7 Hg1 Pd2 Pt2'
_cell_volume   530.34954154
_cell_formula_units_Z   1
loop_
 _symmetry_equiv_pos_site_id
 _symmetry_equiv_pos_as_xyz
  1  'x, y, z'
loop_
 _atom_site_type_symbol
 _atom_site_label
 _atom_site_symmetry_multiplicity
 _atom_site_fract_x
 _atom_site_fract_y
 _atom_site_fract_z
 _atom_site_occupancy
  Er  Er0  1  0.000000  0.499694  0.500332  1
  Er  Er1  1  0.000000  0.996079  0.997380  1
  Er  Er2  1  0.000000  0.737884  0.278551  1
  Er  Er3  1  0.000000  0.261770  0.720317  1
  Er  Er4  1  0.000000  0.754039  0.783956  1
  Er  Er5  1  0.000000  0.245152  0.219914  1
  Er  Er6  1  0.000000  0.615182  0.084424  1
  Er  Er7  1  0.000000  0.391302  0.914997  1
  Er  Er8  1  0.000000  0.881591  0.585259  1
  Er  Er9  1  0.000000  0.116739  0.415579  1
  In  In10  1  0.500000  0.288904  0.066354  1
  In  In11  1  0.500000  0.791300  0.432280  1
  In  In12  1  0.500000  0.206886  0.567443  1
  In  In13  1  0.500000  0.579501  0.648528  1
  In  In14  1  0.500000  0.421353  0.351869  1
  In  In15  1  0.500000  0.923911  0.147959  1
  In  In16  1  0.500000  0.080447  0.851286  1
  Hg  Hg17  1  0.500000  0.712033  0.934737  1
  Pd  Pd18  1  0.500000  0.975399  0.696659  1
  Pd  Pd19  1  0.500000  0.023126  0.303887  1
  Pt  Pt20  1  0.500000  0.523599  0.196016  1
  Pt  Pt21  1  0.500000  0.474108  0.802271  1
