# generated using pymatgen
data_Tb6Fe3Co13(P6W)2
_symmetry_space_group_name_H-M   'P 1'
_cell_length_a   3.74541000
_cell_length_b   10.64137864
_cell_length_c   12.22236439
_cell_angle_alpha   89.89266955
_cell_angle_beta   90.00000000
_cell_angle_gamma   90.00000000
_symmetry_Int_Tables_number   1
_chemical_formula_structural   Tb6Fe3Co13(P6W)2
_chemical_formula_sum   'Tb6 Fe3 Co13 P12 W2'
_cell_volume   487.13768469
_cell_formula_units_Z   1
loop_
 _symmetry_equiv_pos_site_id
 _symmetry_equiv_pos_as_xyz
  1  'x, y, z'
loop_
 _atom_site_type_symbol
 _atom_site_label
 _atom_site_symmetry_multiplicity
 _atom_site_fract_x
 _atom_site_fract_y
 _atom_site_fract_z
 _atom_site_occupancy
  Tb  Tb0  1  0.000000  0.500127  0.524809  1
  Tb  Tb1  1  0.500000  0.000350  0.475124  1
  Tb  Tb2  1  0.500000  0.819442  0.203242  1
  Tb  Tb3  1  0.500000  0.180452  0.203280  1
  Tb  Tb4  1  0.000000  0.679917  0.797293  1
  Tb  Tb5  1  0.000000  0.319253  0.797316  1
  Fe  Fe6  1  0.000000  0.502446  0.987509  1
  Fe  Fe7  1  0.500000  0.999019  0.012122  1
  Fe  Fe8  1  0.500000  0.331292  0.994531  1
  Co  Co9  1  0.500000  0.500021  0.699064  1
  Co  Co10  1  0.000000  0.000266  0.301168  1
  Co  Co11  1  0.500000  0.669610  0.991788  1
  Co  Co12  1  0.000000  0.165907  0.007342  1
  Co  Co13  1  0.000000  0.831653  0.008389  1
  Co  Co14  1  0.500000  0.295337  0.431130  1
  Co  Co15  1  0.500000  0.705339  0.431462  1
  Co  Co16  1  0.000000  0.205073  0.568877  1
  Co  Co17  1  0.000000  0.795162  0.569001  1
  Co  Co18  1  0.500000  0.878884  0.707522  1
  Co  Co19  1  0.500000  0.120312  0.707372  1
  Co  Co20  1  0.000000  0.621270  0.292438  1
  Co  Co21  1  0.000000  0.379205  0.291121  1
  P  P22  1  0.500000  0.498461  0.884545  1
  P  P23  1  0.000000  0.999640  0.116909  1
  P  P24  1  0.500000  0.499966  0.348838  1
  P  P25  1  0.000000  0.000207  0.650650  1
  P  P26  1  0.500000  0.309048  0.616454  1
  P  P27  1  0.500000  0.690597  0.616453  1
  P  P28  1  0.000000  0.191669  0.383779  1
  P  P29  1  0.000000  0.809266  0.384022  1
  P  P30  1  0.500000  0.844982  0.894050  1
  P  P31  1  0.500000  0.155880  0.895368  1
  P  P32  1  0.000000  0.655146  0.105761  1
  P  P33  1  0.000000  0.344344  0.102009  1
  W  W34  1  0.500000  0.500760  0.153912  1
  W  W35  1  0.000000  0.999697  0.845349  1
