# generated using pymatgen
data_DySb3Pb4O13
_symmetry_space_group_name_H-M   'P 1'
_cell_length_a   7.67944107
_cell_length_b   7.67944099
_cell_length_c   7.67943975
_cell_angle_alpha   59.72180249
_cell_angle_beta   59.72180311
_cell_angle_gamma   59.72179455
_symmetry_Int_Tables_number   1
_chemical_formula_structural   DySb3Pb4O13
_chemical_formula_sum   'Dy1 Sb3 Pb4 O13'
_cell_volume   318.21525264
_cell_formula_units_Z   1
loop_
 _symmetry_equiv_pos_site_id
 _symmetry_equiv_pos_as_xyz
  1  'x, y, z'
loop_
 _atom_site_type_symbol
 _atom_site_label
 _atom_site_symmetry_multiplicity
 _atom_site_fract_x
 _atom_site_fract_y
 _atom_site_fract_z
 _atom_site_occupancy
  Dy  Dy0  1  0.500110  0.500110  0.500110  1
  Sb  Sb1  1  0.001178  0.500084  0.500084  1
  Sb  Sb2  1  0.500084  0.500084  0.001178  1
  Sb  Sb3  1  0.500084  0.001178  0.500084  1
  Pb  Pb4  1  0.998704  0.998704  0.998704  1
  Pb  Pb5  1  0.497215  0.002553  0.002553  1
  Pb  Pb6  1  0.002553  0.002553  0.497215  1
  Pb  Pb7  1  0.002553  0.497215  0.002553  1
  O  O8  1  0.855062  0.416603  0.416603  1
  O  O9  1  0.419446  0.815701  0.815701  1
  O  O10  1  0.416603  0.416603  0.855062  1
  O  O11  1  0.815701  0.815701  0.419446  1
  O  O12  1  0.815701  0.419446  0.815701  1
  O  O13  1  0.416603  0.855062  0.416603  1
  O  O14  1  0.150175  0.580325  0.580325  1
  O  O15  1  0.580417  0.185382  0.185382  1
  O  O16  1  0.580325  0.580325  0.150175  1
  O  O17  1  0.185382  0.185382  0.580417  1
  O  O18  1  0.185382  0.580417  0.185382  1
  O  O19  1  0.580325  0.150175  0.580325  1
  O  O20  1  0.121395  0.121395  0.121395  1
