# generated using pymatgen
data_Nd2Ho2Ni13C4
_symmetry_space_group_name_H-M   'P 1'
_cell_length_a   8.42125692
_cell_length_b   8.42125717
_cell_length_c   3.89966600
_cell_angle_alpha   90.00000000
_cell_angle_beta   90.00000000
_cell_angle_gamma   90.61290366
_symmetry_Int_Tables_number   1
_chemical_formula_structural   Nd2Ho2Ni13C4
_chemical_formula_sum   'Nd2 Ho2 Ni13 C4'
_cell_volume   276.53901454
_cell_formula_units_Z   1
loop_
 _symmetry_equiv_pos_site_id
 _symmetry_equiv_pos_as_xyz
  1  'x, y, z'
loop_
 _atom_site_type_symbol
 _atom_site_label
 _atom_site_symmetry_multiplicity
 _atom_site_fract_x
 _atom_site_fract_y
 _atom_site_fract_z
 _atom_site_occupancy
  Nd  Nd0  1  0.346544  0.346544  0.500000  1
  Nd  Nd1  1  0.653456  0.653456  0.500000  1
  Ho  Ho2  1  0.812353  0.187647  0.500000  1
  Ho  Ho3  1  0.187647  0.812353  0.500000  1
  Ni  Ni4  1  0.000000  0.000000  0.000000  1
  Ni  Ni5  1  0.214198  0.571689  0.000000  1
  Ni  Ni6  1  0.785802  0.428311  0.000000  1
  Ni  Ni7  1  0.428311  0.785802  0.000000  1
  Ni  Ni8  1  0.571689  0.214198  0.000000  1
  Ni  Ni9  1  0.000000  0.500000  0.500000  1
  Ni  Ni10  1  0.500000  0.000000  0.500000  1
  Ni  Ni11  1  0.067847  0.289085  0.000000  1
  Ni  Ni12  1  0.932153  0.710915  0.000000  1
  Ni  Ni13  1  0.710915  0.932153  0.000000  1
  Ni  Ni14  1  0.289085  0.067847  0.000000  1
  Ni  Ni15  1  0.119959  0.119959  0.500000  1
  Ni  Ni16  1  0.880041  0.880041  0.500000  1
  C  C17  1  0.442956  0.557044  0.000000  1
  C  C18  1  0.557044  0.442956  0.000000  1
  C  C19  1  0.000000  0.500000  0.000000  1
  C  C20  1  0.500000  0.000000  0.000000  1
