# generated using pymatgen
data_Ho3Hf(Al8Pt3)3
_symmetry_space_group_name_H-M   'P 1'
_cell_length_a   7.52041564
_cell_length_b   7.52839503
_cell_length_c   13.09935212
_cell_angle_alpha   84.56187369
_cell_angle_beta   79.04627288
_cell_angle_gamma   59.89596548
_symmetry_Int_Tables_number   1
_chemical_formula_structural   Ho3Hf(Al8Pt3)3
_chemical_formula_sum   'Ho3 Hf1 Al24 Pt9'
_cell_volume   629.91648903
_cell_formula_units_Z   1
loop_
 _symmetry_equiv_pos_site_id
 _symmetry_equiv_pos_as_xyz
  1  'x, y, z'
loop_
 _atom_site_type_symbol
 _atom_site_label
 _atom_site_symmetry_multiplicity
 _atom_site_fract_x
 _atom_site_fract_y
 _atom_site_fract_z
 _atom_site_occupancy
  Ho  Ho0  1  0.606401  0.831860  0.191972  1
  Ho  Ho1  1  0.733931  0.498648  0.807659  1
  Ho  Ho2  1  0.266536  0.501178  0.192201  1
  Hf  Hf3  1  0.393751  0.168412  0.807519  1
  Al  Al4  1  0.681377  0.836934  0.941222  1
  Al  Al5  1  0.316729  0.166442  0.054035  1
  Al  Al6  1  0.146313  0.832806  0.562694  1
  Al  Al7  1  0.853254  0.167177  0.438118  1
  Al  Al8  1  0.479895  0.166756  0.560563  1
  Al  Al9  1  0.519440  0.833907  0.441190  1
  Al  Al10  1  0.217461  0.165442  0.329660  1
  Al  Al11  1  0.779697  0.836397  0.673416  1
  Al  Al12  1  0.435753  0.504917  0.673714  1
  Al  Al13  1  0.562660  0.493576  0.329101  1
  Al  Al14  1  0.110520  0.159530  0.672649  1
  Al  Al15  1  0.890414  0.839889  0.330311  1
  Al  Al16  1  0.354174  0.495866  0.941275  1
  Al  Al17  1  0.647438  0.500365  0.055567  1
  Al  Al18  1  0.019590  0.168074  0.949565  1
  Al  Al19  1  0.984496  0.832433  0.046997  1
  Al  Al20  1  0.186873  0.499163  0.441323  1
  Al  Al21  1  0.813601  0.500338  0.559278  1
  Al  Al22  1  0.733877  0.163931  0.183385  1
  Al  Al23  1  0.265627  0.842019  0.816551  1
  Al  Al24  1  0.066731  0.626206  0.815243  1
  Al  Al25  1  0.939087  0.368460  0.184426  1
  Al  Al26  1  0.850325  0.041201  0.815821  1
  Al  Al27  1  0.144699  0.958634  0.183767  1
  Pt  Pt28  1  0.120540  0.489915  0.639822  1
  Pt  Pt29  1  0.879360  0.508620  0.361403  1
  Pt  Pt30  1  0.657152  0.171765  0.998838  1
  Pt  Pt31  1  0.343652  0.828165  0.999382  1
  Pt  Pt32  1  0.537528  0.166696  0.361441  1
  Pt  Pt33  1  0.462942  0.833636  0.639667  1
  Pt  Pt34  1  0.776953  0.176185  0.638279  1
  Pt  Pt35  1  0.221172  0.824545  0.362965  1
  Pt  Pt36  1  0.000050  0.499916  0.998981  1
