# generated using pymatgen
data_Ho10In7SnIr4
_symmetry_space_group_name_H-M   'P 1'
_cell_length_a   7.97850286
_cell_length_b   18.16301391
_cell_length_c   3.66218600
_cell_angle_alpha   90.00000000
_cell_angle_beta   90.00000000
_cell_angle_gamma   90.30846790
_symmetry_Int_Tables_number   1
_chemical_formula_structural   Ho10In7SnIr4
_chemical_formula_sum   'Ho10 In7 Sn1 Ir4'
_cell_volume   530.69308005
_cell_formula_units_Z   1
loop_
 _symmetry_equiv_pos_site_id
 _symmetry_equiv_pos_as_xyz
  1  'x, y, z'
loop_
 _atom_site_type_symbol
 _atom_site_label
 _atom_site_symmetry_multiplicity
 _atom_site_fract_x
 _atom_site_fract_y
 _atom_site_fract_z
 _atom_site_occupancy
  Ho  Ho0  1  0.499778  0.500445  0.000000  1
  Ho  Ho1  1  0.994158  0.997637  0.000000  1
  Ho  Ho2  1  0.747031  0.277329  0.000000  1
  Ho  Ho3  1  0.253298  0.721963  0.000000  1
  Ho  Ho4  1  0.754774  0.779844  0.000000  1
  Ho  Ho5  1  0.249393  0.222703  0.000000  1
  Ho  Ho6  1  0.616057  0.087644  0.000000  1
  Ho  Ho7  1  0.384747  0.912130  0.000000  1
  Ho  Ho8  1  0.882856  0.589740  0.000000  1
  Ho  Ho9  1  0.116980  0.410440  0.000000  1
  In  In10  1  0.290238  0.067536  0.500000  1
  In  In11  1  0.793953  0.432716  0.500000  1
  In  In12  1  0.204972  0.566689  0.500000  1
  In  In13  1  0.569178  0.649781  0.500000  1
  In  In14  1  0.433053  0.351328  0.500000  1
  In  In15  1  0.931631  0.148593  0.500000  1
  In  In16  1  0.074847  0.850367  0.500000  1
  Sn  Sn17  1  0.704763  0.933158  0.500000  1
  Ir  Ir18  1  0.523464  0.194881  0.500000  1
  Ir  Ir19  1  0.476951  0.804567  0.500000  1
  Ir  Ir20  1  0.976862  0.696615  0.500000  1
  Ir  Ir21  1  0.021016  0.303894  0.500000  1
