# generated using pymatgen
data_Tm16ZnIn3Rh4
_symmetry_space_group_name_H-M   'P 1'
_cell_length_a   9.49087077
_cell_length_b   9.49087134
_cell_length_c   9.49087000
_cell_angle_alpha   60.07443319
_cell_angle_beta   60.07442732
_cell_angle_gamma   60.07443356
_symmetry_Int_Tables_number   1
_chemical_formula_structural   Tm16ZnIn3Rh4
_chemical_formula_sum   'Tm16 Zn1 In3 Rh4'
_cell_volume   605.52921705
_cell_formula_units_Z   1
loop_
 _symmetry_equiv_pos_site_id
 _symmetry_equiv_pos_as_xyz
  1  'x, y, z'
loop_
 _atom_site_type_symbol
 _atom_site_label
 _atom_site_symmetry_multiplicity
 _atom_site_fract_x
 _atom_site_fract_y
 _atom_site_fract_z
 _atom_site_occupancy
  Tm  Tm0  1  0.061905  0.061905  0.438251  1
  Tm  Tm1  1  0.436245  0.068658  0.436245  1
  Tm  Tm2  1  0.061905  0.438251  0.061905  1
  Tm  Tm3  1  0.053559  0.647209  0.647209  1
  Tm  Tm4  1  0.436245  0.436245  0.068658  1
  Tm  Tm5  1  0.647209  0.053559  0.647209  1
  Tm  Tm6  1  0.189610  0.811039  0.189610  1
  Tm  Tm7  1  0.189610  0.189610  0.811039  1
  Tm  Tm8  1  0.809975  0.809975  0.191144  1
  Tm  Tm9  1  0.438251  0.061905  0.061905  1
  Tm  Tm10  1  0.811039  0.189610  0.189610  1
  Tm  Tm11  1  0.068658  0.436245  0.436245  1
  Tm  Tm12  1  0.809975  0.191144  0.809975  1
  Tm  Tm13  1  0.191144  0.809975  0.809975  1
  Tm  Tm14  1  0.647209  0.647209  0.053559  1
  Tm  Tm15  1  0.651202  0.651202  0.651202  1
  Zn  Zn16  1  0.416069  0.416069  0.416069  1
  In  In17  1  0.744910  0.417279  0.417279  1
  In  In18  1  0.417279  0.744910  0.417279  1
  In  In19  1  0.417279  0.417279  0.744910  1
  Rh  Rh20  1  0.858265  0.858265  0.427526  1
  Rh  Rh21  1  0.856666  0.856666  0.856666  1
  Rh  Rh22  1  0.427526  0.858265  0.858265  1
  Rh  Rh23  1  0.858265  0.427526  0.858265  1
