# generated using pymatgen
data_Pr16Y4Sn11Bi5
_symmetry_space_group_name_H-M   'P 1'
_cell_length_a   8.38691900
_cell_length_b   8.44764649
_cell_length_c   16.20133498
_cell_angle_alpha   90.09341192
_cell_angle_beta   90.34212424
_cell_angle_gamma   89.91673024
_symmetry_Int_Tables_number   1
_chemical_formula_structural   Pr16Y4Sn11Bi5
_chemical_formula_sum   'Pr16 Y4 Sn11 Bi5'
_cell_volume   1147.83697285
_cell_formula_units_Z   1
loop_
 _symmetry_equiv_pos_site_id
 _symmetry_equiv_pos_as_xyz
  1  'x, y, z'
loop_
 _atom_site_type_symbol
 _atom_site_label
 _atom_site_symmetry_multiplicity
 _atom_site_fract_x
 _atom_site_fract_y
 _atom_site_fract_z
 _atom_site_occupancy
  Pr  Pr0  1  0.392147  0.838240  0.880330  1
  Pr  Pr1  1  0.891579  0.661037  0.619249  1
  Pr  Pr2  1  0.608140  0.160098  0.380255  1
  Pr  Pr3  1  0.104788  0.337319  0.119173  1
  Pr  Pr4  1  0.609768  0.164748  0.119798  1
  Pr  Pr5  1  0.113498  0.336340  0.382429  1
  Pr  Pr6  1  0.384829  0.838216  0.618398  1
  Pr  Pr7  1  0.888877  0.659280  0.881400  1
  Pr  Pr8  1  0.559462  0.333203  0.891076  1
  Pr  Pr9  1  0.056690  0.173958  0.606929  1
  Pr  Pr10  1  0.444016  0.673772  0.393516  1
  Pr  Pr11  1  0.943704  0.823857  0.109972  1
  Pr  Pr12  1  0.450481  0.667274  0.108885  1
  Pr  Pr13  1  0.958515  0.827429  0.394417  1
  Pr  Pr14  1  0.541131  0.328588  0.605008  1
  Pr  Pr15  1  0.051949  0.174505  0.891023  1
  Y  Y16  1  0.221606  0.499968  0.745893  1
  Y  Y17  1  0.721993  0.002586  0.748657  1
  Y  Y18  1  0.778435  0.499698  0.248306  1
  Y  Y19  1  0.278286  0.997843  0.253570  1
  Sn  Sn20  1  0.226850  0.524821  0.547124  1
  Sn  Sn21  1  0.273304  0.023706  0.452987  1
  Sn  Sn22  1  0.768800  0.480108  0.048365  1
  Sn  Sn23  1  0.587554  0.626991  0.748748  1
  Sn  Sn24  1  0.087004  0.874775  0.751269  1
  Sn  Sn25  1  0.410965  0.373448  0.250282  1
  Sn  Sn26  1  0.912395  0.124390  0.251104  1
  Sn  Sn27  1  0.356610  0.144341  0.750825  1
  Sn  Sn28  1  0.854861  0.357012  0.748061  1
  Sn  Sn29  1  0.645538  0.855893  0.251409  1
  Sn  Sn30  1  0.145456  0.640563  0.250259  1
  Bi  Bi31  1  0.266514  0.014582  0.048852  1
  Bi  Bi32  1  0.768878  0.480166  0.452042  1
  Bi  Bi33  1  0.730591  0.980855  0.547452  1
  Bi  Bi34  1  0.232524  0.517705  0.951435  1
  Bi  Bi35  1  0.732259  0.982689  0.951502  1
