# generated using pymatgen
data_Sc3Zn(B4Ru5)2
_symmetry_space_group_name_H-M   'P 1'
_cell_length_a   2.99304900
_cell_length_b   8.45944369
_cell_length_c   10.08967814
_cell_angle_alpha   89.05471995
_cell_angle_beta   90.00000000
_cell_angle_gamma   90.00000000
_symmetry_Int_Tables_number   1
_chemical_formula_structural   Sc3Zn(B4Ru5)2
_chemical_formula_sum   'Sc3 Zn1 B8 Ru10'
_cell_volume   255.43113601
_cell_formula_units_Z   1
loop_
 _symmetry_equiv_pos_site_id
 _symmetry_equiv_pos_as_xyz
  1  'x, y, z'
loop_
 _atom_site_type_symbol
 _atom_site_label
 _atom_site_symmetry_multiplicity
 _atom_site_fract_x
 _atom_site_fract_y
 _atom_site_fract_z
 _atom_site_occupancy
  Sc  Sc0  1  0.500000  0.152885  0.825928  1
  Sc  Sc1  1  0.500000  0.656085  0.677799  1
  Sc  Sc2  1  0.500000  0.348409  0.311398  1
  Zn  Zn3  1  0.500000  0.853756  0.189481  1
  B  B4  1  0.500000  0.964050  0.591386  1
  B  B5  1  0.500000  0.039561  0.413793  1
  B  B6  1  0.500000  0.848120  0.899687  1
  B  B7  1  0.500000  0.142489  0.102042  1
  B  B8  1  0.500000  0.652099  0.394077  1
  B  B9  1  0.500000  0.351931  0.599225  1
  B  B10  1  0.500000  0.461580  0.908707  1
  B  B11  1  0.500000  0.536281  0.087879  1
  Ru  Ru12  1  0.000000  0.651445  0.947141  1
  Ru  Ru13  1  0.000000  0.337781  0.046414  1
  Ru  Ru14  1  0.000000  0.842748  0.458671  1
  Ru  Ru15  1  0.000000  0.159263  0.547911  1
  Ru  Ru16  1  0.000000  0.988041  0.006228  1
  Ru  Ru17  1  0.000000  0.400303  0.758858  1
  Ru  Ru18  1  0.000000  0.613723  0.232613  1
  Ru  Ru19  1  0.000000  0.500951  0.495851  1
  Ru  Ru20  1  0.000000  0.902359  0.741256  1
  Ru  Ru21  1  0.000000  0.096141  0.263656  1
