# generated using pymatgen
data_Co4Si2Mo4W2C
_symmetry_space_group_name_H-M   'P 1'
_cell_length_a   7.73119402
_cell_length_b   7.73187528
_cell_length_c   7.73404704
_cell_angle_alpha   59.99963836
_cell_angle_beta   59.99711876
_cell_angle_gamma   60.01648443
_symmetry_Int_Tables_number   1
_chemical_formula_structural   Co4Si2Mo4W2C
_chemical_formula_sum   'Co8 Si4 Mo8 W4 C2'
_cell_volume   326.93894148
_cell_formula_units_Z   2
loop_
 _symmetry_equiv_pos_site_id
 _symmetry_equiv_pos_as_xyz
  1  'x, y, z'
loop_
 _atom_site_type_symbol
 _atom_site_label
 _atom_site_symmetry_multiplicity
 _atom_site_fract_x
 _atom_site_fract_y
 _atom_site_fract_z
 _atom_site_occupancy
  Co  Co0  1  0.419127  0.419083  0.745565  1
  Co  Co1  1  0.416871  0.745974  0.419616  1
  Co  Co2  1  0.745986  0.416851  0.419627  1
  Co  Co3  1  0.418182  0.418155  0.417501  1
  Co  Co4  1  0.831802  0.831761  0.504995  1
  Co  Co5  1  0.830617  0.505493  0.831023  1
  Co  Co6  1  0.505521  0.830584  0.831025  1
  Co  Co7  1  0.832020  0.831967  0.829810  1
  Si  Si8  1  0.625289  0.625203  0.125846  1
  Si  Si9  1  0.623791  0.126047  0.625613  1
  Si  Si10  1  0.125916  0.623783  0.625681  1
  Si  Si11  1  0.624940  0.624854  0.624379  1
  Mo  Mo12  1  0.053361  0.446488  0.053056  1
  Mo  Mo13  1  0.446492  0.053495  0.052916  1
  Mo  Mo14  1  0.196397  0.196298  0.803557  1
  Mo  Mo15  1  0.803781  0.195972  0.803766  1
  Mo  Mo16  1  0.195990  0.803781  0.803822  1
  Mo  Mo17  1  0.803677  0.803614  0.195847  1
  Mo  Mo18  1  0.196789  0.803492  0.196052  1
  Mo  Mo19  1  0.803504  0.196766  0.196120  1
  W  W20  1  0.053375  0.053614  0.446038  1
  W  W21  1  0.447363  0.052771  0.446911  1
  W  W22  1  0.052648  0.447359  0.446917  1
  W  W23  1  0.446530  0.446517  0.053128  1
  C  C24  1  0.250042  0.250080  0.250870  1
  C  C25  1  0.999989  0.999997  0.000320  1
