# generated using pymatgen
data_TmLu5(Co3P2)6
_symmetry_space_group_name_H-M   'P 1'
_cell_length_a   3.65522400
_cell_length_b   10.45976500
_cell_length_c   12.07306700
_cell_angle_alpha   90.00000000
_cell_angle_beta   90.00000000
_cell_angle_gamma   90.00000000
_symmetry_Int_Tables_number   1
_chemical_formula_structural   TmLu5(Co3P2)6
_chemical_formula_sum   'Tm1 Lu5 Co18 P12'
_cell_volume   461.58696358
_cell_formula_units_Z   1
loop_
 _symmetry_equiv_pos_site_id
 _symmetry_equiv_pos_as_xyz
  1  'x, y, z'
loop_
 _atom_site_type_symbol
 _atom_site_label
 _atom_site_symmetry_multiplicity
 _atom_site_fract_x
 _atom_site_fract_y
 _atom_site_fract_z
 _atom_site_occupancy
  Tm  Tm0  1  0.000000  0.500000  0.523013  1
  Lu  Lu1  1  0.500000  0.000000  0.477261  1
  Lu  Lu2  1  0.500000  0.818900  0.206167  1
  Lu  Lu3  1  0.500000  0.181100  0.206167  1
  Lu  Lu4  1  0.000000  0.681232  0.793843  1
  Lu  Lu5  1  0.000000  0.318768  0.793843  1
  Co  Co6  1  0.500000  0.500000  0.160186  1
  Co  Co7  1  0.000000  0.000000  0.839606  1
  Co  Co8  1  0.500000  0.500000  0.703958  1
  Co  Co9  1  0.000000  0.000000  0.296607  1
  Co  Co10  1  0.000000  0.500000  0.987014  1
  Co  Co11  1  0.500000  0.000000  0.012962  1
  Co  Co12  1  0.500000  0.332949  0.994662  1
  Co  Co13  1  0.500000  0.667051  0.994662  1
  Co  Co14  1  0.000000  0.167008  0.005270  1
  Co  Co15  1  0.000000  0.832992  0.005270  1
  Co  Co16  1  0.500000  0.297102  0.430822  1
  Co  Co17  1  0.500000  0.702898  0.430822  1
  Co  Co18  1  0.000000  0.202266  0.569115  1
  Co  Co19  1  0.000000  0.797734  0.569115  1
  Co  Co20  1  0.500000  0.878023  0.708930  1
  Co  Co21  1  0.500000  0.121977  0.708930  1
  Co  Co22  1  0.000000  0.622181  0.290953  1
  Co  Co23  1  0.000000  0.377819  0.290953  1
  P  P24  1  0.500000  0.500000  0.882401  1
  P  P25  1  0.000000  0.000000  0.117718  1
  P  P26  1  0.500000  0.500000  0.345722  1
  P  P27  1  0.000000  0.000000  0.653762  1
  P  P28  1  0.500000  0.312275  0.617089  1
  P  P29  1  0.500000  0.687725  0.617089  1
  P  P30  1  0.000000  0.187291  0.383116  1
  P  P31  1  0.000000  0.812709  0.383116  1
  P  P32  1  0.500000  0.846279  0.891316  1
  P  P33  1  0.500000  0.153721  0.891316  1
  P  P34  1  0.000000  0.653764  0.108612  1
  P  P35  1  0.000000  0.346236  0.108612  1
