# generated using pymatgen
data_ThU9S20
_symmetry_space_group_name_H-M   'P 1'
_cell_length_a   10.17520045
_cell_length_b   10.18203549
_cell_length_c   6.30292789
_cell_angle_alpha   89.99993661
_cell_angle_beta   89.98276791
_cell_angle_gamma   90.07200391
_symmetry_Int_Tables_number   1
_chemical_formula_structural   ThU9S20
_chemical_formula_sum   'Th1 U9 S20'
_cell_volume   653.00958444
_cell_formula_units_Z   1
loop_
 _symmetry_equiv_pos_site_id
 _symmetry_equiv_pos_as_xyz
  1  'x, y, z'
loop_
 _atom_site_type_symbol
 _atom_site_label
 _atom_site_symmetry_multiplicity
 _atom_site_fract_x
 _atom_site_fract_y
 _atom_site_fract_z
 _atom_site_occupancy
  Th  Th0  1  0.840264  0.150368  0.249315  1
  U  U1  1  0.650912  0.659621  0.251446  1
  U  U2  1  0.348406  0.340338  0.249765  1
  U  U3  1  0.161066  0.846862  0.249863  1
  U  U4  1  0.496967  0.998927  0.857041  1
  U  U5  1  0.340559  0.651632  0.751201  1
  U  U6  1  0.154647  0.161078  0.749522  1
  U  U7  1  0.849159  0.836507  0.751570  1
  U  U8  1  0.657264  0.350319  0.748596  1
  U  U9  1  0.001341  0.502273  0.141498  1
  S  S10  1  0.708343  0.088822  0.632047  1
  S  S11  1  0.589876  0.789899  0.620233  1
  S  S12  1  0.410563  0.208208  0.618013  1
  S  S13  1  0.293071  0.909237  0.617822  1
  S  S14  1  0.705632  0.908422  0.104683  1
  S  S15  1  0.583530  0.209311  0.106274  1
  S  S16  1  0.410702  0.791191  0.108026  1
  S  S17  1  0.289886  0.089320  0.108396  1
  S  S18  1  0.499866  0.501305  0.000786  1
  S  S19  1  0.004018  0.997542  0.995495  1
  S  S20  1  0.210311  0.411363  0.893022  1
  S  S21  1  0.089599  0.708146  0.891470  1
  S  S22  1  0.912386  0.294854  0.885822  1
  S  S23  1  0.790419  0.588665  0.894912  1
  S  S24  1  0.498419  0.499689  0.499523  1
  S  S25  1  0.003569  0.995604  0.503608  1
  S  S26  1  0.208906  0.590981  0.380568  1
  S  S27  1  0.090144  0.293195  0.381593  1
  S  S28  1  0.910124  0.710469  0.377316  1
  S  S29  1  0.790051  0.415848  0.380574  1
