# generated using pymatgen
data_Ge2Sb4Pt3
_symmetry_space_group_name_H-M   'P 1'
_cell_length_a   3.92064600
_cell_length_b   8.49390695
_cell_length_c   12.29269504
_cell_angle_alpha   97.31282723
_cell_angle_beta   90.00000000
_cell_angle_gamma   90.00000000
_symmetry_Int_Tables_number   1
_chemical_formula_structural   Ge2Sb4Pt3
_chemical_formula_sum   'Ge4 Sb8 Pt6'
_cell_volume   406.03664288
_cell_formula_units_Z   2
loop_
 _symmetry_equiv_pos_site_id
 _symmetry_equiv_pos_as_xyz
  1  'x, y, z'
loop_
 _atom_site_type_symbol
 _atom_site_label
 _atom_site_symmetry_multiplicity
 _atom_site_fract_x
 _atom_site_fract_y
 _atom_site_fract_z
 _atom_site_occupancy
  Ge  Ge0  1  0.500000  0.328636  0.811806  1
  Ge  Ge1  1  0.500000  0.978295  0.145898  1
  Ge  Ge2  1  0.500000  0.660618  0.472768  1
  Ge  Ge3  1  0.500000  0.683459  0.189319  1
  Sb  Sb4  1  0.500000  0.353581  0.522420  1
  Sb  Sb5  1  0.500000  0.019940  0.856636  1
  Sb  Sb6  1  0.000000  0.308492  0.051038  1
  Sb  Sb7  1  0.000000  0.974479  0.378617  1
  Sb  Sb8  1  0.000000  0.642079  0.719715  1
  Sb  Sb9  1  0.000000  0.689188  0.954212  1
  Sb  Sb10  1  0.000000  0.357193  0.280540  1
  Sb  Sb11  1  0.000000  0.020719  0.612925  1
  Pt  Pt12  1  0.500000  0.827396  0.661889  1
  Pt  Pt13  1  0.500000  0.498921  0.001587  1
  Pt  Pt14  1  0.500000  0.162769  0.327968  1
  Pt  Pt15  1  0.000000  0.330606  0.673673  1
  Pt  Pt16  1  0.000000  0.997047  0.007983  1
  Pt  Pt17  1  0.000000  0.666577  0.331004  1
