# generated using pymatgen
data_Np4B16Ir3Ru
_symmetry_space_group_name_H-M   'P 1'
_cell_length_a   3.51138900
_cell_length_b   6.01624087
_cell_length_c   11.67357600
_cell_angle_alpha   90.07212274
_cell_angle_beta   90.00000000
_cell_angle_gamma   90.00000000
_symmetry_Int_Tables_number   1
_chemical_formula_structural   Np4B16Ir3Ru
_chemical_formula_sum   'Np4 B16 Ir3 Ru1'
_cell_volume   246.60832352
_cell_formula_units_Z   1
loop_
 _symmetry_equiv_pos_site_id
 _symmetry_equiv_pos_as_xyz
  1  'x, y, z'
loop_
 _atom_site_type_symbol
 _atom_site_label
 _atom_site_symmetry_multiplicity
 _atom_site_fract_x
 _atom_site_fract_y
 _atom_site_fract_z
 _atom_site_occupancy
  Np  Np0  1  0.000000  0.629783  0.648689  1
  Np  Np1  1  0.000000  0.371876  0.350697  1
  Np  Np2  1  0.000000  0.129084  0.850229  1
  Np  Np3  1  0.000000  0.870695  0.151168  1
  B  B4  1  0.500000  0.971421  0.691483  1
  B  B5  1  0.500000  0.025402  0.307913  1
  B  B6  1  0.500000  0.472994  0.807667  1
  B  B7  1  0.500000  0.527018  0.192626  1
  B  B8  1  0.500000  0.789962  0.811343  1
  B  B9  1  0.500000  0.209909  0.188835  1
  B  B10  1  0.500000  0.289428  0.688196  1
  B  B11  1  0.500000  0.711953  0.312593  1
  B  B12  1  0.500000  0.866864  0.968302  1
  B  B13  1  0.500000  0.132955  0.032208  1
  B  B14  1  0.500000  0.366582  0.530623  1
  B  B15  1  0.500000  0.633279  0.467189  1
  B  B16  1  0.500000  0.883172  0.545364  1
  B  B17  1  0.500000  0.113921  0.452021  1
  B  B18  1  0.500000  0.384219  0.953075  1
  B  B19  1  0.500000  0.615972  0.047483  1
  Ir  Ir20  1  0.000000  0.640874  0.906525  1
  Ir  Ir21  1  0.000000  0.359147  0.093830  1
  Ir  Ir22  1  0.000000  0.141615  0.593517  1
  Ru  Ru23  1  0.000000  0.861875  0.408422  1
