# generated using pymatgen
data_TbNdAlZnPt2
_symmetry_space_group_name_H-M   'P 1'
_cell_length_a   4.39356100
_cell_length_b   6.98266800
_cell_length_c   8.00863000
_cell_angle_alpha   90.00000000
_cell_angle_beta   90.00000000
_cell_angle_gamma   90.00000000
_symmetry_Int_Tables_number   1
_chemical_formula_structural   TbNdAlZnPt2
_chemical_formula_sum   'Tb2 Nd2 Al2 Zn2 Pt4'
_cell_volume   245.69498026
_cell_formula_units_Z   2
loop_
 _symmetry_equiv_pos_site_id
 _symmetry_equiv_pos_as_xyz
  1  'x, y, z'
loop_
 _atom_site_type_symbol
 _atom_site_label
 _atom_site_symmetry_multiplicity
 _atom_site_fract_x
 _atom_site_fract_y
 _atom_site_fract_z
 _atom_site_occupancy
  Tb  Tb0  1  0.250000  0.028063  0.690382  1
  Tb  Tb1  1  0.250000  0.528063  0.809618  1
  Nd  Nd2  1  0.750000  0.969643  0.318643  1
  Nd  Nd3  1  0.750000  0.469643  0.181357  1
  Al  Al4  1  0.750000  0.857406  0.934541  1
  Al  Al5  1  0.750000  0.357406  0.565459  1
  Zn  Zn6  1  0.250000  0.151565  0.065397  1
  Zn  Zn7  1  0.250000  0.651565  0.434603  1
  Pt  Pt8  1  0.250000  0.266010  0.402015  1
  Pt  Pt9  1  0.250000  0.766010  0.097985  1
  Pt  Pt10  1  0.750000  0.727313  0.628180  1
  Pt  Pt11  1  0.750000  0.227313  0.871820  1
