# generated using pymatgen
data_Ho7Er13(Ag3Ru)2
_symmetry_space_group_name_H-M   'P 1'
_cell_length_a   9.52067381
_cell_length_b   9.51441120
_cell_length_c   9.64454000
_cell_angle_alpha   90.00000000
_cell_angle_beta   89.90974142
_cell_angle_gamma   119.97823413
_symmetry_Int_Tables_number   1
_chemical_formula_structural   Ho7Er13(Ag3Ru)2
_chemical_formula_sum   'Ho7 Er13 Ag6 Ru2'
_cell_volume   756.75665037
_cell_formula_units_Z   1
loop_
 _symmetry_equiv_pos_site_id
 _symmetry_equiv_pos_as_xyz
  1  'x, y, z'
loop_
 _atom_site_type_symbol
 _atom_site_label
 _atom_site_symmetry_multiplicity
 _atom_site_fract_x
 _atom_site_fract_y
 _atom_site_fract_z
 _atom_site_occupancy
  Ho  Ho0  1  0.999652  0.999826  0.499831  1
  Ho  Ho1  1  0.000026  0.000013  0.999860  1
  Ho  Ho2  1  0.208952  0.790873  0.441184  1
  Ho  Ho3  1  0.208952  0.418080  0.441184  1
  Ho  Ho4  1  0.581787  0.790893  0.441109  1
  Ho  Ho5  1  0.790804  0.209074  0.558971  1
  Ho  Ho6  1  0.790804  0.581730  0.558971  1
  Er  Er7  1  0.417863  0.208932  0.558645  1
  Er  Er8  1  0.790945  0.208953  0.940910  1
  Er  Er9  1  0.790945  0.581992  0.940910  1
  Er  Er10  1  0.418483  0.209242  0.941005  1
  Er  Er11  1  0.209119  0.790804  0.059154  1
  Er  Er12  1  0.209119  0.418316  0.059154  1
  Er  Er13  1  0.581654  0.790827  0.059072  1
  Er  Er14  1  0.540967  0.459044  0.250222  1
  Er  Er15  1  0.540967  0.081922  0.250222  1
  Er  Er16  1  0.917630  0.458814  0.250312  1
  Er  Er17  1  0.458792  0.541123  0.749718  1
  Er  Er18  1  0.458792  0.917670  0.749718  1
  Er  Er19  1  0.082032  0.541016  0.749643  1
  Ag  Ag20  1  0.883239  0.116919  0.249944  1
  Ag  Ag21  1  0.883239  0.766321  0.249944  1
  Ag  Ag22  1  0.233809  0.116905  0.249915  1
  Ag  Ag23  1  0.116959  0.883247  0.749966  1
  Ag  Ag24  1  0.116959  0.233711  0.749966  1
  Ag  Ag25  1  0.766408  0.883202  0.750146  1
  Ru  Ru26  1  0.333618  0.666809  0.251071  1
  Ru  Ru27  1  0.667482  0.333741  0.749257  1
