# generated using pymatgen
data_LiNd9(Si3H)2
_symmetry_space_group_name_H-M   'P 1'
_cell_length_a   8.90977602
_cell_length_b   8.90977679
_cell_length_c   8.90977669
_cell_angle_alpha   128.66534192
_cell_angle_beta   128.66533704
_cell_angle_gamma   75.54965088
_symmetry_Int_Tables_number   1
_chemical_formula_structural   LiNd9(Si3H)2
_chemical_formula_sum   'Li1 Nd9 Si6 H2'
_cell_volume   419.55386928
_cell_formula_units_Z   1
loop_
 _symmetry_equiv_pos_site_id
 _symmetry_equiv_pos_as_xyz
  1  'x, y, z'
loop_
 _atom_site_type_symbol
 _atom_site_label
 _atom_site_symmetry_multiplicity
 _atom_site_fract_x
 _atom_site_fract_y
 _atom_site_fract_z
 _atom_site_occupancy
  Li  Li0  1  0.500000  0.500000  0.000000  1
  Nd  Nd1  1  0.000000  0.000000  0.000000  1
  Nd  Nd2  1  0.519870  0.036002  0.845987  1
  Nd  Nd3  1  0.190017  0.673885  0.154013  1
  Nd  Nd4  1  0.036002  0.190017  0.516132  1
  Nd  Nd5  1  0.673885  0.519870  0.483868  1
  Nd  Nd6  1  0.480130  0.963998  0.154013  1
  Nd  Nd7  1  0.809983  0.326115  0.845987  1
  Nd  Nd8  1  0.963998  0.809983  0.483868  1
  Nd  Nd9  1  0.326115  0.480130  0.516132  1
  Si  Si10  1  0.237891  0.237891  0.000000  1
  Si  Si11  1  0.762109  0.762109  0.000000  1
  Si  Si12  1  0.888692  0.383469  0.272161  1
  Si  Si13  1  0.111308  0.616531  0.727839  1
  Si  Si14  1  0.383469  0.111308  0.494777  1
  Si  Si15  1  0.616531  0.888692  0.505223  1
  H  H16  1  0.250000  0.750000  0.500000  1
  H  H17  1  0.750000  0.250000  0.500000  1
