# generated using pymatgen
data_YPa3CdO10
_symmetry_space_group_name_H-M   'P 1'
_cell_length_a   6.60606912
_cell_length_b   6.60606941
_cell_length_c   6.64708251
_cell_angle_alpha   100.04403204
_cell_angle_beta   99.18196955
_cell_angle_gamma   131.60190620
_symmetry_Int_Tables_number   1
_chemical_formula_structural   YPa3CdO10
_chemical_formula_sum   'Y1 Pa3 Cd1 O10'
_cell_volume   198.09144935
_cell_formula_units_Z   1
loop_
 _symmetry_equiv_pos_site_id
 _symmetry_equiv_pos_as_xyz
  1  'x, y, z'
loop_
 _atom_site_type_symbol
 _atom_site_label
 _atom_site_symmetry_multiplicity
 _atom_site_fract_x
 _atom_site_fract_y
 _atom_site_fract_z
 _atom_site_occupancy
  Y  Y0  1  0.002358  0.997082  0.999440  1
  Pa  Pa1  1  0.795569  0.401248  0.196817  1
  Pa  Pa2  1  0.199372  0.599071  0.798444  1
  Pa  Pa3  1  0.604447  0.800508  0.404955  1
  Cd  Cd4  1  0.398367  0.202644  0.601011  1
  O  O5  1  0.761660  0.251062  0.491898  1
  O  O6  1  0.155836  0.460407  0.104886  1
  O  O7  1  0.546319  0.665629  0.700664  1
  O  O8  1  0.929906  0.832783  0.294603  1
  O  O9  1  0.358336  0.041957  0.907616  1
  O  O10  1  0.865658  0.549278  0.907616  1
  O  O11  1  0.240835  0.730237  0.491898  1
  O  O12  1  0.644480  0.949050  0.104886  1
  O  O13  1  0.035037  0.154346  0.700664  1
  O  O14  1  0.461820  0.364696  0.294603  1
