# generated using pymatgen
data_PrHoTm8(In2Pt)4
_symmetry_space_group_name_H-M   'P 1'
_cell_length_a   3.58885800
_cell_length_b   8.14039407
_cell_length_c   18.24065968
_cell_angle_alpha   89.81951797
_cell_angle_beta   90.00000000
_cell_angle_gamma   90.00000000
_symmetry_Int_Tables_number   1
_chemical_formula_structural   PrHoTm8(In2Pt)4
_chemical_formula_sum   'Pr1 Ho1 Tm8 In8 Pt4'
_cell_volume   532.89309192
_cell_formula_units_Z   1
loop_
 _symmetry_equiv_pos_site_id
 _symmetry_equiv_pos_as_xyz
  1  'x, y, z'
loop_
 _atom_site_type_symbol
 _atom_site_label
 _atom_site_symmetry_multiplicity
 _atom_site_fract_x
 _atom_site_fract_y
 _atom_site_fract_z
 _atom_site_occupancy
  Pr  Pr0  1  0.000000  0.000000  0.000000  1
  Ho  Ho1  1  0.000000  0.500000  0.500000  1
  Tm  Tm2  1  0.000000  0.116887  0.414497  1
  Tm  Tm3  1  0.000000  0.883113  0.585503  1
  Tm  Tm4  1  0.000000  0.380252  0.913617  1
  Tm  Tm5  1  0.000000  0.619748  0.086383  1
  Tm  Tm6  1  0.000000  0.243186  0.221133  1
  Tm  Tm7  1  0.000000  0.756814  0.778867  1
  Tm  Tm8  1  0.000000  0.257362  0.719733  1
  Tm  Tm9  1  0.000000  0.742638  0.280267  1
  In  In10  1  0.500000  0.423180  0.351230  1
  In  In11  1  0.500000  0.576820  0.648770  1
  In  In12  1  0.500000  0.078335  0.847797  1
  In  In13  1  0.500000  0.921665  0.152203  1
  In  In14  1  0.500000  0.300556  0.068192  1
  In  In15  1  0.500000  0.699444  0.931808  1
  In  In16  1  0.500000  0.206357  0.566532  1
  In  In17  1  0.500000  0.793643  0.433468  1
  Pt  Pt18  1  0.500000  0.025152  0.304323  1
  Pt  Pt19  1  0.500000  0.974848  0.695677  1
  Pt  Pt20  1  0.500000  0.474622  0.802843  1
  Pt  Pt21  1  0.500000  0.525378  0.197157  1
