# generated using pymatgen
data_Tb14CeThCd2(InCo2)2
_symmetry_space_group_name_H-M   'P 1'
_cell_length_a   9.58775029
_cell_length_b   9.58775206
_cell_length_c   9.44370900
_cell_angle_alpha   60.57291905
_cell_angle_beta   60.57291995
_cell_angle_gamma   59.70612930
_symmetry_Int_Tables_number   1
_chemical_formula_structural   Tb14CeThCd2(InCo2)2
_chemical_formula_sum   'Tb14 Ce1 Th1 Cd2 In2 Co4'
_cell_volume   617.70072712
_cell_formula_units_Z   1
loop_
 _symmetry_equiv_pos_site_id
 _symmetry_equiv_pos_as_xyz
  1  'x, y, z'
loop_
 _atom_site_type_symbol
 _atom_site_label
 _atom_site_symmetry_multiplicity
 _atom_site_fract_x
 _atom_site_fract_y
 _atom_site_fract_z
 _atom_site_occupancy
  Tb  Tb0  1  0.190603  0.807742  0.814153  1
  Tb  Tb1  1  0.059176  0.059176  0.442945  1
  Tb  Tb2  1  0.437931  0.057168  0.065158  1
  Tb  Tb3  1  0.807742  0.190603  0.814153  1
  Tb  Tb4  1  0.435876  0.058203  0.441866  1
  Tb  Tb5  1  0.594555  0.209852  0.596329  1
  Tb  Tb6  1  0.814300  0.814300  0.185649  1
  Tb  Tb7  1  0.209852  0.594555  0.596329  1
  Tb  Tb8  1  0.808800  0.191749  0.189080  1
  Tb  Tb9  1  0.058203  0.435876  0.441866  1
  Tb  Tb10  1  0.191749  0.808800  0.189080  1
  Tb  Tb11  1  0.601938  0.601938  0.200726  1
  Tb  Tb12  1  0.180326  0.180326  0.821727  1
  Tb  Tb13  1  0.057168  0.437931  0.065158  1
  Ce  Ce14  1  0.431165  0.431165  0.072203  1
  Th  Th15  1  0.596130  0.596130  0.587991  1
  Cd  Cd16  1  0.506173  0.834255  0.829188  1
  Cd  Cd17  1  0.834255  0.506173  0.829188  1
  In  In18  1  0.832099  0.832099  0.504314  1
  In  In19  1  0.831986  0.831986  0.832092  1
  Co  Co20  1  0.402495  0.402495  0.346934  1
  Co  Co21  1  0.821356  0.391725  0.395659  1
  Co  Co22  1  0.391725  0.821356  0.395659  1
  Co  Co23  1  0.404405  0.404405  0.842554  1
