# generated using pymatgen
data_SrBe(Cu2Si)4
_symmetry_space_group_name_H-M   'P 1'
_cell_length_a   8.12046634
_cell_length_b   8.12046696
_cell_length_c   8.12046628
_cell_angle_alpha   120.51025902
_cell_angle_beta   120.51025918
_cell_angle_gamma   89.11845822
_symmetry_Int_Tables_number   1
_chemical_formula_structural   SrBe(Cu2Si)4
_chemical_formula_sum   'Sr2 Be2 Cu16 Si8'
_cell_volume   375.67274493
_cell_formula_units_Z   2
loop_
 _symmetry_equiv_pos_site_id
 _symmetry_equiv_pos_as_xyz
  1  'x, y, z'
loop_
 _atom_site_type_symbol
 _atom_site_label
 _atom_site_symmetry_multiplicity
 _atom_site_fract_x
 _atom_site_fract_y
 _atom_site_fract_z
 _atom_site_occupancy
  Sr  Sr0  1  0.250000  0.250000  0.000000  1
  Sr  Sr1  1  0.750000  0.750000  0.000000  1
  Be  Be2  1  0.500000  0.000000  0.500000  1
  Be  Be3  1  0.000000  0.500000  0.500000  1
  Cu  Cu4  1  0.942236  0.210657  0.152892  1
  Cu  Cu5  1  0.210657  0.057764  0.268421  1
  Cu  Cu6  1  0.789343  0.942236  0.731579  1
  Cu  Cu7  1  0.442236  0.289343  0.731579  1
  Cu  Cu8  1  0.057764  0.789343  0.847108  1
  Cu  Cu9  1  0.800442  0.058396  0.500000  1
  Cu  Cu10  1  0.558396  0.300442  0.500000  1
  Cu  Cu11  1  0.199558  0.941604  0.500000  1
  Cu  Cu12  1  0.441604  0.699558  0.500000  1
  Cu  Cu13  1  0.941604  0.441604  0.742045  1
  Cu  Cu14  1  0.699558  0.199558  0.257955  1
  Cu  Cu15  1  0.058396  0.558396  0.257955  1
  Cu  Cu16  1  0.710657  0.442236  0.152892  1
  Cu  Cu17  1  0.557764  0.710657  0.268421  1
  Cu  Cu18  1  0.300442  0.800442  0.742045  1
  Cu  Cu19  1  0.289343  0.557764  0.847108  1
  Si  Si20  1  0.791206  0.291206  0.850379  1
  Si  Si21  1  0.559173  0.059173  0.850379  1
  Si  Si22  1  0.059173  0.208794  0.500000  1
  Si  Si23  1  0.291206  0.440827  0.500000  1
  Si  Si24  1  0.940827  0.791206  0.500000  1
  Si  Si25  1  0.440827  0.940827  0.149621  1
  Si  Si26  1  0.208794  0.708794  0.149621  1
  Si  Si27  1  0.708794  0.559173  0.500000  1
