# generated using pymatgen
data_Ti8In4PdPt7
_symmetry_space_group_name_H-M   'P 1'
_cell_length_a   7.36687635
_cell_length_b   7.36687535
_cell_length_c   6.44322983
_cell_angle_alpha   90.09146368
_cell_angle_beta   90.09146865
_cell_angle_gamma   90.06418539
_symmetry_Int_Tables_number   1
_chemical_formula_structural   Ti8In4PdPt7
_chemical_formula_sum   'Ti8 In4 Pd1 Pt7'
_cell_volume   349.67851139
_cell_formula_units_Z   1
loop_
 _symmetry_equiv_pos_site_id
 _symmetry_equiv_pos_as_xyz
  1  'x, y, z'
loop_
 _atom_site_type_symbol
 _atom_site_label
 _atom_site_symmetry_multiplicity
 _atom_site_fract_x
 _atom_site_fract_y
 _atom_site_fract_z
 _atom_site_occupancy
  Ti  Ti0  1  0.650779  0.650779  0.500556  1
  Ti  Ti1  1  0.817243  0.180189  0.499043  1
  Ti  Ti2  1  0.681890  0.681890  0.000146  1
  Ti  Ti3  1  0.847167  0.147455  0.001222  1
  Ti  Ti4  1  0.180189  0.817243  0.499043  1
  Ti  Ti5  1  0.320905  0.320905  0.001666  1
  Ti  Ti6  1  0.147455  0.847167  0.001222  1
  Ti  Ti7  1  0.351931  0.351931  0.497672  1
  In  In8  1  0.999726  0.499075  0.250759  1
  In  In9  1  0.497830  0.000746  0.750012  1
  In  In10  1  0.499075  0.999726  0.250759  1
  In  In11  1  0.000746  0.497830  0.750012  1
  Pd  Pd12  1  0.134051  0.134051  0.720174  1
  Pt  Pt13  1  0.632174  0.368206  0.222355  1
  Pt  Pt14  1  0.367889  0.632305  0.777549  1
  Pt  Pt15  1  0.870643  0.870643  0.724366  1
  Pt  Pt16  1  0.632305  0.367889  0.777549  1
  Pt  Pt17  1  0.368206  0.632174  0.222355  1
  Pt  Pt18  1  0.131767  0.131767  0.274804  1
  Pt  Pt19  1  0.868028  0.868028  0.278734  1
