# generated using pymatgen
data_Nd6YLuAu4
_symmetry_space_group_name_H-M   'P 1'
_cell_length_a   5.01989300
_cell_length_b   7.31803125
_cell_length_c   9.19867500
_cell_angle_alpha   90.19236867
_cell_angle_beta   90.00000000
_cell_angle_gamma   90.00000000
_symmetry_Int_Tables_number   1
_chemical_formula_structural   Nd6YLuAu4
_chemical_formula_sum   'Nd6 Y1 Lu1 Au4'
_cell_volume   337.91817176
_cell_formula_units_Z   1
loop_
 _symmetry_equiv_pos_site_id
 _symmetry_equiv_pos_as_xyz
  1  'x, y, z'
loop_
 _atom_site_type_symbol
 _atom_site_label
 _atom_site_symmetry_multiplicity
 _atom_site_fract_x
 _atom_site_fract_y
 _atom_site_fract_z
 _atom_site_occupancy
  Nd  Nd0  1  0.250000  0.487456  0.176777  1
  Nd  Nd1  1  0.750000  0.509311  0.824509  1
  Nd  Nd2  1  0.250000  0.992175  0.322971  1
  Nd  Nd3  1  0.750000  0.009056  0.676494  1
  Nd  Nd4  1  0.750000  0.651939  0.412766  1
  Nd  Nd5  1  0.250000  0.347485  0.587492  1
  Y  Y6  1  0.250000  0.850399  0.922498  1
  Lu  Lu7  1  0.750000  0.148700  0.077399  1
  Au  Au8  1  0.250000  0.245668  0.913352  1
  Au  Au9  1  0.750000  0.758919  0.090430  1
  Au  Au10  1  0.250000  0.756534  0.607135  1
  Au  Au11  1  0.750000  0.242357  0.388177  1
