# generated using pymatgen
data_Na4USe3O14
_symmetry_space_group_name_H-M   'P 1'
_cell_length_a   7.15701103
_cell_length_b   8.43743351
_cell_length_c   11.35135800
_cell_angle_alpha   80.08807678
_cell_angle_beta   78.76091769
_cell_angle_gamma   69.08079674
_symmetry_Int_Tables_number   1
_chemical_formula_structural   Na4USe3O14
_chemical_formula_sum   'Na8 U2 Se6 O28'
_cell_volume   624.06396092
_cell_formula_units_Z   2
loop_
 _symmetry_equiv_pos_site_id
 _symmetry_equiv_pos_as_xyz
  1  'x, y, z'
loop_
 _atom_site_type_symbol
 _atom_site_label
 _atom_site_symmetry_multiplicity
 _atom_site_fract_x
 _atom_site_fract_y
 _atom_site_fract_z
 _atom_site_occupancy
  Na  Na0  1  0.775628  0.537746  0.788167  1
  Na  Na1  1  0.224372  0.462254  0.211833  1
  Na  Na2  1  0.039048  0.914403  0.674501  1
  Na  Na3  1  0.657364  0.146464  0.956906  1
  Na  Na4  1  0.342636  0.853536  0.043094  1
  Na  Na5  1  0.735877  0.779764  0.484668  1
  Na  Na6  1  0.960952  0.085597  0.325499  1
  Na  Na7  1  0.264123  0.220236  0.515332  1
  U  U8  1  0.316791  0.381736  0.767268  1
  U  U9  1  0.683209  0.618264  0.232732  1
  Se  Se10  1  0.516500  0.916043  0.740437  1
  Se  Se11  1  0.986672  0.740645  0.956507  1
  Se  Se12  1  0.248415  0.660758  0.472318  1
  Se  Se13  1  0.483500  0.083957  0.259563  1
  Se  Se14  1  0.013328  0.259355  0.043493  1
  Se  Se15  1  0.751585  0.339242  0.527682  1
  O  O16  1  0.239782  0.267205  0.970426  1
  O  O17  1  0.766112  0.504101  0.580364  1
  O  O18  1  0.951986  0.396342  0.149454  1
  O  O19  1  0.462281  0.777759  0.851828  1
  O  O20  1  0.945007  0.163948  0.550321  1
  O  O21  1  0.054993  0.836052  0.449679  1
  O  O22  1  0.048014  0.603658  0.850546  1
  O  O23  1  0.126147  0.331284  0.710902  1
  O  O24  1  0.753922  0.829283  0.675371  1
  O  O25  1  0.532574  0.302060  0.587893  1
  O  O26  1  0.252928  0.630728  0.623124  1
  O  O27  1  0.156148  0.677567  0.048857  1
  O  O28  1  0.747072  0.369272  0.376876  1
  O  O29  1  0.873853  0.668716  0.289098  1
  O  O30  1  0.467426  0.697940  0.412107  1
  O  O31  1  0.760218  0.732795  0.029574  1
  O  O32  1  0.246078  0.170717  0.324629  1
  O  O33  1  0.505863  0.090357  0.802278  1
  O  O34  1  0.360384  0.969945  0.638572  1
  O  O35  1  0.516541  0.417882  0.824626  1
  O  O36  1  0.639616  0.030055  0.361428  1
  O  O37  1  0.483459  0.582118  0.175374  1
  O  O38  1  0.494137  0.909643  0.197722  1
  O  O39  1  0.045134  0.065639  0.115325  1
  O  O40  1  0.954866  0.934361  0.884675  1
  O  O41  1  0.843852  0.322433  0.951143  1
  O  O42  1  0.537719  0.222241  0.148172  1
  O  O43  1  0.233888  0.495899  0.419636  1
