# generated using pymatgen
data_HoHf2Be2Ir5
_symmetry_space_group_name_H-M   'P 1'
_cell_length_a   9.61407100
_cell_length_b   9.61537700
_cell_length_c   3.31851700
_cell_angle_alpha   90.00000000
_cell_angle_beta   90.00000000
_cell_angle_gamma   90.00000000
_symmetry_Int_Tables_number   1
_chemical_formula_structural   HoHf2Be2Ir5
_chemical_formula_sum   'Ho2 Hf4 Be4 Ir10'
_cell_volume   306.77339216
_cell_formula_units_Z   2
loop_
 _symmetry_equiv_pos_site_id
 _symmetry_equiv_pos_as_xyz
  1  'x, y, z'
loop_
 _atom_site_type_symbol
 _atom_site_label
 _atom_site_symmetry_multiplicity
 _atom_site_fract_x
 _atom_site_fract_y
 _atom_site_fract_z
 _atom_site_occupancy
  Ho  Ho0  1  0.174733  0.675520  0.000000  1
  Ho  Ho1  1  0.325267  0.175520  0.000000  1
  Hf  Hf2  1  0.825533  0.324477  0.000000  1
  Hf  Hf3  1  0.499233  0.499146  0.000000  1
  Hf  Hf4  1  0.674467  0.824477  0.000000  1
  Hf  Hf5  1  0.000767  0.999146  0.000000  1
  Be  Be6  1  0.384039  0.880350  0.000000  1
  Be  Be7  1  0.115961  0.380350  0.000000  1
  Be  Be8  1  0.876227  0.618915  0.000000  1
  Be  Be9  1  0.623773  0.118915  0.000000  1
  Ir  Ir10  1  0.220835  0.931640  0.500000  1
  Ir  Ir11  1  0.919597  0.784163  0.500000  1
  Ir  Ir12  1  0.438867  0.718456  0.500000  1
  Ir  Ir13  1  0.580403  0.284163  0.500000  1
  Ir  Ir14  1  0.713515  0.571090  0.500000  1
  Ir  Ir15  1  0.279165  0.431640  0.500000  1
  Ir  Ir16  1  0.061133  0.218456  0.500000  1
  Ir  Ir17  1  0.990198  0.496242  0.500000  1
  Ir  Ir18  1  0.509802  0.996242  0.500000  1
  Ir  Ir19  1  0.786485  0.071090  0.500000  1
