# generated using pymatgen
data_SrLa4I7N2
_symmetry_space_group_name_H-M   'P 1'
_cell_length_a   11.33630700
_cell_length_b   12.15869900
_cell_length_c   14.46636500
_cell_angle_alpha   90.00000000
_cell_angle_beta   90.00000000
_cell_angle_gamma   90.00000000
_symmetry_Int_Tables_number   1
_chemical_formula_structural   SrLa4I7N2
_chemical_formula_sum   'Sr4 La16 I28 N8'
_cell_volume   1993.96772484
_cell_formula_units_Z   4
loop_
 _symmetry_equiv_pos_site_id
 _symmetry_equiv_pos_as_xyz
  1  'x, y, z'
loop_
 _atom_site_type_symbol
 _atom_site_label
 _atom_site_symmetry_multiplicity
 _atom_site_fract_x
 _atom_site_fract_y
 _atom_site_fract_z
 _atom_site_occupancy
  Sr  Sr0  1  0.550579  0.749378  0.595352  1
  Sr  Sr1  1  0.949421  0.749378  0.095352  1
  Sr  Sr2  1  0.050579  0.249378  0.904648  1
  Sr  Sr3  1  0.449421  0.249378  0.404648  1
  La  La4  1  0.083061  0.815592  0.602225  1
  La  La5  1  0.623395  0.073726  0.085096  1
  La  La6  1  0.103213  0.057413  0.412396  1
  La  La7  1  0.396787  0.057413  0.912396  1
  La  La8  1  0.620033  0.812947  0.912137  1
  La  La9  1  0.379967  0.312947  0.087863  1
  La  La10  1  0.123395  0.573726  0.414904  1
  La  La11  1  0.916939  0.315592  0.397775  1
  La  La12  1  0.603213  0.557413  0.087604  1
  La  La13  1  0.416939  0.815592  0.102225  1
  La  La14  1  0.120033  0.312947  0.587863  1
  La  La15  1  0.896787  0.557413  0.587604  1
  La  La16  1  0.583061  0.315592  0.897775  1
  La  La17  1  0.376605  0.573726  0.914904  1
  La  La18  1  0.879967  0.812947  0.412137  1
  La  La19  1  0.876605  0.073726  0.585096  1
  I  I20  1  0.576761  0.539016  0.747892  1
  I  I21  1  0.684586  0.286838  0.529616  1
  I  I22  1  0.645803  0.960017  0.478169  1
  I  I23  1  0.923239  0.539016  0.247892  1
  I  I24  1  0.822102  0.604003  0.941334  1
  I  I25  1  0.391552  0.827339  0.768302  1
  I  I26  1  0.632531  0.082164  0.774252  1
  I  I27  1  0.076761  0.039016  0.752108  1
  I  I28  1  0.809786  0.796669  0.700590  1
  I  I29  1  0.854197  0.960017  0.978169  1
  I  I30  1  0.145803  0.460017  0.021831  1
  I  I31  1  0.608448  0.327339  0.231698  1
  I  I32  1  0.108448  0.827339  0.268302  1
  I  I33  1  0.690214  0.796669  0.200590  1
  I  I34  1  0.177898  0.104003  0.058666  1
  I  I35  1  0.315414  0.786838  0.470384  1
  I  I36  1  0.309786  0.296669  0.799410  1
  I  I37  1  0.891552  0.327339  0.731698  1
  I  I38  1  0.184586  0.786838  0.970384  1
  I  I39  1  0.815414  0.286838  0.029616  1
  I  I40  1  0.423239  0.039016  0.252108  1
  I  I41  1  0.367469  0.582164  0.225748  1
  I  I42  1  0.322102  0.104003  0.558666  1
  I  I43  1  0.867469  0.082164  0.274252  1
  I  I44  1  0.132531  0.582164  0.725748  1
  I  I45  1  0.677898  0.604003  0.441334  1
  I  I46  1  0.190214  0.296669  0.299410  1
  I  I47  1  0.354197  0.460017  0.521831  1
  N  N48  1  0.995135  0.689350  0.500488  1
  N  N49  1  0.019506  0.439187  0.495682  1
  N  N50  1  0.980494  0.939187  0.504318  1
  N  N51  1  0.519506  0.939187  0.004318  1
  N  N52  1  0.480494  0.439187  0.995682  1
  N  N53  1  0.004865  0.189350  0.499512  1
  N  N54  1  0.504865  0.689350  0.000488  1
  N  N55  1  0.495135  0.189350  0.999512  1
