# generated using pymatgen
data_Zr9FeRe3W
_symmetry_space_group_name_H-M   'P 1'
_cell_length_a   8.71649100
_cell_length_b   8.71649156
_cell_length_c   8.50804200
_cell_angle_alpha   90.00000000
_cell_angle_beta   90.00000000
_cell_angle_gamma   120.00000166
_symmetry_Int_Tables_number   1
_chemical_formula_structural   Zr9FeRe3W
_chemical_formula_sum   'Zr18 Fe2 Re6 W2'
_cell_volume   559.81386411
_cell_formula_units_Z   2
loop_
 _symmetry_equiv_pos_site_id
 _symmetry_equiv_pos_as_xyz
  1  'x, y, z'
loop_
 _atom_site_type_symbol
 _atom_site_label
 _atom_site_symmetry_multiplicity
 _atom_site_fract_x
 _atom_site_fract_y
 _atom_site_fract_z
 _atom_site_occupancy
  Zr  Zr0  1  0.200828  0.799172  0.442368  1
  Zr  Zr1  1  0.200828  0.401657  0.442368  1
  Zr  Zr2  1  0.598343  0.799172  0.442368  1
  Zr  Zr3  1  0.799172  0.200828  0.557632  1
  Zr  Zr4  1  0.799172  0.598343  0.557632  1
  Zr  Zr5  1  0.401657  0.200828  0.557632  1
  Zr  Zr6  1  0.799172  0.200828  0.942368  1
  Zr  Zr7  1  0.799172  0.598343  0.942368  1
  Zr  Zr8  1  0.401657  0.200828  0.942368  1
  Zr  Zr9  1  0.200828  0.799172  0.057632  1
  Zr  Zr10  1  0.200828  0.401657  0.057632  1
  Zr  Zr11  1  0.598343  0.799172  0.057632  1
  Zr  Zr12  1  0.540889  0.459111  0.250000  1
  Zr  Zr13  1  0.540889  0.081780  0.250000  1
  Zr  Zr14  1  0.918220  0.459111  0.250000  1
  Zr  Zr15  1  0.459111  0.540889  0.750000  1
  Zr  Zr16  1  0.459111  0.918220  0.750000  1
  Zr  Zr17  1  0.081780  0.540889  0.750000  1
  Fe  Fe18  1  0.333333  0.666667  0.250000  1
  Fe  Fe19  1  0.666667  0.333333  0.750000  1
  Re  Re20  1  0.890496  0.109504  0.250000  1
  Re  Re21  1  0.890496  0.780993  0.250000  1
  Re  Re22  1  0.219007  0.109504  0.250000  1
  Re  Re23  1  0.109504  0.890496  0.750000  1
  Re  Re24  1  0.109504  0.219007  0.750000  1
  Re  Re25  1  0.780993  0.890496  0.750000  1
  W  W26  1  0.000000  0.000000  0.500000  1
  W  W27  1  0.000000  0.000000  0.000000  1
