# generated using pymatgen
data_Ba4CaEu3Pb4
_symmetry_space_group_name_H-M   'P 1'
_cell_length_a   5.42807900
_cell_length_b   9.05496090
_cell_length_c   10.06204258
_cell_angle_alpha   89.84946451
_cell_angle_beta   90.00000000
_cell_angle_gamma   90.00000000
_symmetry_Int_Tables_number   1
_chemical_formula_structural   Ba4CaEu3Pb4
_chemical_formula_sum   'Ba4 Ca1 Eu3 Pb4'
_cell_volume   494.55818195
_cell_formula_units_Z   1
loop_
 _symmetry_equiv_pos_site_id
 _symmetry_equiv_pos_as_xyz
  1  'x, y, z'
loop_
 _atom_site_type_symbol
 _atom_site_label
 _atom_site_symmetry_multiplicity
 _atom_site_fract_x
 _atom_site_fract_y
 _atom_site_fract_z
 _atom_site_occupancy
  Ba  Ba0  1  0.250000  0.522346  0.318890  1
  Ba  Ba1  1  0.250000  0.020822  0.182022  1
  Ba  Ba2  1  0.750000  0.478752  0.680277  1
  Ba  Ba3  1  0.750000  0.979656  0.817745  1
  Ca  Ca4  1  0.750000  0.854900  0.428475  1
  Eu  Eu5  1  0.250000  0.646032  0.927266  1
  Eu  Eu6  1  0.250000  0.145383  0.572514  1
  Eu  Eu7  1  0.750000  0.353864  0.073024  1
  Pb  Pb8  1  0.250000  0.270412  0.890504  1
  Pb  Pb9  1  0.250000  0.771586  0.606048  1
  Pb  Pb10  1  0.750000  0.730005  0.111990  1
  Pb  Pb11  1  0.750000  0.226242  0.391246  1
