# generated using pymatgen
data_Ti6Be15Pt8
_symmetry_space_group_name_H-M   'P 1'
_cell_length_a   7.86988719
_cell_length_b   7.86988830
_cell_length_c   7.86988800
_cell_angle_alpha   60.00000125
_cell_angle_beta   59.99999660
_cell_angle_gamma   59.99999995
_symmetry_Int_Tables_number   1
_chemical_formula_structural   Ti6Be15Pt8
_chemical_formula_sum   'Ti6 Be15 Pt8'
_cell_volume   344.65979236
_cell_formula_units_Z   1
loop_
 _symmetry_equiv_pos_site_id
 _symmetry_equiv_pos_as_xyz
  1  'x, y, z'
loop_
 _atom_site_type_symbol
 _atom_site_label
 _atom_site_symmetry_multiplicity
 _atom_site_fract_x
 _atom_site_fract_y
 _atom_site_fract_z
 _atom_site_occupancy
  Ti  Ti0  1  0.692368  0.307632  0.307632  1
  Ti  Ti1  1  0.307632  0.692368  0.692368  1
  Ti  Ti2  1  0.307632  0.692368  0.307632  1
  Ti  Ti3  1  0.692368  0.307632  0.692368  1
  Ti  Ti4  1  0.307632  0.307632  0.692368  1
  Ti  Ti5  1  0.692368  0.692368  0.307632  1
  Be  Be6  1  0.330036  0.330036  0.330036  1
  Be  Be7  1  0.669964  0.669964  0.669964  1
  Be  Be8  1  0.330036  0.330036  0.009894  1
  Be  Be9  1  0.330036  0.009894  0.330036  1
  Be  Be10  1  0.669964  0.669964  0.990106  1
  Be  Be11  1  0.669964  0.990106  0.669964  1
  Be  Be12  1  0.009894  0.330036  0.330036  1
  Be  Be13  1  0.990106  0.669964  0.669964  1
  Be  Be14  1  0.500000  0.000000  0.000000  1
  Be  Be15  1  0.000000  0.500000  0.500000  1
  Be  Be16  1  0.000000  0.500000  0.000000  1
  Be  Be17  1  0.500000  0.000000  0.500000  1
  Be  Be18  1  0.000000  0.000000  0.500000  1
  Be  Be19  1  0.500000  0.500000  0.000000  1
  Be  Be20  1  0.000000  0.000000  0.000000  1
  Pt  Pt21  1  0.126108  0.126108  0.126108  1
  Pt  Pt22  1  0.873892  0.873892  0.873892  1
  Pt  Pt23  1  0.126108  0.126108  0.621677  1
  Pt  Pt24  1  0.126108  0.621677  0.126108  1
  Pt  Pt25  1  0.873892  0.873892  0.378323  1
  Pt  Pt26  1  0.873892  0.378323  0.873892  1
  Pt  Pt27  1  0.621677  0.126108  0.126108  1
  Pt  Pt28  1  0.378323  0.873892  0.873892  1
