# generated using pymatgen
data_Pr8Lu12Ga13Si3
_symmetry_space_group_name_H-M   'P 1'
_cell_length_a   7.55523800
_cell_length_b   7.89215430
_cell_length_c   15.19284000
_cell_angle_alpha   90.00000000
_cell_angle_beta   90.00000000
_cell_angle_gamma   90.11995443
_symmetry_Int_Tables_number   1
_chemical_formula_structural   Pr8Lu12Ga13Si3
_chemical_formula_sum   'Pr8 Lu12 Ga13 Si3'
_cell_volume   905.90306600
_cell_formula_units_Z   1
loop_
 _symmetry_equiv_pos_site_id
 _symmetry_equiv_pos_as_xyz
  1  'x, y, z'
loop_
 _atom_site_type_symbol
 _atom_site_label
 _atom_site_symmetry_multiplicity
 _atom_site_fract_x
 _atom_site_fract_y
 _atom_site_fract_z
 _atom_site_occupancy
  Pr  Pr0  1  0.016499  0.178585  0.098129  1
  Pr  Pr1  1  0.984490  0.821572  0.904644  1
  Pr  Pr2  1  0.484069  0.677367  0.904298  1
  Pr  Pr3  1  0.984490  0.821572  0.595356  1
  Pr  Pr4  1  0.516256  0.320187  0.097300  1
  Pr  Pr5  1  0.016499  0.178585  0.401871  1
  Pr  Pr6  1  0.516256  0.320187  0.402700  1
  Pr  Pr7  1  0.484069  0.677367  0.595702  1
  Lu  Lu8  1  0.156143  0.507201  0.750000  1
  Lu  Lu9  1  0.840553  0.490028  0.250000  1
  Lu  Lu10  1  0.340872  0.009940  0.250000  1
  Lu  Lu11  1  0.663928  0.988835  0.750000  1
  Lu  Lu12  1  0.329533  0.176164  0.622322  1
  Lu  Lu13  1  0.672955  0.826702  0.377326  1
  Lu  Lu14  1  0.173543  0.672458  0.376558  1
  Lu  Lu15  1  0.672955  0.826702  0.122674  1
  Lu  Lu16  1  0.824236  0.328116  0.622885  1
  Lu  Lu17  1  0.329533  0.176164  0.877678  1
  Lu  Lu18  1  0.824236  0.328116  0.877115  1
  Lu  Lu19  1  0.173543  0.672458  0.123442  1
  Ga  Ga20  1  0.032677  0.120721  0.750000  1
  Ga  Ga21  1  0.968212  0.886166  0.250000  1
  Ga  Ga22  1  0.469160  0.612485  0.250000  1
  Ga  Ga23  1  0.530389  0.389976  0.750000  1
  Ga  Ga24  1  0.276700  0.879497  0.750000  1
  Ga  Ga25  1  0.153337  0.466004  0.539747  1
  Ga  Ga26  1  0.844874  0.532267  0.458433  1
  Ga  Ga27  1  0.344230  0.965409  0.459193  1
  Ga  Ga28  1  0.844874  0.532267  0.041567  1
  Ga  Ga29  1  0.656350  0.034260  0.539916  1
  Ga  Ga30  1  0.153337  0.466004  0.960253  1
  Ga  Ga31  1  0.656350  0.034260  0.960084  1
  Ga  Ga32  1  0.344230  0.965409  0.040807  1
  Si  Si33  1  0.721769  0.116563  0.250000  1
  Si  Si34  1  0.221500  0.382134  0.250000  1
  Si  Si35  1  0.777355  0.618277  0.750000  1
