# generated using pymatgen
data_CeNd2(CdAu)3
_symmetry_space_group_name_H-M   'P 1'
_cell_length_a   8.06744000
_cell_length_b   8.02386650
_cell_length_c   3.88957000
_cell_angle_alpha   90.00000000
_cell_angle_beta   90.00000000
_cell_angle_gamma   119.82149005
_symmetry_Int_Tables_number   1
_chemical_formula_structural   CeNd2(CdAu)3
_chemical_formula_sum   'Ce1 Nd2 Cd3 Au3'
_cell_volume   218.43893823
_cell_formula_units_Z   1
loop_
 _symmetry_equiv_pos_site_id
 _symmetry_equiv_pos_as_xyz
  1  'x, y, z'
loop_
 _atom_site_type_symbol
 _atom_site_label
 _atom_site_symmetry_multiplicity
 _atom_site_fract_x
 _atom_site_fract_y
 _atom_site_fract_z
 _atom_site_occupancy
  Ce  Ce0  1  0.000000  0.597738  0.500000  1
  Nd  Nd1  1  0.400482  0.401534  0.500000  1
  Nd  Nd2  1  0.599518  0.001052  0.500000  1
  Cd  Cd3  1  0.733652  0.735427  0.000000  1
  Cd  Cd4  1  0.266348  0.001775  0.000000  1
  Cd  Cd5  1  0.000000  0.262542  0.000000  1
  Au  Au6  1  0.670434  0.336596  0.000000  1
  Au  Au7  1  0.329566  0.666163  0.000000  1
  Au  Au8  1  0.000000  0.997172  0.500000  1
