# generated using pymatgen
data_YLu3Al18(NiIr2)2
_symmetry_space_group_name_H-M   'P 1'
_cell_length_a   7.51693562
_cell_length_b   7.51455271
_cell_length_c   9.38102400
_cell_angle_alpha   90.00000000
_cell_angle_beta   90.00000000
_cell_angle_gamma   120.17045876
_symmetry_Int_Tables_number   1
_chemical_formula_structural   YLu3Al18(NiIr2)2
_chemical_formula_sum   'Y1 Lu3 Al18 Ni2 Ir4'
_cell_volume   458.11689705
_cell_formula_units_Z   1
loop_
 _symmetry_equiv_pos_site_id
 _symmetry_equiv_pos_as_xyz
  1  'x, y, z'
loop_
 _atom_site_type_symbol
 _atom_site_label
 _atom_site_symmetry_multiplicity
 _atom_site_fract_x
 _atom_site_fract_y
 _atom_site_fract_z
 _atom_site_occupancy
  Y  Y0  1  0.336034  0.006373  0.750000  1
  Lu  Lu1  1  0.993784  0.662464  0.250000  1
  Lu  Lu2  1  0.006399  0.336349  0.750000  1
  Lu  Lu3  1  0.663429  0.994287  0.250000  1
  Al  Al4  1  0.115048  0.115328  0.250000  1
  Al  Al5  1  0.882281  0.883239  0.750000  1
  Al  Al6  1  0.999059  0.329304  0.074028  1
  Al  Al7  1  0.000157  0.669564  0.927343  1
  Al  Al8  1  0.000157  0.669564  0.572657  1
  Al  Al9  1  0.329324  0.998882  0.424743  1
  Al  Al10  1  0.999059  0.329304  0.425972  1
  Al  Al11  1  0.671342  0.000919  0.572742  1
  Al  Al12  1  0.671342  0.000919  0.927258  1
  Al  Al13  1  0.329324  0.998882  0.075257  1
  Al  Al14  1  0.330566  0.331200  0.553424  1
  Al  Al15  1  0.670416  0.670466  0.443514  1
  Al  Al16  1  0.670416  0.670466  0.056486  1
  Al  Al17  1  0.330566  0.331200  0.946576  1
  Al  Al18  1  0.336798  0.543621  0.250000  1
  Al  Al19  1  0.664309  0.457370  0.750000  1
  Al  Al20  1  0.543598  0.337191  0.250000  1
  Al  Al21  1  0.456148  0.661768  0.750000  1
  Ni  Ni22  1  0.999462  0.000255  0.001127  1
  Ni  Ni23  1  0.999462  0.000255  0.498873  1
  Ir  Ir24  1  0.672665  0.328347  0.000845  1
  Ir  Ir25  1  0.328095  0.672069  0.000666  1
  Ir  Ir26  1  0.328095  0.672069  0.499334  1
  Ir  Ir27  1  0.672665  0.328347  0.499155  1
