# generated using pymatgen
data_Tm10Lu2InCo4Os
_symmetry_space_group_name_H-M   'P 1'
_cell_length_a   8.15252583
_cell_length_b   8.15513429
_cell_length_c   8.15513412
_cell_angle_alpha   111.48723519
_cell_angle_beta   110.96767263
_cell_angle_gamma   106.02565370
_symmetry_Int_Tables_number   1
_chemical_formula_structural   Tm10Lu2InCo4Os
_chemical_formula_sum   'Tm10 Lu2 In1 Co4 Os1'
_cell_volume   416.18222729
_cell_formula_units_Z   1
loop_
 _symmetry_equiv_pos_site_id
 _symmetry_equiv_pos_as_xyz
  1  'x, y, z'
loop_
 _atom_site_type_symbol
 _atom_site_label
 _atom_site_symmetry_multiplicity
 _atom_site_fract_x
 _atom_site_fract_y
 _atom_site_fract_z
 _atom_site_occupancy
  Tm  Tm0  1  0.028982  0.223126  0.805856  1
  Tm  Tm1  1  0.971018  0.776874  0.194144  1
  Tm  Tm2  1  0.182222  0.277929  0.459769  1
  Tm  Tm3  1  0.817778  0.722071  0.540231  1
  Tm  Tm4  1  0.182222  0.722451  0.904292  1
  Tm  Tm5  1  0.817778  0.277549  0.095708  1
  Tm  Tm6  1  0.315072  0.620532  0.306145  1
  Tm  Tm7  1  0.684928  0.379468  0.693855  1
  Tm  Tm8  1  0.315072  0.008926  0.694540  1
  Tm  Tm9  1  0.684928  0.991074  0.305460  1
  Lu  Lu10  1  0.417404  0.223044  0.194360  1
  Lu  Lu11  1  0.582596  0.776956  0.805640  1
  In  In12  1  0.500000  0.500000  0.000000  1
  Co  Co13  1  0.374609  0.000121  0.374488  1
  Co  Co14  1  0.625391  0.999879  0.625512  1
  Co  Co15  1  0.112179  0.612074  0.500105  1
  Co  Co16  1  0.887821  0.387926  0.499895  1
  Os  Os17  1  0.000000  0.000000  0.000000  1
