# generated using pymatgen
data_Li6Pr2PuN6
_symmetry_space_group_name_H-M   'P 1'
_cell_length_a   6.23211100
_cell_length_b   6.23211173
_cell_length_c   5.49524500
_cell_angle_alpha   90.00000000
_cell_angle_beta   90.00000000
_cell_angle_gamma   120.00000143
_symmetry_Int_Tables_number   1
_chemical_formula_structural   Li6Pr2PuN6
_chemical_formula_sum   'Li6 Pr2 Pu1 N6'
_cell_volume   184.83665310
_cell_formula_units_Z   1
loop_
 _symmetry_equiv_pos_site_id
 _symmetry_equiv_pos_as_xyz
  1  'x, y, z'
loop_
 _atom_site_type_symbol
 _atom_site_label
 _atom_site_symmetry_multiplicity
 _atom_site_fract_x
 _atom_site_fract_y
 _atom_site_fract_z
 _atom_site_occupancy
  Li  Li0  1  0.922702  0.588597  0.593392  1
  Li  Li1  1  0.411403  0.334105  0.593392  1
  Li  Li2  1  0.665895  0.077298  0.593392  1
  Li  Li3  1  0.030749  0.330786  0.395201  1
  Li  Li4  1  0.669214  0.699963  0.395201  1
  Li  Li5  1  0.300037  0.969251  0.395201  1
  Pr  Pr6  1  0.000000  0.000000  0.977558  1
  Pr  Pr7  1  0.333333  0.666667  0.979870  1
  Pu  Pu8  1  0.666667  0.333333  0.024002  1
  N  N9  1  0.965969  0.633565  0.235025  1
  N  N10  1  0.366435  0.332405  0.235025  1
  N  N11  1  0.667595  0.034031  0.235025  1
  N  N12  1  0.950598  0.333497  0.782572  1
  N  N13  1  0.666503  0.617101  0.782572  1
  N  N14  1  0.382899  0.049402  0.782572  1
