# generated using pymatgen
data_Tb19Y(Bi2Rh)4
_symmetry_space_group_name_H-M   'P 1'
_cell_length_a   8.07844011
_cell_length_b   9.02079200
_cell_length_c   12.51825118
_cell_angle_alpha   90.00000000
_cell_angle_beta   89.98067101
_cell_angle_gamma   90.00000000
_symmetry_Int_Tables_number   1
_chemical_formula_structural   Tb19Y(Bi2Rh)4
_chemical_formula_sum   'Tb19 Y1 Bi8 Rh4'
_cell_volume   912.25408264
_cell_formula_units_Z   1
loop_
 _symmetry_equiv_pos_site_id
 _symmetry_equiv_pos_as_xyz
  1  'x, y, z'
loop_
 _atom_site_type_symbol
 _atom_site_label
 _atom_site_symmetry_multiplicity
 _atom_site_fract_x
 _atom_site_fract_y
 _atom_site_fract_z
 _atom_site_occupancy
  Tb  Tb0  1  0.157706  0.250000  0.205608  1
  Tb  Tb1  1  0.342318  0.250000  0.705631  1
  Tb  Tb2  1  0.657714  0.750000  0.294384  1
  Tb  Tb3  1  0.375697  0.750000  0.694670  1
  Tb  Tb4  1  0.624406  0.250000  0.305315  1
  Tb  Tb5  1  0.875574  0.250000  0.805348  1
  Tb  Tb6  1  0.124448  0.750000  0.194723  1
  Tb  Tb7  1  0.955147  0.750000  0.501281  1
  Tb  Tb8  1  0.044752  0.250000  0.498743  1
  Tb  Tb9  1  0.455250  0.250000  0.998802  1
  Tb  Tb10  1  0.544898  0.750000  0.001238  1
  Tb  Tb11  1  0.678681  0.039531  0.565707  1
  Tb  Tb12  1  0.321387  0.960436  0.434305  1
  Tb  Tb13  1  0.178628  0.960320  0.934323  1
  Tb  Tb14  1  0.321387  0.539564  0.434305  1
  Tb  Tb15  1  0.821323  0.039491  0.065611  1
  Tb  Tb16  1  0.678681  0.460469  0.565707  1
  Tb  Tb17  1  0.821323  0.460509  0.065611  1
  Tb  Tb18  1  0.178628  0.539680  0.934323  1
  Y  Y19  1  0.842083  0.750000  0.794017  1
  Bi  Bi20  1  0.570716  0.491778  0.826328  1
  Bi  Bi21  1  0.429474  0.508298  0.173659  1
  Bi  Bi22  1  0.070369  0.508510  0.673723  1
  Bi  Bi23  1  0.429474  0.991702  0.173659  1
  Bi  Bi24  1  0.929472  0.491654  0.326343  1
  Bi  Bi25  1  0.570716  0.008222  0.826328  1
  Bi  Bi26  1  0.929472  0.008346  0.326343  1
  Bi  Bi27  1  0.070369  0.991490  0.673723  1
  Rh  Rh28  1  0.568916  0.750000  0.510295  1
  Rh  Rh29  1  0.430989  0.250000  0.489680  1
  Rh  Rh30  1  0.068876  0.250000  0.989771  1
  Rh  Rh31  1  0.931128  0.750000  0.010494  1
