# generated using pymatgen
data_Gd5Dy5(SiPb3)2
_symmetry_space_group_name_H-M   'P 1'
_cell_length_a   9.37382600
_cell_length_b   9.37382601
_cell_length_c   6.56254000
_cell_angle_alpha   90.00000000
_cell_angle_beta   90.00000000
_cell_angle_gamma   120.00341605
_symmetry_Int_Tables_number   1
_chemical_formula_structural   Gd5Dy5(SiPb3)2
_chemical_formula_sum   'Gd5 Dy5 Si2 Pb6'
_cell_volume   499.36881842
_cell_formula_units_Z   1
loop_
 _symmetry_equiv_pos_site_id
 _symmetry_equiv_pos_as_xyz
  1  'x, y, z'
loop_
 _atom_site_type_symbol
 _atom_site_label
 _atom_site_symmetry_multiplicity
 _atom_site_fract_x
 _atom_site_fract_y
 _atom_site_fract_z
 _atom_site_occupancy
  Gd  Gd0  1  0.249917  0.999615  0.250000  1
  Gd  Gd1  1  0.749459  0.000182  0.750000  1
  Gd  Gd2  1  0.999615  0.249917  0.250000  1
  Gd  Gd3  1  0.000182  0.749459  0.750000  1
  Gd  Gd4  1  0.750719  0.750719  0.250000  1
  Dy  Dy5  1  0.249269  0.249269  0.750000  1
  Dy  Dy6  1  0.333232  0.666637  0.999836  1
  Dy  Dy7  1  0.666637  0.333232  0.999836  1
  Dy  Dy8  1  0.666637  0.333232  0.500164  1
  Dy  Dy9  1  0.333232  0.666637  0.500164  1
  Si  Si10  1  0.000726  0.000726  0.998388  1
  Si  Si11  1  0.000726  0.000726  0.501612  1
  Pb  Pb12  1  0.606898  0.999595  0.250000  1
  Pb  Pb13  1  0.392712  0.001082  0.750000  1
  Pb  Pb14  1  0.999595  0.606898  0.250000  1
  Pb  Pb15  1  0.001082  0.392712  0.750000  1
  Pb  Pb16  1  0.392672  0.392672  0.250000  1
  Pb  Pb17  1  0.606693  0.606693  0.750000  1
