# generated using pymatgen
data_K5V3F11
_symmetry_space_group_name_H-M   'P 1'
_cell_length_a   4.20817354
_cell_length_b   4.20817575
_cell_length_c   17.59532012
_cell_angle_alpha   90.09594808
_cell_angle_beta   90.09658491
_cell_angle_gamma   90.01500352
_symmetry_Int_Tables_number   1
_chemical_formula_structural   K5V3F11
_chemical_formula_sum   'K5 V3 F11'
_cell_volume   311.58995066
_cell_formula_units_Z   1
loop_
 _symmetry_equiv_pos_site_id
 _symmetry_equiv_pos_as_xyz
  1  'x, y, z'
loop_
 _atom_site_type_symbol
 _atom_site_label
 _atom_site_symmetry_multiplicity
 _atom_site_fract_x
 _atom_site_fract_y
 _atom_site_fract_z
 _atom_site_occupancy
  K  K0  1  0.008736  0.001542  0.730267  1
  K  K1  1  0.998447  0.991252  0.269731  1
  K  K2  1  0.510196  0.492807  0.887947  1
  K  K3  1  0.507218  0.489812  0.112053  1
  K  K4  1  0.002055  0.997919  0.499998  1
  V  V5  1  0.008507  0.991544  0.000001  1
  V  V6  1  0.506858  0.501095  0.620167  1
  V  V7  1  0.498889  0.493130  0.379838  1
  F  F8  1  0.502493  0.497485  0.500000  1
  F  F9  1  0.008858  0.993032  0.879320  1
  F  F10  1  0.006981  0.991147  0.120686  1
  F  F11  1  0.509810  0.501883  0.740006  1
  F  F12  1  0.498109  0.490177  0.259994  1
  F  F13  1  0.008854  0.491566  0.000004  1
  F  F14  1  0.508511  0.991164  0.999997  1
  F  F15  1  0.006891  0.502282  0.618297  1
  F  F16  1  0.507382  0.001171  0.618295  1
  F  F17  1  0.998812  0.492591  0.381701  1
  F  F18  1  0.497696  0.993100  0.381700  1
