# generated using pymatgen
data_Yb2U2Se3O4
_symmetry_space_group_name_H-M   'P 1'
_cell_length_a   3.94891700
_cell_length_b   6.89363100
_cell_length_c   14.53044200
_cell_angle_alpha   90.00000000
_cell_angle_beta   90.00000000
_cell_angle_gamma   90.00000000
_symmetry_Int_Tables_number   1
_chemical_formula_structural   Yb2U2Se3O4
_chemical_formula_sum   'Yb4 U4 Se6 O8'
_cell_volume   395.55316498
_cell_formula_units_Z   2
loop_
 _symmetry_equiv_pos_site_id
 _symmetry_equiv_pos_as_xyz
  1  'x, y, z'
loop_
 _atom_site_type_symbol
 _atom_site_label
 _atom_site_symmetry_multiplicity
 _atom_site_fract_x
 _atom_site_fract_y
 _atom_site_fract_z
 _atom_site_occupancy
  Yb  Yb0  1  0.500000  0.290679  0.653753  1
  Yb  Yb1  1  0.500000  0.709321  0.346247  1
  Yb  Yb2  1  0.500000  0.790679  0.846247  1
  Yb  Yb3  1  0.500000  0.209321  0.153753  1
  U  U4  1  0.000000  0.207321  0.923330  1
  U  U5  1  0.000000  0.792679  0.076670  1
  U  U6  1  0.000000  0.707321  0.576670  1
  U  U7  1  0.000000  0.292679  0.423330  1
  Se  Se8  1  0.000000  0.012412  0.280165  1
  Se  Se9  1  0.000000  0.987588  0.719835  1
  Se  Se10  1  0.000000  0.512412  0.219835  1
  Se  Se11  1  0.000000  0.487588  0.780165  1
  Se  Se12  1  0.500000  0.000000  0.500000  1
  Se  Se13  1  0.500000  0.500000  0.000000  1
  O  O14  1  0.500000  0.119279  0.889924  1
  O  O15  1  0.500000  0.880721  0.110076  1
  O  O16  1  0.500000  0.619279  0.610076  1
  O  O17  1  0.500000  0.380721  0.389924  1
  O  O18  1  0.000000  0.366108  0.562735  1
  O  O19  1  0.000000  0.633892  0.437265  1
  O  O20  1  0.000000  0.866108  0.937265  1
  O  O21  1  0.000000  0.133892  0.062735  1
