# generated using pymatgen
data_PuPRuF
_symmetry_space_group_name_H-M   'P 1'
_cell_length_a   3.99540500
_cell_length_b   3.99540500
_cell_length_c   8.24514300
_cell_angle_alpha   90.00000000
_cell_angle_beta   90.00000000
_cell_angle_gamma   90.00000000
_symmetry_Int_Tables_number   1
_chemical_formula_structural   PuPRuF
_chemical_formula_sum   'Pu2 P2 Ru2 F2'
_cell_volume   131.61937063
_cell_formula_units_Z   2
loop_
 _symmetry_equiv_pos_site_id
 _symmetry_equiv_pos_as_xyz
  1  'x, y, z'
loop_
 _atom_site_type_symbol
 _atom_site_label
 _atom_site_symmetry_multiplicity
 _atom_site_fract_x
 _atom_site_fract_y
 _atom_site_fract_z
 _atom_site_occupancy
  Pu  Pu0  1  0.750001  0.750001  0.190805  1
  Pu  Pu1  1  0.249999  0.249999  0.809195  1
  P  P2  1  0.249999  0.249999  0.349735  1
  P  P3  1  0.750001  0.750001  0.650265  1
  Ru  Ru4  1  0.750001  0.249999  0.500000  1
  Ru  Ru5  1  0.249999  0.750001  0.500000  1
  F  F6  1  0.750001  0.249999  0.000000  1
  F  F7  1  0.249999  0.750001  0.000000  1
