# generated using pymatgen
data_YbY3(ReB2)6
_symmetry_space_group_name_H-M   'P 1'
_cell_length_a   6.21588609
_cell_length_b   6.20379867
_cell_length_c   7.51426133
_cell_angle_alpha   89.32795867
_cell_angle_beta   89.72858019
_cell_angle_gamma   113.58628816
_symmetry_Int_Tables_number   1
_chemical_formula_structural   YbY3(ReB2)6
_chemical_formula_sum   'Yb1 Y3 Re6 B12'
_cell_volume   265.52595245
_cell_formula_units_Z   1
loop_
 _symmetry_equiv_pos_site_id
 _symmetry_equiv_pos_as_xyz
  1  'x, y, z'
loop_
 _atom_site_type_symbol
 _atom_site_label
 _atom_site_symmetry_multiplicity
 _atom_site_fract_x
 _atom_site_fract_y
 _atom_site_fract_z
 _atom_site_occupancy
  Yb  Yb0  1  0.902667  0.558287  0.323143  1
  Y  Y1  1  0.447978  0.103769  0.178647  1
  Y  Y2  1  0.096925  0.444289  0.674210  1
  Y  Y3  1  0.555246  0.898818  0.822474  1
  Re  Re4  1  0.413730  0.588941  0.248532  1
  Re  Re5  1  0.586612  0.411505  0.750651  1
  Re  Re6  1  0.009050  0.191428  0.090687  1
  Re  Re7  1  0.806423  0.988720  0.412181  1
  Re  Re8  1  0.989969  0.808513  0.910545  1
  Re  Re9  1  0.191495  0.009440  0.589302  1
  B  B10  1  0.748795  0.847021  0.130279  1
  B  B11  1  0.153126  0.246417  0.368832  1
  B  B12  1  0.250265  0.152454  0.869764  1
  B  B13  1  0.846550  0.750132  0.630086  1
  B  B14  1  0.412840  0.841279  0.479729  1
  B  B15  1  0.158453  0.586764  0.020519  1
  B  B16  1  0.587950  0.159065  0.521153  1
  B  B17  1  0.841640  0.414444  0.980029  1
  B  B18  1  0.557231  0.648821  0.534104  1
  B  B19  1  0.349617  0.442546  0.964641  1
  B  B20  1  0.443586  0.350070  0.464692  1
  B  B21  1  0.649852  0.557278  0.035801  1
