# generated using pymatgen
data_CeGa2Pd3
_symmetry_space_group_name_H-M   'P 1'
_cell_length_a   4.51418900
_cell_length_b   9.69954500
_cell_length_c   9.79000800
_cell_angle_alpha   90.00000000
_cell_angle_beta   90.00000000
_cell_angle_gamma   90.00000000
_symmetry_Int_Tables_number   1
_chemical_formula_structural   CeGa2Pd3
_chemical_formula_sum   'Ce4 Ga8 Pd12'
_cell_volume   428.66117206
_cell_formula_units_Z   4
loop_
 _symmetry_equiv_pos_site_id
 _symmetry_equiv_pos_as_xyz
  1  'x, y, z'
loop_
 _atom_site_type_symbol
 _atom_site_label
 _atom_site_symmetry_multiplicity
 _atom_site_fract_x
 _atom_site_fract_y
 _atom_site_fract_z
 _atom_site_occupancy
  Ce  Ce0  1  0.250000  0.437535  0.745175  1
  Ce  Ce1  1  0.250000  0.062465  0.245175  1
  Ce  Ce2  1  0.750000  0.562465  0.254825  1
  Ce  Ce3  1  0.750000  0.937535  0.754825  1
  Ga  Ga4  1  0.250000  0.879132  0.517194  1
  Ga  Ga5  1  0.250000  0.620868  0.017194  1
  Ga  Ga6  1  0.750000  0.120868  0.482806  1
  Ga  Ga7  1  0.750000  0.379132  0.982806  1
  Ga  Ga8  1  0.250000  0.148439  0.890197  1
  Ga  Ga9  1  0.250000  0.351561  0.390197  1
  Ga  Ga10  1  0.750000  0.851561  0.109803  1
  Ga  Ga11  1  0.750000  0.648439  0.609803  1
  Pd  Pd12  1  0.250000  0.142696  0.604789  1
  Pd  Pd13  1  0.250000  0.357304  0.104789  1
  Pd  Pd14  1  0.750000  0.857304  0.395211  1
  Pd  Pd15  1  0.750000  0.642696  0.895211  1
  Pd  Pd16  1  0.250000  0.733359  0.740261  1
  Pd  Pd17  1  0.250000  0.766641  0.240261  1
  Pd  Pd18  1  0.750000  0.266641  0.259739  1
  Pd  Pd19  1  0.750000  0.233359  0.759739  1
  Pd  Pd20  1  0.250000  0.894983  0.976893  1
  Pd  Pd21  1  0.250000  0.605017  0.476893  1
  Pd  Pd22  1  0.750000  0.105017  0.023107  1
  Pd  Pd23  1  0.750000  0.394983  0.523107  1
