# generated using pymatgen
data_LaPr(Cd2Ir9)2
_symmetry_space_group_name_H-M   'P 1'
_cell_length_a   8.95344900
_cell_length_b   8.95344900
_cell_length_c   5.15489900
_cell_angle_alpha   90.00000000
_cell_angle_beta   90.00000000
_cell_angle_gamma   90.00000000
_symmetry_Int_Tables_number   1
_chemical_formula_structural   LaPr(Cd2Ir9)2
_chemical_formula_sum   'La1 Pr1 Cd4 Ir18'
_cell_volume   413.23860698
_cell_formula_units_Z   1
loop_
 _symmetry_equiv_pos_site_id
 _symmetry_equiv_pos_as_xyz
  1  'x, y, z'
loop_
 _atom_site_type_symbol
 _atom_site_label
 _atom_site_symmetry_multiplicity
 _atom_site_fract_x
 _atom_site_fract_y
 _atom_site_fract_z
 _atom_site_occupancy
  La  La0  1  0.500000  0.500000  0.000000  1
  Pr  Pr1  1  0.000000  0.000000  0.000000  1
  Cd  Cd2  1  0.116777  0.617122  0.000000  1
  Cd  Cd3  1  0.883223  0.382878  0.000000  1
  Cd  Cd4  1  0.382878  0.116777  0.000000  1
  Cd  Cd5  1  0.617122  0.883223  0.000000  1
  Ir  Ir6  1  0.317840  0.818326  0.758545  1
  Ir  Ir7  1  0.682160  0.181674  0.758545  1
  Ir  Ir8  1  0.181674  0.317840  0.758545  1
  Ir  Ir9  1  0.818326  0.682160  0.758545  1
  Ir  Ir10  1  0.682160  0.181674  0.241455  1
  Ir  Ir11  1  0.317840  0.818326  0.241455  1
  Ir  Ir12  1  0.818326  0.682160  0.241455  1
  Ir  Ir13  1  0.181674  0.317840  0.241455  1
  Ir  Ir14  1  0.556545  0.704698  0.500000  1
  Ir  Ir15  1  0.443455  0.295302  0.500000  1
  Ir  Ir16  1  0.943479  0.204400  0.500000  1
  Ir  Ir17  1  0.056521  0.795600  0.500000  1
  Ir  Ir18  1  0.704698  0.443455  0.500000  1
  Ir  Ir19  1  0.295302  0.556545  0.500000  1
  Ir  Ir20  1  0.204400  0.056521  0.500000  1
  Ir  Ir21  1  0.795600  0.943479  0.500000  1
  Ir  Ir22  1  0.000000  0.500000  0.500000  1
  Ir  Ir23  1  0.500000  0.000000  0.500000  1
