# generated using pymatgen
data_Dy9Er(Sn3P)2
_symmetry_space_group_name_H-M   'P 1'
_cell_length_a   9.06866200
_cell_length_b   9.06866179
_cell_length_c   6.69076500
_cell_angle_alpha   90.00000000
_cell_angle_beta   90.00000000
_cell_angle_gamma   119.99999349
_symmetry_Int_Tables_number   1
_chemical_formula_structural   Dy9Er(Sn3P)2
_chemical_formula_sum   'Dy9 Er1 Sn6 P2'
_cell_volume   476.53286435
_cell_formula_units_Z   1
loop_
 _symmetry_equiv_pos_site_id
 _symmetry_equiv_pos_as_xyz
  1  'x, y, z'
loop_
 _atom_site_type_symbol
 _atom_site_label
 _atom_site_symmetry_multiplicity
 _atom_site_fract_x
 _atom_site_fract_y
 _atom_site_fract_z
 _atom_site_occupancy
  Dy  Dy0  1  0.666667  0.333333  0.000000  1
  Dy  Dy1  1  0.333333  0.666667  0.000000  1
  Dy  Dy2  1  0.333333  0.666667  0.500000  1
  Dy  Dy3  1  0.758826  0.758594  0.749863  1
  Dy  Dy4  1  0.241406  0.000232  0.749863  1
  Dy  Dy5  1  0.999768  0.241174  0.749863  1
  Dy  Dy6  1  0.241406  0.241174  0.250137  1
  Dy  Dy7  1  0.758826  0.000232  0.250137  1
  Dy  Dy8  1  0.999768  0.758594  0.250137  1
  Er  Er9  1  0.666667  0.333333  0.500000  1
  Sn  Sn10  1  0.399590  0.398698  0.749102  1
  Sn  Sn11  1  0.601302  0.000893  0.749102  1
  Sn  Sn12  1  0.999107  0.600410  0.749102  1
  Sn  Sn13  1  0.601302  0.600410  0.250898  1
  Sn  Sn14  1  0.399590  0.000893  0.250898  1
  Sn  Sn15  1  0.999107  0.398698  0.250898  1
  P  P16  1  0.000000  0.000000  0.000000  1
  P  P17  1  0.000000  0.000000  0.500000  1
