# generated using pymatgen
data_Ti3Co4Si3GeW
_symmetry_space_group_name_H-M   'P 1'
_cell_length_a   3.67897000
_cell_length_b   6.14708581
_cell_length_c   6.97344067
_cell_angle_alpha   89.34261733
_cell_angle_beta   90.00000000
_cell_angle_gamma   90.00000000
_symmetry_Int_Tables_number   1
_chemical_formula_structural   Ti3Co4Si3GeW
_chemical_formula_sum   'Ti3 Co4 Si3 Ge1 W1'
_cell_volume   157.69359215
_cell_formula_units_Z   1
loop_
 _symmetry_equiv_pos_site_id
 _symmetry_equiv_pos_as_xyz
  1  'x, y, z'
loop_
 _atom_site_type_symbol
 _atom_site_label
 _atom_site_symmetry_multiplicity
 _atom_site_fract_x
 _atom_site_fract_y
 _atom_site_fract_z
 _atom_site_occupancy
  Ti  Ti0  1  0.750000  0.472712  0.309102  1
  Ti  Ti1  1  0.250000  0.518893  0.692233  1
  Ti  Ti2  1  0.750000  0.982717  0.180393  1
  Co  Co3  1  0.250000  0.641159  0.058142  1
  Co  Co4  1  0.750000  0.359243  0.934496  1
  Co  Co5  1  0.250000  0.150543  0.438349  1
  Co  Co6  1  0.750000  0.859761  0.568354  1
  Si  Si7  1  0.750000  0.731524  0.882268  1
  Si  Si8  1  0.750000  0.225744  0.620860  1
  Si  Si9  1  0.250000  0.269962  0.113626  1
  Ge  Ge10  1  0.250000  0.766680  0.380806  1
  W  W11  1  0.250000  0.021062  0.821374  1
