# generated using pymatgen
data_Tb2Er3Ga2P10Ir19
_symmetry_space_group_name_H-M   'P 1'
_cell_length_a   12.83071817
_cell_length_b   12.77900385
_cell_length_c   3.96471900
_cell_angle_alpha   90.00000000
_cell_angle_beta   90.00000000
_cell_angle_gamma   119.86676341
_symmetry_Int_Tables_number   1
_chemical_formula_structural   Tb2Er3Ga2P10Ir19
_chemical_formula_sum   'Tb2 Er3 Ga2 P10 Ir19'
_cell_volume   563.73178389
_cell_formula_units_Z   1
loop_
 _symmetry_equiv_pos_site_id
 _symmetry_equiv_pos_as_xyz
  1  'x, y, z'
loop_
 _atom_site_type_symbol
 _atom_site_label
 _atom_site_symmetry_multiplicity
 _atom_site_fract_x
 _atom_site_fract_y
 _atom_site_fract_z
 _atom_site_occupancy
  Tb  Tb0  1  0.821135  0.816664  0.500000  1
  Tb  Tb1  1  0.178865  0.995529  0.500000  1
  Er  Er2  1  0.660557  0.328228  0.000000  1
  Er  Er3  1  0.339443  0.667672  0.000000  1
  Er  Er4  1  0.000000  0.185423  0.500000  1
  Ga  Ga5  1  0.642354  0.642436  0.000000  1
  Ga  Ga6  1  0.357646  0.000082  0.000000  1
  P  P7  1  0.681211  0.165538  0.500000  1
  P  P8  1  0.817054  0.509818  0.500000  1
  P  P9  1  0.478489  0.310999  0.500000  1
  P  P10  1  0.182946  0.692764  0.500000  1
  P  P11  1  0.521511  0.832509  0.500000  1
  P  P12  1  0.318789  0.484327  0.500000  1
  P  P13  1  0.000000  0.357965  0.000000  1
  P  P14  1  0.175037  0.175863  0.000000  1
  P  P15  1  0.824963  0.000824  0.000000  1
  P  P16  1  0.000000  0.813207  0.000000  1
  Ir  Ir17  1  0.816160  0.183790  0.000000  1
  Ir  Ir18  1  0.825162  0.613070  0.000000  1
  Ir  Ir19  1  0.376929  0.209182  0.000000  1
  Ir  Ir20  1  0.174838  0.787908  0.000000  1
  Ir  Ir21  1  0.623071  0.832252  0.000000  1
  Ir  Ir22  1  0.183840  0.367630  0.000000  1
  Ir  Ir23  1  0.434564  0.461010  0.000000  1
  Ir  Ir24  1  0.565436  0.026447  0.000000  1
  Ir  Ir25  1  0.000000  0.534806  0.000000  1
  Ir  Ir26  1  0.274966  0.282047  0.500000  1
  Ir  Ir27  1  0.725034  0.007081  0.500000  1
  Ir  Ir28  1  0.000000  0.709133  0.500000  1
  Ir  Ir29  1  0.859266  0.355981  0.500000  1
  Ir  Ir30  1  0.630683  0.503606  0.500000  1
  Ir  Ir31  1  0.489911  0.135962  0.500000  1
  Ir  Ir32  1  0.369317  0.872922  0.500000  1
  Ir  Ir33  1  0.510089  0.646049  0.500000  1
  Ir  Ir34  1  0.140734  0.496715  0.500000  1
  Ir  Ir35  1  0.000000  0.994565  0.000000  1
