# generated using pymatgen
data_Cs2Hf6CoBr17
_symmetry_space_group_name_H-M   'P 1'
_cell_length_a   10.57372887
_cell_length_b   10.52187381
_cell_length_c   10.56140300
_cell_angle_alpha   103.55693401
_cell_angle_beta   103.97740294
_cell_angle_gamma   121.46516345
_symmetry_Int_Tables_number   1
_chemical_formula_structural   Cs2Hf6CoBr17
_chemical_formula_sum   'Cs2 Hf6 Co1 Br17'
_cell_volume   875.47446509
_cell_formula_units_Z   1
loop_
 _symmetry_equiv_pos_site_id
 _symmetry_equiv_pos_as_xyz
  1  'x, y, z'
loop_
 _atom_site_type_symbol
 _atom_site_label
 _atom_site_symmetry_multiplicity
 _atom_site_fract_x
 _atom_site_fract_y
 _atom_site_fract_z
 _atom_site_occupancy
  Cs  Cs0  1  0.249962  0.749052  0.499447  1
  Cs  Cs1  1  0.750038  0.250948  0.500553  1
  Hf  Hf2  1  0.234668  0.235079  0.999833  1
  Hf  Hf3  1  0.765332  0.764921  0.000167  1
  Hf  Hf4  1  0.176563  0.067091  0.244012  1
  Hf  Hf5  1  0.932716  0.177027  0.108950  1
  Hf  Hf6  1  0.823437  0.932909  0.755988  1
  Hf  Hf7  1  0.067284  0.822973  0.891050  1
  Co  Co8  1  0.000000  0.000000  0.000000  1
  Br  Br9  1  0.881133  0.733232  0.614273  1
  Br  Br10  1  0.266260  0.879838  0.148215  1
  Br  Br11  1  0.141959  0.629130  0.772233  1
  Br  Br12  1  0.548728  0.664918  0.733970  1
  Br  Br13  1  0.858041  0.370870  0.227767  1
  Br  Br14  1  0.451272  0.335082  0.266030  1
  Br  Br15  1  0.814923  0.547912  0.884337  1
  Br  Br16  1  0.370508  0.141899  0.512467  1
  Br  Br17  1  0.629492  0.858101  0.487533  1
  Br  Br18  1  0.118867  0.266768  0.385727  1
  Br  Br19  1  0.334582  0.068703  0.883492  1
  Br  Br20  1  0.931396  0.813566  0.266017  1
  Br  Br21  1  0.733740  0.120162  0.851785  1
  Br  Br22  1  0.500000  0.500000  0.000000  1
  Br  Br23  1  0.185077  0.452088  0.115663  1
  Br  Br24  1  0.068604  0.186434  0.733983  1
  Br  Br25  1  0.665418  0.931297  0.116508  1
