# generated using pymatgen
data_Nb4O5F7
_symmetry_space_group_name_H-M   'P 1'
_cell_length_a   5.75331770
_cell_length_b   5.75331694
_cell_length_c   9.92576070
_cell_angle_alpha   72.59682198
_cell_angle_beta   72.59682402
_cell_angle_gamma   59.42634324
_symmetry_Int_Tables_number   1
_chemical_formula_structural   Nb4O5F7
_chemical_formula_sum   'Nb4 O5 F7'
_cell_volume   265.57051643
_cell_formula_units_Z   1
loop_
 _symmetry_equiv_pos_site_id
 _symmetry_equiv_pos_as_xyz
  1  'x, y, z'
loop_
 _atom_site_type_symbol
 _atom_site_label
 _atom_site_symmetry_multiplicity
 _atom_site_fract_x
 _atom_site_fract_y
 _atom_site_fract_z
 _atom_site_occupancy
  Nb  Nb0  1  0.787482  0.489799  0.614725  1
  Nb  Nb1  1  0.510201  0.212518  0.385275  1
  Nb  Nb2  1  0.205556  0.004465  0.127848  1
  Nb  Nb3  1  0.995535  0.794444  0.872152  1
  O  O4  1  0.876886  0.133890  0.753005  1
  O  O5  1  0.866110  0.123114  0.246995  1
  O  O6  1  0.136233  0.366411  0.502232  1
  O  O7  1  0.111912  0.888088  0.000000  1
  O  O8  1  0.633589  0.863767  0.497768  1
  F  F9  1  0.376319  0.628173  0.252580  1
  F  F10  1  0.371827  0.623681  0.747420  1
  F  F11  1  0.867691  0.639521  0.751569  1
  F  F12  1  0.636750  0.363250  0.500000  1
  F  F13  1  0.137774  0.374343  0.996463  1
  F  F14  1  0.360479  0.132309  0.248431  1
  F  F15  1  0.625657  0.862226  0.003537  1
