# generated using pymatgen
data_Y2TcP4Rh5
_symmetry_space_group_name_H-M   'P 1'
_cell_length_a   3.95903100
_cell_length_b   11.18390200
_cell_length_c   12.73109400
_cell_angle_alpha   90.00000000
_cell_angle_beta   90.00000000
_cell_angle_gamma   90.00000000
_symmetry_Int_Tables_number   1
_chemical_formula_structural   Y2TcP4Rh5
_chemical_formula_sum   'Y6 Tc3 P12 Rh15'
_cell_volume   563.69992886
_cell_formula_units_Z   3
loop_
 _symmetry_equiv_pos_site_id
 _symmetry_equiv_pos_as_xyz
  1  'x, y, z'
loop_
 _atom_site_type_symbol
 _atom_site_label
 _atom_site_symmetry_multiplicity
 _atom_site_fract_x
 _atom_site_fract_y
 _atom_site_fract_z
 _atom_site_occupancy
  Y  Y0  1  0.000000  0.500000  0.520716  1
  Y  Y1  1  0.500000  0.000000  0.478103  1
  Y  Y2  1  0.500000  0.814470  0.204271  1
  Y  Y3  1  0.500000  0.185530  0.204271  1
  Y  Y4  1  0.000000  0.682657  0.796621  1
  Y  Y5  1  0.000000  0.317343  0.796621  1
  Tc  Tc6  1  0.500000  0.500000  0.157934  1
  Tc  Tc7  1  0.000000  0.000000  0.841766  1
  Tc  Tc8  1  0.000000  0.500000  0.987753  1
  P  P9  1  0.500000  0.500000  0.878397  1
  P  P10  1  0.000000  0.000000  0.124313  1
  P  P11  1  0.500000  0.500000  0.343506  1
  P  P12  1  0.000000  0.000000  0.655109  1
  P  P13  1  0.500000  0.313301  0.619266  1
  P  P14  1  0.500000  0.686699  0.619266  1
  P  P15  1  0.000000  0.185758  0.380977  1
  P  P16  1  0.000000  0.814242  0.380977  1
  P  P17  1  0.500000  0.848551  0.889498  1
  P  P18  1  0.500000  0.151449  0.889498  1
  P  P19  1  0.000000  0.649973  0.108649  1
  P  P20  1  0.000000  0.350027  0.108649  1
  Rh  Rh21  1  0.500000  0.500000  0.696585  1
  Rh  Rh22  1  0.000000  0.000000  0.301730  1
  Rh  Rh23  1  0.500000  0.000000  0.012092  1
  Rh  Rh24  1  0.500000  0.328433  0.985084  1
  Rh  Rh25  1  0.500000  0.671567  0.985084  1
  Rh  Rh26  1  0.000000  0.166699  0.015728  1
  Rh  Rh27  1  0.000000  0.833301  0.015728  1
  Rh  Rh28  1  0.500000  0.296409  0.431916  1
  Rh  Rh29  1  0.500000  0.703591  0.431916  1
  Rh  Rh30  1  0.000000  0.205201  0.568931  1
  Rh  Rh31  1  0.000000  0.794799  0.568931  1
  Rh  Rh32  1  0.500000  0.875922  0.709801  1
  Rh  Rh33  1  0.500000  0.124078  0.709801  1
  Rh  Rh34  1  0.000000  0.624913  0.290256  1
  Rh  Rh35  1  0.000000  0.375087  0.290256  1
