# generated using pymatgen
data_Tb12Th4MgHg3Ru4
_symmetry_space_group_name_H-M   'P 1'
_cell_length_a   9.70521422
_cell_length_b   9.74603879
_cell_length_c   9.74603800
_cell_angle_alpha   59.99999589
_cell_angle_beta   59.86074956
_cell_angle_gamma   59.86075130
_symmetry_Int_Tables_number   1
_chemical_formula_structural   Tb12Th4MgHg3Ru4
_chemical_formula_sum   'Tb12 Th4 Mg1 Hg3 Ru4'
_cell_volume   650.47266796
_cell_formula_units_Z   1
loop_
 _symmetry_equiv_pos_site_id
 _symmetry_equiv_pos_as_xyz
  1  'x, y, z'
loop_
 _atom_site_type_symbol
 _atom_site_label
 _atom_site_symmetry_multiplicity
 _atom_site_fract_x
 _atom_site_fract_y
 _atom_site_fract_z
 _atom_site_occupancy
  Tb  Tb0  1  0.060730  0.439319  0.439319  1
  Tb  Tb1  1  0.436869  0.062562  0.062562  1
  Tb  Tb2  1  0.436869  0.062562  0.438007  1
  Tb  Tb3  1  0.060730  0.439319  0.060633  1
  Tb  Tb4  1  0.436869  0.438007  0.062562  1
  Tb  Tb5  1  0.060730  0.060633  0.439319  1
  Tb  Tb6  1  0.184507  0.813893  0.813893  1
  Tb  Tb7  1  0.813233  0.186374  0.186374  1
  Tb  Tb8  1  0.813233  0.186374  0.814018  1
  Tb  Tb9  1  0.184507  0.813893  0.187707  1
  Tb  Tb10  1  0.813233  0.814018  0.186374  1
  Tb  Tb11  1  0.184507  0.187707  0.813893  1
  Th  Th12  1  0.597661  0.596301  0.596301  1
  Th  Th13  1  0.597661  0.596301  0.209739  1
  Th  Th14  1  0.597661  0.209739  0.596301  1
  Th  Th15  1  0.202554  0.599149  0.599149  1
  Mg  Mg16  1  0.532178  0.822607  0.822607  1
  Hg  Hg17  1  0.830486  0.836678  0.836678  1
  Hg  Hg18  1  0.830486  0.836678  0.496157  1
  Hg  Hg19  1  0.830486  0.496157  0.836678  1
  Ru  Ru20  1  0.392154  0.394048  0.394048  1
  Ru  Ru21  1  0.392154  0.394048  0.819751  1
  Ru  Ru22  1  0.392154  0.819751  0.394048  1
  Ru  Ru23  1  0.818351  0.393883  0.393883  1
