# generated using pymatgen
data_La3Pr(Sn2Rh)4
_symmetry_space_group_name_H-M   'P 1'
_cell_length_a   8.89350534
_cell_length_b   8.89350544
_cell_length_c   9.76850000
_cell_angle_alpha   90.00000000
_cell_angle_beta   90.00000000
_cell_angle_gamma   149.33284671
_symmetry_Int_Tables_number   1
_chemical_formula_structural   La3Pr(Sn2Rh)4
_chemical_formula_sum   'La3 Pr1 Sn8 Rh4'
_cell_volume   394.08190031
_cell_formula_units_Z   1
loop_
 _symmetry_equiv_pos_site_id
 _symmetry_equiv_pos_as_xyz
  1  'x, y, z'
loop_
 _atom_site_type_symbol
 _atom_site_label
 _atom_site_symmetry_multiplicity
 _atom_site_fract_x
 _atom_site_fract_y
 _atom_site_fract_z
 _atom_site_occupancy
  La  La0  1  0.499976  0.500024  0.499820  1
  La  La1  1  0.499976  0.500024  0.000180  1
  La  La2  1  0.703399  0.296601  0.750000  1
  Pr  Pr3  1  0.296736  0.703264  0.250000  1
  Sn  Sn4  1  0.908023  0.091977  0.750000  1
  Sn  Sn5  1  0.925116  0.074884  0.250000  1
  Sn  Sn6  1  0.091999  0.908001  0.250000  1
  Sn  Sn7  1  0.073987  0.926013  0.750000  1
  Sn  Sn8  1  0.697670  0.302330  0.409620  1
  Sn  Sn9  1  0.302551  0.697449  0.589416  1
  Sn  Sn10  1  0.302551  0.697449  0.910584  1
  Sn  Sn11  1  0.697670  0.302330  0.090380  1
  Rh  Rh12  1  0.147029  0.852971  0.504510  1
  Rh  Rh13  1  0.853144  0.146856  0.004644  1
  Rh  Rh14  1  0.147029  0.852971  0.995490  1
  Rh  Rh15  1  0.853144  0.146856  0.495356  1
