# generated using pymatgen
data_La3PrV2O10
_symmetry_space_group_name_H-M   'P 1'
_cell_length_a   3.94639600
_cell_length_b   10.97942900
_cell_length_c   11.50544900
_cell_angle_alpha   90.00000000
_cell_angle_beta   90.00000000
_cell_angle_gamma   90.00000000
_symmetry_Int_Tables_number   1
_chemical_formula_structural   La3PrV2O10
_chemical_formula_sum   'La6 Pr2 V4 O20'
_cell_volume   498.52160958
_cell_formula_units_Z   2
loop_
 _symmetry_equiv_pos_site_id
 _symmetry_equiv_pos_as_xyz
  1  'x, y, z'
loop_
 _atom_site_type_symbol
 _atom_site_label
 _atom_site_symmetry_multiplicity
 _atom_site_fract_x
 _atom_site_fract_y
 _atom_site_fract_z
 _atom_site_occupancy
  La  La0  1  0.250000  0.136927  0.941203  1
  La  La1  1  0.250000  0.636927  0.558797  1
  La  La2  1  0.750000  0.862236  0.059672  1
  La  La3  1  0.750000  0.362236  0.440328  1
  La  La4  1  0.750000  0.395911  0.778670  1
  La  La5  1  0.750000  0.895911  0.721330  1
  Pr  Pr6  1  0.250000  0.605846  0.222935  1
  Pr  Pr7  1  0.250000  0.105846  0.277065  1
  V  V8  1  0.250000  0.184917  0.623318  1
  V  V9  1  0.250000  0.684917  0.876682  1
  V  V10  1  0.750000  0.815801  0.375664  1
  V  V11  1  0.750000  0.315801  0.124336  1
  O  O12  1  0.250000  0.225698  0.464151  1
  O  O13  1  0.250000  0.725698  0.035849  1
  O  O14  1  0.750000  0.773349  0.534548  1
  O  O15  1  0.750000  0.273349  0.965452  1
  O  O16  1  0.250000  0.492198  0.397461  1
  O  O17  1  0.250000  0.992198  0.102539  1
  O  O18  1  0.750000  0.507357  0.601839  1
  O  O19  1  0.750000  0.007357  0.898161  1
  O  O20  1  0.250000  0.265669  0.122329  1
  O  O21  1  0.250000  0.765669  0.377671  1
  O  O22  1  0.750000  0.733967  0.879465  1
  O  O23  1  0.750000  0.233967  0.620535  1
  O  O24  1  0.250000  0.032367  0.667297  1
  O  O25  1  0.250000  0.532367  0.832703  1
  O  O26  1  0.750000  0.968691  0.332631  1
  O  O27  1  0.750000  0.468691  0.167369  1
  O  O28  1  0.250000  0.274744  0.767386  1
  O  O29  1  0.250000  0.774744  0.732614  1
  O  O30  1  0.750000  0.724319  0.232712  1
  O  O31  1  0.750000  0.224319  0.267288  1
