# generated using pymatgen
data_Nd3(OsO5)2
_symmetry_space_group_name_H-M   'P 1'
_cell_length_a   5.55373352
_cell_length_b   5.55373380
_cell_length_c   7.00088916
_cell_angle_alpha   72.47457249
_cell_angle_beta   72.47457460
_cell_angle_gamma   90.32485865
_symmetry_Int_Tables_number   1
_chemical_formula_structural   Nd3(OsO5)2
_chemical_formula_sum   'Nd3 Os2 O10'
_cell_volume   195.24909105
_cell_formula_units_Z   1
loop_
 _symmetry_equiv_pos_site_id
 _symmetry_equiv_pos_as_xyz
  1  'x, y, z'
loop_
 _atom_site_type_symbol
 _atom_site_label
 _atom_site_symmetry_multiplicity
 _atom_site_fract_x
 _atom_site_fract_y
 _atom_site_fract_z
 _atom_site_occupancy
  Nd  Nd0  1  0.500000  0.500000  0.000000  1
  Nd  Nd1  1  0.754480  0.245520  0.500000  1
  Nd  Nd2  1  0.245520  0.754480  0.500000  1
  Os  Os3  1  0.130123  0.130123  0.823232  1
  Os  Os4  1  0.869877  0.869877  0.176768  1
  O  O5  1  0.831238  0.831238  0.473105  1
  O  O6  1  0.168762  0.168762  0.526895  1
  O  O7  1  0.594305  0.594305  0.284296  1
  O  O8  1  0.405695  0.405695  0.715704  1
  O  O9  1  0.382421  0.897099  0.784607  1
  O  O10  1  0.851127  0.851127  0.900625  1
  O  O11  1  0.148873  0.148873  0.099375  1
  O  O12  1  0.897099  0.382421  0.784607  1
  O  O13  1  0.617579  0.102901  0.215393  1
  O  O14  1  0.102901  0.617579  0.215393  1
