# generated using pymatgen
data_Sr8TaNb(CoO8)2
_symmetry_space_group_name_H-M   'P 1'
_cell_length_a   5.50762566
_cell_length_b   5.50762933
_cell_length_c   13.35255201
_cell_angle_alpha   101.90730608
_cell_angle_beta   101.90738325
_cell_angle_gamma   89.98776857
_symmetry_Int_Tables_number   1
_chemical_formula_structural   Sr8TaNb(CoO8)2
_chemical_formula_sum   'Sr8 Ta1 Nb1 Co2 O16'
_cell_volume   387.41293180
_cell_formula_units_Z   1
loop_
 _symmetry_equiv_pos_site_id
 _symmetry_equiv_pos_as_xyz
  1  'x, y, z'
loop_
 _atom_site_type_symbol
 _atom_site_label
 _atom_site_symmetry_multiplicity
 _atom_site_fract_x
 _atom_site_fract_y
 _atom_site_fract_z
 _atom_site_occupancy
  Sr  Sr0  1  0.071545  0.572102  0.144052  1
  Sr  Sr1  1  0.574058  0.074843  0.149099  1
  Sr  Sr2  1  0.322007  0.321420  0.643812  1
  Sr  Sr3  1  0.824764  0.823960  0.648978  1
  Sr  Sr4  1  0.678580  0.677995  0.356188  1
  Sr  Sr5  1  0.176041  0.175239  0.351023  1
  Sr  Sr6  1  0.925155  0.425941  0.850901  1
  Sr  Sr7  1  0.427899  0.928452  0.855948  1
  Ta  Ta8  1  0.249860  0.750139  0.500000  1
  Nb  Nb9  1  0.500114  0.499881  0.000000  1
  Co  Co10  1  0.000205  0.999795  0.000000  1
  Co  Co11  1  0.749793  0.250207  0.500000  1
  O  O12  1  0.169514  0.670725  0.340095  1
  O  O13  1  0.670628  0.171457  0.341810  1
  O  O14  1  0.419961  0.418756  0.838784  1
  O  O15  1  0.921306  0.920478  0.841786  1
  O  O16  1  0.581245  0.580042  0.161215  1
  O  O17  1  0.079524  0.078696  0.158215  1
  O  O18  1  0.828543  0.329372  0.658189  1
  O  O19  1  0.329272  0.830485  0.659905  1
  O  O20  1  0.245912  0.245555  0.000036  1
  O  O21  1  0.754445  0.754089  0.999964  1
  O  O22  1  0.502839  0.003202  0.499966  1
  O  O23  1  0.996798  0.497161  0.500034  1
  O  O24  1  0.245927  0.754073  0.000000  1
  O  O25  1  0.754488  0.245512  0.000000  1
  O  O26  1  0.502825  0.497176  0.500000  1
  O  O27  1  0.996753  0.003247  0.500000  1
