# generated using pymatgen
data_Tl2H9Os
_symmetry_space_group_name_H-M   'P 1'
_cell_length_a   10.31769400
_cell_length_b   10.31769490
_cell_length_c   5.56221100
_cell_angle_alpha   90.00000000
_cell_angle_beta   90.00000000
_cell_angle_gamma   120.00000993
_symmetry_Int_Tables_number   1
_chemical_formula_structural   Tl2H9Os
_chemical_formula_sum   'Tl6 H27 Os3'
_cell_volume   512.79451697
_cell_formula_units_Z   3
loop_
 _symmetry_equiv_pos_site_id
 _symmetry_equiv_pos_as_xyz
  1  'x, y, z'
loop_
 _atom_site_type_symbol
 _atom_site_label
 _atom_site_symmetry_multiplicity
 _atom_site_fract_x
 _atom_site_fract_y
 _atom_site_fract_z
 _atom_site_occupancy
  Tl  Tl0  1  0.000000  0.258310  0.500000  1
  Tl  Tl1  1  0.741690  0.741690  0.500000  1
  Tl  Tl2  1  0.258310  0.000000  0.500000  1
  Tl  Tl3  1  0.000000  0.600954  0.000000  1
  Tl  Tl4  1  0.399046  0.399046  0.000000  1
  Tl  Tl5  1  0.600954  0.000000  0.000000  1
  H  H6  1  0.769761  0.313478  0.712381  1
  H  H7  1  0.686522  0.456281  0.712381  1
  H  H8  1  0.543719  0.230239  0.712381  1
  H  H9  1  0.230239  0.543719  0.287619  1
  H  H10  1  0.543719  0.230239  0.287619  1
  H  H11  1  0.769761  0.313478  0.287619  1
  H  H12  1  0.686522  0.456281  0.287619  1
  H  H13  1  0.313478  0.769761  0.712381  1
  H  H14  1  0.456281  0.686522  0.712381  1
  H  H15  1  0.159083  0.000000  0.000000  1
  H  H16  1  0.840917  0.840917  0.000000  1
  H  H17  1  0.000000  0.159083  0.000000  1
  H  H18  1  0.882713  0.000000  0.209766  1
  H  H19  1  0.117287  0.117287  0.790234  1
  H  H20  1  0.000000  0.882713  0.790234  1
  H  H21  1  0.000000  0.882713  0.209766  1
  H  H22  1  0.117287  0.117287  0.209766  1
  H  H23  1  0.882713  0.000000  0.790234  1
  H  H24  1  0.162518  0.640285  0.500000  1
  H  H25  1  0.477767  0.837482  0.500000  1
  H  H26  1  0.359715  0.522233  0.500000  1
  H  H27  1  0.522233  0.359715  0.500000  1
  H  H28  1  0.837482  0.477767  0.500000  1
  H  H29  1  0.640285  0.162518  0.500000  1
  H  H30  1  0.230239  0.543719  0.712381  1
  H  H31  1  0.313478  0.769761  0.287619  1
  H  H32  1  0.456281  0.686522  0.287619  1
  Os  Os33  1  0.666667  0.333333  0.500000  1
  Os  Os34  1  0.333333  0.666667  0.500000  1
  Os  Os35  1  0.000000  0.000000  0.000000  1
