# generated using pymatgen
data_Tb7Lu(Si4W3)4
_symmetry_space_group_name_H-M   'P 1'
_cell_length_a   6.79088254
_cell_length_b   6.94778730
_cell_length_c   12.91650781
_cell_angle_alpha   90.05291639
_cell_angle_beta   89.98985593
_cell_angle_gamma   90.03957528
_symmetry_Int_Tables_number   1
_chemical_formula_structural   Tb7Lu(Si4W3)4
_chemical_formula_sum   'Tb7 Lu1 Si16 W12'
_cell_volume   609.42118617
_cell_formula_units_Z   1
loop_
 _symmetry_equiv_pos_site_id
 _symmetry_equiv_pos_as_xyz
  1  'x, y, z'
loop_
 _atom_site_type_symbol
 _atom_site_label
 _atom_site_symmetry_multiplicity
 _atom_site_fract_x
 _atom_site_fract_y
 _atom_site_fract_z
 _atom_site_occupancy
  Tb  Tb0  1  0.495649  0.667287  0.593469  1
  Tb  Tb1  1  0.995861  0.832805  0.906699  1
  Tb  Tb2  1  0.504553  0.332855  0.093493  1
  Tb  Tb3  1  0.003879  0.167530  0.407310  1
  Tb  Tb4  1  0.503919  0.332428  0.407216  1
  Tb  Tb5  1  0.004249  0.167387  0.093540  1
  Tb  Tb6  1  0.495568  0.667307  0.905719  1
  Lu  Lu7  1  0.994092  0.831578  0.593901  1
  Si  Si8  1  0.661681  0.956944  0.453767  1
  Si  Si9  1  0.161180  0.542979  0.047112  1
  Si  Si10  1  0.339580  0.043248  0.952262  1
  Si  Si11  1  0.839713  0.459058  0.547491  1
  Si  Si12  1  0.336055  0.041141  0.547481  1
  Si  Si13  1  0.839030  0.456893  0.952568  1
  Si  Si14  1  0.660979  0.956757  0.047152  1
  Si  Si15  1  0.160791  0.544244  0.453702  1
  Si  Si16  1  0.463709  0.368703  0.749649  1
  Si  Si17  1  0.964330  0.128579  0.748858  1
  Si  Si18  1  0.536728  0.630833  0.250393  1
  Si  Si19  1  0.036551  0.869924  0.250215  1
  Si  Si20  1  0.698312  0.867230  0.749122  1
  Si  Si21  1  0.194988  0.633581  0.748798  1
  Si  Si22  1  0.303160  0.132489  0.250283  1
  Si  Si23  1  0.803494  0.368486  0.250620  1
  W  W24  1  0.668587  0.162371  0.625354  1
  W  W25  1  0.167208  0.336135  0.873433  1
  W  W26  1  0.332478  0.836830  0.125779  1
  W  W27  1  0.832895  0.664790  0.375204  1
  W  W28  1  0.331949  0.836781  0.374591  1
  W  W29  1  0.832672  0.663878  0.126085  1
  W  W30  1  0.668763  0.163022  0.873661  1
  W  W31  1  0.167827  0.336420  0.625561  1
  W  W32  1  0.834133  0.499009  0.749379  1
  W  W33  1  0.333499  0.999929  0.749142  1
  W  W34  1  0.166160  0.501788  0.250419  1
  W  W35  1  0.665779  0.998779  0.250567  1
