# generated using pymatgen
data_Ho3Al2InGePt2
_symmetry_space_group_name_H-M   'P 1'
_cell_length_a   7.29437054
_cell_length_b   7.15981571
_cell_length_c   4.11140200
_cell_angle_alpha   90.00000000
_cell_angle_beta   90.00000000
_cell_angle_gamma   120.26931586
_symmetry_Int_Tables_number   1
_chemical_formula_structural   Ho3Al2InGePt2
_chemical_formula_sum   'Ho3 Al2 In1 Ge1 Pt2'
_cell_volume   185.44931768
_cell_formula_units_Z   1
loop_
 _symmetry_equiv_pos_site_id
 _symmetry_equiv_pos_as_xyz
  1  'x, y, z'
loop_
 _atom_site_type_symbol
 _atom_site_label
 _atom_site_symmetry_multiplicity
 _atom_site_fract_x
 _atom_site_fract_y
 _atom_site_fract_z
 _atom_site_occupancy
  Ho  Ho0  1  0.591475  0.005757  0.500000  1
  Ho  Ho1  1  0.419862  0.413341  0.500000  1
  Ho  Ho2  1  0.994160  0.583121  0.500000  1
  Al  Al3  1  0.763328  0.752839  0.000000  1
  Al  Al4  1  0.982696  0.233786  0.000000  1
  In  In5  1  0.252215  0.009935  0.000000  1
  Ge  Ge6  1  0.334609  0.655878  0.000000  1
  Pt  Pt7  1  0.683097  0.346047  0.000000  1
  Pt  Pt8  1  0.978558  0.999296  0.500000  1
