# generated using pymatgen
data_Li6Al5Rh12W
_symmetry_space_group_name_H-M   'P 1'
_cell_length_a   4.19198100
_cell_length_b   5.98457200
_cell_length_c   12.69264501
_cell_angle_alpha   90.00000000
_cell_angle_beta   89.99555558
_cell_angle_gamma   90.00000000
_symmetry_Int_Tables_number   1
_chemical_formula_structural   Li6Al5Rh12W
_chemical_formula_sum   'Li6 Al5 Rh12 W1'
_cell_volume   318.42307696
_cell_formula_units_Z   1
loop_
 _symmetry_equiv_pos_site_id
 _symmetry_equiv_pos_as_xyz
  1  'x, y, z'
loop_
 _atom_site_type_symbol
 _atom_site_label
 _atom_site_symmetry_multiplicity
 _atom_site_fract_x
 _atom_site_fract_y
 _atom_site_fract_z
 _atom_site_occupancy
  Li  Li0  1  0.000000  0.500001  0.000000  1
  Li  Li1  1  0.499754  0.000000  0.167829  1
  Li  Li2  1  0.999712  0.500001  0.334886  1
  Li  Li3  1  0.500000  0.000000  0.500000  1
  Li  Li4  1  0.000289  0.500001  0.665114  1
  Li  Li5  1  0.500246  0.000000  0.832171  1
  Al  Al6  1  0.499782  0.500001  0.171226  1
  Al  Al7  1  0.999757  0.000000  0.335075  1
  Al  Al8  1  0.500000  0.500001  0.500000  1
  Al  Al9  1  0.000244  0.000000  0.664925  1
  Al  Al10  1  0.500219  0.500001  0.828774  1
  Rh  Rh11  1  0.500000  0.254477  0.000000  1
  Rh  Rh12  1  0.500000  0.745523  0.000000  1
  Rh  Rh13  1  0.999802  0.249852  0.164750  1
  Rh  Rh14  1  0.999802  0.750147  0.164750  1
  Rh  Rh15  1  0.499760  0.249580  0.332885  1
  Rh  Rh16  1  0.499760  0.750420  0.332885  1
  Rh  Rh17  1  0.000000  0.249895  0.500000  1
  Rh  Rh18  1  0.000000  0.750106  0.500000  1
  Rh  Rh19  1  0.500240  0.249580  0.667114  1
  Rh  Rh20  1  0.500240  0.750420  0.667114  1
  Rh  Rh21  1  0.000199  0.249852  0.835250  1
  Rh  Rh22  1  0.000199  0.750147  0.835250  1
  W  W23  1  0.000000  0.000000  0.000000  1
