# generated using pymatgen
data_CeDy3CdRu
_symmetry_space_group_name_H-M   'P 1'
_cell_length_a   9.63501460
_cell_length_b   9.63501399
_cell_length_c   9.63501400
_cell_angle_alpha   59.99999311
_cell_angle_beta   59.99999518
_cell_angle_gamma   59.99998877
_symmetry_Int_Tables_number   1
_chemical_formula_structural   CeDy3CdRu
_chemical_formula_sum   'Ce4 Dy12 Cd4 Ru4'
_cell_volume   632.47301902
_cell_formula_units_Z   4
loop_
 _symmetry_equiv_pos_site_id
 _symmetry_equiv_pos_as_xyz
  1  'x, y, z'
loop_
 _atom_site_type_symbol
 _atom_site_label
 _atom_site_symmetry_multiplicity
 _atom_site_fract_x
 _atom_site_fract_y
 _atom_site_fract_z
 _atom_site_occupancy
  Ce  Ce0  1  0.346151  0.346151  0.961549  1
  Ce  Ce1  1  0.346151  0.961549  0.346151  1
  Ce  Ce2  1  0.961549  0.346151  0.346151  1
  Ce  Ce3  1  0.346151  0.346151  0.346151  1
  Dy  Dy4  1  0.562541  0.562541  0.937459  1
  Dy  Dy5  1  0.937459  0.562541  0.937459  1
  Dy  Dy6  1  0.562541  0.937459  0.937459  1
  Dy  Dy7  1  0.937459  0.937459  0.562541  1
  Dy  Dy8  1  0.562541  0.937459  0.562541  1
  Dy  Dy9  1  0.937459  0.562541  0.562541  1
  Dy  Dy10  1  0.188465  0.188465  0.811535  1
  Dy  Dy11  1  0.811535  0.188465  0.811535  1
  Dy  Dy12  1  0.188464  0.811536  0.811535  1
  Dy  Dy13  1  0.811535  0.811536  0.188465  1
  Dy  Dy14  1  0.188464  0.811535  0.188464  1
  Dy  Dy15  1  0.811535  0.188465  0.188465  1
  Cd  Cd16  1  0.580932  0.580932  0.257201  1
  Cd  Cd17  1  0.580932  0.257201  0.580932  1
  Cd  Cd18  1  0.257201  0.580932  0.580932  1
  Cd  Cd19  1  0.580932  0.580932  0.580932  1
  Ru  Ru20  1  0.144769  0.144769  0.565695  1
  Ru  Ru21  1  0.144769  0.565695  0.144769  1
  Ru  Ru22  1  0.565695  0.144769  0.144769  1
  Ru  Ru23  1  0.144769  0.144769  0.144769  1
