# generated using pymatgen
data_Mn4Sb2O9
_symmetry_space_group_name_H-M   'P 1'
_cell_length_a   5.43435500
_cell_length_b   5.43418898
_cell_length_c   14.46683900
_cell_angle_alpha   90.00031355
_cell_angle_beta   90.00016506
_cell_angle_gamma   120.00135385
_symmetry_Int_Tables_number   1
_chemical_formula_structural   Mn4Sb2O9
_chemical_formula_sum   'Mn8 Sb4 O18'
_cell_volume   369.98242763
_cell_formula_units_Z   2
loop_
 _symmetry_equiv_pos_site_id
 _symmetry_equiv_pos_as_xyz
  1  'x, y, z'
loop_
 _atom_site_type_symbol
 _atom_site_label
 _atom_site_symmetry_multiplicity
 _atom_site_fract_x
 _atom_site_fract_y
 _atom_site_fract_z
 _atom_site_occupancy
  Mn  Mn0  1  0.666673  0.333329  0.478683  1
  Mn  Mn1  1  0.666678  0.333337  0.978684  1
  Mn  Mn2  1  0.666639  0.333334  0.690505  1
  Mn  Mn3  1  0.666682  0.333318  0.190520  1
  Mn  Mn4  1  0.333332  0.666666  0.021333  1
  Mn  Mn5  1  0.333319  0.666644  0.521312  1
  Mn  Mn6  1  0.333323  0.666661  0.809490  1
  Mn  Mn7  1  0.333350  0.666716  0.309484  1
  Sb  Sb8  1  0.000003  0.000030  0.354537  1
  Sb  Sb9  1  0.000000  0.999986  0.145468  1
  Sb  Sb10  1  0.999983  0.000002  0.645459  1
  Sb  Sb11  1  0.999987  0.999986  0.854544  1
  O  O12  1  0.274907  0.000016  0.249995  1
  O  O13  1  0.000044  0.274925  0.250002  1
  O  O14  1  0.725104  0.725097  0.249995  1
  O  O15  1  0.725098  0.000003  0.749993  1
  O  O16  1  0.999993  0.725091  0.749995  1
  O  O17  1  0.274884  0.274895  0.749999  1
  O  O18  1  0.687821  0.657669  0.587305  1
  O  O19  1  0.342308  0.030139  0.587309  1
  O  O20  1  0.969846  0.312166  0.587308  1
  O  O21  1  0.030152  0.342316  0.912691  1
  O  O22  1  0.312174  0.969847  0.912690  1
  O  O23  1  0.657673  0.687813  0.912693  1
  O  O24  1  0.312195  0.342339  0.412683  1
  O  O25  1  0.657669  0.969859  0.412683  1
  O  O26  1  0.030145  0.687827  0.412681  1
  O  O27  1  0.969849  0.657664  0.087321  1
  O  O28  1  0.687833  0.030154  0.087319  1
  O  O29  1  0.342337  0.312169  0.087320  1
