# generated using pymatgen
data_Rb8TbSm3F20
_symmetry_space_group_name_H-M   'P 1'
_cell_length_a   7.01133573
_cell_length_b   7.59095600
_cell_length_c   11.57810656
_cell_angle_alpha   90.00000000
_cell_angle_beta   90.10140488
_cell_angle_gamma   90.00000000
_symmetry_Int_Tables_number   1
_chemical_formula_structural   Rb8TbSm3F20
_chemical_formula_sum   'Rb8 Tb1 Sm3 F20'
_cell_volume   616.21760185
_cell_formula_units_Z   1
loop_
 _symmetry_equiv_pos_site_id
 _symmetry_equiv_pos_as_xyz
  1  'x, y, z'
loop_
 _atom_site_type_symbol
 _atom_site_label
 _atom_site_symmetry_multiplicity
 _atom_site_fract_x
 _atom_site_fract_y
 _atom_site_fract_z
 _atom_site_occupancy
  Rb  Rb0  1  0.530302  0.499423  0.828935  1
  Rb  Rb1  1  0.470662  0.502247  0.170999  1
  Rb  Rb2  1  0.029729  0.501846  0.672471  1
  Rb  Rb3  1  0.470662  0.997753  0.170999  1
  Rb  Rb4  1  0.969997  0.499189  0.327583  1
  Rb  Rb5  1  0.530302  0.000577  0.828935  1
  Rb  Rb6  1  0.969997  0.000811  0.327583  1
  Rb  Rb7  1  0.029729  0.998154  0.672471  1
  Tb  Tb8  1  0.939873  0.750000  0.001327  1
  Sm  Sm9  1  0.561169  0.750000  0.501913  1
  Sm  Sm10  1  0.438606  0.250000  0.498029  1
  Sm  Sm11  1  0.059704  0.250000  0.998387  1
  F  F12  1  0.844309  0.750000  0.817169  1
  F  F13  1  0.157331  0.250000  0.185997  1
  F  F14  1  0.342252  0.250000  0.685980  1
  F  F15  1  0.657109  0.750000  0.314367  1
  F  F16  1  0.370496  0.750000  0.660399  1
  F  F17  1  0.629653  0.250000  0.339475  1
  F  F18  1  0.870245  0.250000  0.839188  1
  F  F19  1  0.125437  0.750000  0.157057  1
  F  F20  1  0.882995  0.750000  0.515247  1
  F  F21  1  0.117003  0.250000  0.484995  1
  F  F22  1  0.380757  0.250000  0.984500  1
  F  F23  1  0.624051  0.750000  0.015667  1
  F  F24  1  0.640628  0.032882  0.574793  1
  F  F25  1  0.359251  0.966973  0.425145  1
  F  F26  1  0.138163  0.963594  0.926953  1
  F  F27  1  0.359251  0.533027  0.425145  1
  F  F28  1  0.860773  0.029671  0.073273  1
  F  F29  1  0.640628  0.467118  0.574793  1
  F  F30  1  0.860773  0.470329  0.073273  1
  F  F31  1  0.138163  0.536406  0.926953  1
