# generated using pymatgen
data_Tb4Er4Tc(B8Ir)3
_symmetry_space_group_name_H-M   'P 1'
_cell_length_a   3.65897300
_cell_length_b   9.16493725
_cell_length_c   11.51298007
_cell_angle_alpha   89.89985213
_cell_angle_beta   90.00000000
_cell_angle_gamma   90.00000000
_symmetry_Int_Tables_number   1
_chemical_formula_structural   Tb4Er4Tc(B8Ir)3
_chemical_formula_sum   'Tb4 Er4 Tc1 B24 Ir3'
_cell_volume   386.07865387
_cell_formula_units_Z   1
loop_
 _symmetry_equiv_pos_site_id
 _symmetry_equiv_pos_as_xyz
  1  'x, y, z'
loop_
 _atom_site_type_symbol
 _atom_site_label
 _atom_site_symmetry_multiplicity
 _atom_site_fract_x
 _atom_site_fract_y
 _atom_site_fract_z
 _atom_site_occupancy
  Tb  Tb0  1  0.000000  0.324041  0.412398  1
  Tb  Tb1  1  0.000000  0.679308  0.582679  1
  Tb  Tb2  1  0.000000  0.817354  0.089802  1
  Tb  Tb3  1  0.000000  0.179424  0.913949  1
  Er  Er4  1  0.000000  0.941853  0.374314  1
  Er  Er5  1  0.000000  0.056548  0.626173  1
  Er  Er6  1  0.000000  0.446604  0.127172  1
  Er  Er7  1  0.000000  0.556388  0.873182  1
  Tc  Tc8  1  0.000000  0.637821  0.320916  1
  B  B9  1  0.500000  0.553750  0.432867  1
  B  B10  1  0.500000  0.445990  0.566661  1
  B  B11  1  0.500000  0.053013  0.066969  1
  B  B12  1  0.500000  0.946022  0.933694  1
  B  B13  1  0.500000  0.748490  0.419151  1
  B  B14  1  0.500000  0.250348  0.579632  1
  B  B15  1  0.500000  0.250405  0.079949  1
  B  B16  1  0.500000  0.749163  0.919888  1
  B  B17  1  0.500000  0.791515  0.265932  1
  B  B18  1  0.500000  0.207289  0.735036  1
  B  B19  1  0.500000  0.292026  0.233611  1
  B  B20  1  0.500000  0.708086  0.765092  1
  B  B21  1  0.500000  0.630823  0.185286  1
  B  B22  1  0.500000  0.368347  0.816012  1
  B  B23  1  0.500000  0.130963  0.315869  1
  B  B24  1  0.500000  0.869482  0.684001  1
  B  B25  1  0.500000  0.982096  0.214338  1
  B  B26  1  0.500000  0.018332  0.786845  1
  B  B27  1  0.500000  0.483193  0.286489  1
  B  B28  1  0.500000  0.517782  0.713237  1
  B  B29  1  0.500000  0.606948  0.028238  1
  B  B30  1  0.500000  0.392570  0.970165  1
  B  B31  1  0.500000  0.108519  0.470787  1
  B  B32  1  0.500000  0.893495  0.530298  1
  Ir  Ir33  1  0.000000  0.362144  0.679233  1
  Ir  Ir34  1  0.000000  0.137647  0.178484  1
  Ir  Ir35  1  0.000000  0.862221  0.821649  1
