# generated using pymatgen
data_V12Fe9Si3C4
_symmetry_space_group_name_H-M   'P 1'
_cell_length_a   7.62173420
_cell_length_b   7.62173446
_cell_length_c   7.62173432
_cell_angle_alpha   59.65986562
_cell_angle_beta   59.65986587
_cell_angle_gamma   59.65986742
_symmetry_Int_Tables_number   1
_chemical_formula_structural   V12Fe9Si3C4
_chemical_formula_sum   'V12 Fe9 Si3 C4'
_cell_volume   310.65414606
_cell_formula_units_Z   1
loop_
 _symmetry_equiv_pos_site_id
 _symmetry_equiv_pos_as_xyz
  1  'x, y, z'
loop_
 _atom_site_type_symbol
 _atom_site_label
 _atom_site_symmetry_multiplicity
 _atom_site_fract_x
 _atom_site_fract_y
 _atom_site_fract_z
 _atom_site_occupancy
  V  V0  1  0.803188  0.803188  0.196293  1
  V  V1  1  0.193553  0.193553  0.805478  1
  V  V2  1  0.803188  0.196293  0.803188  1
  V  V3  1  0.193553  0.805478  0.193553  1
  V  V4  1  0.196293  0.803188  0.803188  1
  V  V5  1  0.805478  0.193553  0.193553  1
  V  V6  1  0.446812  0.446812  0.053707  1
  V  V7  1  0.056447  0.056447  0.444522  1
  V  V8  1  0.446812  0.053707  0.446812  1
  V  V9  1  0.056447  0.444522  0.056447  1
  V  V10  1  0.053707  0.446812  0.446812  1
  V  V11  1  0.444522  0.056447  0.056447  1
  Fe  Fe12  1  0.625000  0.625000  0.625000  1
  Fe  Fe13  1  0.748520  0.417720  0.417720  1
  Fe  Fe14  1  0.417720  0.748520  0.417720  1
  Fe  Fe15  1  0.417720  0.417720  0.748520  1
  Fe  Fe16  1  0.416823  0.416823  0.416823  1
  Fe  Fe17  1  0.501480  0.832280  0.832280  1
  Fe  Fe18  1  0.832280  0.501480  0.832280  1
  Fe  Fe19  1  0.832280  0.832280  0.501480  1
  Fe  Fe20  1  0.833177  0.833177  0.833177  1
  Si  Si21  1  0.125000  0.625000  0.625000  1
  Si  Si22  1  0.625000  0.125000  0.625000  1
  Si  Si23  1  0.625000  0.625000  0.125000  1
  C  C24  1  0.625000  0.125000  0.125000  1
  C  C25  1  0.125000  0.625000  0.125000  1
  C  C26  1  0.125000  0.125000  0.625000  1
  C  C27  1  0.125000  0.125000  0.125000  1
