# generated using pymatgen
data_Pa4Tc2Ge6Os5
_symmetry_space_group_name_H-M   'P 1'
_cell_length_a   7.28810638
_cell_length_b   7.28810663
_cell_length_c   7.28810710
_cell_angle_alpha   109.63056101
_cell_angle_beta   109.63055911
_cell_angle_gamma   109.15300280
_symmetry_Int_Tables_number   1
_chemical_formula_structural   Pa4Tc2Ge6Os5
_chemical_formula_sum   'Pa4 Tc2 Ge6 Os5'
_cell_volume   297.99726148
_cell_formula_units_Z   1
loop_
 _symmetry_equiv_pos_site_id
 _symmetry_equiv_pos_as_xyz
  1  'x, y, z'
loop_
 _atom_site_type_symbol
 _atom_site_label
 _atom_site_symmetry_multiplicity
 _atom_site_fract_x
 _atom_site_fract_y
 _atom_site_fract_z
 _atom_site_occupancy
  Pa  Pa0  1  0.998852  0.001148  0.500000  1
  Pa  Pa1  1  0.998852  0.498852  0.997703  1
  Pa  Pa2  1  0.501148  0.001148  0.002297  1
  Pa  Pa3  1  0.501148  0.498852  0.500000  1
  Tc  Tc4  1  0.750000  0.250000  0.500000  1
  Tc  Tc5  1  0.000000  0.000000  0.000000  1
  Ge  Ge6  1  0.688996  0.688996  0.000000  1
  Ge  Ge7  1  0.310897  0.999737  0.311160  1
  Ge  Ge8  1  0.000263  0.311423  0.311160  1
  Ge  Ge9  1  0.311004  0.311004  0.000000  1
  Ge  Ge10  1  0.688577  0.999737  0.688840  1
  Ge  Ge11  1  0.000263  0.689103  0.688840  1
  Os  Os12  1  0.750441  0.500396  0.250045  1
  Os  Os13  1  0.499604  0.249559  0.749955  1
  Os  Os14  1  0.250351  0.500396  0.749955  1
  Os  Os15  1  0.250000  0.750000  0.500000  1
  Os  Os16  1  0.499604  0.749649  0.250045  1
