# generated using pymatgen
data_Ho3TmGa7Ag5
_symmetry_space_group_name_H-M   'P 1'
_cell_length_a   4.34089300
_cell_length_b   6.99653133
_cell_length_c   10.29730900
_cell_angle_alpha   89.98308954
_cell_angle_beta   90.00000000
_cell_angle_gamma   90.00000000
_symmetry_Int_Tables_number   1
_chemical_formula_structural   Ho3TmGa7Ag5
_chemical_formula_sum   'Ho3 Tm1 Ga7 Ag5'
_cell_volume   312.74155426
_cell_formula_units_Z   1
loop_
 _symmetry_equiv_pos_site_id
 _symmetry_equiv_pos_as_xyz
  1  'x, y, z'
loop_
 _atom_site_type_symbol
 _atom_site_label
 _atom_site_symmetry_multiplicity
 _atom_site_fract_x
 _atom_site_fract_y
 _atom_site_fract_z
 _atom_site_occupancy
  Ho  Ho0  1  0.500000  0.780895  0.173062  1
  Ho  Ho1  1  0.500000  0.277170  0.327846  1
  Ho  Ho2  1  0.000000  0.216361  0.828944  1
  Tm  Tm3  1  0.000000  0.723316  0.670478  1
  Ga  Ga4  1  0.500000  0.923704  0.846110  1
  Ga  Ga5  1  0.500000  0.427022  0.655341  1
  Ga  Ga6  1  0.000000  0.077330  0.153552  1
  Ga  Ga7  1  0.000000  0.574132  0.344247  1
  Ga  Ga8  1  0.500000  0.202241  0.035738  1
  Ga  Ga9  1  0.000000  0.300145  0.535548  1
  Ga  Ga10  1  0.000000  0.796482  0.964149  1
  Ag  Ag11  1  0.500000  0.541427  0.903624  1
  Ag  Ag12  1  0.500000  0.046287  0.600681  1
  Ag  Ag13  1  0.000000  0.457137  0.096649  1
  Ag  Ag14  1  0.000000  0.960256  0.401367  1
  Ag  Ag15  1  0.500000  0.696094  0.462664  1
