# generated using pymatgen
data_Tb4Hf3RhF28
_symmetry_space_group_name_H-M   'P 1'
_cell_length_a   5.67699419
_cell_length_b   9.04420570
_cell_length_c   12.14323044
_cell_angle_alpha   62.44108333
_cell_angle_beta   90.17242346
_cell_angle_gamma   89.95977110
_symmetry_Int_Tables_number   1
_chemical_formula_structural   Tb4Hf3RhF28
_chemical_formula_sum   'Tb4 Hf3 Rh1 F28'
_cell_volume   552.73389286
_cell_formula_units_Z   1
loop_
 _symmetry_equiv_pos_site_id
 _symmetry_equiv_pos_as_xyz
  1  'x, y, z'
loop_
 _atom_site_type_symbol
 _atom_site_label
 _atom_site_symmetry_multiplicity
 _atom_site_fract_x
 _atom_site_fract_y
 _atom_site_fract_z
 _atom_site_occupancy
  Tb  Tb0  1  0.261247  0.813966  0.268313  1
  Tb  Tb1  1  0.742274  0.185547  0.733852  1
  Tb  Tb2  1  0.757423  0.185678  0.233952  1
  Tb  Tb3  1  0.239237  0.813842  0.760688  1
  Hf  Hf4  1  0.756543  0.726697  0.043143  1
  Hf  Hf5  1  0.244776  0.274390  0.955302  1
  Hf  Hf6  1  0.255335  0.274577  0.456527  1
  Rh  Rh7  1  0.740949  0.726710  0.544277  1
  F  F8  1  0.936316  0.708227  0.421040  1
  F  F9  1  0.041380  0.289723  0.581347  1
  F  F10  1  0.458850  0.290836  0.080720  1
  F  F11  1  0.540032  0.711109  0.918521  1
  F  F12  1  0.483408  0.732301  0.145897  1
  F  F13  1  0.519826  0.269224  0.853908  1
  F  F14  1  0.978426  0.265405  0.356852  1
  F  F15  1  0.024333  0.728270  0.639298  1
  F  F16  1  0.964275  0.747303  0.171103  1
  F  F17  1  0.039522  0.253103  0.827705  1
  F  F18  1  0.462659  0.252787  0.329451  1
  F  F19  1  0.549319  0.743166  0.670949  1
  F  F20  1  0.773915  0.477361  0.140084  1
  F  F21  1  0.228117  0.523136  0.858921  1
  F  F22  1  0.264908  0.523738  0.359807  1
  F  F23  1  0.731166  0.486270  0.640170  1
  F  F24  1  0.952105  0.278071  0.048327  1
  F  F25  1  0.047185  0.722813  0.949269  1
  F  F26  1  0.450087  0.719705  0.454935  1
  F  F27  1  0.549039  0.282624  0.547401  1
  F  F28  1  0.744684  0.967027  0.452158  1
  F  F29  1  0.262628  0.026050  0.555472  1
  F  F30  1  0.242394  0.026151  0.058332  1
  F  F31  1  0.759230  0.975687  0.942384  1
  F  F32  1  0.579600  0.971616  0.233420  1
  F  F33  1  0.421005  0.028271  0.764959  1
  F  F34  1  0.077235  0.026794  0.270403  1
  F  F35  1  0.920571  0.971822  0.731118  1
