# generated using pymatgen
data_Ca21Ga8Si6Ag
_symmetry_space_group_name_H-M   'P 1'
_cell_length_a   11.13616853
_cell_length_b   11.13616909
_cell_length_c   11.13616800
_cell_angle_alpha   60.00000322
_cell_angle_beta   60.00000157
_cell_angle_gamma   59.99999755
_symmetry_Int_Tables_number   1
_chemical_formula_structural   Ca21Ga8Si6Ag
_chemical_formula_sum   'Ca21 Ga8 Si6 Ag1'
_cell_volume   976.54530204
_cell_formula_units_Z   1
loop_
 _symmetry_equiv_pos_site_id
 _symmetry_equiv_pos_as_xyz
  1  'x, y, z'
loop_
 _atom_site_type_symbol
 _atom_site_label
 _atom_site_symmetry_multiplicity
 _atom_site_fract_x
 _atom_site_fract_y
 _atom_site_fract_z
 _atom_site_occupancy
  Ca  Ca0  1  0.873516  0.873516  0.379451  1
  Ca  Ca1  1  0.620549  0.126484  0.126484  1
  Ca  Ca2  1  0.873516  0.379451  0.873516  1
  Ca  Ca3  1  0.126484  0.126484  0.126484  1
  Ca  Ca4  1  0.379451  0.873516  0.873516  1
  Ca  Ca5  1  0.873516  0.873516  0.873516  1
  Ca  Ca6  1  0.176341  0.823659  0.500000  1
  Ca  Ca7  1  0.823659  0.500000  0.500000  1
  Ca  Ca8  1  0.126484  0.126484  0.620549  1
  Ca  Ca9  1  0.823659  0.176341  0.500000  1
  Ca  Ca10  1  0.176341  0.500000  0.500000  1
  Ca  Ca11  1  0.126484  0.620549  0.126484  1
  Ca  Ca12  1  0.500000  0.500000  0.176341  1
  Ca  Ca13  1  0.500000  0.176341  0.823659  1
  Ca  Ca14  1  0.500000  0.823659  0.176341  1
  Ca  Ca15  1  0.500000  0.500000  0.823659  1
  Ca  Ca16  1  0.500000  0.176341  0.500000  1
  Ca  Ca17  1  0.176341  0.500000  0.823659  1
  Ca  Ca18  1  0.000000  0.000000  0.000000  1
  Ca  Ca19  1  0.500000  0.823659  0.500000  1
  Ca  Ca20  1  0.823659  0.500000  0.176341  1
  Ga  Ga21  1  0.690415  0.928755  0.690415  1
  Ga  Ga22  1  0.690415  0.690415  0.928755  1
  Ga  Ga23  1  0.690415  0.690415  0.690415  1
  Ga  Ga24  1  0.309585  0.071245  0.309585  1
  Ga  Ga25  1  0.928755  0.690415  0.690415  1
  Ga  Ga26  1  0.309585  0.309585  0.071245  1
  Ga  Ga27  1  0.071245  0.309585  0.309585  1
  Ga  Ga28  1  0.309585  0.309585  0.309585  1
  Si  Si29  1  0.784582  0.215418  0.784582  1
  Si  Si30  1  0.784582  0.215418  0.215418  1
  Si  Si31  1  0.215418  0.784582  0.215418  1
  Si  Si32  1  0.215418  0.784582  0.784582  1
  Si  Si33  1  0.784582  0.784582  0.215418  1
  Si  Si34  1  0.215418  0.215418  0.784582  1
  Ag  Ag35  1  0.500000  0.500000  0.500000  1
