# generated using pymatgen
data_Sm7Tm13Sn16
_symmetry_space_group_name_H-M   'P 1'
_cell_length_a   8.02392944
_cell_length_b   8.16602366
_cell_length_c   15.40978251
_cell_angle_alpha   90.02745086
_cell_angle_beta   90.17486510
_cell_angle_gamma   89.80848097
_symmetry_Int_Tables_number   1
_chemical_formula_structural   Sm7Tm13Sn16
_chemical_formula_sum   'Sm7 Tm13 Sn16'
_cell_volume   1009.69393598
_cell_formula_units_Z   1
loop_
 _symmetry_equiv_pos_site_id
 _symmetry_equiv_pos_as_xyz
  1  'x, y, z'
loop_
 _atom_site_type_symbol
 _atom_site_label
 _atom_site_symmetry_multiplicity
 _atom_site_fract_x
 _atom_site_fract_y
 _atom_site_fract_z
 _atom_site_occupancy
  Sm  Sm0  1  0.019241  0.179415  0.597933  1
  Sm  Sm1  1  0.480866  0.678941  0.402978  1
  Sm  Sm2  1  0.980270  0.821030  0.096762  1
  Sm  Sm3  1  0.479937  0.678127  0.096648  1
  Sm  Sm4  1  0.981072  0.821032  0.403059  1
  Sm  Sm5  1  0.518632  0.321333  0.596556  1
  Sm  Sm6  1  0.019243  0.179725  0.902880  1
  Tm  Tm7  1  0.365851  0.835890  0.877055  1
  Tm  Tm8  1  0.864971  0.663646  0.623110  1
  Tm  Tm9  1  0.634516  0.164048  0.377145  1
  Tm  Tm10  1  0.133263  0.336085  0.122236  1
  Tm  Tm11  1  0.633280  0.164702  0.122202  1
  Tm  Tm12  1  0.134724  0.335992  0.377312  1
  Tm  Tm13  1  0.365584  0.836322  0.623595  1
  Tm  Tm14  1  0.865976  0.663359  0.877507  1
  Tm  Tm15  1  0.522201  0.321711  0.901763  1
  Tm  Tm16  1  0.198016  0.503593  0.750855  1
  Tm  Tm17  1  0.697060  0.995943  0.750614  1
  Tm  Tm18  1  0.802380  0.495563  0.249780  1
  Tm  Tm19  1  0.302582  0.004457  0.249759  1
  Sn  Sn20  1  0.297766  0.038529  0.041745  1
  Sn  Sn21  1  0.798045  0.460892  0.458276  1
  Sn  Sn22  1  0.701919  0.961425  0.542053  1
  Sn  Sn23  1  0.206862  0.535400  0.957236  1
  Sn  Sn24  1  0.700760  0.963798  0.957583  1
  Sn  Sn25  1  0.201617  0.539525  0.541986  1
  Sn  Sn26  1  0.298169  0.038638  0.458412  1
  Sn  Sn27  1  0.794771  0.459781  0.040393  1
  Sn  Sn28  1  0.563539  0.621665  0.750344  1
  Sn  Sn29  1  0.063507  0.876854  0.750167  1
  Sn  Sn30  1  0.436045  0.377351  0.249823  1
  Sn  Sn31  1  0.936118  0.123167  0.249870  1
  Sn  Sn32  1  0.330697  0.146742  0.751842  1
  Sn  Sn33  1  0.826220  0.355408  0.750669  1
  Sn  Sn34  1  0.672014  0.855530  0.249840  1
  Sn  Sn35  1  0.172284  0.644379  0.250013  1
