# generated using pymatgen
data_La3Nd(Re2Si)8
_symmetry_space_group_name_H-M   'P 1'
_cell_length_a   4.17155400
_cell_length_b   7.36880304
_cell_length_c   15.58036500
_cell_angle_alpha   89.96957465
_cell_angle_beta   90.00000000
_cell_angle_gamma   90.00000000
_symmetry_Int_Tables_number   1
_chemical_formula_structural   La3Nd(Re2Si)8
_chemical_formula_sum   'La3 Nd1 Re16 Si8'
_cell_volume   478.93037791
_cell_formula_units_Z   1
loop_
 _symmetry_equiv_pos_site_id
 _symmetry_equiv_pos_as_xyz
  1  'x, y, z'
loop_
 _atom_site_type_symbol
 _atom_site_label
 _atom_site_symmetry_multiplicity
 _atom_site_fract_x
 _atom_site_fract_y
 _atom_site_fract_z
 _atom_site_occupancy
  La  La0  1  0.000000  0.578644  0.118214  1
  La  La1  1  0.000000  0.421690  0.881348  1
  La  La2  1  0.500000  0.077932  0.382366  1
  Nd  Nd3  1  0.500000  0.921058  0.618364  1
  Re  Re4  1  0.000000  0.136228  0.052306  1
  Re  Re5  1  0.000000  0.864248  0.947473  1
  Re  Re6  1  0.500000  0.635942  0.448503  1
  Re  Re7  1  0.500000  0.361718  0.552689  1
  Re  Re8  1  0.000000  0.732213  0.321155  1
  Re  Re9  1  0.000000  0.267394  0.678820  1
  Re  Re10  1  0.500000  0.231944  0.179582  1
  Re  Re11  1  0.500000  0.768896  0.820037  1
  Re  Re12  1  0.000000  0.432593  0.419003  1
  Re  Re13  1  0.000000  0.567220  0.581948  1
  Re  Re14  1  0.500000  0.933125  0.081410  1
  Re  Re15  1  0.500000  0.067191  0.918406  1
  Re  Re16  1  0.000000  0.991060  0.206616  1
  Re  Re17  1  0.000000  0.008778  0.792870  1
  Re  Re18  1  0.500000  0.490875  0.293901  1
  Re  Re19  1  0.500000  0.511000  0.705727  1
  Si  Si20  1  0.000000  0.824982  0.475947  1
  Si  Si21  1  0.000000  0.173478  0.525056  1
  Si  Si22  1  0.500000  0.324318  0.024756  1
  Si  Si23  1  0.500000  0.676001  0.974889  1
  Si  Si24  1  0.000000  0.292576  0.273754  1
  Si  Si25  1  0.000000  0.709227  0.725706  1
  Si  Si26  1  0.500000  0.792454  0.226587  1
  Si  Si27  1  0.500000  0.207210  0.772570  1
