# generated using pymatgen
data_Li(HoIr)2
_symmetry_space_group_name_H-M   'P 1'
_cell_length_a   4.17236634
_cell_length_b   5.41398023
_cell_length_c   5.41398088
_cell_angle_alpha   65.46642771
_cell_angle_beta   67.33562791
_cell_angle_gamma   67.33562352
_symmetry_Int_Tables_number   1
_chemical_formula_structural   Li(HoIr)2
_chemical_formula_sum   'Li1 Ho2 Ir2'
_cell_volume   98.89673314
_cell_formula_units_Z   1
loop_
 _symmetry_equiv_pos_site_id
 _symmetry_equiv_pos_as_xyz
  1  'x, y, z'
loop_
 _atom_site_type_symbol
 _atom_site_label
 _atom_site_symmetry_multiplicity
 _atom_site_fract_x
 _atom_site_fract_y
 _atom_site_fract_z
 _atom_site_occupancy
  Li  Li0  1  0.000000  0.000000  0.000000  1
  Ho  Ho1  1  0.206507  0.293493  0.293493  1
  Ho  Ho2  1  0.793493  0.706507  0.706507  1
  Ir  Ir3  1  0.500000  0.272617  0.727383  1
  Ir  Ir4  1  0.500000  0.727383  0.272617  1
