# generated using pymatgen
data_Sc6Al6Si2GePt3
_symmetry_space_group_name_H-M   'P 1'
_cell_length_a   6.69614000
_cell_length_b   6.69614057
_cell_length_c   8.16439300
_cell_angle_alpha   90.00000000
_cell_angle_beta   90.00000000
_cell_angle_gamma   119.99999721
_symmetry_Int_Tables_number   1
_chemical_formula_structural   Sc6Al6Si2GePt3
_chemical_formula_sum   'Sc6 Al6 Si2 Ge1 Pt3'
_cell_volume   317.03238839
_cell_formula_units_Z   1
loop_
 _symmetry_equiv_pos_site_id
 _symmetry_equiv_pos_as_xyz
  1  'x, y, z'
loop_
 _atom_site_type_symbol
 _atom_site_label
 _atom_site_symmetry_multiplicity
 _atom_site_fract_x
 _atom_site_fract_y
 _atom_site_fract_z
 _atom_site_occupancy
  Sc  Sc0  1  0.576846  0.996790  0.751635  1
  Sc  Sc1  1  0.003210  0.580055  0.751635  1
  Sc  Sc2  1  0.419945  0.423154  0.751635  1
  Sc  Sc3  1  0.003012  0.579958  0.248285  1
  Sc  Sc4  1  0.576946  0.996988  0.248285  1
  Sc  Sc5  1  0.420042  0.423054  0.248285  1
  Al  Al6  1  0.749610  0.764856  0.999995  1
  Al  Al7  1  0.235144  0.984755  0.999995  1
  Al  Al8  1  0.015245  0.250390  0.999995  1
  Al  Al9  1  0.756799  0.755831  0.500003  1
  Al  Al10  1  0.244169  0.000968  0.500003  1
  Al  Al11  1  0.999032  0.243201  0.500003  1
  Si  Si12  1  0.666667  0.333333  0.500086  1
  Si  Si13  1  0.333333  0.666667  0.500014  1
  Ge  Ge14  1  0.666667  0.333333  0.999994  1
  Pt  Pt15  1  0.000000  0.000000  0.747552  1
  Pt  Pt16  1  0.000000  0.000000  0.252419  1
  Pt  Pt17  1  0.333333  0.666667  0.000179  1
