# generated using pymatgen
data_ErMgScB2Ir5
_symmetry_space_group_name_H-M   'P 1'
_cell_length_a   3.07475900
_cell_length_b   9.64437397
_cell_length_c   9.64437397
_cell_angle_alpha   88.75526050
_cell_angle_beta   90.00000000
_cell_angle_gamma   90.00000000
_symmetry_Int_Tables_number   1
_chemical_formula_structural   ErMgScB2Ir5
_chemical_formula_sum   'Er2 Mg2 Sc2 B4 Ir10'
_cell_volume   285.92799025
_cell_formula_units_Z   2
loop_
 _symmetry_equiv_pos_site_id
 _symmetry_equiv_pos_as_xyz
  1  'x, y, z'
loop_
 _atom_site_type_symbol
 _atom_site_label
 _atom_site_symmetry_multiplicity
 _atom_site_fract_x
 _atom_site_fract_y
 _atom_site_fract_z
 _atom_site_occupancy
  Er  Er0  1  0.000000  0.179030  0.679030  1
  Er  Er1  1  0.000000  0.820970  0.320970  1
  Mg  Mg2  1  0.000000  0.000000  0.000000  1
  Mg  Mg3  1  0.000000  0.500000  0.500000  1
  Sc  Sc4  1  0.000000  0.322867  0.177133  1
  Sc  Sc5  1  0.000000  0.677133  0.822867  1
  B  B6  1  0.000000  0.623535  0.123535  1
  B  B7  1  0.000000  0.376465  0.876465  1
  B  B8  1  0.000000  0.873695  0.626305  1
  B  B9  1  0.000000  0.126305  0.373695  1
  Ir  Ir10  1  0.500000  0.075272  0.219482  1
  Ir  Ir11  1  0.500000  0.924728  0.780518  1
  Ir  Ir12  1  0.500000  0.775125  0.062500  1
  Ir  Ir13  1  0.500000  0.437500  0.724875  1
  Ir  Ir14  1  0.500000  0.224875  0.937500  1
  Ir  Ir15  1  0.500000  0.562500  0.275125  1
  Ir  Ir16  1  0.500000  0.719482  0.575272  1
  Ir  Ir17  1  0.500000  0.280518  0.424728  1
  Ir  Ir18  1  0.500000  0.000000  0.500000  1
  Ir  Ir19  1  0.500000  0.500000  0.000000  1
