# generated using pymatgen
data_Ti8Ga15Ir3Rh4
_symmetry_space_group_name_H-M   'P 1'
_cell_length_a   8.68236583
_cell_length_b   8.68577452
_cell_length_c   8.68235152
_cell_angle_alpha   120.43007786
_cell_angle_beta   119.76390269
_cell_angle_gamma   89.82201468
_symmetry_Int_Tables_number   1
_chemical_formula_structural   Ti8Ga15Ir3Rh4
_chemical_formula_sum   'Ti8 Ga15 Ir3 Rh4'
_cell_volume   462.33115909
_cell_formula_units_Z   1
loop_
 _symmetry_equiv_pos_site_id
 _symmetry_equiv_pos_as_xyz
  1  'x, y, z'
loop_
 _atom_site_type_symbol
 _atom_site_label
 _atom_site_symmetry_multiplicity
 _atom_site_fract_x
 _atom_site_fract_y
 _atom_site_fract_z
 _atom_site_occupancy
  Ti  Ti0  1  0.792129  0.286625  0.068752  1
  Ti  Ti1  1  0.217880  0.286629  0.494508  1
  Ti  Ti2  1  0.205312  0.705730  0.500418  1
  Ti  Ti3  1  0.218239  0.724034  0.931377  1
  Ti  Ti4  1  0.792647  0.724034  0.505776  1
  Ti  Ti5  1  0.778434  0.277933  0.499524  1
  Ti  Ti6  1  0.377073  0.123852  0.746773  1
  Ti  Ti7  1  0.378026  0.631721  0.253720  1
  Ga  Ga8  1  0.993279  0.493087  0.499804  1
  Ga  Ga9  1  0.151689  0.351494  0.199797  1
  Ga  Ga10  1  0.151005  0.951848  0.800845  1
  Ga  Ga11  1  0.148869  0.354246  0.796333  1
  Ga  Ga12  1  0.557911  0.354250  0.205380  1
  Ga  Ga13  1  0.850590  0.648125  0.797531  1
  Ga  Ga14  1  0.851279  0.053272  0.201990  1
  Ga  Ga15  1  0.849034  0.648532  0.198616  1
  Ga  Ga16  1  0.449922  0.648535  0.799503  1
  Ga  Ga17  1  0.376400  0.124392  0.253423  1
  Ga  Ga18  1  0.870968  0.124385  0.747987  1
  Ga  Ga19  1  0.619972  0.871382  0.251412  1
  Ga  Ga20  1  0.620348  0.368736  0.748380  1
  Ga  Ga21  1  0.614072  0.875203  0.737795  1
  Ga  Ga22  1  0.137407  0.875205  0.261138  1
  Ir  Ir23  1  0.002502  0.001930  0.503288  1
  Ir  Ir24  1  0.498646  0.001930  0.999427  1
  Ir  Ir25  1  0.496235  0.496342  0.000108  1
  Rh  Rh26  1  0.498996  0.498825  0.497097  1
  Rh  Rh27  1  0.001733  0.498837  0.999827  1
  Rh  Rh28  1  0.999223  0.998970  0.999745  1
  Rh  Rh29  1  0.500177  0.999910  0.499728  1
