# generated using pymatgen
data_LuPa3Si6Os7
_symmetry_space_group_name_H-M   'P 1'
_cell_length_a   7.08274986
_cell_length_b   7.09011596
_cell_length_c   7.08275000
_cell_angle_alpha   109.49229032
_cell_angle_beta   109.45013515
_cell_angle_gamma   109.49229651
_symmetry_Int_Tables_number   1
_chemical_formula_structural   LuPa3Si6Os7
_chemical_formula_sum   'Lu1 Pa3 Si6 Os7'
_cell_volume   273.72992418
_cell_formula_units_Z   1
loop_
 _symmetry_equiv_pos_site_id
 _symmetry_equiv_pos_as_xyz
  1  'x, y, z'
loop_
 _atom_site_type_symbol
 _atom_site_label
 _atom_site_symmetry_multiplicity
 _atom_site_fract_x
 _atom_site_fract_y
 _atom_site_fract_z
 _atom_site_occupancy
  Lu  Lu0  1  0.000000  0.500000  0.000000  1
  Pa  Pa1  1  0.000000  0.000000  0.500000  1
  Pa  Pa2  1  0.500000  0.000000  0.000000  1
  Pa  Pa3  1  0.500000  0.500000  0.500000  1
  Si  Si4  1  0.688331  0.682385  0.000000  1
  Si  Si5  1  0.311669  0.994053  0.311669  1
  Si  Si6  1  0.000000  0.317615  0.311669  1
  Si  Si7  1  0.311669  0.317615  0.000000  1
  Si  Si8  1  0.688331  0.005947  0.688331  1
  Si  Si9  1  0.000000  0.682385  0.688331  1
  Os  Os10  1  0.749635  0.249635  0.499270  1
  Os  Os11  1  0.749635  0.500000  0.250365  1
  Os  Os12  1  0.499270  0.249635  0.749635  1
  Os  Os13  1  0.250365  0.500000  0.749635  1
  Os  Os14  1  0.250365  0.750365  0.500730  1
  Os  Os15  1  0.500730  0.750365  0.250365  1
  Os  Os16  1  0.000000  0.000000  0.000000  1
