# generated using pymatgen
data_LaTbFe3P7Ru9
_symmetry_space_group_name_H-M   'P 1'
_cell_length_a   3.87812900
_cell_length_b   9.36244478
_cell_length_c   9.36160921
_cell_angle_alpha   120.03706545
_cell_angle_beta   90.00000000
_cell_angle_gamma   90.00000000
_symmetry_Int_Tables_number   1
_chemical_formula_structural   LaTbFe3P7Ru9
_chemical_formula_sum   'La1 Tb1 Fe3 P7 Ru9'
_cell_volume   294.25939096
_cell_formula_units_Z   1
loop_
 _symmetry_equiv_pos_site_id
 _symmetry_equiv_pos_as_xyz
  1  'x, y, z'
loop_
 _atom_site_type_symbol
 _atom_site_label
 _atom_site_symmetry_multiplicity
 _atom_site_fract_x
 _atom_site_fract_y
 _atom_site_fract_z
 _atom_site_occupancy
  La  La0  1  0.000000  0.666616  0.333336  1
  Tb  Tb1  1  0.500000  0.333388  0.666652  1
  Fe  Fe2  1  0.000000  0.890326  0.733723  1
  Fe  Fe3  1  0.000000  0.266569  0.156745  1
  Fe  Fe4  1  0.000000  0.843254  0.109730  1
  P  P5  1  0.000000  0.106382  0.692514  1
  P  P6  1  0.000000  0.307469  0.413824  1
  P  P7  1  0.000000  0.586176  0.893576  1
  P  P8  1  0.500000  0.721482  0.610236  1
  P  P9  1  0.500000  0.389776  0.111306  1
  P  P10  1  0.500000  0.888713  0.278509  1
  P  P11  1  0.000000  0.000043  0.000003  1
  Ru  Ru12  1  0.000000  0.356518  0.937157  1
  Ru  Ru13  1  0.000000  0.062685  0.419163  1
  Ru  Ru14  1  0.000000  0.580683  0.643442  1
  Ru  Ru15  1  0.500000  0.952113  0.564305  1
  Ru  Ru16  1  0.500000  0.435744  0.387875  1
  Ru  Ru17  1  0.500000  0.612253  0.047916  1
  Ru  Ru18  1  0.500000  0.114030  0.911634  1
  Ru  Ru19  1  0.500000  0.088245  0.202407  1
  Ru  Ru20  1  0.500000  0.797537  0.885947  1
