# generated using pymatgen
data_Th6CoCl15
_symmetry_space_group_name_H-M   'P 1'
_cell_length_a   9.82104697
_cell_length_b   9.82104667
_cell_length_c   9.82104700
_cell_angle_alpha   109.47121926
_cell_angle_beta   109.47121862
_cell_angle_gamma   109.47122328
_symmetry_Int_Tables_number   1
_chemical_formula_structural   Th6CoCl15
_chemical_formula_sum   'Th6 Co1 Cl15'
_cell_volume   729.20806907
_cell_formula_units_Z   1
loop_
 _symmetry_equiv_pos_site_id
 _symmetry_equiv_pos_as_xyz
  1  'x, y, z'
loop_
 _atom_site_type_symbol
 _atom_site_label
 _atom_site_symmetry_multiplicity
 _atom_site_fract_x
 _atom_site_fract_y
 _atom_site_fract_z
 _atom_site_occupancy
  Th  Th0  1  0.243601  0.243601  0.000000  1
  Th  Th1  1  0.756399  0.756399  0.000000  1
  Th  Th2  1  0.756399  0.000000  0.756399  1
  Th  Th3  1  0.000000  0.756399  0.756399  1
  Th  Th4  1  0.000000  0.243601  0.243601  1
  Th  Th5  1  0.243601  0.000000  0.243601  1
  Co  Co6  1  0.000000  0.000000  0.000000  1
  Cl  Cl7  1  0.754390  0.508780  0.754390  1
  Cl  Cl8  1  0.500000  0.500000  0.000000  1
  Cl  Cl9  1  0.000000  0.500000  0.500000  1
  Cl  Cl10  1  0.500000  0.000000  0.500000  1
  Cl  Cl11  1  0.245610  0.000000  0.754390  1
  Cl  Cl12  1  0.000000  0.245610  0.754390  1
  Cl  Cl13  1  0.754390  0.000000  0.245610  1
  Cl  Cl14  1  0.508780  0.754390  0.754390  1
  Cl  Cl15  1  0.000000  0.754390  0.245610  1
  Cl  Cl16  1  0.245610  0.245610  0.491220  1
  Cl  Cl17  1  0.754390  0.245610  0.000000  1
  Cl  Cl18  1  0.491220  0.245610  0.245610  1
  Cl  Cl19  1  0.245610  0.491220  0.245610  1
  Cl  Cl20  1  0.754390  0.754390  0.508780  1
  Cl  Cl21  1  0.245610  0.754390  0.000000  1
