# generated using pymatgen
data_Ac2Yb(RhPb)3
_symmetry_space_group_name_H-M   'P 1'
_cell_length_a   7.97892900
_cell_length_b   7.97892954
_cell_length_c   4.05971400
_cell_angle_alpha   90.00000000
_cell_angle_beta   90.00000000
_cell_angle_gamma   121.26971352
_symmetry_Int_Tables_number   1
_chemical_formula_structural   Ac2Yb(RhPb)3
_chemical_formula_sum   'Ac2 Yb1 Rh3 Pb3'
_cell_volume   220.90996573
_cell_formula_units_Z   1
loop_
 _symmetry_equiv_pos_site_id
 _symmetry_equiv_pos_as_xyz
  1  'x, y, z'
loop_
 _atom_site_type_symbol
 _atom_site_label
 _atom_site_symmetry_multiplicity
 _atom_site_fract_x
 _atom_site_fract_y
 _atom_site_fract_z
 _atom_site_occupancy
  Ac  Ac0  1  0.589064  0.001459  0.500000  1
  Ac  Ac1  1  0.001459  0.589064  0.500000  1
  Yb  Yb2  1  0.405056  0.405056  0.500000  1
  Rh  Rh3  1  0.991198  0.991198  0.500000  1
  Rh  Rh4  1  0.679806  0.332868  0.000000  1
  Rh  Rh5  1  0.332868  0.679806  0.000000  1
  Pb  Pb6  1  0.726089  0.726089  0.000000  1
  Pb  Pb7  1  0.255752  0.018707  0.000000  1
  Pb  Pb8  1  0.018707  0.255752  0.000000  1
