# generated using pymatgen
data_Tb9HoAlSb5
_symmetry_space_group_name_H-M   'P 1'
_cell_length_a   8.96709004
_cell_length_b   8.95959784
_cell_length_c   6.41070805
_cell_angle_alpha   90.01387151
_cell_angle_beta   89.98912088
_cell_angle_gamma   120.02465996
_symmetry_Int_Tables_number   1
_chemical_formula_structural   Tb9HoAlSb5
_chemical_formula_sum   'Tb9 Ho1 Al1 Sb5'
_cell_volume   445.93205534
_cell_formula_units_Z   1
loop_
 _symmetry_equiv_pos_site_id
 _symmetry_equiv_pos_as_xyz
  1  'x, y, z'
loop_
 _atom_site_type_symbol
 _atom_site_label
 _atom_site_symmetry_multiplicity
 _atom_site_fract_x
 _atom_site_fract_y
 _atom_site_fract_z
 _atom_site_occupancy
  Tb  Tb0  1  0.008807  0.761867  0.749944  1
  Tb  Tb1  1  0.998869  0.245061  0.250079  1
  Tb  Tb2  1  0.753924  0.754713  0.249988  1
  Tb  Tb3  1  0.751634  0.000000  0.749980  1
  Tb  Tb4  1  0.246857  0.238005  0.749846  1
  Tb  Tb5  1  0.243168  0.000048  0.250236  1
  Tb  Tb6  1  0.661610  0.326835  0.999541  1
  Tb  Tb7  1  0.661867  0.327280  0.500335  1
  Tb  Tb8  1  0.334712  0.673171  0.999571  1
  Ho  Ho9  1  0.334654  0.673223  0.500659  1
  Al  Al10  1  0.395316  0.999269  0.749133  1
  Sb  Sb11  1  0.388543  0.391679  0.250669  1
  Sb  Sb12  1  0.998382  0.609046  0.250512  1
  Sb  Sb13  1  0.002507  0.390350  0.749280  1
  Sb  Sb14  1  0.611325  0.610164  0.749377  1
  Sb  Sb15  1  0.607822  0.999290  0.250850  1
