# generated using pymatgen
data_HfTl7(SO4)6
_symmetry_space_group_name_H-M   'P 1'
_cell_length_a   9.52079496
_cell_length_b   9.52079554
_cell_length_c   9.52079500
_cell_angle_alpha   109.42922258
_cell_angle_beta   109.42923019
_cell_angle_gamma   109.42924013
_symmetry_Int_Tables_number   1
_chemical_formula_structural   HfTl7(SO4)6
_chemical_formula_sum   'Hf1 Tl7 S6 O24'
_cell_volume   665.38209120
_cell_formula_units_Z   1
loop_
 _symmetry_equiv_pos_site_id
 _symmetry_equiv_pos_as_xyz
  1  'x, y, z'
loop_
 _atom_site_type_symbol
 _atom_site_label
 _atom_site_symmetry_multiplicity
 _atom_site_fract_x
 _atom_site_fract_y
 _atom_site_fract_z
 _atom_site_occupancy
  Hf  Hf0  1  0.000000  0.000000  0.000000  1
  Tl  Tl1  1  0.500000  0.500000  0.500000  1
  Tl  Tl2  1  0.837730  0.334949  0.678806  1
  Tl  Tl3  1  0.334949  0.678806  0.837730  1
  Tl  Tl4  1  0.678806  0.837730  0.334949  1
  Tl  Tl5  1  0.162270  0.665051  0.321194  1
  Tl  Tl6  1  0.665051  0.321194  0.162270  1
  Tl  Tl7  1  0.321194  0.162270  0.665051  1
  S  S8  1  0.968535  0.746569  0.618231  1
  S  S9  1  0.746569  0.618231  0.968535  1
  S  S10  1  0.618231  0.968535  0.746569  1
  S  S11  1  0.031465  0.253431  0.381769  1
  S  S12  1  0.253431  0.381769  0.031465  1
  S  S13  1  0.381769  0.031465  0.253431  1
  O  O14  1  0.432177  0.911606  0.170514  1
  O  O15  1  0.911606  0.170514  0.432177  1
  O  O16  1  0.170514  0.432177  0.911606  1
  O  O17  1  0.567823  0.088394  0.829486  1
  O  O18  1  0.088394  0.829486  0.567823  1
  O  O19  1  0.829486  0.567823  0.088394  1
  O  O20  1  0.316537  0.985535  0.361393  1
  O  O21  1  0.985535  0.361393  0.316537  1
  O  O22  1  0.361393  0.316537  0.985535  1
  O  O23  1  0.683463  0.014465  0.638607  1
  O  O24  1  0.014465  0.638607  0.683463  1
  O  O25  1  0.638607  0.683463  0.014465  1
  O  O26  1  0.760892  0.976598  0.889785  1
  O  O27  1  0.976598  0.889785  0.760892  1
  O  O28  1  0.644329  0.472971  0.788269  1
  O  O29  1  0.788269  0.644329  0.472971  1
  O  O30  1  0.472971  0.788269  0.644329  1
  O  O31  1  0.355671  0.527029  0.211731  1
  O  O32  1  0.211731  0.355671  0.527029  1
  O  O33  1  0.527029  0.211731  0.355671  1
  O  O34  1  0.110215  0.239108  0.023402  1
  O  O35  1  0.023402  0.110215  0.239108  1
  O  O36  1  0.239108  0.023402  0.110215  1
  O  O37  1  0.889785  0.760892  0.976598  1
