# generated using pymatgen
data_TaTc5Se8
_symmetry_space_group_name_H-M   'P 1'
_cell_length_a   6.75765868
_cell_length_b   6.73058742
_cell_length_c   6.76100269
_cell_angle_alpha   92.76607984
_cell_angle_beta   93.04966754
_cell_angle_gamma   94.01604092
_symmetry_Int_Tables_number   1
_chemical_formula_structural   TaTc5Se8
_chemical_formula_sum   'Ta1 Tc5 Se8'
_cell_volume   305.90383748
_cell_formula_units_Z   1
loop_
 _symmetry_equiv_pos_site_id
 _symmetry_equiv_pos_as_xyz
  1  'x, y, z'
loop_
 _atom_site_type_symbol
 _atom_site_label
 _atom_site_symmetry_multiplicity
 _atom_site_fract_x
 _atom_site_fract_y
 _atom_site_fract_z
 _atom_site_occupancy
  Ta  Ta0  1  0.410915  0.230428  0.546950  1
  Tc  Tc1  1  0.449827  0.585254  0.765496  1
  Tc  Tc2  1  0.764854  0.454989  0.589119  1
  Tc  Tc3  1  0.585568  0.762601  0.452958  1
  Tc  Tc4  1  0.552032  0.416504  0.237843  1
  Tc  Tc5  1  0.236143  0.545964  0.412272  1
  Se  Se6  1  0.779700  0.782397  0.781235  1
  Se  Se7  1  0.215573  0.220875  0.207718  1
  Se  Se8  1  0.270859  0.863615  0.624988  1
  Se  Se9  1  0.624653  0.275865  0.880225  1
  Se  Se10  1  0.874556  0.630022  0.273737  1
  Se  Se11  1  0.739665  0.129893  0.371742  1
  Se  Se12  1  0.375643  0.727940  0.127389  1
  Se  Se13  1  0.120012  0.373652  0.728331  1
