# generated using pymatgen
data_Pr16Cd4IrOsRu2
_symmetry_space_group_name_H-M   'P 1'
_cell_length_a   10.06194359
_cell_length_b   10.06434854
_cell_length_c   10.06434815
_cell_angle_alpha   59.49924062
_cell_angle_beta   59.45741688
_cell_angle_gamma   59.45742274
_symmetry_Int_Tables_number   1
_chemical_formula_structural   Pr16Cd4IrOsRu2
_chemical_formula_sum   'Pr16 Cd4 Ir1 Os1 Ru2'
_cell_volume   712.00672757
_cell_formula_units_Z   1
loop_
 _symmetry_equiv_pos_site_id
 _symmetry_equiv_pos_as_xyz
  1  'x, y, z'
loop_
 _atom_site_type_symbol
 _atom_site_label
 _atom_site_symmetry_multiplicity
 _atom_site_fract_x
 _atom_site_fract_y
 _atom_site_fract_z
 _atom_site_occupancy
  Pr  Pr0  1  0.345355  0.347112  0.347112  1
  Pr  Pr1  1  0.344890  0.346760  0.960454  1
  Pr  Pr2  1  0.344890  0.960454  0.346760  1
  Pr  Pr3  1  0.961823  0.345192  0.345192  1
  Pr  Pr4  1  0.810369  0.190840  0.190840  1
  Pr  Pr5  1  0.190545  0.809911  0.809911  1
  Pr  Pr6  1  0.191278  0.808836  0.190258  1
  Pr  Pr7  1  0.811349  0.190920  0.807531  1
  Pr  Pr8  1  0.191278  0.190258  0.808836  1
  Pr  Pr9  1  0.811349  0.807531  0.190920  1
  Pr  Pr10  1  0.937880  0.562017  0.562017  1
  Pr  Pr11  1  0.558032  0.940535  0.940535  1
  Pr  Pr12  1  0.561152  0.937753  0.562599  1
  Pr  Pr13  1  0.940033  0.559282  0.940394  1
  Pr  Pr14  1  0.561152  0.562599  0.937753  1
  Pr  Pr15  1  0.940033  0.940394  0.559282  1
  Cd  Cd16  1  0.579184  0.579008  0.579008  1
  Cd  Cd17  1  0.579146  0.579255  0.261245  1
  Cd  Cd18  1  0.579146  0.261245  0.579255  1
  Cd  Cd19  1  0.261452  0.579101  0.579101  1
  Ir  Ir20  1  0.579985  0.139970  0.139970  1
  Os  Os21  1  0.140984  0.138101  0.138101  1
  Ru  Ru22  1  0.139346  0.137601  0.585323  1
  Ru  Ru23  1  0.139346  0.585323  0.137601  1
