# generated using pymatgen
data_TbSm3Ga4PdRu3
_symmetry_space_group_name_H-M   'P 1'
_cell_length_a   4.57045500
_cell_length_b   7.28396034
_cell_length_c   7.21679970
_cell_angle_alpha   90.21362018
_cell_angle_beta   90.00000000
_cell_angle_gamma   90.00000000
_symmetry_Int_Tables_number   1
_chemical_formula_structural   TbSm3Ga4PdRu3
_chemical_formula_sum   'Tb1 Sm3 Ga4 Pd1 Ru3'
_cell_volume   240.25290248
_cell_formula_units_Z   1
loop_
 _symmetry_equiv_pos_site_id
 _symmetry_equiv_pos_as_xyz
  1  'x, y, z'
loop_
 _atom_site_type_symbol
 _atom_site_label
 _atom_site_symmetry_multiplicity
 _atom_site_fract_x
 _atom_site_fract_y
 _atom_site_fract_z
 _atom_site_occupancy
  Tb  Tb0  1  0.750000  0.972182  0.694180  1
  Sm  Sm1  1  0.250000  0.017910  0.310318  1
  Sm  Sm2  1  0.250000  0.517852  0.196342  1
  Sm  Sm3  1  0.750000  0.486891  0.799627  1
  Ga  Ga4  1  0.250000  0.699071  0.601571  1
  Ga  Ga5  1  0.250000  0.185677  0.880105  1
  Ga  Ga6  1  0.750000  0.302012  0.408926  1
  Ga  Ga7  1  0.750000  0.803856  0.103721  1
  Pd  Pd8  1  0.750000  0.168202  0.068574  1
  Ru  Ru9  1  0.250000  0.345394  0.566005  1
  Ru  Ru10  1  0.250000  0.838993  0.935699  1
  Ru  Ru11  1  0.750000  0.661960  0.434930  1
