# generated using pymatgen
data_La20Tc3Ag8Rh
_symmetry_space_group_name_H-M   'P 1'
_cell_length_a   8.20522074
_cell_length_b   9.10945000
_cell_length_c   12.40085000
_cell_angle_alpha   90.00000000
_cell_angle_beta   89.71467980
_cell_angle_gamma   90.00000000
_symmetry_Int_Tables_number   1
_chemical_formula_structural   La20Tc3Ag8Rh
_chemical_formula_sum   'La20 Tc3 Ag8 Rh1'
_cell_volume   926.89063631
_cell_formula_units_Z   1
loop_
 _symmetry_equiv_pos_site_id
 _symmetry_equiv_pos_as_xyz
  1  'x, y, z'
loop_
 _atom_site_type_symbol
 _atom_site_label
 _atom_site_symmetry_multiplicity
 _atom_site_fract_x
 _atom_site_fract_y
 _atom_site_fract_z
 _atom_site_occupancy
  La  La0  1  0.682950  0.456654  0.069731  1
  La  La1  1  0.181404  0.540692  0.427369  1
  La  La2  1  0.318137  0.957084  0.929867  1
  La  La3  1  0.817276  0.047585  0.574099  1
  La  La4  1  0.318137  0.542916  0.929867  1
  La  La5  1  0.817276  0.452415  0.574099  1
  La  La6  1  0.682950  0.043346  0.069731  1
  La  La7  1  0.181404  0.959308  0.427369  1
  La  La8  1  0.950361  0.750000  0.002177  1
  La  La9  1  0.445407  0.250000  0.496421  1
  La  La10  1  0.052020  0.250000  0.996448  1
  La  La11  1  0.552766  0.750000  0.503250  1
  La  La12  1  0.382384  0.750000  0.194737  1
  La  La13  1  0.878986  0.250000  0.305908  1
  La  La14  1  0.616151  0.250000  0.806530  1
  La  La15  1  0.121802  0.750000  0.695634  1
  La  La16  1  0.835922  0.750000  0.284238  1
  La  La17  1  0.338165  0.250000  0.208136  1
  La  La18  1  0.164119  0.250000  0.709501  1
  La  La19  1  0.661349  0.750000  0.795390  1
  Tc  Tc20  1  0.589815  0.750000  0.021975  1
  Tc  Tc21  1  0.082873  0.250000  0.482264  1
  Tc  Tc22  1  0.411651  0.250000  0.980694  1
  Ag  Ag23  1  0.570748  0.488019  0.331057  1
  Ag  Ag24  1  0.071006  0.512757  0.169720  1
  Ag  Ag25  1  0.429303  0.985334  0.670391  1
  Ag  Ag26  1  0.929280  0.012956  0.829167  1
  Ag  Ag27  1  0.429303  0.514666  0.670391  1
  Ag  Ag28  1  0.929280  0.487044  0.829167  1
  Ag  Ag29  1  0.570748  0.011981  0.331057  1
  Ag  Ag30  1  0.071006  0.987243  0.169720  1
  Rh  Rh31  1  0.916019  0.750000  0.513895  1
