# generated using pymatgen
data_CeTm11(TcIr)2
_symmetry_space_group_name_H-M   'P 1'
_cell_length_a   6.28500577
_cell_length_b   7.23709612
_cell_length_c   9.09135600
_cell_angle_alpha   90.00000000
_cell_angle_beta   90.00000000
_cell_angle_gamma   90.96576605
_symmetry_Int_Tables_number   1
_chemical_formula_structural   CeTm11(TcIr)2
_chemical_formula_sum   'Ce1 Tm11 Tc2 Ir2'
_cell_volume   413.46332015
_cell_formula_units_Z   1
loop_
 _symmetry_equiv_pos_site_id
 _symmetry_equiv_pos_as_xyz
  1  'x, y, z'
loop_
 _atom_site_type_symbol
 _atom_site_label
 _atom_site_symmetry_multiplicity
 _atom_site_fract_x
 _atom_site_fract_y
 _atom_site_fract_z
 _atom_site_occupancy
  Ce  Ce0  1  0.860726  0.556681  0.250000  1
  Tm  Tm1  1  0.331366  0.674445  0.062730  1
  Tm  Tm2  1  0.169551  0.179045  0.436101  1
  Tm  Tm3  1  0.669898  0.321133  0.563391  1
  Tm  Tm4  1  0.829319  0.825248  0.935662  1
  Tm  Tm5  1  0.669898  0.321133  0.936609  1
  Tm  Tm6  1  0.829319  0.825248  0.564338  1
  Tm  Tm7  1  0.331366  0.674445  0.437270  1
  Tm  Tm8  1  0.169551  0.179045  0.063899  1
  Tm  Tm9  1  0.621918  0.035850  0.250000  1
  Tm  Tm10  1  0.131013  0.463116  0.750000  1
  Tm  Tm11  1  0.367780  0.962231  0.750000  1
  Tc  Tc12  1  0.019852  0.863487  0.250000  1
  Tc  Tc13  1  0.498314  0.388987  0.250000  1
  Ir  Ir14  1  0.958831  0.114972  0.750000  1
  Ir  Ir15  1  0.541297  0.614933  0.750000  1
