# generated using pymatgen
data_Zr10CdHgBiPb5
_symmetry_space_group_name_H-M   'P 1'
_cell_length_a   8.92884608
_cell_length_b   8.92884613
_cell_length_c   6.04824001
_cell_angle_alpha   89.99694310
_cell_angle_beta   89.99694794
_cell_angle_gamma   119.93473134
_symmetry_Int_Tables_number   1
_chemical_formula_structural   Zr10CdHgBiPb5
_chemical_formula_sum   'Zr10 Cd1 Hg1 Bi1 Pb5'
_cell_volume   417.86459609
_cell_formula_units_Z   1
loop_
 _symmetry_equiv_pos_site_id
 _symmetry_equiv_pos_as_xyz
  1  'x, y, z'
loop_
 _atom_site_type_symbol
 _atom_site_label
 _atom_site_symmetry_multiplicity
 _atom_site_fract_x
 _atom_site_fract_y
 _atom_site_fract_z
 _atom_site_occupancy
  Zr  Zr0  1  0.667258  0.333412  0.000817  1
  Zr  Zr1  1  0.333412  0.667258  0.000817  1
  Zr  Zr2  1  0.333439  0.667264  0.499180  1
  Zr  Zr3  1  0.667264  0.333439  0.499180  1
  Zr  Zr4  1  0.720798  0.720798  0.750127  1
  Zr  Zr5  1  0.279215  0.999201  0.750078  1
  Zr  Zr6  1  0.999201  0.279215  0.750078  1
  Zr  Zr7  1  0.279653  0.279653  0.249883  1
  Zr  Zr8  1  0.719666  0.999745  0.249878  1
  Zr  Zr9  1  0.999745  0.719666  0.249878  1
  Cd  Cd10  1  0.999198  0.999198  0.499266  1
  Hg  Hg11  1  0.999199  0.999199  0.000755  1
  Bi  Bi12  1  0.381419  0.381419  0.749958  1
  Pb  Pb13  1  0.620256  0.000135  0.749899  1
  Pb  Pb14  1  0.000135  0.620256  0.749899  1
  Pb  Pb15  1  0.620590  0.620590  0.250114  1
  Pb  Pb16  1  0.379669  0.999882  0.250096  1
  Pb  Pb17  1  0.999882  0.379669  0.250096  1
