# generated using pymatgen
data_La3Zr4UF28
_symmetry_space_group_name_H-M   'P 1'
_cell_length_a   5.94174302
_cell_length_b   9.50539708
_cell_length_c   12.73122961
_cell_angle_alpha   61.69806753
_cell_angle_beta   90.09114442
_cell_angle_gamma   89.97798481
_symmetry_Int_Tables_number   1
_chemical_formula_structural   La3Zr4UF28
_chemical_formula_sum   'La3 Zr4 U1 F28'
_cell_volume   633.08769044
_cell_formula_units_Z   1
loop_
 _symmetry_equiv_pos_site_id
 _symmetry_equiv_pos_as_xyz
  1  'x, y, z'
loop_
 _atom_site_type_symbol
 _atom_site_label
 _atom_site_symmetry_multiplicity
 _atom_site_fract_x
 _atom_site_fract_y
 _atom_site_fract_z
 _atom_site_occupancy
  La  La0  1  0.743621  0.812472  0.266087  1
  La  La1  1  0.242975  0.187559  0.233141  1
  La  La2  1  0.256660  0.188114  0.733976  1
  Zr  Zr3  1  0.744671  0.274029  0.455252  1
  Zr  Zr4  1  0.245231  0.725730  0.043854  1
  Zr  Zr5  1  0.255390  0.725673  0.545701  1
  Zr  Zr6  1  0.755236  0.276237  0.954313  1
  U  U7  1  0.757942  0.812664  0.765960  1
  F  F8  1  0.461720  0.714911  0.922576  1
  F  F9  1  0.957673  0.286679  0.576029  1
  F  F10  1  0.541944  0.288908  0.075192  1
  F  F11  1  0.041834  0.711789  0.425313  1
  F  F12  1  0.463069  0.282423  0.545891  1
  F  F13  1  0.962049  0.718228  0.952174  1
  F  F14  1  0.536305  0.716727  0.454968  1
  F  F15  1  0.037391  0.284797  0.044286  1
  F  F16  1  0.762800  0.519931  0.859300  1
  F  F17  1  0.264145  0.481890  0.640023  1
  F  F18  1  0.233468  0.482658  0.138105  1
  F  F19  1  0.733546  0.516540  0.361431  1
  F  F20  1  0.760935  0.033212  0.054547  1
  F  F21  1  0.261371  0.968483  0.446009  1
  F  F22  1  0.238213  0.968755  0.944134  1
  F  F23  1  0.738337  0.030030  0.558801  1
  F  F24  1  0.988661  0.733841  0.645710  1
  F  F25  1  0.489994  0.267583  0.854958  1
  F  F26  1  0.010508  0.266705  0.356432  1
  F  F27  1  0.510327  0.732212  0.143585  1
  F  F28  1  0.040553  0.743490  0.167527  1
  F  F29  1  0.541569  0.255338  0.332117  1
  F  F30  1  0.958736  0.257715  0.830342  1
  F  F31  1  0.463442  0.739709  0.670527  1
  F  F32  1  0.419892  0.969936  0.233514  1
  F  F33  1  0.919802  0.030180  0.266371  1
  F  F34  1  0.582781  0.026651  0.767414  1
  F  F35  1  0.077213  0.968200  0.734437  1
