# generated using pymatgen
data_Dy15Er5Co3Bi8Os
_symmetry_space_group_name_H-M   'P 1'
_cell_length_a   7.97908797
_cell_length_b   8.91845814
_cell_length_c   12.44191567
_cell_angle_alpha   89.94209910
_cell_angle_beta   90.29643721
_cell_angle_gamma   90.00360308
_symmetry_Int_Tables_number   1
_chemical_formula_structural   Dy15Er5Co3Bi8Os
_chemical_formula_sum   'Dy15 Er5 Co3 Bi8 Os1'
_cell_volume   885.36887372
_cell_formula_units_Z   1
loop_
 _symmetry_equiv_pos_site_id
 _symmetry_equiv_pos_as_xyz
  1  'x, y, z'
loop_
 _atom_site_type_symbol
 _atom_site_label
 _atom_site_symmetry_multiplicity
 _atom_site_fract_x
 _atom_site_fract_y
 _atom_site_fract_z
 _atom_site_occupancy
  Dy  Dy0  1  0.846828  0.750353  0.800458  1
  Dy  Dy1  1  0.152559  0.249634  0.198343  1
  Dy  Dy2  1  0.347855  0.249582  0.698770  1
  Dy  Dy3  1  0.654433  0.750176  0.294640  1
  Dy  Dy4  1  0.377495  0.750295  0.693293  1
  Dy  Dy5  1  0.618434  0.249575  0.311642  1
  Dy  Dy6  1  0.880593  0.249324  0.812045  1
  Dy  Dy7  1  0.118973  0.750689  0.186224  1
  Dy  Dy8  1  0.945118  0.750544  0.503958  1
  Dy  Dy9  1  0.052598  0.249598  0.496458  1
  Dy  Dy10  1  0.450579  0.249434  0.997241  1
  Dy  Dy11  1  0.548825  0.750557  0.002484  1
  Dy  Dy12  1  0.676423  0.458855  0.565017  1
  Dy  Dy13  1  0.823778  0.464167  0.063146  1
  Dy  Dy14  1  0.175412  0.534242  0.936834  1
  Er  Er15  1  0.674671  0.041528  0.564934  1
  Er  Er16  1  0.326323  0.964189  0.436424  1
  Er  Er17  1  0.173388  0.965379  0.936845  1
  Er  Er18  1  0.325976  0.535455  0.436440  1
  Er  Er19  1  0.825778  0.036169  0.063055  1
  Co  Co20  1  0.433091  0.249566  0.491140  1
  Co  Co21  1  0.060251  0.249017  0.992424  1
  Co  Co22  1  0.938287  0.751065  0.006961  1
  Bi  Bi23  1  0.570595  0.491824  0.827439  1
  Bi  Bi24  1  0.428920  0.507284  0.173248  1
  Bi  Bi25  1  0.070260  0.507268  0.674233  1
  Bi  Bi26  1  0.429787  0.992789  0.173088  1
  Bi  Bi27  1  0.932173  0.492611  0.326204  1
  Bi  Bi28  1  0.569850  0.008077  0.827404  1
  Bi  Bi29  1  0.932295  0.007485  0.325862  1
  Bi  Bi30  1  0.069442  0.992732  0.674360  1
  Os  Os31  1  0.569009  0.750539  0.509384  1
