# generated using pymatgen
data_Ho16In4CoPt3
_symmetry_space_group_name_H-M   'P 1'
_cell_length_a   9.64754591
_cell_length_b   9.64759766
_cell_length_c   9.63889780
_cell_angle_alpha   59.96806383
_cell_angle_beta   59.96920074
_cell_angle_gamma   59.99913874
_symmetry_Int_Tables_number   1
_chemical_formula_structural   Ho16In4CoPt3
_chemical_formula_sum   'Ho16 In4 Co1 Pt3'
_cell_volume   634.07337694
_cell_formula_units_Z   1
loop_
 _symmetry_equiv_pos_site_id
 _symmetry_equiv_pos_as_xyz
  1  'x, y, z'
loop_
 _atom_site_type_symbol
 _atom_site_label
 _atom_site_symmetry_multiplicity
 _atom_site_fract_x
 _atom_site_fract_y
 _atom_site_fract_z
 _atom_site_occupancy
  Ho  Ho0  1  0.438832  0.438830  0.060566  1
  Ho  Ho1  1  0.648740  0.648743  0.053781  1
  Ho  Ho2  1  0.180836  0.811433  0.196307  1
  Ho  Ho3  1  0.061779  0.438825  0.060564  1
  Ho  Ho4  1  0.190383  0.809062  0.810143  1
  Ho  Ho5  1  0.061282  0.440119  0.437317  1
  Ho  Ho6  1  0.811430  0.180839  0.196310  1
  Ho  Ho7  1  0.654419  0.654410  0.643792  1
  Ho  Ho8  1  0.809044  0.190388  0.810159  1
  Ho  Ho9  1  0.190411  0.190406  0.810137  1
  Ho  Ho10  1  0.047384  0.654412  0.643794  1
  Ho  Ho11  1  0.438835  0.061776  0.060549  1
  Ho  Ho12  1  0.061273  0.061276  0.437311  1
  Ho  Ho13  1  0.654413  0.047380  0.643796  1
  Ho  Ho14  1  0.811427  0.811427  0.196304  1
  Ho  Ho15  1  0.440123  0.061284  0.437319  1
  In  In16  1  0.416773  0.416774  0.417067  1
  In  In17  1  0.416794  0.416796  0.749619  1
  In  In18  1  0.416768  0.749397  0.417064  1
  In  In19  1  0.749408  0.416770  0.417049  1
  Co  Co20  1  0.857890  0.857888  0.426320  1
  Pt  Pt21  1  0.427567  0.857101  0.858245  1
  Pt  Pt22  1  0.857094  0.857093  0.858239  1
  Pt  Pt23  1  0.857098  0.427569  0.858247  1
