# generated using pymatgen
data_Hf7Sc2Re2PW2
_symmetry_space_group_name_H-M   'P 1'
_cell_length_a   8.66890500
_cell_length_b   8.68540987
_cell_length_c   8.58164700
_cell_angle_alpha   90.00000000
_cell_angle_beta   90.00000000
_cell_angle_gamma   120.06614457
_symmetry_Int_Tables_number   1
_chemical_formula_structural   Hf7Sc2Re2PW2
_chemical_formula_sum   'Hf14 Sc4 Re4 P2 W4'
_cell_volume   559.19848865
_cell_formula_units_Z   2
loop_
 _symmetry_equiv_pos_site_id
 _symmetry_equiv_pos_as_xyz
  1  'x, y, z'
loop_
 _atom_site_type_symbol
 _atom_site_label
 _atom_site_symmetry_multiplicity
 _atom_site_fract_x
 _atom_site_fract_y
 _atom_site_fract_z
 _atom_site_occupancy
  Hf  Hf0  1  0.196100  0.803576  0.453241  1
  Hf  Hf1  1  0.196708  0.393187  0.453251  1
  Hf  Hf2  1  0.606533  0.803066  0.453614  1
  Hf  Hf3  1  0.803226  0.196528  0.549508  1
  Hf  Hf4  1  0.803454  0.607208  0.550347  1
  Hf  Hf5  1  0.392287  0.196193  0.548748  1
  Hf  Hf6  1  0.803226  0.196528  0.950492  1
  Hf  Hf7  1  0.803454  0.607208  0.949653  1
  Hf  Hf8  1  0.392287  0.196193  0.951252  1
  Hf  Hf9  1  0.196100  0.803576  0.046759  1
  Hf  Hf10  1  0.196708  0.393187  0.046749  1
  Hf  Hf11  1  0.606533  0.803066  0.046386  1
  Hf  Hf12  1  0.539227  0.079352  0.250000  1
  Hf  Hf13  1  0.922434  0.460783  0.250000  1
  Sc  Sc14  1  0.540315  0.457824  0.250000  1
  Sc  Sc15  1  0.458374  0.541320  0.750000  1
  Sc  Sc16  1  0.458383  0.917129  0.750000  1
  Sc  Sc17  1  0.082714  0.541302  0.750000  1
  Re  Re18  1  0.221411  0.110253  0.250000  1
  Re  Re19  1  0.110745  0.889963  0.750000  1
  Re  Re20  1  0.110786  0.221102  0.750000  1
  Re  Re21  1  0.778650  0.889651  0.750000  1
  P  P22  1  0.331166  0.667904  0.250000  1
  P  P23  1  0.666097  0.332756  0.750000  1
  W  W24  1  0.890803  0.109951  0.250000  1
  W  W25  1  0.891315  0.780738  0.250000  1
  W  W26  1  0.000483  0.000227  0.502938  1
  W  W27  1  0.000483  0.000227  0.997062  1
