# generated using pymatgen
data_Tb3Ho3(Si3Ru)8
_symmetry_space_group_name_H-M   'P 1'
_cell_length_a   10.12042756
_cell_length_b   10.12042783
_cell_length_c   8.14860747
_cell_angle_alpha   90.06302549
_cell_angle_beta   89.93697238
_cell_angle_gamma   132.54717517
_symmetry_Int_Tables_number   1
_chemical_formula_structural   Tb3Ho3(Si3Ru)8
_chemical_formula_sum   'Tb3 Ho3 Si24 Ru8'
_cell_volume   614.87065562
_cell_formula_units_Z   1
loop_
 _symmetry_equiv_pos_site_id
 _symmetry_equiv_pos_as_xyz
  1  'x, y, z'
loop_
 _atom_site_type_symbol
 _atom_site_label
 _atom_site_symmetry_multiplicity
 _atom_site_fract_x
 _atom_site_fract_y
 _atom_site_fract_z
 _atom_site_occupancy
  Tb  Tb0  1  0.502552  0.002552  0.750000  1
  Tb  Tb1  1  0.997511  0.497511  0.250000  1
  Tb  Tb2  1  0.497210  0.997210  0.250000  1
  Ho  Ho3  1  0.499977  0.500046  0.500029  1
  Ho  Ho4  1  0.000046  0.999977  0.999971  1
  Ho  Ho5  1  0.002709  0.502709  0.750000  1
  Si  Si6  1  0.794433  0.205294  0.500448  1
  Si  Si7  1  0.294734  0.705451  0.999802  1
  Si  Si8  1  0.205451  0.794734  0.500198  1
  Si  Si9  1  0.705294  0.294433  0.999552  1
  Si  Si10  1  0.332569  0.332395  0.833200  1
  Si  Si11  1  0.667395  0.667585  0.166862  1
  Si  Si12  1  0.167585  0.167395  0.333138  1
  Si  Si13  1  0.832395  0.832569  0.666800  1
  Si  Si14  1  0.122143  0.887951  0.727967  1
  Si  Si15  1  0.113510  0.879138  0.271259  1
  Si  Si16  1  0.611380  0.376977  0.228445  1
  Si  Si17  1  0.621495  0.387393  0.771533  1
  Si  Si18  1  0.876977  0.111380  0.271555  1
  Si  Si19  1  0.887393  0.121495  0.728467  1
  Si  Si20  1  0.387951  0.622143  0.772033  1
  Si  Si21  1  0.379138  0.613510  0.228741  1
  Si  Si22  1  0.346014  0.112166  0.504778  1
  Si  Si23  1  0.888637  0.655770  0.495955  1
  Si  Si24  1  0.387831  0.153908  0.005272  1
  Si  Si25  1  0.844511  0.611416  0.994819  1
  Si  Si26  1  0.653908  0.887831  0.494728  1
  Si  Si27  1  0.111416  0.344511  0.505181  1
  Si  Si28  1  0.612166  0.846014  0.995222  1
  Si  Si29  1  0.155770  0.388637  0.004045  1
  Ru  Ru30  1  0.670529  0.333033  0.500302  1
  Ru  Ru31  1  0.166844  0.829328  0.998803  1
  Ru  Ru32  1  0.329328  0.666844  0.501197  1
  Ru  Ru33  1  0.833033  0.170529  0.999698  1
  Ru  Ru34  1  0.126374  0.126200  0.626983  1
  Ru  Ru35  1  0.873895  0.873693  0.372880  1
  Ru  Ru36  1  0.373693  0.373895  0.127120  1
  Ru  Ru37  1  0.626200  0.626374  0.873017  1
