# generated using pymatgen
data_Er6Zn23Se
_symmetry_space_group_name_H-M   'P 1'
_cell_length_a   9.02922952
_cell_length_b   9.02922960
_cell_length_c   9.02923000
_cell_angle_alpha   59.99999854
_cell_angle_beta   59.99999823
_cell_angle_gamma   59.99999913
_symmetry_Int_Tables_number   1
_chemical_formula_structural   Er6Zn23Se
_chemical_formula_sum   'Er6 Zn23 Se1'
_cell_volume   520.51960785
_cell_formula_units_Z   1
loop_
 _symmetry_equiv_pos_site_id
 _symmetry_equiv_pos_as_xyz
  1  'x, y, z'
loop_
 _atom_site_type_symbol
 _atom_site_label
 _atom_site_symmetry_multiplicity
 _atom_site_fract_x
 _atom_site_fract_y
 _atom_site_fract_z
 _atom_site_occupancy
  Er  Er0  1  0.717596  0.282404  0.282404  1
  Er  Er1  1  0.717596  0.282404  0.717596  1
  Er  Er2  1  0.717596  0.717596  0.282404  1
  Er  Er3  1  0.282404  0.717596  0.717596  1
  Er  Er4  1  0.282404  0.717596  0.282404  1
  Er  Er5  1  0.282404  0.282404  0.717596  1
  Zn  Zn6  1  0.623024  0.125659  0.125659  1
  Zn  Zn7  1  0.125659  0.623024  0.125659  1
  Zn  Zn8  1  0.125659  0.125659  0.623024  1
  Zn  Zn9  1  0.125659  0.125659  0.125659  1
  Zn  Zn10  1  0.376976  0.874341  0.874341  1
  Zn  Zn11  1  0.874341  0.376976  0.874341  1
  Zn  Zn12  1  0.874341  0.874341  0.376976  1
  Zn  Zn13  1  0.874341  0.874341  0.874341  1
  Zn  Zn14  1  0.500000  0.000000  0.000000  1
  Zn  Zn15  1  0.500000  0.000000  0.500000  1
  Zn  Zn16  1  0.500000  0.500000  0.000000  1
  Zn  Zn17  1  0.000000  0.500000  0.500000  1
  Zn  Zn18  1  0.000000  0.500000  0.000000  1
  Zn  Zn19  1  0.000000  0.000000  0.500000  1
  Zn  Zn20  1  0.000000  0.000000  0.000000  1
  Zn  Zn21  1  0.009980  0.330006  0.330006  1
  Zn  Zn22  1  0.330006  0.009980  0.330006  1
  Zn  Zn23  1  0.330006  0.330006  0.009980  1
  Zn  Zn24  1  0.330006  0.330006  0.330006  1
  Zn  Zn25  1  0.990020  0.669994  0.669994  1
  Zn  Zn26  1  0.669994  0.990020  0.669994  1
  Zn  Zn27  1  0.669994  0.669994  0.990020  1
  Zn  Zn28  1  0.669994  0.669994  0.669994  1
  Se  Se29  1  0.500000  0.500000  0.500000  1
