# generated using pymatgen
data_Ca3LuTi4O12
_symmetry_space_group_name_H-M   'P 1'
_cell_length_a   7.67664200
_cell_length_b   5.35888283
_cell_length_c   5.53104306
_cell_angle_alpha   89.78222846
_cell_angle_beta   90.00000000
_cell_angle_gamma   90.00000000
_symmetry_Int_Tables_number   1
_chemical_formula_structural   Ca3LuTi4O12
_chemical_formula_sum   'Ca3 Lu1 Ti4 O12'
_cell_volume   227.53565008
_cell_formula_units_Z   1
loop_
 _symmetry_equiv_pos_site_id
 _symmetry_equiv_pos_as_xyz
  1  'x, y, z'
loop_
 _atom_site_type_symbol
 _atom_site_label
 _atom_site_symmetry_multiplicity
 _atom_site_fract_x
 _atom_site_fract_y
 _atom_site_fract_z
 _atom_site_occupancy
  Ca  Ca0  1  0.500000  0.489736  0.550958  1
  Ca  Ca1  1  0.000000  0.991669  0.954428  1
  Ca  Ca2  1  0.000000  0.511437  0.449549  1
  Lu  Lu3  1  0.500000  0.013995  0.065286  1
  Ti  Ti4  1  0.249644  0.997400  0.503377  1
  Ti  Ti5  1  0.750214  0.503502  0.998763  1
  Ti  Ti6  1  0.750356  0.997400  0.503377  1
  Ti  Ti7  1  0.249786  0.503502  0.998763  1
  O  O8  1  0.500000  0.608985  0.975454  1
  O  O9  1  0.500000  0.916027  0.464506  1
  O  O10  1  0.000000  0.423138  0.021013  1
  O  O11  1  0.000000  0.083004  0.525596  1
  O  O12  1  0.787296  0.799535  0.202343  1
  O  O13  1  0.208598  0.697997  0.700841  1
  O  O14  1  0.305665  0.193087  0.804564  1
  O  O15  1  0.698742  0.289484  0.286717  1
  O  O16  1  0.694335  0.193087  0.804564  1
  O  O17  1  0.301258  0.289484  0.286717  1
  O  O18  1  0.212704  0.799535  0.202343  1
  O  O19  1  0.791402  0.697997  0.700841  1
