# generated using pymatgen
data_SrPr4Ho2CoI12
_symmetry_space_group_name_H-M   'P 1'
_cell_length_a   9.88995051
_cell_length_b   10.02764153
_cell_length_c   9.94560750
_cell_angle_alpha   105.85111670
_cell_angle_beta   106.47591447
_cell_angle_gamma   106.50562372
_symmetry_Int_Tables_number   1
_chemical_formula_structural   SrPr4Ho2CoI12
_chemical_formula_sum   'Sr1 Pr4 Ho2 Co1 I12'
_cell_volume   837.06270751
_cell_formula_units_Z   1
loop_
 _symmetry_equiv_pos_site_id
 _symmetry_equiv_pos_as_xyz
  1  'x, y, z'
loop_
 _atom_site_type_symbol
 _atom_site_label
 _atom_site_symmetry_multiplicity
 _atom_site_fract_x
 _atom_site_fract_y
 _atom_site_fract_z
 _atom_site_occupancy
  Sr  Sr0  1  0.500000  0.500000  0.500000  1
  Pr  Pr1  1  0.096965  0.300938  0.018461  1
  Pr  Pr2  1  0.286063  0.020762  0.091090  1
  Pr  Pr3  1  0.903035  0.699062  0.981539  1
  Pr  Pr4  1  0.713937  0.979238  0.908910  1
  Ho  Ho5  1  0.978669  0.907014  0.708368  1
  Ho  Ho6  1  0.021331  0.092986  0.291632  1
  Co  Co7  1  0.000000  0.000000  0.000000  1
  I  I8  1  0.540989  0.626624  0.856107  1
  I  I9  1  0.459011  0.373376  0.143893  1
  I  I10  1  0.311559  0.923908  0.767244  1
  I  I11  1  0.364412  0.141758  0.453123  1
  I  I12  1  0.931464  0.788204  0.331585  1
  I  I13  1  0.688441  0.076092  0.232756  1
  I  I14  1  0.068536  0.211796  0.668415  1
  I  I15  1  0.768618  0.320841  0.923716  1
  I  I16  1  0.231382  0.679159  0.076284  1
  I  I17  1  0.864987  0.557764  0.627982  1
  I  I18  1  0.135013  0.442236  0.372018  1
  I  I19  1  0.635588  0.858242  0.546877  1
