# generated using pymatgen
data_Er6Fe3Si6Ru
_symmetry_space_group_name_H-M   'P 1'
_cell_length_a   5.61264013
_cell_length_b   5.61264040
_cell_length_c   13.52012319
_cell_angle_alpha   89.77341453
_cell_angle_beta   90.22658468
_cell_angle_gamma   137.29888310
_symmetry_Int_Tables_number   1
_chemical_formula_structural   Er6Fe3Si6Ru
_chemical_formula_sum   'Er6 Fe3 Si6 Ru1'
_cell_volume   288.83663842
_cell_formula_units_Z   1
loop_
 _symmetry_equiv_pos_site_id
 _symmetry_equiv_pos_as_xyz
  1  'x, y, z'
loop_
 _atom_site_type_symbol
 _atom_site_label
 _atom_site_symmetry_multiplicity
 _atom_site_fract_x
 _atom_site_fract_y
 _atom_site_fract_z
 _atom_site_occupancy
  Er  Er0  1  0.637157  0.362843  0.248949  1
  Er  Er1  1  0.363808  0.636192  0.750444  1
  Er  Er2  1  0.918323  0.081677  0.112096  1
  Er  Er3  1  0.079251  0.920749  0.889676  1
  Er  Er4  1  0.080930  0.919070  0.613245  1
  Er  Er5  1  0.922396  0.077604  0.384424  1
  Fe  Fe6  1  0.213926  0.786074  0.418529  1
  Fe  Fe7  1  0.213315  0.786685  0.080779  1
  Fe  Fe8  1  0.783775  0.216225  0.921138  1
  Si  Si9  1  0.325035  0.674965  0.249342  1
  Si  Si10  1  0.673612  0.326388  0.754892  1
  Si  Si11  1  0.623171  0.376829  0.040080  1
  Si  Si12  1  0.373683  0.626317  0.960960  1
  Si  Si13  1  0.383244  0.616756  0.534855  1
  Si  Si14  1  0.620940  0.379060  0.457644  1
  Ru  Ru15  1  0.787434  0.212566  0.582947  1
