# generated using pymatgen
data_La4NdRu2
_symmetry_space_group_name_H-M   'P 1'
_cell_length_a   9.10483555
_cell_length_b   9.10483688
_cell_length_c   7.32702741
_cell_angle_alpha   85.86059680
_cell_angle_beta   85.86059493
_cell_angle_gamma   43.19823442
_symmetry_Int_Tables_number   1
_chemical_formula_structural   La4NdRu2
_chemical_formula_sum   'La8 Nd2 Ru4'
_cell_volume   414.52281554
_cell_formula_units_Z   2
loop_
 _symmetry_equiv_pos_site_id
 _symmetry_equiv_pos_as_xyz
  1  'x, y, z'
loop_
 _atom_site_type_symbol
 _atom_site_label
 _atom_site_symmetry_multiplicity
 _atom_site_fract_x
 _atom_site_fract_y
 _atom_site_fract_z
 _atom_site_occupancy
  La  La0  1  0.017834  0.798665  0.906810  1
  La  La1  1  0.201335  0.982166  0.593190  1
  La  La2  1  0.982166  0.201335  0.093190  1
  La  La3  1  0.798665  0.017834  0.406810  1
  La  La4  1  0.363361  0.209701  0.817310  1
  La  La5  1  0.790299  0.636639  0.682690  1
  La  La6  1  0.636639  0.790299  0.182690  1
  La  La7  1  0.209701  0.363361  0.317310  1
  Nd  Nd8  1  0.573968  0.426032  0.750000  1
  Nd  Nd9  1  0.426032  0.573968  0.250000  1
  Ru  Ru10  1  0.170074  0.603900  0.582108  1
  Ru  Ru11  1  0.396100  0.829926  0.917892  1
  Ru  Ru12  1  0.829926  0.396100  0.417892  1
  Ru  Ru13  1  0.603900  0.170074  0.082108  1
