# generated using pymatgen
data_YHo2(Co3P2)3
_symmetry_space_group_name_H-M   'P 1'
_cell_length_a   3.69560000
_cell_length_b   10.50419200
_cell_length_c   12.17002300
_cell_angle_alpha   90.00000000
_cell_angle_beta   90.00000000
_cell_angle_gamma   90.00000000
_symmetry_Int_Tables_number   1
_chemical_formula_structural   YHo2(Co3P2)3
_chemical_formula_sum   'Y2 Ho4 Co18 P12'
_cell_volume   472.43167594
_cell_formula_units_Z   2
loop_
 _symmetry_equiv_pos_site_id
 _symmetry_equiv_pos_as_xyz
  1  'x, y, z'
loop_
 _atom_site_type_symbol
 _atom_site_label
 _atom_site_symmetry_multiplicity
 _atom_site_fract_x
 _atom_site_fract_y
 _atom_site_fract_z
 _atom_site_occupancy
  Y  Y0  1  0.000000  0.500000  0.522061  1
  Y  Y1  1  0.500000  0.000000  0.477939  1
  Ho  Ho2  1  0.500000  0.817092  0.205741  1
  Ho  Ho3  1  0.500000  0.182908  0.205741  1
  Ho  Ho4  1  0.000000  0.682908  0.794259  1
  Ho  Ho5  1  0.000000  0.317092  0.794259  1
  Co  Co6  1  0.500000  0.500000  0.158703  1
  Co  Co7  1  0.000000  0.000000  0.841297  1
  Co  Co8  1  0.500000  0.500000  0.703625  1
  Co  Co9  1  0.000000  0.000000  0.296375  1
  Co  Co10  1  0.000000  0.500000  0.985895  1
  Co  Co11  1  0.500000  0.000000  0.014105  1
  Co  Co12  1  0.500000  0.333307  0.994681  1
  Co  Co13  1  0.500000  0.666693  0.994681  1
  Co  Co14  1  0.000000  0.166693  0.005319  1
  Co  Co15  1  0.000000  0.833307  0.005319  1
  Co  Co16  1  0.500000  0.297302  0.430530  1
  Co  Co17  1  0.500000  0.702698  0.430530  1
  Co  Co18  1  0.000000  0.202698  0.569470  1
  Co  Co19  1  0.000000  0.797302  0.569470  1
  Co  Co20  1  0.500000  0.879416  0.709829  1
  Co  Co21  1  0.500000  0.120584  0.709829  1
  Co  Co22  1  0.000000  0.620584  0.290171  1
  Co  Co23  1  0.000000  0.379416  0.290171  1
  P  P24  1  0.500000  0.500000  0.882566  1
  P  P25  1  0.000000  0.000000  0.117434  1
  P  P26  1  0.500000  0.500000  0.343530  1
  P  P27  1  0.000000  0.000000  0.656470  1
  P  P28  1  0.500000  0.310211  0.616206  1
  P  P29  1  0.500000  0.689789  0.616206  1
  P  P30  1  0.000000  0.189789  0.383794  1
  P  P31  1  0.000000  0.810211  0.383794  1
  P  P32  1  0.500000  0.847502  0.893244  1
  P  P33  1  0.500000  0.152498  0.893244  1
  P  P34  1  0.000000  0.652498  0.106756  1
  P  P35  1  0.000000  0.347502  0.106756  1
