# generated using pymatgen
data_Pr6DyRhO12
_symmetry_space_group_name_H-M   'P 1'
_cell_length_a   6.89990502
_cell_length_b   6.89990601
_cell_length_c   6.89990500
_cell_angle_alpha   97.05918621
_cell_angle_beta   97.05917885
_cell_angle_gamma   97.05919019
_symmetry_Int_Tables_number   1
_chemical_formula_structural   Pr6DyRhO12
_chemical_formula_sum   'Pr6 Dy1 Rh1 O12'
_cell_volume   320.34265760
_cell_formula_units_Z   1
loop_
 _symmetry_equiv_pos_site_id
 _symmetry_equiv_pos_as_xyz
  1  'x, y, z'
loop_
 _atom_site_type_symbol
 _atom_site_label
 _atom_site_symmetry_multiplicity
 _atom_site_fract_x
 _atom_site_fract_y
 _atom_site_fract_z
 _atom_site_occupancy
  Pr  Pr0  1  0.724549  0.898562  0.412790  1
  Pr  Pr1  1  0.412790  0.724549  0.898562  1
  Pr  Pr2  1  0.101438  0.587210  0.275451  1
  Pr  Pr3  1  0.898562  0.412790  0.724549  1
  Pr  Pr4  1  0.587210  0.275451  0.101438  1
  Pr  Pr5  1  0.275451  0.101438  0.587210  1
  Dy  Dy6  1  0.000000  0.000000  0.000000  1
  Rh  Rh7  1  0.500000  0.500000  0.500000  1
  O  O8  1  0.061765  0.924172  0.314579  1
  O  O9  1  0.685421  0.938235  0.075828  1
  O  O10  1  0.439441  0.792848  0.571483  1
  O  O11  1  0.075828  0.685421  0.938235  1
  O  O12  1  0.792848  0.571483  0.439441  1
  O  O13  1  0.428517  0.560559  0.207152  1
  O  O14  1  0.571483  0.439441  0.792848  1
  O  O15  1  0.207152  0.428517  0.560559  1
  O  O16  1  0.924172  0.314579  0.061765  1
  O  O17  1  0.560559  0.207152  0.428517  1
  O  O18  1  0.314579  0.061765  0.924172  1
  O  O19  1  0.938235  0.075828  0.685421  1
