# generated using pymatgen
data_Yb3(CuRu2)2
_symmetry_space_group_name_H-M   'P 1'
_cell_length_a   5.30094294
_cell_length_b   5.31673140
_cell_length_c   12.76512392
_cell_angle_alpha   89.69021349
_cell_angle_beta   92.06164172
_cell_angle_gamma   121.84775517
_symmetry_Int_Tables_number   1
_chemical_formula_structural   Yb3(CuRu2)2
_chemical_formula_sum   'Yb6 Cu4 Ru8'
_cell_volume   305.36944790
_cell_formula_units_Z   2
loop_
 _symmetry_equiv_pos_site_id
 _symmetry_equiv_pos_as_xyz
  1  'x, y, z'
loop_
 _atom_site_type_symbol
 _atom_site_label
 _atom_site_symmetry_multiplicity
 _atom_site_fract_x
 _atom_site_fract_y
 _atom_site_fract_z
 _atom_site_occupancy
  Yb  Yb0  1  0.334096  0.673449  0.917928  1
  Yb  Yb1  1  0.989497  0.992363  0.250803  1
  Yb  Yb2  1  0.664812  0.332571  0.583788  1
  Yb  Yb3  1  0.335188  0.667429  0.666212  1
  Yb  Yb4  1  0.010503  0.007637  0.999197  1
  Yb  Yb5  1  0.665904  0.326551  0.332072  1
  Cu  Cu6  1  0.500000  0.500000  0.125000  1
  Cu  Cu7  1  0.164640  0.831069  0.457677  1
  Cu  Cu8  1  0.835360  0.168931  0.792323  1
  Cu  Cu9  1  0.500000  0.000000  0.125000  1
  Ru  Ru10  1  0.167189  0.331922  0.459822  1
  Ru  Ru11  1  0.832811  0.668078  0.790178  1
  Ru  Ru12  1  0.316657  0.651315  0.286924  1
  Ru  Ru13  1  0.000000  0.000000  0.625000  1
  Ru  Ru14  1  0.683343  0.348685  0.963076  1
  Ru  Ru15  1  0.000000  0.500000  0.125000  1
  Ru  Ru16  1  0.658880  0.823630  0.457208  1
  Ru  Ru17  1  0.341120  0.176370  0.792792  1
