# generated using pymatgen
data_Y6TcB14Ru
_symmetry_space_group_name_H-M   'P 1'
_cell_length_a   8.08697093
_cell_length_b   8.08697078
_cell_length_c   9.35649500
_cell_angle_alpha   90.00000000
_cell_angle_beta   90.00000000
_cell_angle_gamma   154.74173742
_symmetry_Int_Tables_number   1
_chemical_formula_structural   Y6TcB14Ru
_chemical_formula_sum   'Y6 Tc1 B14 Ru1'
_cell_volume   261.09992079
_cell_formula_units_Z   1
loop_
 _symmetry_equiv_pos_site_id
 _symmetry_equiv_pos_as_xyz
  1  'x, y, z'
loop_
 _atom_site_type_symbol
 _atom_site_label
 _atom_site_symmetry_multiplicity
 _atom_site_fract_x
 _atom_site_fract_y
 _atom_site_fract_z
 _atom_site_occupancy
  Y  Y0  1  0.894644  0.105356  0.440249  1
  Y  Y1  1  0.105312  0.894688  0.561713  1
  Y  Y2  1  0.894644  0.105356  0.059751  1
  Y  Y3  1  0.105312  0.894688  0.938287  1
  Y  Y4  1  0.243151  0.756849  0.250000  1
  Y  Y5  1  0.757626  0.242374  0.750000  1
  Tc  Tc6  1  0.946890  0.053110  0.750000  1
  B  B7  1  0.726800  0.273200  0.465577  1
  B  B8  1  0.272587  0.727413  0.533880  1
  B  B9  1  0.726800  0.273200  0.034423  1
  B  B10  1  0.272587  0.727413  0.966120  1
  B  B11  1  0.631381  0.368619  0.151362  1
  B  B12  1  0.368247  0.631753  0.848774  1
  B  B13  1  0.631381  0.368619  0.348638  1
  B  B14  1  0.368247  0.631753  0.651226  1
  B  B15  1  0.520752  0.479248  0.096391  1
  B  B16  1  0.479224  0.520776  0.904212  1
  B  B17  1  0.520752  0.479248  0.403609  1
  B  B18  1  0.479224  0.520776  0.595788  1
  B  B19  1  0.457815  0.542185  0.250000  1
  B  B20  1  0.542431  0.457569  0.750000  1
  Ru  Ru21  1  0.054197  0.945803  0.250000  1
