# generated using pymatgen
data_EuDyCo8(P3W)2
_symmetry_space_group_name_H-M   'P 1'
_cell_length_a   3.72724900
_cell_length_b   10.52546500
_cell_length_c   11.98686100
_cell_angle_alpha   90.00000000
_cell_angle_beta   90.00000000
_cell_angle_gamma   90.00000000
_symmetry_Int_Tables_number   1
_chemical_formula_structural   EuDyCo8(P3W)2
_chemical_formula_sum   'Eu2 Dy2 Co16 P12 W4'
_cell_volume   470.25689026
_cell_formula_units_Z   2
loop_
 _symmetry_equiv_pos_site_id
 _symmetry_equiv_pos_as_xyz
  1  'x, y, z'
loop_
 _atom_site_type_symbol
 _atom_site_label
 _atom_site_symmetry_multiplicity
 _atom_site_fract_x
 _atom_site_fract_y
 _atom_site_fract_z
 _atom_site_occupancy
  Eu  Eu0  1  0.250000  0.582988  0.704417  1
  Eu  Eu1  1  0.250000  0.917012  0.204417  1
  Dy  Dy2  1  0.750000  0.416986  0.295580  1
  Dy  Dy3  1  0.750000  0.083014  0.795580  1
  Co  Co4  1  0.250000  0.402737  0.487166  1
  Co  Co5  1  0.250000  0.097263  0.987166  1
  Co  Co6  1  0.750000  0.592719  0.507300  1
  Co  Co7  1  0.750000  0.907281  0.007300  1
  Co  Co8  1  0.250000  0.222982  0.177147  1
  Co  Co9  1  0.250000  0.277018  0.677147  1
  Co  Co10  1  0.750000  0.780472  0.823600  1
  Co  Co11  1  0.750000  0.719528  0.323600  1
  Co  Co12  1  0.250000  0.889967  0.699815  1
  Co  Co13  1  0.250000  0.610033  0.199815  1
  Co  Co14  1  0.750000  0.116635  0.302222  1
  Co  Co15  1  0.750000  0.383365  0.802222  1
  Co  Co16  1  0.250000  0.464475  0.936061  1
  Co  Co17  1  0.250000  0.035525  0.436061  1
  Co  Co18  1  0.750000  0.534311  0.065749  1
  Co  Co19  1  0.750000  0.965689  0.565749  1
  P  P20  1  0.250000  0.419472  0.115872  1
  P  P21  1  0.250000  0.080528  0.615872  1
  P  P22  1  0.750000  0.580357  0.885011  1
  P  P23  1  0.750000  0.919643  0.385011  1
  P  P24  1  0.250000  0.270366  0.864354  1
  P  P25  1  0.250000  0.229634  0.364354  1
  P  P26  1  0.750000  0.728789  0.135573  1
  P  P27  1  0.750000  0.771211  0.635573  1
  P  P28  1  0.250000  0.595284  0.391147  1
  P  P29  1  0.250000  0.904716  0.891147  1
  P  P30  1  0.750000  0.403358  0.608443  1
  P  P31  1  0.750000  0.096642  0.108443  1
  W  W32  1  0.250000  0.707953  0.987527  1
  W  W33  1  0.250000  0.792047  0.487527  1
  W  W34  1  0.750000  0.292113  0.013018  1
  W  W35  1  0.750000  0.207887  0.513018  1
