# generated using pymatgen
data_La2Nd5PaSe12
_symmetry_space_group_name_H-M   'P 1'
_cell_length_a   11.52857601
_cell_length_b   4.19030100
_cell_length_c   11.27823800
_cell_angle_alpha   90.00000000
_cell_angle_beta   89.83812543
_cell_angle_gamma   90.00000000
_symmetry_Int_Tables_number   1
_chemical_formula_structural   La2Nd5PaSe12
_chemical_formula_sum   'La2 Nd5 Pa1 Se12'
_cell_volume   544.82924297
_cell_formula_units_Z   1
loop_
 _symmetry_equiv_pos_site_id
 _symmetry_equiv_pos_as_xyz
  1  'x, y, z'
loop_
 _atom_site_type_symbol
 _atom_site_label
 _atom_site_symmetry_multiplicity
 _atom_site_fract_x
 _atom_site_fract_y
 _atom_site_fract_z
 _atom_site_occupancy
  La  La0  1  0.308621  0.250000  0.509520  1
  La  La1  1  0.805547  0.250000  0.000739  1
  Nd  Nd2  1  0.485759  0.250000  0.186335  1
  Nd  Nd3  1  0.987486  0.250000  0.316168  1
  Nd  Nd4  1  0.514412  0.750000  0.811771  1
  Nd  Nd5  1  0.009820  0.750000  0.686036  1
  Nd  Nd6  1  0.692221  0.750000  0.493190  1
  Pa  Pa7  1  0.193043  0.750000  0.997753  1
  Se  Se8  1  0.549558  0.250000  0.626894  1
  Se  Se9  1  0.052079  0.250000  0.876010  1
  Se  Se10  1  0.452629  0.750000  0.372843  1
  Se  Se11  1  0.962130  0.750000  0.125888  1
  Se  Se12  1  0.616580  0.750000  0.054717  1
  Se  Se13  1  0.121521  0.750000  0.444920  1
  Se  Se14  1  0.376363  0.250000  0.945104  1
  Se  Se15  1  0.876955  0.250000  0.555354  1
  Se  Se16  1  0.728683  0.250000  0.296406  1
  Se  Se17  1  0.222318  0.250000  0.187380  1
  Se  Se18  1  0.269106  0.750000  0.709932  1
  Se  Se19  1  0.775172  0.750000  0.803041  1
