# generated using pymatgen
data_Ba6BiPb8Se
_symmetry_space_group_name_H-M   'P 1'
_cell_length_a   9.49676256
_cell_length_b   9.49676248
_cell_length_c   9.53747900
_cell_angle_alpha   119.85888697
_cell_angle_beta   119.85887974
_cell_angle_gamma   90.00000536
_symmetry_Int_Tables_number   1
_chemical_formula_structural   Ba6BiPb8Se
_chemical_formula_sum   'Ba6 Bi1 Pb8 Se1'
_cell_volume   610.81815290
_cell_formula_units_Z   1
loop_
 _symmetry_equiv_pos_site_id
 _symmetry_equiv_pos_as_xyz
  1  'x, y, z'
loop_
 _atom_site_type_symbol
 _atom_site_label
 _atom_site_symmetry_multiplicity
 _atom_site_fract_x
 _atom_site_fract_y
 _atom_site_fract_z
 _atom_site_occupancy
  Ba  Ba0  1  0.260313  0.260313  0.520625  1
  Ba  Ba1  1  0.739687  0.739687  0.479375  1
  Ba  Ba2  1  0.659784  0.178260  0.000000  1
  Ba  Ba3  1  0.340216  0.821740  0.000000  1
  Ba  Ba4  1  0.821740  0.659784  0.000000  1
  Ba  Ba5  1  0.178260  0.340216  0.000000  1
  Bi  Bi6  1  0.000000  0.000000  0.000000  1
  Pb  Pb7  1  0.323410  0.833134  0.376350  1
  Pb  Pb8  1  0.676590  0.166866  0.623650  1
  Pb  Pb9  1  0.052942  0.543217  0.376350  1
  Pb  Pb10  1  0.543217  0.323410  0.376350  1
  Pb  Pb11  1  0.166866  0.947058  0.623650  1
  Pb  Pb12  1  0.947058  0.456783  0.623650  1
  Pb  Pb13  1  0.456783  0.676590  0.623650  1
  Pb  Pb14  1  0.833134  0.052942  0.376350  1
  Se  Se15  1  0.500000  0.500000  0.000000  1
