# generated using pymatgen
data_Ni2Mo12PdPt5N4
_symmetry_space_group_name_H-M   'P 1'
_cell_length_a   6.84472308
_cell_length_b   6.83913016
_cell_length_c   6.85132598
_cell_angle_alpha   89.87133806
_cell_angle_beta   89.94441996
_cell_angle_gamma   90.06959596
_symmetry_Int_Tables_number   1
_chemical_formula_structural   Ni2Mo12PdPt5N4
_chemical_formula_sum   'Ni2 Mo12 Pd1 Pt5 N4'
_cell_volume   320.72274631
_cell_formula_units_Z   1
loop_
 _symmetry_equiv_pos_site_id
 _symmetry_equiv_pos_as_xyz
  1  'x, y, z'
loop_
 _atom_site_type_symbol
 _atom_site_label
 _atom_site_symmetry_multiplicity
 _atom_site_fract_x
 _atom_site_fract_y
 _atom_site_fract_z
 _atom_site_occupancy
  Ni  Ni0  1  0.557940  0.438305  0.942870  1
  Ni  Ni1  1  0.056703  0.062755  0.057570  1
  Mo  Mo2  1  0.206836  0.445683  0.123750  1
  Mo  Mo3  1  0.051867  0.877748  0.709095  1
  Mo  Mo4  1  0.446875  0.128709  0.202130  1
  Mo  Mo5  1  0.298197  0.549879  0.627742  1
  Mo  Mo6  1  0.946860  0.371508  0.798804  1
  Mo  Mo7  1  0.550450  0.623443  0.292268  1
  Mo  Mo8  1  0.705584  0.053539  0.875831  1
  Mo  Mo9  1  0.626468  0.297997  0.554225  1
  Mo  Mo10  1  0.876021  0.709217  0.051955  1
  Mo  Mo11  1  0.376630  0.790901  0.947396  1
  Mo  Mo12  1  0.126861  0.199959  0.447027  1
  Mo  Mo13  1  0.797025  0.950714  0.371525  1
  Pd  Pd14  1  0.940752  0.559087  0.439426  1
  Pt  Pt15  1  0.186298  0.817026  0.298215  1
  Pt  Pt16  1  0.439535  0.939315  0.560560  1
  Pt  Pt17  1  0.689081  0.681773  0.699830  1
  Pt  Pt18  1  0.809433  0.308741  0.179833  1
  Pt  Pt19  1  0.309314  0.193139  0.820780  1
  N  N20  1  0.876129  0.125419  0.623473  1
  N  N21  1  0.624632  0.876464  0.124907  1
  N  N22  1  0.124952  0.623555  0.874109  1
  N  N23  1  0.375560  0.375125  0.376680  1
