# generated using pymatgen
data_Lu3Ta(AgS4)2
_symmetry_space_group_name_H-M   'P 1'
_cell_length_a   7.67579000
_cell_length_b   7.78273200
_cell_length_c   10.92828300
_cell_angle_alpha   90.00000000
_cell_angle_beta   90.00000000
_cell_angle_gamma   90.00000000
_symmetry_Int_Tables_number   1
_chemical_formula_structural   Lu3Ta(AgS4)2
_chemical_formula_sum   'Lu6 Ta2 Ag4 S16'
_cell_volume   652.84050668
_cell_formula_units_Z   2
loop_
 _symmetry_equiv_pos_site_id
 _symmetry_equiv_pos_as_xyz
  1  'x, y, z'
loop_
 _atom_site_type_symbol
 _atom_site_label
 _atom_site_symmetry_multiplicity
 _atom_site_fract_x
 _atom_site_fract_y
 _atom_site_fract_z
 _atom_site_occupancy
  Lu  Lu0  1  0.738429  0.000000  0.500000  1
  Lu  Lu1  1  0.737840  0.500000  0.500000  1
  Lu  Lu2  1  0.262160  0.500000  0.000000  1
  Lu  Lu3  1  0.000000  0.754980  0.250000  1
  Lu  Lu4  1  0.261571  0.000000  0.000000  1
  Lu  Lu5  1  0.000000  0.245020  0.750000  1
  Ta  Ta6  1  0.500000  0.761045  0.250000  1
  Ta  Ta7  1  0.500000  0.238955  0.750000  1
  Ag  Ag8  1  0.760178  0.733034  0.877186  1
  Ag  Ag9  1  0.239822  0.266966  0.377186  1
  Ag  Ag10  1  0.239822  0.733034  0.622814  1
  Ag  Ag11  1  0.760178  0.266966  0.122814  1
  S  S12  1  0.730634  0.982702  0.253580  1
  S  S13  1  0.497550  0.751481  0.475266  1
  S  S14  1  0.730220  0.533119  0.254746  1
  S  S15  1  0.502450  0.248519  0.975266  1
  S  S16  1  0.269780  0.533119  0.245254  1
  S  S17  1  0.030055  0.750435  0.006433  1
  S  S18  1  0.269366  0.982702  0.246420  1
  S  S19  1  0.502450  0.751481  0.024734  1
  S  S20  1  0.269780  0.466881  0.754746  1
  S  S21  1  0.030055  0.249565  0.993567  1
  S  S22  1  0.269366  0.017298  0.753580  1
  S  S23  1  0.969945  0.750435  0.493567  1
  S  S24  1  0.730634  0.017298  0.746420  1
  S  S25  1  0.497550  0.248519  0.524734  1
  S  S26  1  0.730220  0.466881  0.745254  1
  S  S27  1  0.969945  0.249565  0.506433  1
