# generated using pymatgen
data_Zr5InGeBi2
_symmetry_space_group_name_H-M   'P 1'
_cell_length_a   8.83219864
_cell_length_b   8.83219846
_cell_length_c   5.95809500
_cell_angle_alpha   90.00000000
_cell_angle_beta   90.00000000
_cell_angle_gamma   119.77100305
_symmetry_Int_Tables_number   1
_chemical_formula_structural   Zr5InGeBi2
_chemical_formula_sum   'Zr10 In2 Ge2 Bi4'
_cell_volume   403.43468135
_cell_formula_units_Z   2
loop_
 _symmetry_equiv_pos_site_id
 _symmetry_equiv_pos_as_xyz
  1  'x, y, z'
loop_
 _atom_site_type_symbol
 _atom_site_label
 _atom_site_symmetry_multiplicity
 _atom_site_fract_x
 _atom_site_fract_y
 _atom_site_fract_z
 _atom_site_occupancy
  Zr  Zr0  1  0.735240  0.004148  0.250000  1
  Zr  Zr1  1  0.004148  0.735240  0.250000  1
  Zr  Zr2  1  0.265603  0.265603  0.250000  1
  Zr  Zr3  1  0.255216  0.999108  0.750000  1
  Zr  Zr4  1  0.999108  0.255216  0.750000  1
  Zr  Zr5  1  0.742230  0.742230  0.750000  1
  Zr  Zr6  1  0.332736  0.667253  0.493922  1
  Zr  Zr7  1  0.667253  0.332736  0.493922  1
  Zr  Zr8  1  0.667253  0.332736  0.006078  1
  Zr  Zr9  1  0.332736  0.667253  0.006078  1
  In  In10  1  0.388708  0.000787  0.250000  1
  In  In11  1  0.000787  0.388708  0.250000  1
  Ge  Ge12  1  0.000091  0.000091  0.494055  1
  Ge  Ge13  1  0.000091  0.000091  0.005945  1
  Bi  Bi14  1  0.613415  0.613415  0.250000  1
  Bi  Bi15  1  0.600412  0.000934  0.750000  1
  Bi  Bi16  1  0.000934  0.600412  0.750000  1
  Bi  Bi17  1  0.394038  0.394038  0.750000  1
