# generated using pymatgen
data_KAc(PS3)2
_symmetry_space_group_name_H-M   'P 1'
_cell_length_a   7.75050000
_cell_length_b   6.76523406
_cell_length_c   10.19127470
_cell_angle_alpha   87.81958854
_cell_angle_beta   90.00000000
_cell_angle_gamma   90.00000000
_symmetry_Int_Tables_number   1
_chemical_formula_structural   KAc(PS3)2
_chemical_formula_sum   'K2 Ac2 P4 S12'
_cell_volume   533.98186108
_cell_formula_units_Z   2
loop_
 _symmetry_equiv_pos_site_id
 _symmetry_equiv_pos_as_xyz
  1  'x, y, z'
loop_
 _atom_site_type_symbol
 _atom_site_label
 _atom_site_symmetry_multiplicity
 _atom_site_fract_x
 _atom_site_fract_y
 _atom_site_fract_z
 _atom_site_occupancy
  K  K0  1  0.474515  0.700467  0.499499  1
  K  K1  1  0.974515  0.299533  0.500501  1
  Ac  Ac2  1  0.186775  0.211753  0.995125  1
  Ac  Ac3  1  0.686775  0.788247  0.004875  1
  P  P4  1  0.684469  0.315629  0.825145  1
  P  P5  1  0.963996  0.795723  0.297191  1
  P  P6  1  0.184469  0.684371  0.174855  1
  P  P7  1  0.463996  0.204277  0.702809  1
  S  S8  1  0.771806  0.575202  0.748304  1
  S  S9  1  0.547136  0.175885  0.520731  1
  S  S10  1  0.776661  0.590717  0.273067  1
  S  S11  1  0.582108  0.340280  0.010843  1
  S  S12  1  0.392852  0.949841  0.809158  1
  S  S13  1  0.276661  0.409283  0.726933  1
  S  S14  1  0.082108  0.659720  0.989157  1
  S  S15  1  0.892852  0.050159  0.190842  1
  S  S16  1  0.047136  0.824115  0.479269  1
  S  S17  1  0.368573  0.904450  0.178667  1
  S  S18  1  0.868573  0.095550  0.821333  1
  S  S19  1  0.271806  0.424798  0.251696  1
