# generated using pymatgen
data_BeAl2BMo2
_symmetry_space_group_name_H-M   'P 1'
_cell_length_a   7.28653101
_cell_length_b   7.28653113
_cell_length_c   3.24962800
_cell_angle_alpha   90.00000000
_cell_angle_beta   90.00000000
_cell_angle_gamma   154.81892452
_symmetry_Int_Tables_number   1
_chemical_formula_structural   BeAl2BMo2
_chemical_formula_sum   'Be1 Al2 B1 Mo2'
_cell_volume   73.40993801
_cell_formula_units_Z   1
loop_
 _symmetry_equiv_pos_site_id
 _symmetry_equiv_pos_as_xyz
  1  'x, y, z'
loop_
 _atom_site_type_symbol
 _atom_site_label
 _atom_site_symmetry_multiplicity
 _atom_site_fract_x
 _atom_site_fract_y
 _atom_site_fract_z
 _atom_site_occupancy
  Be  Be0  1  0.536293  0.463707  0.250000  1
  Al  Al1  1  0.699559  0.300441  0.250000  1
  Al  Al2  1  0.301026  0.698974  0.750000  1
  B  B3  1  0.464260  0.535740  0.750000  1
  Mo  Mo4  1  0.088925  0.911075  0.750000  1
  Mo  Mo5  1  0.909936  0.090064  0.250000  1
