# generated using pymatgen
data_Ho2Er2Ga12Os
_symmetry_space_group_name_H-M   'P 1'
_cell_length_a   7.44788796
_cell_length_b   7.44692498
_cell_length_c   7.44692400
_cell_angle_alpha   109.46850533
_cell_angle_beta   109.46996120
_cell_angle_gamma   109.46995211
_symmetry_Int_Tables_number   1
_chemical_formula_structural   Ho2Er2Ga12Os
_chemical_formula_sum   'Ho2 Er2 Ga12 Os1'
_cell_volume   317.97519648
_cell_formula_units_Z   1
loop_
 _symmetry_equiv_pos_site_id
 _symmetry_equiv_pos_as_xyz
  1  'x, y, z'
loop_
 _atom_site_type_symbol
 _atom_site_label
 _atom_site_symmetry_multiplicity
 _atom_site_fract_x
 _atom_site_fract_y
 _atom_site_fract_z
 _atom_site_occupancy
  Ho  Ho0  1  0.000000  0.000000  0.500000  1
  Ho  Ho1  1  0.000000  0.500000  0.000000  1
  Er  Er2  1  0.500000  0.000000  0.000000  1
  Er  Er3  1  0.500000  0.500000  0.500000  1
  Ga  Ga4  1  0.749875  0.250032  0.499843  1
  Ga  Ga5  1  0.749875  0.499843  0.250032  1
  Ga  Ga6  1  0.500000  0.250000  0.750000  1
  Ga  Ga7  1  0.250125  0.500157  0.749968  1
  Ga  Ga8  1  0.250125  0.749968  0.500157  1
  Ga  Ga9  1  0.500000  0.750000  0.250000  1
  Ga  Ga10  1  0.708137  0.708297  0.999840  1
  Ga  Ga11  1  0.291863  0.000160  0.291703  1
  Ga  Ga12  1  0.000000  0.291732  0.291732  1
  Ga  Ga13  1  0.291863  0.291703  0.000160  1
  Ga  Ga14  1  0.708137  0.999840  0.708297  1
  Ga  Ga15  1  0.000000  0.708268  0.708268  1
  Os  Os16  1  0.000000  0.000000  0.000000  1
