# generated using pymatgen
data_TlRh(S2O7)2
_symmetry_space_group_name_H-M   'P 1'
_cell_length_a   5.05235187
_cell_length_b   7.45481556
_cell_length_c   9.46109800
_cell_angle_alpha   108.49535867
_cell_angle_beta   82.63144321
_cell_angle_gamma   101.19028979
_symmetry_Int_Tables_number   1
_chemical_formula_structural   TlRh(S2O7)2
_chemical_formula_sum   'Tl1 Rh1 S4 O14'
_cell_volume   330.66288291
_cell_formula_units_Z   1
loop_
 _symmetry_equiv_pos_site_id
 _symmetry_equiv_pos_as_xyz
  1  'x, y, z'
loop_
 _atom_site_type_symbol
 _atom_site_label
 _atom_site_symmetry_multiplicity
 _atom_site_fract_x
 _atom_site_fract_y
 _atom_site_fract_z
 _atom_site_occupancy
  Tl  Tl0  1  0.500000  0.000000  0.000000  1
  Rh  Rh1  1  0.500000  0.500000  0.500000  1
  S  S2  1  0.007115  0.691767  0.711398  1
  S  S3  1  0.992885  0.308233  0.288602  1
  S  S4  1  0.673464  0.306234  0.724213  1
  S  S5  1  0.326536  0.693766  0.275787  1
  O  O6  1  0.856357  0.660011  0.578540  1
  O  O7  1  0.143643  0.339989  0.421460  1
  O  O8  1  0.459366  0.365432  0.661011  1
  O  O9  1  0.540634  0.634568  0.338989  1
  O  O10  1  0.302920  0.696487  0.663475  1
  O  O11  1  0.697080  0.303513  0.336525  1
  O  O12  1  0.978728  0.866174  0.830425  1
  O  O13  1  0.021272  0.133826  0.169575  1
  O  O14  1  0.577029  0.287688  0.869337  1
  O  O15  1  0.422971  0.712312  0.130663  1
  O  O16  1  0.909841  0.522173  0.781258  1
  O  O17  1  0.090159  0.477827  0.218742  1
  O  O18  1  0.825590  0.170588  0.622685  1
  O  O19  1  0.174410  0.829412  0.377315  1
