# generated using pymatgen
data_CaCdH12Ir2Pb
_symmetry_space_group_name_H-M   'P 1'
_cell_length_a   4.90129100
_cell_length_b   4.90129167
_cell_length_c   8.57999100
_cell_angle_alpha   90.00000000
_cell_angle_beta   90.00000000
_cell_angle_gamma   120.00000224
_symmetry_Int_Tables_number   1
_chemical_formula_structural   CaCdH12Ir2Pb
_chemical_formula_sum   'Ca1 Cd1 H12 Ir2 Pb1'
_cell_volume   178.50011074
_cell_formula_units_Z   1
loop_
 _symmetry_equiv_pos_site_id
 _symmetry_equiv_pos_as_xyz
  1  'x, y, z'
loop_
 _atom_site_type_symbol
 _atom_site_label
 _atom_site_symmetry_multiplicity
 _atom_site_fract_x
 _atom_site_fract_y
 _atom_site_fract_z
 _atom_site_occupancy
  Ca  Ca0  1  0.333333  0.666667  0.623696  1
  Cd  Cd1  1  0.666667  0.333333  0.310955  1
  H  H2  1  0.170503  0.829497  0.376257  1
  H  H3  1  0.658994  0.829497  0.376257  1
  H  H4  1  0.170503  0.341006  0.376257  1
  H  H5  1  0.825566  0.174434  0.644177  1
  H  H6  1  0.348868  0.174434  0.644177  1
  H  H7  1  0.825566  0.651132  0.644177  1
  H  H8  1  0.501912  0.003824  0.868211  1
  H  H9  1  0.501912  0.498088  0.868211  1
  H  H10  1  0.996176  0.498088  0.868211  1
  H  H11  1  0.480029  0.960059  0.135792  1
  H  H12  1  0.480029  0.519971  0.135792  1
  H  H13  1  0.039941  0.519971  0.135792  1
  Ir  Ir14  1  0.666667  0.333333  0.759397  1
  Ir  Ir15  1  0.333333  0.666667  0.267225  1
  Pb  Pb16  1  0.000000  0.000000  0.965417  1
