# generated using pymatgen
data_Tb2TmCoSn6
_symmetry_space_group_name_H-M   'P 1'
_cell_length_a   8.43994884
_cell_length_b   8.43994863
_cell_length_c   13.16695500
_cell_angle_alpha   90.00000000
_cell_angle_beta   90.00000000
_cell_angle_gamma   148.69390658
_symmetry_Int_Tables_number   1
_chemical_formula_structural   Tb2TmCoSn6
_chemical_formula_sum   'Tb4 Tm2 Co2 Sn12'
_cell_volume   487.35166399
_cell_formula_units_Z   2
loop_
 _symmetry_equiv_pos_site_id
 _symmetry_equiv_pos_as_xyz
  1  'x, y, z'
loop_
 _atom_site_type_symbol
 _atom_site_label
 _atom_site_symmetry_multiplicity
 _atom_site_fract_x
 _atom_site_fract_y
 _atom_site_fract_z
 _atom_site_occupancy
  Tb  Tb0  1  0.900207  0.099793  0.093437  1
  Tb  Tb1  1  0.099793  0.900207  0.593437  1
  Tb  Tb2  1  0.099793  0.900207  0.906563  1
  Tb  Tb3  1  0.900207  0.099793  0.406563  1
  Tm  Tm4  1  0.900222  0.099778  0.750000  1
  Tm  Tm5  1  0.099778  0.900222  0.250000  1
  Co  Co6  1  0.297514  0.702486  0.250000  1
  Co  Co7  1  0.702486  0.297514  0.750000  1
  Sn  Sn8  1  0.755235  0.244765  0.570973  1
  Sn  Sn9  1  0.427004  0.572996  0.577214  1
  Sn  Sn10  1  0.572996  0.427004  0.422786  1
  Sn  Sn11  1  0.732137  0.267863  0.250000  1
  Sn  Sn12  1  0.267863  0.732137  0.750000  1
  Sn  Sn13  1  0.244765  0.755235  0.070973  1
  Sn  Sn14  1  0.244765  0.755235  0.429027  1
  Sn  Sn15  1  0.572996  0.427004  0.077214  1
  Sn  Sn16  1  0.453211  0.546789  0.250000  1
  Sn  Sn17  1  0.546789  0.453211  0.750000  1
  Sn  Sn18  1  0.755235  0.244765  0.929027  1
  Sn  Sn19  1  0.427004  0.572996  0.922786  1
