# generated using pymatgen
data_CsTb(SeO4)2
_symmetry_space_group_name_H-M   'P 1'
_cell_length_a   5.55089800
_cell_length_b   5.55089828
_cell_length_c   9.33582900
_cell_angle_alpha   90.00000000
_cell_angle_beta   90.00000000
_cell_angle_gamma   119.99999836
_symmetry_Int_Tables_number   1
_chemical_formula_structural   CsTb(SeO4)2
_chemical_formula_sum   'Cs1 Tb1 Se2 O8'
_cell_volume   249.12083043
_cell_formula_units_Z   1
loop_
 _symmetry_equiv_pos_site_id
 _symmetry_equiv_pos_as_xyz
  1  'x, y, z'
loop_
 _atom_site_type_symbol
 _atom_site_label
 _atom_site_symmetry_multiplicity
 _atom_site_fract_x
 _atom_site_fract_y
 _atom_site_fract_z
 _atom_site_occupancy
  Cs  Cs0  1  0.000000  0.000000  0.500001  1
  Tb  Tb1  1  0.000000  0.000000  0.000000  1
  Se  Se2  1  0.333333  0.666666  0.210519  1
  Se  Se3  1  0.666666  0.333333  0.789481  1
  O  O4  1  0.086151  0.357869  0.147889  1
  O  O5  1  0.642133  0.728284  0.147889  1
  O  O6  1  0.271717  0.913849  0.147889  1
  O  O7  1  0.333333  0.666666  0.386848  1
  O  O8  1  0.666666  0.333333  0.613152  1
  O  O9  1  0.728283  0.086152  0.852111  1
  O  O10  1  0.357869  0.271717  0.852111  1
  O  O11  1  0.913848  0.642132  0.852111  1
