# generated using pymatgen
data_RbTm2CuS4
_symmetry_space_group_name_H-M   'P 1'
_cell_length_a   3.94196900
_cell_length_b   7.09118926
_cell_length_c   13.71450000
_cell_angle_alpha   90.00000000
_cell_angle_beta   90.00000000
_cell_angle_gamma   73.86220066
_symmetry_Int_Tables_number   1
_chemical_formula_structural   RbTm2CuS4
_chemical_formula_sum   'Rb2 Tm4 Cu2 S8'
_cell_volume   368.25871337
_cell_formula_units_Z   2
loop_
 _symmetry_equiv_pos_site_id
 _symmetry_equiv_pos_as_xyz
  1  'x, y, z'
loop_
 _atom_site_type_symbol
 _atom_site_label
 _atom_site_symmetry_multiplicity
 _atom_site_fract_x
 _atom_site_fract_y
 _atom_site_fract_z
 _atom_site_occupancy
  Rb  Rb0  1  0.890627  0.218749  0.250000  1
  Rb  Rb1  1  0.109373  0.781251  0.750000  1
  Tm  Tm2  1  0.633751  0.732501  0.062390  1
  Tm  Tm3  1  0.633751  0.732501  0.437611  1
  Tm  Tm4  1  0.366250  0.267499  0.562389  1
  Tm  Tm5  1  0.366250  0.267499  0.937611  1
  Cu  Cu6  1  0.164488  0.671023  0.250000  1
  Cu  Cu7  1  0.835512  0.328977  0.750000  1
  S  S8  1  0.000000  0.000000  0.000000  1
  S  S9  1  0.258336  0.483327  0.106389  1
  S  S10  1  0.574614  0.850776  0.250000  1
  S  S11  1  0.258336  0.483327  0.393611  1
  S  S12  1  0.000000  0.000000  0.500000  1
  S  S13  1  0.741665  0.516673  0.606389  1
  S  S14  1  0.425387  0.149224  0.750000  1
  S  S15  1  0.741665  0.516673  0.893611  1
