# generated using pymatgen
data_Ce2Al20IrOs3
_symmetry_space_group_name_H-M   'P 1'
_cell_length_a   6.87160928
_cell_length_b   6.87719019
_cell_length_c   9.17402815
_cell_angle_alpha   90.16099030
_cell_angle_beta   90.08882830
_cell_angle_gamma   97.25678260
_symmetry_Int_Tables_number   1
_chemical_formula_structural   Ce2Al20IrOs3
_chemical_formula_sum   'Ce2 Al20 Ir1 Os3'
_cell_volume   430.06523884
_cell_formula_units_Z   1
loop_
 _symmetry_equiv_pos_site_id
 _symmetry_equiv_pos_as_xyz
  1  'x, y, z'
loop_
 _atom_site_type_symbol
 _atom_site_label
 _atom_site_symmetry_multiplicity
 _atom_site_fract_x
 _atom_site_fract_y
 _atom_site_fract_z
 _atom_site_occupancy
  Ce  Ce0  1  0.627511  0.376574  0.749623  1
  Ce  Ce1  1  0.372489  0.623426  0.250377  1
  Al  Al2  1  0.279181  0.018265  0.747727  1
  Al  Al3  1  0.017247  0.280178  0.249715  1
  Al  Al4  1  0.720819  0.981735  0.252273  1
  Al  Al5  1  0.982753  0.719822  0.750285  1
  Al  Al6  1  0.878233  0.124220  0.952221  1
  Al  Al7  1  0.121767  0.875780  0.047779  1
  Al  Al8  1  0.876712  0.123911  0.546194  1
  Al  Al9  1  0.123288  0.876089  0.453806  1
  Al  Al10  1  0.646186  0.912635  0.749249  1
  Al  Al11  1  0.911700  0.645193  0.250283  1
  Al  Al12  1  0.353814  0.087365  0.250751  1
  Al  Al13  1  0.088300  0.354807  0.749717  1
  Al  Al14  1  0.342150  0.656424  0.895940  1
  Al  Al15  1  0.657850  0.343576  0.104060  1
  Al  Al16  1  0.343390  0.657301  0.602785  1
  Al  Al17  1  0.656610  0.342699  0.397215  1
  Al  Al18  1  0.722144  0.721003  0.999198  1
  Al  Al19  1  0.721216  0.720929  0.500401  1
  Al  Al20  1  0.277856  0.278997  0.000802  1
  Al  Al21  1  0.278784  0.279071  0.499599  1
  Ir  Ir22  1  0.500000  0.000000  0.000000  1
  Os  Os23  1  0.000000  0.500000  0.000000  1
  Os  Os24  1  0.500000  0.000000  0.500000  1
  Os  Os25  1  0.000000  0.500000  0.500000  1
