# generated using pymatgen
data_CePr2Cd3AgPt2
_symmetry_space_group_name_H-M   'P 1'
_cell_length_a   7.90986053
_cell_length_b   8.03055680
_cell_length_c   3.91699600
_cell_angle_alpha   90.00000000
_cell_angle_beta   90.00000000
_cell_angle_gamma   120.50605392
_symmetry_Int_Tables_number   1
_chemical_formula_structural   CePr2Cd3AgPt2
_chemical_formula_sum   'Ce1 Pr2 Cd3 Ag1 Pt2'
_cell_volume   214.36849920
_cell_formula_units_Z   1
loop_
 _symmetry_equiv_pos_site_id
 _symmetry_equiv_pos_as_xyz
  1  'x, y, z'
loop_
 _atom_site_type_symbol
 _atom_site_label
 _atom_site_symmetry_multiplicity
 _atom_site_fract_x
 _atom_site_fract_y
 _atom_site_fract_z
 _atom_site_occupancy
  Ce  Ce0  1  0.000000  0.580948  0.000000  1
  Pr  Pr1  1  0.413444  0.414429  0.000000  1
  Pr  Pr2  1  0.586556  0.000985  0.000000  1
  Cd  Cd3  1  0.741828  0.740974  0.500000  1
  Cd  Cd4  1  0.258172  0.999146  0.500000  1
  Cd  Cd5  1  0.000000  0.256071  0.500000  1
  Ag  Ag6  1  0.000000  0.998539  0.000000  1
  Pt  Pt7  1  0.681545  0.345227  0.500000  1
  Pt  Pt8  1  0.318455  0.663683  0.500000  1
