# generated using pymatgen
data_Th3Cu3Sn3Pb
_symmetry_space_group_name_H-M   'P 1'
_cell_length_a   8.48491570
_cell_length_b   8.50931733
_cell_length_c   8.48491500
_cell_angle_alpha   109.52784949
_cell_angle_beta   109.31851212
_cell_angle_gamma   109.45077145
_symmetry_Int_Tables_number   1
_chemical_formula_structural   Th3Cu3Sn3Pb
_chemical_formula_sum   'Th6 Cu6 Sn6 Pb2'
_cell_volume   472.26933180
_cell_formula_units_Z   2
loop_
 _symmetry_equiv_pos_site_id
 _symmetry_equiv_pos_as_xyz
  1  'x, y, z'
loop_
 _atom_site_type_symbol
 _atom_site_label
 _atom_site_symmetry_multiplicity
 _atom_site_fract_x
 _atom_site_fract_y
 _atom_site_fract_z
 _atom_site_occupancy
  Th  Th0  1  0.881229  0.250000  0.131229  1
  Th  Th1  1  0.624941  0.750000  0.374941  1
  Th  Th2  1  0.247671  0.126172  0.877484  1
  Th  Th3  1  0.751311  0.373828  0.621498  1
  Th  Th4  1  0.127135  0.878951  0.249601  1
  Th  Th5  1  0.370650  0.621049  0.748184  1
  Cu  Cu6  1  0.369962  0.250000  0.619962  1
  Cu  Cu7  1  0.124002  0.750000  0.874002  1
  Cu  Cu8  1  0.245741  0.620856  0.371183  1
  Cu  Cu9  1  0.750327  0.879144  0.124885  1
  Cu  Cu10  1  0.625632  0.372914  0.252789  1
  Cu  Cu11  1  0.879876  0.127086  0.752718  1
  Sn  Sn12  1  0.999815  0.667118  0.499144  1
  Sn  Sn13  1  0.832026  0.832882  0.832697  1
  Sn  Sn14  1  0.499304  0.998705  0.162875  1
  Sn  Sn15  1  0.164171  0.501295  0.000599  1
  Sn  Sn16  1  0.999016  0.163075  0.500458  1
  Sn  Sn17  1  0.337383  0.336925  0.335941  1
  Pb  Pb18  1  0.669324  0.499404  0.999890  1
  Pb  Pb19  1  0.500487  0.000596  0.669920  1
