# generated using pymatgen
data_NdEr3Tm(In2Pt)2
_symmetry_space_group_name_H-M   'P 1'
_cell_length_a   3.60668900
_cell_length_b   8.18043835
_cell_length_c   18.31869578
_cell_angle_alpha   89.96664259
_cell_angle_beta   90.00000000
_cell_angle_gamma   90.00000000
_symmetry_Int_Tables_number   1
_chemical_formula_structural   NdEr3Tm(In2Pt)2
_chemical_formula_sum   'Nd2 Er6 Tm2 In8 Pt4'
_cell_volume   540.48014923
_cell_formula_units_Z   2
loop_
 _symmetry_equiv_pos_site_id
 _symmetry_equiv_pos_as_xyz
  1  'x, y, z'
loop_
 _atom_site_type_symbol
 _atom_site_label
 _atom_site_symmetry_multiplicity
 _atom_site_fract_x
 _atom_site_fract_y
 _atom_site_fract_z
 _atom_site_occupancy
  Nd  Nd0  1  0.000000  0.000000  0.000000  1
  Nd  Nd1  1  0.000000  0.500000  0.500000  1
  Er  Er2  1  0.000000  0.379384  0.913684  1
  Er  Er3  1  0.000000  0.620616  0.086316  1
  Er  Er4  1  0.000000  0.242376  0.219435  1
  Er  Er5  1  0.000000  0.757624  0.780565  1
  Er  Er6  1  0.000000  0.257658  0.719309  1
  Er  Er7  1  0.000000  0.742342  0.280691  1
  Tm  Tm8  1  0.000000  0.120446  0.413416  1
  Tm  Tm9  1  0.000000  0.879554  0.586584  1
  In  In10  1  0.500000  0.421006  0.348155  1
  In  In11  1  0.500000  0.578994  0.651845  1
  In  In12  1  0.500000  0.078249  0.848002  1
  In  In13  1  0.500000  0.921751  0.151998  1
  In  In14  1  0.500000  0.300926  0.067443  1
  In  In15  1  0.500000  0.699074  0.932557  1
  In  In16  1  0.500000  0.198102  0.567103  1
  In  In17  1  0.500000  0.801898  0.432897  1
  Pt  Pt18  1  0.500000  0.026080  0.303858  1
  Pt  Pt19  1  0.500000  0.973920  0.696142  1
  Pt  Pt20  1  0.500000  0.474114  0.803541  1
  Pt  Pt21  1  0.500000  0.525886  0.196459  1
