# generated using pymatgen
data_Nd6Al24Ni2(IrRu)3
_symmetry_space_group_name_H-M   'P 1'
_cell_length_a   8.86355134
_cell_length_b   8.85742967
_cell_length_c   9.58973007
_cell_angle_alpha   89.99416060
_cell_angle_beta   89.87270273
_cell_angle_gamma   119.48613072
_symmetry_Int_Tables_number   1
_chemical_formula_structural   Nd6Al24Ni2(IrRu)3
_chemical_formula_sum   'Nd6 Al24 Ni2 Ir3 Ru3'
_cell_volume   655.35499781
_cell_formula_units_Z   1
loop_
 _symmetry_equiv_pos_site_id
 _symmetry_equiv_pos_as_xyz
  1  'x, y, z'
loop_
 _atom_site_type_symbol
 _atom_site_label
 _atom_site_symmetry_multiplicity
 _atom_site_fract_x
 _atom_site_fract_y
 _atom_site_fract_z
 _atom_site_occupancy
  Nd  Nd0  1  0.186945  0.380454  0.250337  1
  Nd  Nd1  1  0.813055  0.619546  0.749663  1
  Nd  Nd2  1  0.619299  0.812491  0.249792  1
  Nd  Nd3  1  0.380701  0.187509  0.750208  1
  Nd  Nd4  1  0.190022  0.809135  0.250237  1
  Nd  Nd5  1  0.809978  0.190865  0.749763  1
  Al  Al6  1  0.334921  0.664704  0.019966  1
  Al  Al7  1  0.665079  0.335296  0.980034  1
  Al  Al8  1  0.666967  0.336136  0.518897  1
  Al  Al9  1  0.333033  0.663864  0.481103  1
  Al  Al10  1  0.162867  0.326622  0.574707  1
  Al  Al11  1  0.837133  0.673378  0.425293  1
  Al  Al12  1  0.673373  0.835815  0.574016  1
  Al  Al13  1  0.836339  0.673664  0.074389  1
  Al  Al14  1  0.326627  0.164185  0.425984  1
  Al  Al15  1  0.163661  0.326336  0.925611  1
  Al  Al16  1  0.163297  0.834813  0.574854  1
  Al  Al17  1  0.325873  0.163837  0.074672  1
  Al  Al18  1  0.836703  0.165187  0.425146  1
  Al  Al19  1  0.674127  0.836163  0.925328  1
  Al  Al20  1  0.836274  0.164248  0.074376  1
  Al  Al21  1  0.163726  0.835752  0.925624  1
  Al  Al22  1  0.562336  0.128102  0.249662  1
  Al  Al23  1  0.437664  0.871898  0.750338  1
  Al  Al24  1  0.872517  0.437781  0.251286  1
  Al  Al25  1  0.127483  0.562219  0.748714  1
  Al  Al26  1  0.560361  0.439305  0.249556  1
  Al  Al27  1  0.439639  0.560695  0.750444  1
  Al  Al28  1  0.997237  0.001340  0.250011  1
  Al  Al29  1  0.002763  0.998660  0.749989  1
  Ni  Ni30  1  0.500000  0.500000  0.000000  1
  Ni  Ni31  1  0.500000  0.500000  0.500000  1
  Ir  Ir32  1  0.500000  0.000000  0.000000  1
  Ir  Ir33  1  0.000000  0.500000  0.000000  1
  Ir  Ir34  1  0.500000  0.000000  0.500000  1
  Ru  Ru35  1  0.000000  0.500000  0.500000  1
  Ru  Ru36  1  0.000000  0.000000  0.000000  1
  Ru  Ru37  1  0.000000  0.000000  0.500000  1
