# generated using pymatgen
data_Ag3Ir3RuPbO14
_symmetry_space_group_name_H-M   'P 1'
_cell_length_a   7.27680927
_cell_length_b   7.23620502
_cell_length_c   7.23620500
_cell_angle_alpha   60.00000468
_cell_angle_beta   60.18441693
_cell_angle_gamma   60.18442635
_symmetry_Int_Tables_number   1
_chemical_formula_structural   Ag3Ir3RuPbO14
_chemical_formula_sum   'Ag3 Ir3 Ru1 Pb1 O14'
_cell_volume   270.17971336
_cell_formula_units_Z   1
loop_
 _symmetry_equiv_pos_site_id
 _symmetry_equiv_pos_as_xyz
  1  'x, y, z'
loop_
 _atom_site_type_symbol
 _atom_site_label
 _atom_site_symmetry_multiplicity
 _atom_site_fract_x
 _atom_site_fract_y
 _atom_site_fract_z
 _atom_site_occupancy
  Ag  Ag0  1  0.125000  0.625000  0.125000  1
  Ag  Ag1  1  0.125000  0.125000  0.625000  1
  Ag  Ag2  1  0.125000  0.125000  0.125000  1
  Ir  Ir3  1  0.625000  0.125000  0.625000  1
  Ir  Ir4  1  0.625000  0.625000  0.125000  1
  Ir  Ir5  1  0.625000  0.625000  0.625000  1
  Ru  Ru6  1  0.125000  0.625000  0.625000  1
  Pb  Pb7  1  0.625000  0.125000  0.125000  1
  O  O8  1  0.695780  0.709789  0.297216  1
  O  O9  1  0.310110  0.305777  0.692057  1
  O  O10  1  0.695780  0.297216  0.709789  1
  O  O11  1  0.310110  0.692057  0.305777  1
  O  O12  1  0.310110  0.692057  0.692057  1
  O  O13  1  0.695780  0.297216  0.297216  1
  O  O14  1  0.554220  0.540211  0.952784  1
  O  O15  1  0.939890  0.944223  0.557943  1
  O  O16  1  0.554220  0.952784  0.540211  1
  O  O17  1  0.939890  0.557943  0.944223  1
  O  O18  1  0.939890  0.557943  0.557943  1
  O  O19  1  0.554220  0.952784  0.952784  1
  O  O20  1  0.226282  0.257906  0.257906  1
  O  O21  1  0.023718  0.992094  0.992094  1
