# generated using pymatgen
data_Nd4Cu3Rh
_symmetry_space_group_name_H-M   'P 1'
_cell_length_a   4.47200100
_cell_length_b   5.71916472
_cell_length_c   7.40081621
_cell_angle_alpha   89.83897192
_cell_angle_beta   90.00000000
_cell_angle_gamma   90.00000000
_symmetry_Int_Tables_number   1
_chemical_formula_structural   Nd4Cu3Rh
_chemical_formula_sum   'Nd4 Cu3 Rh1'
_cell_volume   189.28334457
_cell_formula_units_Z   1
loop_
 _symmetry_equiv_pos_site_id
 _symmetry_equiv_pos_as_xyz
  1  'x, y, z'
loop_
 _atom_site_type_symbol
 _atom_site_label
 _atom_site_symmetry_multiplicity
 _atom_site_fract_x
 _atom_site_fract_y
 _atom_site_fract_z
 _atom_site_occupancy
  Nd  Nd0  1  0.250000  0.368945  0.678143  1
  Nd  Nd1  1  0.750000  0.637424  0.325275  1
  Nd  Nd2  1  0.750000  0.869681  0.812154  1
  Nd  Nd3  1  0.250000  0.128986  0.183765  1
  Cu  Cu4  1  0.750000  0.129894  0.461653  1
  Cu  Cu5  1  0.750000  0.384687  0.966991  1
  Cu  Cu6  1  0.250000  0.617683  0.034149  1
  Rh  Rh7  1  0.250000  0.862701  0.537871  1
