# generated using pymatgen
data_Na3Ni2RuO6
_symmetry_space_group_name_H-M   'P 1'
_cell_length_a   5.32070626
_cell_length_b   5.32070755
_cell_length_c   5.61470947
_cell_angle_alpha   80.88016299
_cell_angle_beta   99.11984716
_cell_angle_gamma   59.99417321
_symmetry_Int_Tables_number   1
_chemical_formula_structural   Na3Ni2RuO6
_chemical_formula_sum   'Na3 Ni2 Ru1 O6'
_cell_volume   130.54794921
_cell_formula_units_Z   1
loop_
 _symmetry_equiv_pos_site_id
 _symmetry_equiv_pos_as_xyz
  1  'x, y, z'
loop_
 _atom_site_type_symbol
 _atom_site_label
 _atom_site_symmetry_multiplicity
 _atom_site_fract_x
 _atom_site_fract_y
 _atom_site_fract_z
 _atom_site_occupancy
  Na  Na0  1  0.170289  0.170289  0.500000  1
  Na  Na1  1  0.829711  0.829711  0.500000  1
  Na  Na2  1  0.500000  0.500000  0.500000  1
  Ni  Ni3  1  0.666549  0.666549  0.000000  1
  Ni  Ni4  1  0.333451  0.333451  0.000000  1
  Ru  Ru5  1  0.000000  0.000000  0.000000  1
  O  O6  1  0.249923  0.750077  0.798044  1
  O  O7  1  0.067754  0.614334  0.203285  1
  O  O8  1  0.385666  0.932246  0.203285  1
  O  O9  1  0.932246  0.385666  0.796715  1
  O  O10  1  0.614334  0.067754  0.796715  1
  O  O11  1  0.750077  0.249923  0.201956  1
