# generated using pymatgen
data_EuYB8
_symmetry_space_group_name_H-M   'P 1'
_cell_length_a   7.16957032
_cell_length_b   7.16956992
_cell_length_c   4.07090700
_cell_angle_alpha   90.00000000
_cell_angle_beta   90.00000000
_cell_angle_gamma   90.68712322
_symmetry_Int_Tables_number   1
_chemical_formula_structural   EuYB8
_chemical_formula_sum   'Eu2 Y2 B16'
_cell_volume   209.24070894
_cell_formula_units_Z   2
loop_
 _symmetry_equiv_pos_site_id
 _symmetry_equiv_pos_as_xyz
  1  'x, y, z'
loop_
 _atom_site_type_symbol
 _atom_site_label
 _atom_site_symmetry_multiplicity
 _atom_site_fract_x
 _atom_site_fract_y
 _atom_site_fract_z
 _atom_site_occupancy
  Eu  Eu0  1  0.815901  0.815900  0.000000  1
  Eu  Eu1  1  0.184099  0.184099  0.000000  1
  Y  Y2  1  0.682764  0.317236  0.000000  1
  Y  Y3  1  0.317236  0.682764  0.000000  1
  B  B4  1  0.038783  0.675821  0.500000  1
  B  B5  1  0.961217  0.324179  0.500000  1
  B  B6  1  0.462592  0.174960  0.500000  1
  B  B7  1  0.537408  0.825040  0.500000  1
  B  B8  1  0.174960  0.462592  0.500000  1
  B  B9  1  0.825040  0.537408  0.500000  1
  B  B10  1  0.675821  0.038783  0.500000  1
  B  B11  1  0.324179  0.961217  0.500000  1
  B  B12  1  0.412699  0.412699  0.500000  1
  B  B13  1  0.587301  0.587301  0.500000  1
  B  B14  1  0.086921  0.913079  0.500000  1
  B  B15  1  0.913079  0.086921  0.500000  1
  B  B16  1  0.000000  0.500000  0.796652  1
  B  B17  1  0.500000  0.000000  0.796652  1
  B  B18  1  0.000000  0.500000  0.203348  1
  B  B19  1  0.500000  0.000000  0.203348  1
