# generated using pymatgen
data_Hf4ScTc24
_symmetry_space_group_name_H-M   'P 1'
_cell_length_a   8.39979306
_cell_length_b   8.40042661
_cell_length_c   8.40055000
_cell_angle_alpha   109.47024879
_cell_angle_beta   109.47405482
_cell_angle_gamma   109.46413687
_symmetry_Int_Tables_number   1
_chemical_formula_structural   Hf4ScTc24
_chemical_formula_sum   'Hf4 Sc1 Tc24'
_cell_volume   456.33495757
_cell_formula_units_Z   1
loop_
 _symmetry_equiv_pos_site_id
 _symmetry_equiv_pos_as_xyz
  1  'x, y, z'
loop_
 _atom_site_type_symbol
 _atom_site_label
 _atom_site_symmetry_multiplicity
 _atom_site_fract_x
 _atom_site_fract_y
 _atom_site_fract_z
 _atom_site_occupancy
  Hf  Hf0  1  0.373957  0.373912  0.373925  1
  Hf  Hf1  1  0.999924  0.626069  0.000009  1
  Hf  Hf2  1  0.626111  0.000043  0.000044  1
  Hf  Hf3  1  0.999986  0.999937  0.626021  1
  Sc  Sc4  1  0.000005  0.999997  0.000015  1
  Tc  Tc5  1  0.999960  0.394026  0.674185  1
  Tc  Tc6  1  0.280183  0.605974  0.605955  1
  Tc  Tc7  1  0.719820  0.325804  0.325768  1
  Tc  Tc8  1  0.325741  0.719797  0.325761  1
  Tc  Tc9  1  0.674286  0.999994  0.394041  1
  Tc  Tc10  1  0.999954  0.674228  0.394000  1
  Tc  Tc11  1  0.606006  0.605961  0.280206  1
  Tc  Tc12  1  0.806253  0.806248  0.180565  1
  Tc  Tc13  1  0.374346  0.193748  0.999992  1
  Tc  Tc14  1  0.193746  0.374311  0.000020  1
  Tc  Tc15  1  0.625685  0.819378  0.625667  1
  Tc  Tc16  1  0.374341  0.000016  0.193776  1
  Tc  Tc17  1  0.999975  0.374294  0.193748  1
  Tc  Tc18  1  0.819418  0.625695  0.625701  1
  Tc  Tc19  1  0.180539  0.806247  0.806221  1
  Tc  Tc20  1  0.806225  0.180593  0.806252  1
  Tc  Tc21  1  0.193695  0.999986  0.374304  1
  Tc  Tc22  1  0.999962  0.193689  0.374280  1
  Tc  Tc23  1  0.625746  0.625712  0.819477  1
  Tc  Tc24  1  0.394046  0.000020  0.674245  1
  Tc  Tc25  1  0.605945  0.280262  0.605963  1
  Tc  Tc26  1  0.674261  0.394080  0.000038  1
  Tc  Tc27  1  0.394074  0.674232  0.000022  1
  Tc  Tc28  1  0.325808  0.325746  0.719803  1
