# generated using pymatgen
data_Ti8Al15Ir6Pt
_symmetry_space_group_name_H-M   'P 1'
_cell_length_a   8.67402938
_cell_length_b   8.65698997
_cell_length_c   8.66830113
_cell_angle_alpha   120.02577777
_cell_angle_beta   119.87561523
_cell_angle_gamma   90.08187826
_symmetry_Int_Tables_number   1
_chemical_formula_structural   Ti8Al15Ir6Pt
_chemical_formula_sum   'Ti8 Al15 Ir6 Pt1'
_cell_volume   460.61967418
_cell_formula_units_Z   1
loop_
 _symmetry_equiv_pos_site_id
 _symmetry_equiv_pos_as_xyz
  1  'x, y, z'
loop_
 _atom_site_type_symbol
 _atom_site_label
 _atom_site_symmetry_multiplicity
 _atom_site_fract_x
 _atom_site_fract_y
 _atom_site_fract_z
 _atom_site_occupancy
  Ti  Ti0  1  0.791522  0.290655  0.074820  1
  Ti  Ti1  1  0.217031  0.290919  0.498967  1
  Ti  Ti2  1  0.209211  0.707725  0.500356  1
  Ti  Ti3  1  0.215435  0.717097  0.924708  1
  Ti  Ti4  1  0.790545  0.715661  0.501336  1
  Ti  Ti5  1  0.781734  0.284277  0.499188  1
  Ti  Ti6  1  0.384128  0.125129  0.748004  1
  Ti  Ti7  1  0.379010  0.634639  0.256106  1
  Al  Al8  1  0.996797  0.496733  0.499942  1
  Al  Al9  1  0.153958  0.343712  0.190075  1
  Al  Al10  1  0.154942  0.963838  0.811776  1
  Al  Al11  1  0.151257  0.348840  0.805017  1
  Al  Al12  1  0.542989  0.346873  0.196408  1
  Al  Al13  1  0.845577  0.652341  0.806842  1
  Al  Al14  1  0.844601  0.039403  0.191143  1
  Al  Al15  1  0.842330  0.652031  0.187051  1
  Al  Al16  1  0.465652  0.654380  0.811045  1
  Al  Al17  1  0.379309  0.121866  0.257596  1
  Al  Al18  1  0.862998  0.123095  0.744993  1
  Al  Al19  1  0.617893  0.876414  0.253667  1
  Al  Al20  1  0.621208  0.365343  0.743567  1
  Al  Al21  1  0.620951  0.877548  0.742802  1
  Al  Al22  1  0.136060  0.876910  0.254514  1
  Ir  Ir23  1  0.498501  0.999761  0.998703  1
  Ir  Ir24  1  0.497610  0.497664  0.000390  1
  Ir  Ir25  1  0.497948  0.499541  0.498194  1
  Ir  Ir26  1  0.001283  0.499309  0.001560  1
  Ir  Ir27  1  0.999011  0.999227  0.999791  1
  Ir  Ir28  1  0.499742  0.999648  0.500417  1
  Pt  Pt29  1  0.000762  0.999419  0.501021  1
