# generated using pymatgen
data_Li4TbNd2YSi6
_symmetry_space_group_name_H-M   'P 1'
_cell_length_a   9.37159101
_cell_length_b   9.37159171
_cell_length_c   6.79902100
_cell_angle_alpha   90.00000000
_cell_angle_beta   90.00000000
_cell_angle_gamma   153.20411266
_symmetry_Int_Tables_number   1
_chemical_formula_structural   Li4TbNd2YSi6
_chemical_formula_sum   'Li4 Tb1 Nd2 Y1 Si6'
_cell_volume   269.19683736
_cell_formula_units_Z   1
loop_
 _symmetry_equiv_pos_site_id
 _symmetry_equiv_pos_as_xyz
  1  'x, y, z'
loop_
 _atom_site_type_symbol
 _atom_site_label
 _atom_site_symmetry_multiplicity
 _atom_site_fract_x
 _atom_site_fract_y
 _atom_site_fract_z
 _atom_site_occupancy
  Li  Li0  1  0.190438  0.809562  0.059642  1
  Li  Li1  1  0.190438  0.809562  0.440358  1
  Li  Li2  1  0.809506  0.190494  0.940225  1
  Li  Li3  1  0.809506  0.190494  0.559775  1
  Tb  Tb4  1  0.344250  0.655750  0.250000  1
  Nd  Nd5  1  0.553775  0.446225  0.250000  1
  Nd  Nd6  1  0.446291  0.553709  0.750000  1
  Y  Y7  1  0.655728  0.344272  0.750000  1
  Si  Si8  1  0.723019  0.276981  0.250000  1
  Si  Si9  1  0.276974  0.723026  0.750000  1
  Si  Si10  1  0.059358  0.940642  0.925296  1
  Si  Si11  1  0.940680  0.059320  0.074661  1
  Si  Si12  1  0.940680  0.059320  0.425339  1
  Si  Si13  1  0.059358  0.940642  0.574704  1
