# generated using pymatgen
data_Tl2AgIr4PbO14
_symmetry_space_group_name_H-M   'P 1'
_cell_length_a   7.33687721
_cell_length_b   7.29242486
_cell_length_c   7.29579600
_cell_angle_alpha   59.98471579
_cell_angle_beta   60.18505940
_cell_angle_gamma   60.04553628
_symmetry_Int_Tables_number   1
_chemical_formula_structural   Tl2AgIr4PbO14
_chemical_formula_sum   'Tl2 Ag1 Ir4 Pb1 O14'
_cell_volume   276.46738653
_cell_formula_units_Z   1
loop_
 _symmetry_equiv_pos_site_id
 _symmetry_equiv_pos_as_xyz
  1  'x, y, z'
loop_
 _atom_site_type_symbol
 _atom_site_label
 _atom_site_symmetry_multiplicity
 _atom_site_fract_x
 _atom_site_fract_y
 _atom_site_fract_z
 _atom_site_occupancy
  Tl  Tl0  1  0.125000  0.125000  0.625000  1
  Tl  Tl1  1  0.125000  0.125000  0.125000  1
  Ag  Ag2  1  0.125000  0.625000  0.125000  1
  Ir  Ir3  1  0.125000  0.625000  0.625000  1
  Ir  Ir4  1  0.625000  0.125000  0.625000  1
  Ir  Ir5  1  0.625000  0.625000  0.125000  1
  Ir  Ir6  1  0.625000  0.625000  0.625000  1
  Pb  Pb7  1  0.625000  0.125000  0.125000  1
  O  O8  1  0.690508  0.706671  0.301410  1
  O  O9  1  0.300255  0.297621  0.701063  1
  O  O10  1  0.701754  0.295174  0.706393  1
  O  O11  1  0.303634  0.703206  0.302564  1
  O  O12  1  0.303634  0.703206  0.690595  1
  O  O13  1  0.701754  0.295174  0.296680  1
  O  O14  1  0.559492  0.543329  0.948590  1
  O  O15  1  0.949745  0.952379  0.548937  1
  O  O16  1  0.548246  0.954826  0.543607  1
  O  O17  1  0.946366  0.546794  0.947436  1
  O  O18  1  0.946366  0.546794  0.559405  1
  O  O19  1  0.548246  0.954826  0.953320  1
  O  O20  1  0.235531  0.271485  0.246492  1
  O  O21  1  0.014469  0.978515  0.003508  1
