# generated using pymatgen
data_Tm4S3
_symmetry_space_group_name_H-M   'P 1'
_cell_length_a   12.54897079
_cell_length_b   12.54897041
_cell_length_c   12.54897061
_cell_angle_alpha   17.45334488
_cell_angle_beta   17.45335057
_cell_angle_gamma   17.45334618
_symmetry_Int_Tables_number   1
_chemical_formula_structural   Tm4S3
_chemical_formula_sum   'Tm4 S3'
_cell_volume   155.14474956
_cell_formula_units_Z   1
loop_
 _symmetry_equiv_pos_site_id
 _symmetry_equiv_pos_as_xyz
  1  'x, y, z'
loop_
 _atom_site_type_symbol
 _atom_site_label
 _atom_site_symmetry_multiplicity
 _atom_site_fract_x
 _atom_site_fract_y
 _atom_site_fract_z
 _atom_site_occupancy
  Tm  Tm0  1  0.127332  0.127332  0.127332  1
  Tm  Tm1  1  0.286665  0.286665  0.286665  1
  Tm  Tm2  1  0.709083  0.709083  0.709083  1
  Tm  Tm3  1  0.868407  0.868407  0.868407  1
  S  S4  1  0.416646  0.416646  0.416646  1
  S  S5  1  0.579102  0.579102  0.579102  1
  S  S6  1  0.997875  0.997875  0.997875  1
