# generated using pymatgen
data_Y(HoSe2)3
_symmetry_space_group_name_H-M   'P 1'
_cell_length_a   7.06886307
_cell_length_b   7.06589400
_cell_length_c   12.89782147
_cell_angle_alpha   100.66119339
_cell_angle_beta   100.67050630
_cell_angle_gamma   108.92228466
_symmetry_Int_Tables_number   1
_chemical_formula_structural   Y(HoSe2)3
_chemical_formula_sum   'Y2 Ho6 Se12'
_cell_volume   577.68543095
_cell_formula_units_Z   2
loop_
 _symmetry_equiv_pos_site_id
 _symmetry_equiv_pos_as_xyz
  1  'x, y, z'
loop_
 _atom_site_type_symbol
 _atom_site_label
 _atom_site_symmetry_multiplicity
 _atom_site_fract_x
 _atom_site_fract_y
 _atom_site_fract_z
 _atom_site_occupancy
  Y  Y0  1  0.041111  0.791104  0.082198  1
  Y  Y1  1  0.622384  0.872385  0.244742  1
  Ho  Ho2  1  0.127627  0.377620  0.255238  1
  Ho  Ho3  1  0.208819  0.958823  0.417653  1
  Ho  Ho4  1  0.791205  0.041211  0.582383  1
  Ho  Ho5  1  0.872368  0.622383  0.744735  1
  Ho  Ho6  1  0.377557  0.127575  0.755129  1
  Ho  Ho7  1  0.958757  0.208761  0.917524  1
  Se  Se8  1  0.803943  0.050102  0.087255  1
  Se  Se9  1  0.283397  0.537145  0.087285  1
  Se  Se10  1  0.367648  0.119186  0.250581  1
  Se  Se11  1  0.882853  0.631393  0.250572  1
  Se  Se12  1  0.952256  0.196862  0.412853  1
  Se  Se13  1  0.460502  0.715885  0.412852  1
  Se  Se14  1  0.538955  0.283675  0.587676  1
  Se  Se15  1  0.048754  0.804076  0.587649  1
  Se  Se16  1  0.117574  0.367608  0.750027  1
  Se  Se17  1  0.632475  0.882380  0.749988  1
  Se  Se18  1  0.715467  0.460160  0.911821  1
  Se  Se19  1  0.196348  0.951665  0.911838  1
