# generated using pymatgen
data_TbDy19Co3Bi8Os
_symmetry_space_group_name_H-M   'P 1'
_cell_length_a   8.02635943
_cell_length_b   8.93743500
_cell_length_c   12.46801786
_cell_angle_alpha   90.00000000
_cell_angle_beta   90.32292491
_cell_angle_gamma   90.00000000
_symmetry_Int_Tables_number   1
_chemical_formula_structural   TbDy19Co3Bi8Os
_chemical_formula_sum   'Tb1 Dy19 Co3 Bi8 Os1'
_cell_volume   894.37987521
_cell_formula_units_Z   1
loop_
 _symmetry_equiv_pos_site_id
 _symmetry_equiv_pos_as_xyz
  1  'x, y, z'
loop_
 _atom_site_type_symbol
 _atom_site_label
 _atom_site_symmetry_multiplicity
 _atom_site_fract_x
 _atom_site_fract_y
 _atom_site_fract_z
 _atom_site_occupancy
  Tb  Tb0  1  0.845993  0.750000  0.799881  1
  Dy  Dy1  1  0.153106  0.250000  0.198316  1
  Dy  Dy2  1  0.347155  0.250000  0.699178  1
  Dy  Dy3  1  0.654937  0.750000  0.294612  1
  Dy  Dy4  1  0.378118  0.750000  0.694129  1
  Dy  Dy5  1  0.618792  0.250000  0.310495  1
  Dy  Dy6  1  0.880982  0.250000  0.811544  1
  Dy  Dy7  1  0.118498  0.750000  0.186691  1
  Dy  Dy8  1  0.945034  0.750000  0.503991  1
  Dy  Dy9  1  0.051605  0.250000  0.496269  1
  Dy  Dy10  1  0.451132  0.250000  0.997433  1
  Dy  Dy11  1  0.547783  0.750000  0.002407  1
  Dy  Dy12  1  0.676632  0.041827  0.564727  1
  Dy  Dy13  1  0.324720  0.964390  0.436698  1
  Dy  Dy14  1  0.175134  0.966197  0.937110  1
  Dy  Dy15  1  0.324720  0.535610  0.436698  1
  Dy  Dy16  1  0.824036  0.036280  0.063029  1
  Dy  Dy17  1  0.676632  0.458173  0.564727  1
  Dy  Dy18  1  0.824036  0.463720  0.063029  1
  Dy  Dy19  1  0.175134  0.533803  0.937110  1
  Co  Co20  1  0.432950  0.250000  0.490648  1
  Co  Co21  1  0.060651  0.250000  0.991995  1
  Co  Co22  1  0.937709  0.750000  0.007476  1
  Bi  Bi23  1  0.570709  0.491366  0.827525  1
  Bi  Bi24  1  0.428604  0.507553  0.173221  1
  Bi  Bi25  1  0.071200  0.507285  0.674117  1
  Bi  Bi26  1  0.428604  0.992447  0.173221  1
  Bi  Bi27  1  0.931128  0.492229  0.325852  1
  Bi  Bi28  1  0.570709  0.008634  0.827525  1
  Bi  Bi29  1  0.931128  0.007771  0.325852  1
  Bi  Bi30  1  0.071200  0.992715  0.674117  1
  Os  Os31  1  0.571228  0.750000  0.510376  1
