# generated using pymatgen
data_LiHo2(ScSi2)2
_symmetry_space_group_name_H-M   'P 1'
_cell_length_a   6.86273400
_cell_length_b   7.39093100
_cell_length_c   14.03833100
_cell_angle_alpha   90.00000000
_cell_angle_beta   90.00000000
_cell_angle_gamma   90.00000000
_symmetry_Int_Tables_number   1
_chemical_formula_structural   LiHo2(ScSi2)2
_chemical_formula_sum   'Li4 Ho8 Sc8 Si16'
_cell_volume   712.05213325
_cell_formula_units_Z   4
loop_
 _symmetry_equiv_pos_site_id
 _symmetry_equiv_pos_as_xyz
  1  'x, y, z'
loop_
 _atom_site_type_symbol
 _atom_site_label
 _atom_site_symmetry_multiplicity
 _atom_site_fract_x
 _atom_site_fract_y
 _atom_site_fract_z
 _atom_site_occupancy
  Li  Li0  1  0.158739  0.508327  0.750000  1
  Li  Li1  1  0.841261  0.491673  0.250000  1
  Li  Li2  1  0.341261  0.008327  0.250000  1
  Li  Li3  1  0.658739  0.991673  0.750000  1
  Ho  Ho4  1  0.012996  0.182644  0.098478  1
  Ho  Ho5  1  0.987004  0.817356  0.901522  1
  Ho  Ho6  1  0.487004  0.682644  0.901522  1
  Ho  Ho7  1  0.987004  0.817356  0.598478  1
  Ho  Ho8  1  0.512996  0.317356  0.098478  1
  Ho  Ho9  1  0.012996  0.182644  0.401522  1
  Ho  Ho10  1  0.512996  0.317356  0.401522  1
  Ho  Ho11  1  0.487004  0.682644  0.598478  1
  Sc  Sc12  1  0.329728  0.178981  0.626871  1
  Sc  Sc13  1  0.670272  0.821019  0.373129  1
  Sc  Sc14  1  0.170272  0.678981  0.373129  1
  Sc  Sc15  1  0.670272  0.821019  0.126871  1
  Sc  Sc16  1  0.829728  0.321019  0.626871  1
  Sc  Sc17  1  0.329728  0.178981  0.873129  1
  Sc  Sc18  1  0.829728  0.321019  0.873129  1
  Sc  Sc19  1  0.170272  0.678981  0.126871  1
  Si  Si20  1  0.029434  0.101209  0.750000  1
  Si  Si21  1  0.970566  0.898791  0.250000  1
  Si  Si22  1  0.470566  0.601209  0.250000  1
  Si  Si23  1  0.529434  0.398791  0.750000  1
  Si  Si24  1  0.281734  0.879094  0.750000  1
  Si  Si25  1  0.718266  0.120906  0.250000  1
  Si  Si26  1  0.218266  0.379094  0.250000  1
  Si  Si27  1  0.781734  0.620906  0.750000  1
  Si  Si28  1  0.159323  0.463416  0.535200  1
  Si  Si29  1  0.840677  0.536584  0.464800  1
  Si  Si30  1  0.340677  0.963416  0.464800  1
  Si  Si31  1  0.840677  0.536584  0.035200  1
  Si  Si32  1  0.659323  0.036584  0.535200  1
  Si  Si33  1  0.159323  0.463416  0.964800  1
  Si  Si34  1  0.659323  0.036584  0.964800  1
  Si  Si35  1  0.340677  0.963416  0.035200  1
