# generated using pymatgen
data_Yb7PaZnPd24
_symmetry_space_group_name_H-M   'P 1'
_cell_length_a   8.32336543
_cell_length_b   8.32336467
_cell_length_c   8.32336500
_cell_angle_alpha   89.54241996
_cell_angle_beta   89.54242000
_cell_angle_gamma   89.54242164
_symmetry_Int_Tables_number   1
_chemical_formula_structural   Yb7PaZnPd24
_chemical_formula_sum   'Yb7 Pa1 Zn1 Pd24'
_cell_volume   576.57458346
_cell_formula_units_Z   1
loop_
 _symmetry_equiv_pos_site_id
 _symmetry_equiv_pos_as_xyz
  1  'x, y, z'
loop_
 _atom_site_type_symbol
 _atom_site_label
 _atom_site_symmetry_multiplicity
 _atom_site_fract_x
 _atom_site_fract_y
 _atom_site_fract_z
 _atom_site_occupancy
  Yb  Yb0  1  0.748048  0.748048  0.748048  1
  Yb  Yb1  1  0.750043  0.750043  0.248697  1
  Yb  Yb2  1  0.750043  0.248697  0.750043  1
  Yb  Yb3  1  0.251307  0.251307  0.752438  1
  Yb  Yb4  1  0.251307  0.752438  0.251307  1
  Yb  Yb5  1  0.248697  0.750043  0.750043  1
  Yb  Yb6  1  0.752438  0.251307  0.251307  1
  Pa  Pa7  1  0.256040  0.256040  0.256040  1
  Zn  Zn8  1  0.992640  0.992640  0.992640  1
  Pd  Pd9  1  0.262059  0.497458  0.007200  1
  Pd  Pd10  1  0.739109  0.496817  0.999504  1
  Pd  Pd11  1  0.007200  0.262059  0.497458  1
  Pd  Pd12  1  0.497458  0.262059  0.007200  1
  Pd  Pd13  1  0.999504  0.739109  0.496817  1
  Pd  Pd14  1  0.496817  0.739109  0.999504  1
  Pd  Pd15  1  0.497458  0.007200  0.262059  1
  Pd  Pd16  1  0.262059  0.007200  0.497458  1
  Pd  Pd17  1  0.496817  0.999504  0.739109  1
  Pd  Pd18  1  0.739109  0.999504  0.496817  1
  Pd  Pd19  1  0.007200  0.497458  0.262059  1
  Pd  Pd20  1  0.999504  0.496817  0.739109  1
  Pd  Pd21  1  0.254766  0.498319  0.498319  1
  Pd  Pd22  1  0.747512  0.499054  0.499054  1
  Pd  Pd23  1  0.498319  0.254766  0.498319  1
  Pd  Pd24  1  0.499054  0.747512  0.499054  1
  Pd  Pd25  1  0.498319  0.498319  0.254766  1
  Pd  Pd26  1  0.499054  0.499054  0.747512  1
  Pd  Pd27  1  0.289052  0.006170  0.006170  1
  Pd  Pd28  1  0.698476  0.999123  0.999123  1
  Pd  Pd29  1  0.006170  0.289052  0.006170  1
  Pd  Pd30  1  0.999123  0.698476  0.999123  1
  Pd  Pd31  1  0.006170  0.006170  0.289052  1
  Pd  Pd32  1  0.999123  0.999123  0.698476  1
