# generated using pymatgen
data_Al4V12ZnNi3N4
_symmetry_space_group_name_H-M   'P 1'
_cell_length_a   6.52498262
_cell_length_b   6.52498262
_cell_length_c   6.52498262
_cell_angle_alpha   90.18274427
_cell_angle_beta   90.18274427
_cell_angle_gamma   90.18274427
_symmetry_Int_Tables_number   1
_chemical_formula_structural   Al4V12ZnNi3N4
_chemical_formula_sum   'Al4 V12 Zn1 Ni3 N4'
_cell_volume   277.79948525
_cell_formula_units_Z   1
loop_
 _symmetry_equiv_pos_site_id
 _symmetry_equiv_pos_as_xyz
  1  'x, y, z'
loop_
 _atom_site_type_symbol
 _atom_site_label
 _atom_site_symmetry_multiplicity
 _atom_site_fract_x
 _atom_site_fract_y
 _atom_site_fract_z
 _atom_site_occupancy
  Al  Al0  1  0.178446  0.818352  0.330878  1
  Al  Al1  1  0.330878  0.178446  0.818352  1
  Al  Al2  1  0.818352  0.330878  0.178446  1
  Al  Al3  1  0.675475  0.675475  0.675475  1
  V  V4  1  0.787217  0.959507  0.377618  1
  V  V5  1  0.708635  0.039652  0.875557  1
  V  V6  1  0.211512  0.462092  0.123409  1
  V  V7  1  0.288915  0.540244  0.623539  1
  V  V8  1  0.959507  0.377618  0.787217  1
  V  V9  1  0.039652  0.875557  0.708635  1
  V  V10  1  0.462092  0.123409  0.211512  1
  V  V11  1  0.540244  0.623539  0.288915  1
  V  V12  1  0.377618  0.787217  0.959507  1
  V  V13  1  0.875557  0.708635  0.039652  1
  V  V14  1  0.123409  0.211512  0.462092  1
  V  V15  1  0.623539  0.288915  0.540244  1
  Zn  Zn16  1  0.072285  0.072285  0.072285  1
  Ni  Ni17  1  0.573790  0.428787  0.926009  1
  Ni  Ni18  1  0.428787  0.926009  0.573790  1
  Ni  Ni19  1  0.926009  0.573790  0.428787  1
  N  N20  1  0.872095  0.126017  0.626639  1
  N  N21  1  0.626639  0.872095  0.126017  1
  N  N22  1  0.126017  0.626639  0.872095  1
  N  N23  1  0.373328  0.373328  0.373328  1
