# generated using pymatgen
data_Lu12Fe2Cu2Tc
_symmetry_space_group_name_H-M   'P 1'
_cell_length_a   8.02123458
_cell_length_b   8.02117200
_cell_length_c   8.02123530
_cell_angle_alpha   108.83286242
_cell_angle_beta   108.90283312
_cell_angle_gamma   110.68515339
_symmetry_Int_Tables_number   1
_chemical_formula_structural   Lu12Fe2Cu2Tc
_chemical_formula_sum   'Lu12 Fe2 Cu2 Tc1'
_cell_volume   397.14580624
_cell_formula_units_Z   1
loop_
 _symmetry_equiv_pos_site_id
 _symmetry_equiv_pos_as_xyz
  1  'x, y, z'
loop_
 _atom_site_type_symbol
 _atom_site_label
 _atom_site_symmetry_multiplicity
 _atom_site_fract_x
 _atom_site_fract_y
 _atom_site_fract_z
 _atom_site_occupancy
  Lu  Lu0  1  0.310103  0.310072  0.620209  1
  Lu  Lu1  1  0.689897  0.689928  0.379791  1
  Lu  Lu2  1  0.689864  0.310072  0.999969  1
  Lu  Lu3  1  0.310136  0.689928  0.000031  1
  Lu  Lu4  1  0.189205  0.437187  0.247982  1
  Lu  Lu5  1  0.810795  0.562813  0.752018  1
  Lu  Lu6  1  0.189178  0.941186  0.752009  1
  Lu  Lu7  1  0.941338  0.189192  0.752166  1
  Lu  Lu8  1  0.810822  0.058814  0.247991  1
  Lu  Lu9  1  0.058662  0.810808  0.247834  1
  Lu  Lu10  1  0.437025  0.189192  0.247852  1
  Lu  Lu11  1  0.562975  0.810808  0.752148  1
  Fe  Fe12  1  0.379104  0.379091  0.999987  1
  Fe  Fe13  1  0.620896  0.620909  0.000013  1
  Cu  Cu14  1  0.000000  0.500000  0.500000  1
  Cu  Cu15  1  0.500000  0.000000  0.500000  1
  Tc  Tc16  1  0.000000  0.000000  0.000000  1
