# generated using pymatgen
data_Ce2Th6AsSe17
_symmetry_space_group_name_H-M   'P 1'
_cell_length_a   8.43167906
_cell_length_b   8.43167956
_cell_length_c   11.11703900
_cell_angle_alpha   79.96281854
_cell_angle_beta   79.96281793
_cell_angle_gamma   64.74998888
_symmetry_Int_Tables_number   1
_chemical_formula_structural   Ce2Th6AsSe17
_chemical_formula_sum   'Ce2 Th6 As1 Se17'
_cell_volume   699.44591322
_cell_formula_units_Z   1
loop_
 _symmetry_equiv_pos_site_id
 _symmetry_equiv_pos_as_xyz
  1  'x, y, z'
loop_
 _atom_site_type_symbol
 _atom_site_label
 _atom_site_symmetry_multiplicity
 _atom_site_fract_x
 _atom_site_fract_y
 _atom_site_fract_z
 _atom_site_occupancy
  Ce  Ce0  1  0.184252  0.693355  0.703128  1
  Ce  Ce1  1  0.693355  0.184252  0.703128  1
  Th  Th2  1  0.815929  0.305631  0.299399  1
  Th  Th3  1  0.305631  0.815929  0.299399  1
  Th  Th4  1  0.795467  0.795467  0.458085  1
  Th  Th5  1  0.205656  0.205656  0.544364  1
  Th  Th6  1  0.322089  0.322089  0.019266  1
  Th  Th7  1  0.678919  0.678919  0.976346  1
  As  As8  1  0.998620  0.998620  0.996999  1
  Se  Se9  1  0.179030  0.568057  0.464707  1
  Se  Se10  1  0.568057  0.179030  0.464707  1
  Se  Se11  1  0.822059  0.432180  0.533791  1
  Se  Se12  1  0.432180  0.822059  0.533791  1
  Se  Se13  1  0.048797  0.673803  0.973003  1
  Se  Se14  1  0.673803  0.048797  0.973003  1
  Se  Se15  1  0.949691  0.326986  0.029408  1
  Se  Se16  1  0.326986  0.949691  0.029408  1
  Se  Se17  1  0.787597  0.787597  0.721597  1
  Se  Se18  1  0.212527  0.212527  0.277782  1
  Se  Se19  1  0.944525  0.944525  0.231442  1
  Se  Se20  1  0.054140  0.054140  0.765988  1
  Se  Se21  1  0.699633  0.699633  0.243749  1
  Se  Se22  1  0.300098  0.300098  0.757055  1
  Se  Se23  1  0.481153  0.481153  0.169069  1
  Se  Se24  1  0.518577  0.518577  0.833206  1
  Se  Se25  1  0.001228  0.001228  0.498180  1
