# generated using pymatgen
data_Sr3CdPdO6
_symmetry_space_group_name_H-M   'P 1'
_cell_length_a   6.86309762
_cell_length_b   6.86309766
_cell_length_c   6.86309748
_cell_angle_alpha   90.51878520
_cell_angle_beta   90.51878044
_cell_angle_gamma   90.51878948
_symmetry_Int_Tables_number   1
_chemical_formula_structural   Sr3CdPdO6
_chemical_formula_sum   'Sr6 Cd2 Pd2 O12'
_cell_volume   323.22637172
_cell_formula_units_Z   2
loop_
 _symmetry_equiv_pos_site_id
 _symmetry_equiv_pos_as_xyz
  1  'x, y, z'
loop_
 _atom_site_type_symbol
 _atom_site_label
 _atom_site_symmetry_multiplicity
 _atom_site_fract_x
 _atom_site_fract_y
 _atom_site_fract_z
 _atom_site_occupancy
  Sr  Sr0  1  0.750000  0.385257  0.114743  1
  Sr  Sr1  1  0.114743  0.750000  0.385257  1
  Sr  Sr2  1  0.385257  0.114743  0.750000  1
  Sr  Sr3  1  0.250000  0.614743  0.885257  1
  Sr  Sr4  1  0.885257  0.250000  0.614743  1
  Sr  Sr5  1  0.614743  0.885257  0.250000  1
  Cd  Cd6  1  0.250000  0.250000  0.250000  1
  Cd  Cd7  1  0.750000  0.750000  0.750000  1
  Pd  Pd8  1  0.000000  0.000000  0.000000  1
  Pd  Pd9  1  0.500000  0.500000  0.500000  1
  O  O10  1  0.448036  0.784453  0.581714  1
  O  O11  1  0.581714  0.448036  0.784453  1
  O  O12  1  0.784453  0.581714  0.448036  1
  O  O13  1  0.051964  0.918286  0.715547  1
  O  O14  1  0.715547  0.051964  0.918286  1
  O  O15  1  0.918286  0.715547  0.051964  1
  O  O16  1  0.551964  0.215547  0.418286  1
  O  O17  1  0.418286  0.551964  0.215547  1
  O  O18  1  0.215547  0.418286  0.551964  1
  O  O19  1  0.948036  0.081714  0.284453  1
  O  O20  1  0.081714  0.284453  0.948036  1
  O  O21  1  0.284453  0.948036  0.081714  1
