# generated using pymatgen
data_Rb3ScBi2
_symmetry_space_group_name_H-M   'P 1'
_cell_length_a   10.12161562
_cell_length_b   10.12161519
_cell_length_c   10.12161485
_cell_angle_alpha   126.25956837
_cell_angle_beta   71.90853368
_cell_angle_gamma   135.97943422
_symmetry_Int_Tables_number   1
_chemical_formula_structural   Rb3ScBi2
_chemical_formula_sum   'Rb6 Sc2 Bi4'
_cell_volume   568.71890459
_cell_formula_units_Z   2
loop_
 _symmetry_equiv_pos_site_id
 _symmetry_equiv_pos_as_xyz
  1  'x, y, z'
loop_
 _atom_site_type_symbol
 _atom_site_label
 _atom_site_symmetry_multiplicity
 _atom_site_fract_x
 _atom_site_fract_y
 _atom_site_fract_z
 _atom_site_occupancy
  Rb  Rb0  1  0.250000  0.250000  0.000000  1
  Rb  Rb1  1  0.750000  0.750000  0.000000  1
  Rb  Rb2  1  0.315602  0.809318  0.124919  1
  Rb  Rb3  1  0.184399  0.309318  0.493717  1
  Rb  Rb4  1  0.815602  0.690683  0.506283  1
  Rb  Rb5  1  0.684398  0.190682  0.875081  1
  Sc  Sc6  1  0.749999  0.250000  0.500000  1
  Sc  Sc7  1  0.250000  0.750000  0.500000  1
  Bi  Bi8  1  0.906770  0.310634  0.217403  1
  Bi  Bi9  1  0.593231  0.810634  0.403864  1
  Bi  Bi10  1  0.406770  0.189366  0.596136  1
  Bi  Bi11  1  0.093230  0.689367  0.782598  1
