# generated using pymatgen
data_Tb5Dy3Re3TcB24
_symmetry_space_group_name_H-M   'P 1'
_cell_length_a   3.69824000
_cell_length_b   9.19781727
_cell_length_c   11.59145401
_cell_angle_alpha   90.03289927
_cell_angle_beta   90.00000000
_cell_angle_gamma   90.00000000
_symmetry_Int_Tables_number   1
_chemical_formula_structural   Tb5Dy3Re3TcB24
_chemical_formula_sum   'Tb5 Dy3 Re3 Tc1 B24'
_cell_volume   394.29177173
_cell_formula_units_Z   1
loop_
 _symmetry_equiv_pos_site_id
 _symmetry_equiv_pos_as_xyz
  1  'x, y, z'
loop_
 _atom_site_type_symbol
 _atom_site_label
 _atom_site_symmetry_multiplicity
 _atom_site_fract_x
 _atom_site_fract_y
 _atom_site_fract_z
 _atom_site_occupancy
  Tb  Tb0  1  0.000000  0.323910  0.413866  1
  Tb  Tb1  1  0.000000  0.676292  0.585997  1
  Tb  Tb2  1  0.000000  0.823760  0.085904  1
  Tb  Tb3  1  0.000000  0.176548  0.913952  1
  Tb  Tb4  1  0.000000  0.941827  0.369622  1
  Dy  Dy5  1  0.000000  0.057162  0.630040  1
  Dy  Dy6  1  0.000000  0.443378  0.130830  1
  Dy  Dy7  1  0.000000  0.557160  0.870089  1
  Re  Re8  1  0.000000  0.361688  0.679267  1
  Re  Re9  1  0.000000  0.138620  0.179188  1
  Re  Re10  1  0.000000  0.861643  0.820724  1
  Tc  Tc11  1  0.000000  0.638259  0.320626  1
  B  B12  1  0.500000  0.553458  0.432496  1
  B  B13  1  0.500000  0.446648  0.567285  1
  B  B14  1  0.500000  0.053529  0.067253  1
  B  B15  1  0.500000  0.946730  0.932595  1
  B  B16  1  0.500000  0.747993  0.418092  1
  B  B17  1  0.500000  0.251257  0.581706  1
  B  B18  1  0.500000  0.248964  0.081849  1
  B  B19  1  0.500000  0.751389  0.918225  1
  B  B20  1  0.500000  0.790968  0.265459  1
  B  B21  1  0.500000  0.208430  0.734251  1
  B  B22  1  0.500000  0.291603  0.234501  1
  B  B23  1  0.500000  0.708428  0.765689  1
  B  B24  1  0.500000  0.630806  0.186024  1
  B  B25  1  0.500000  0.369355  0.814067  1
  B  B26  1  0.500000  0.130675  0.313972  1
  B  B27  1  0.500000  0.869266  0.685875  1
  B  B28  1  0.500000  0.982677  0.211621  1
  B  B29  1  0.500000  0.017419  0.787974  1
  B  B30  1  0.500000  0.482818  0.288235  1
  B  B31  1  0.500000  0.517446  0.712003  1
  B  B32  1  0.500000  0.600243  0.028184  1
  B  B33  1  0.500000  0.400051  0.972270  1
  B  B34  1  0.500000  0.099999  0.472002  1
  B  B35  1  0.500000  0.899604  0.528261  1
