# generated using pymatgen
data_Tb3Dy7(GaSb2)2
_symmetry_space_group_name_H-M   'P 1'
_cell_length_a   8.79797445
_cell_length_b   8.83579764
_cell_length_c   6.37273400
_cell_angle_alpha   90.01639931
_cell_angle_beta   89.96705385
_cell_angle_gamma   119.85849340
_symmetry_Int_Tables_number   1
_chemical_formula_structural   Tb3Dy7(GaSb2)2
_chemical_formula_sum   'Tb3 Dy7 Ga2 Sb4'
_cell_volume   429.63762876
_cell_formula_units_Z   1
loop_
 _symmetry_equiv_pos_site_id
 _symmetry_equiv_pos_as_xyz
  1  'x, y, z'
loop_
 _atom_site_type_symbol
 _atom_site_label
 _atom_site_symmetry_multiplicity
 _atom_site_fract_x
 _atom_site_fract_y
 _atom_site_fract_z
 _atom_site_occupancy
  Tb  Tb0  1  0.657732  0.315461  0.500000  1
  Tb  Tb1  1  0.657604  0.315204  0.000000  1
  Tb  Tb2  1  0.342301  0.684604  0.500000  1
  Dy  Dy3  1  0.342203  0.684409  0.000000  1
  Dy  Dy4  1  0.243307  0.999796  0.250093  1
  Dy  Dy5  1  0.756490  0.999796  0.749907  1
  Dy  Dy6  1  0.987855  0.233204  0.249991  1
  Dy  Dy7  1  0.754493  0.767030  0.249972  1
  Dy  Dy8  1  0.245349  0.233204  0.750009  1
  Dy  Dy9  1  0.012538  0.767030  0.750028  1
  Ga  Ga10  1  0.602521  0.000020  0.250348  1
  Ga  Ga11  1  0.397500  0.000020  0.749652  1
  Sb  Sb12  1  0.993734  0.604646  0.250209  1
  Sb  Sb13  1  0.389194  0.395462  0.250196  1
  Sb  Sb14  1  0.610912  0.604646  0.749791  1
  Sb  Sb15  1  0.006269  0.395462  0.749804  1
