# generated using pymatgen
data_Tb2LuAl2Co9B4
_symmetry_space_group_name_H-M   'P 1'
_cell_length_a   5.13492013
_cell_length_b   5.13316310
_cell_length_c   9.55686900
_cell_angle_alpha   90.00021544
_cell_angle_beta   89.99977872
_cell_angle_gamma   119.99637884
_symmetry_Int_Tables_number   1
_chemical_formula_structural   Tb2LuAl2Co9B4
_chemical_formula_sum   'Tb2 Lu1 Al2 Co9 B4'
_cell_volume   218.16288474
_cell_formula_units_Z   1
loop_
 _symmetry_equiv_pos_site_id
 _symmetry_equiv_pos_as_xyz
  1  'x, y, z'
loop_
 _atom_site_type_symbol
 _atom_site_label
 _atom_site_symmetry_multiplicity
 _atom_site_fract_x
 _atom_site_fract_y
 _atom_site_fract_z
 _atom_site_occupancy
  Tb  Tb0  1  0.999978  0.999983  0.001749  1
  Tb  Tb1  1  0.999993  0.999990  0.659376  1
  Lu  Lu2  1  0.000019  0.000054  0.339129  1
  Al  Al3  1  0.333442  0.666673  0.000531  1
  Al  Al4  1  0.666539  0.333319  0.000531  1
  Co  Co5  1  0.499996  0.999998  0.498735  1
  Co  Co6  1  0.499996  0.499999  0.498728  1
  Co  Co7  1  0.999996  0.500000  0.498728  1
  Co  Co8  1  0.499998  0.000002  0.207985  1
  Co  Co9  1  0.500001  0.500008  0.208049  1
  Co  Co10  1  0.999997  0.500005  0.207988  1
  Co  Co11  1  0.499990  0.999994  0.793367  1
  Co  Co12  1  0.499990  0.499991  0.793334  1
  Co  Co13  1  0.999990  0.499991  0.793390  1
  B  B14  1  0.333367  0.666749  0.348903  1
  B  B15  1  0.666624  0.333253  0.348903  1
  B  B16  1  0.666749  0.333349  0.650288  1
  B  B17  1  0.333235  0.666639  0.650289  1
