# generated using pymatgen
data_Hf2Nb3Sn(B2Ru5)2
_symmetry_space_group_name_H-M   'P 1'
_cell_length_a   9.45501587
_cell_length_b   9.49353903
_cell_length_c   3.07928400
_cell_angle_alpha   90.00000000
_cell_angle_beta   90.00000000
_cell_angle_gamma   90.19490172
_symmetry_Int_Tables_number   1
_chemical_formula_structural   Hf2Nb3Sn(B2Ru5)2
_chemical_formula_sum   'Hf2 Nb3 Sn1 B4 Ru10'
_cell_volume   276.39974303
_cell_formula_units_Z   1
loop_
 _symmetry_equiv_pos_site_id
 _symmetry_equiv_pos_as_xyz
  1  'x, y, z'
loop_
 _atom_site_type_symbol
 _atom_site_label
 _atom_site_symmetry_multiplicity
 _atom_site_fract_x
 _atom_site_fract_y
 _atom_site_fract_z
 _atom_site_occupancy
  Hf  Hf0  1  0.822235  0.676011  0.000000  1
  Hf  Hf1  1  0.177765  0.323989  0.000000  1
  Nb  Nb2  1  0.322524  0.825015  0.000000  1
  Nb  Nb3  1  0.677476  0.174985  0.000000  1
  Nb  Nb4  1  0.000000  0.000000  0.000000  1
  Sn  Sn5  1  0.500000  0.500000  0.000000  1
  B  B6  1  0.619525  0.877141  0.000000  1
  B  B7  1  0.380475  0.122859  0.000000  1
  B  B8  1  0.122656  0.620463  0.000000  1
  B  B9  1  0.877344  0.379537  0.000000  1
  Ru  Ru10  1  0.569383  0.723278  0.500000  1
  Ru  Ru11  1  0.430617  0.276722  0.500000  1
  Ru  Ru12  1  0.070181  0.782489  0.500000  1
  Ru  Ru13  1  0.929819  0.217511  0.500000  1
  Ru  Ru14  1  0.280367  0.579568  0.500000  1
  Ru  Ru15  1  0.719633  0.420432  0.500000  1
  Ru  Ru16  1  0.219815  0.066016  0.500000  1
  Ru  Ru17  1  0.780185  0.933984  0.500000  1
  Ru  Ru18  1  0.500000  0.000000  0.500000  1
  Ru  Ru19  1  0.000000  0.500000  0.500000  1
