# generated using pymatgen
data_PrNd9(Bi3Br)2
_symmetry_space_group_name_H-M   'P 1'
_cell_length_a   9.64447300
_cell_length_b   9.64447339
_cell_length_c   6.74230300
_cell_angle_alpha   90.00000000
_cell_angle_beta   90.00000000
_cell_angle_gamma   119.99650627
_symmetry_Int_Tables_number   1
_chemical_formula_structural   PrNd9(Bi3Br)2
_chemical_formula_sum   'Pr1 Nd9 Bi6 Br2'
_cell_volume   543.13927303
_cell_formula_units_Z   1
loop_
 _symmetry_equiv_pos_site_id
 _symmetry_equiv_pos_as_xyz
  1  'x, y, z'
loop_
 _atom_site_type_symbol
 _atom_site_label
 _atom_site_symmetry_multiplicity
 _atom_site_fract_x
 _atom_site_fract_y
 _atom_site_fract_z
 _atom_site_occupancy
  Pr  Pr0  1  0.273694  0.273694  0.250000  1
  Nd  Nd1  1  0.273714  0.999925  0.750000  1
  Nd  Nd2  1  0.726344  0.000042  0.250000  1
  Nd  Nd3  1  0.999925  0.273714  0.750000  1
  Nd  Nd4  1  0.000042  0.726344  0.250000  1
  Nd  Nd5  1  0.726245  0.726245  0.750000  1
  Nd  Nd6  1  0.333354  0.666771  0.500036  1
  Nd  Nd7  1  0.666771  0.333354  0.500036  1
  Nd  Nd8  1  0.666771  0.333354  0.999964  1
  Nd  Nd9  1  0.333354  0.666771  0.999964  1
  Bi  Bi10  1  0.615607  0.000063  0.750000  1
  Bi  Bi11  1  0.384542  0.999660  0.250000  1
  Bi  Bi12  1  0.000063  0.615607  0.750000  1
  Bi  Bi13  1  0.999660  0.384542  0.250000  1
  Bi  Bi14  1  0.384532  0.384532  0.750000  1
  Bi  Bi15  1  0.616003  0.616003  0.250000  1
  Br  Br16  1  0.999690  0.999690  0.500280  1
  Br  Br17  1  0.999690  0.999690  0.999720  1
