# generated using pymatgen
data_Ca9CeSn6F2
_symmetry_space_group_name_H-M   'P 1'
_cell_length_a   9.44663407
_cell_length_b   9.44663396
_cell_length_c   9.43338788
_cell_angle_alpha   128.94603435
_cell_angle_beta   128.94602348
_cell_angle_gamma   74.99963262
_symmetry_Int_Tables_number   1
_chemical_formula_structural   Ca9CeSn6F2
_chemical_formula_sum   'Ca9 Ce1 Sn6 F2'
_cell_volume   496.10516640
_cell_formula_units_Z   1
loop_
 _symmetry_equiv_pos_site_id
 _symmetry_equiv_pos_as_xyz
  1  'x, y, z'
loop_
 _atom_site_type_symbol
 _atom_site_label
 _atom_site_symmetry_multiplicity
 _atom_site_fract_x
 _atom_site_fract_y
 _atom_site_fract_z
 _atom_site_occupancy
  Ca  Ca0  1  0.498443  0.503327  0.000798  1
  Ca  Ca1  1  0.003327  0.998443  0.000798  1
  Ca  Ca2  1  0.186146  0.686146  0.173522  1
  Ca  Ca3  1  0.008934  0.189461  0.501043  1
  Ca  Ca4  1  0.689461  0.508934  0.501043  1
  Ca  Ca5  1  0.490238  0.990238  0.181223  1
  Ca  Ca6  1  0.811206  0.311206  0.821895  1
  Ca  Ca7  1  0.987953  0.809380  0.496961  1
  Ca  Ca8  1  0.309380  0.487953  0.496961  1
  Ce  Ce9  1  0.519222  0.019222  0.833034  1
  Sn  Sn10  1  0.255578  0.245936  0.993975  1
  Sn  Sn11  1  0.745936  0.755578  0.993975  1
  Sn  Sn12  1  0.867389  0.367389  0.239360  1
  Sn  Sn13  1  0.127597  0.627597  0.753997  1
  Sn  Sn14  1  0.371756  0.128221  0.505211  1
  Sn  Sn15  1  0.628221  0.871756  0.505211  1
  F  F16  1  0.249460  0.749460  0.498296  1
  F  F17  1  0.749751  0.249751  0.502697  1
