# generated using pymatgen
data_Tb15Y5GaCo4Sb7
_symmetry_space_group_name_H-M   'P 1'
_cell_length_a   7.90884142
_cell_length_b   8.75253409
_cell_length_c   12.19694408
_cell_angle_alpha   90.07316187
_cell_angle_beta   89.99571455
_cell_angle_gamma   89.98761888
_symmetry_Int_Tables_number   1
_chemical_formula_structural   Tb15Y5GaCo4Sb7
_chemical_formula_sum   'Tb15 Y5 Ga1 Co4 Sb7'
_cell_volume   844.30108234
_cell_formula_units_Z   1
loop_
 _symmetry_equiv_pos_site_id
 _symmetry_equiv_pos_as_xyz
  1  'x, y, z'
loop_
 _atom_site_type_symbol
 _atom_site_label
 _atom_site_symmetry_multiplicity
 _atom_site_fract_x
 _atom_site_fract_y
 _atom_site_fract_z
 _atom_site_occupancy
  Tb  Tb0  1  0.952188  0.241232  0.496952  1
  Tb  Tb1  1  0.543127  0.251327  0.002493  1
  Tb  Tb2  1  0.038243  0.759175  0.492540  1
  Tb  Tb3  1  0.632223  0.755191  0.306253  1
  Tb  Tb4  1  0.116777  0.243757  0.198154  1
  Tb  Tb5  1  0.377646  0.249825  0.693986  1
  Tb  Tb6  1  0.878202  0.749674  0.805602  1
  Tb  Tb7  1  0.823317  0.967257  0.071085  1
  Tb  Tb8  1  0.317789  0.034670  0.432895  1
  Tb  Tb9  1  0.178817  0.464010  0.935484  1
  Tb  Tb10  1  0.682194  0.531988  0.565247  1
  Tb  Tb11  1  0.178524  0.033094  0.935053  1
  Tb  Tb12  1  0.678493  0.963146  0.564990  1
  Tb  Tb13  1  0.820260  0.535302  0.065505  1
  Tb  Tb14  1  0.321347  0.468397  0.434260  1
  Y  Y15  1  0.150525  0.755033  0.207682  1
  Y  Y16  1  0.660601  0.244694  0.292985  1
  Y  Y17  1  0.846840  0.251265  0.795779  1
  Y  Y18  1  0.345372  0.750438  0.702602  1
  Y  Y19  1  0.454222  0.748984  0.998038  1
  Ga  Ga20  1  0.928396  0.994779  0.329545  1
  Co  Co21  1  0.437266  0.749253  0.488651  1
  Co  Co22  1  0.932265  0.249538  0.011589  1
  Co  Co23  1  0.566406  0.249837  0.510012  1
  Co  Co24  1  0.065809  0.749204  0.989780  1
  Sb  Sb25  1  0.426453  0.006644  0.171871  1
  Sb  Sb26  1  0.073594  0.492282  0.669531  1
  Sb  Sb27  1  0.571968  0.508744  0.826782  1
  Sb  Sb28  1  0.073437  0.008478  0.673951  1
  Sb  Sb29  1  0.572777  0.991972  0.828453  1
  Sb  Sb30  1  0.927617  0.507168  0.327739  1
  Sb  Sb31  1  0.427306  0.493643  0.174516  1
