# generated using pymatgen
data_Mg2In9HgIr4
_symmetry_space_group_name_H-M   'P 1'
_cell_length_a   7.14873479
_cell_length_b   7.11595657
_cell_length_c   7.17782600
_cell_angle_alpha   90.00000000
_cell_angle_beta   90.00000000
_cell_angle_gamma   89.36955824
_symmetry_Int_Tables_number   1
_chemical_formula_structural   Mg2In9HgIr4
_chemical_formula_sum   'Mg2 In9 Hg1 Ir4'
_cell_volume   365.11452443
_cell_formula_units_Z   1
loop_
 _symmetry_equiv_pos_site_id
 _symmetry_equiv_pos_as_xyz
  1  'x, y, z'
loop_
 _atom_site_type_symbol
 _atom_site_label
 _atom_site_symmetry_multiplicity
 _atom_site_fract_x
 _atom_site_fract_y
 _atom_site_fract_z
 _atom_site_occupancy
  Mg  Mg0  1  0.000000  0.500000  0.000000  1
  Mg  Mg1  1  0.500000  0.000000  0.000000  1
  In  In2  1  0.338837  0.347589  0.257552  1
  In  In3  1  0.159492  0.838183  0.770291  1
  In  In4  1  0.159492  0.838183  0.229709  1
  In  In5  1  0.840508  0.161817  0.229709  1
  In  In6  1  0.840508  0.161817  0.770291  1
  In  In7  1  0.661163  0.652411  0.257552  1
  In  In8  1  0.661163  0.652411  0.742448  1
  In  In9  1  0.338837  0.347589  0.742448  1
  In  In10  1  0.500000  0.000000  0.500000  1
  Hg  Hg11  1  0.000000  0.500000  0.500000  1
  Ir  Ir12  1  0.152540  0.153596  0.000000  1
  Ir  Ir13  1  0.647392  0.340528  0.500000  1
  Ir  Ir14  1  0.352608  0.659472  0.500000  1
  Ir  Ir15  1  0.847460  0.846404  0.000000  1
