# generated using pymatgen
data_Hf6Be4Ir9Rh
_symmetry_space_group_name_H-M   'P 1'
_cell_length_a   9.43049221
_cell_length_b   9.45313720
_cell_length_c   3.35921500
_cell_angle_alpha   90.00000000
_cell_angle_beta   90.00000000
_cell_angle_gamma   89.92175517
_symmetry_Int_Tables_number   1
_chemical_formula_structural   Hf6Be4Ir9Rh
_chemical_formula_sum   'Hf6 Be4 Ir9 Rh1'
_cell_volume   299.46613493
_cell_formula_units_Z   1
loop_
 _symmetry_equiv_pos_site_id
 _symmetry_equiv_pos_as_xyz
  1  'x, y, z'
loop_
 _atom_site_type_symbol
 _atom_site_label
 _atom_site_symmetry_multiplicity
 _atom_site_fract_x
 _atom_site_fract_y
 _atom_site_fract_z
 _atom_site_occupancy
  Hf  Hf0  1  0.175680  0.674862  0.000000  1
  Hf  Hf1  1  0.325015  0.176083  0.000000  1
  Hf  Hf2  1  0.824365  0.324450  0.000000  1
  Hf  Hf3  1  0.500018  0.500132  0.000000  1
  Hf  Hf4  1  0.675497  0.824557  0.000000  1
  Hf  Hf5  1  0.001852  0.999372  0.000000  1
  Be  Be6  1  0.380008  0.880966  0.000000  1
  Be  Be7  1  0.119158  0.380664  0.000000  1
  Be  Be8  1  0.880610  0.619462  0.000000  1
  Be  Be9  1  0.619152  0.119351  0.000000  1
  Ir  Ir10  1  0.927364  0.783910  0.500000  1
  Ir  Ir11  1  0.426741  0.716478  0.500000  1
  Ir  Ir12  1  0.572477  0.283523  0.500000  1
  Ir  Ir13  1  0.715906  0.572617  0.500000  1
  Ir  Ir14  1  0.283792  0.427368  0.500000  1
  Ir  Ir15  1  0.072547  0.216322  0.500000  1
  Ir  Ir16  1  0.000039  0.500225  0.500000  1
  Ir  Ir17  1  0.499676  0.999753  0.500000  1
  Ir  Ir18  1  0.784251  0.072252  0.500000  1
  Rh  Rh19  1  0.215849  0.927651  0.500000  1
