# generated using pymatgen
data_Th2BeSi4Ir
_symmetry_space_group_name_H-M   'P 1'
_cell_length_a   8.51405006
_cell_length_b   8.51405028
_cell_length_c   4.19238700
_cell_angle_alpha   90.00000000
_cell_angle_beta   90.00000000
_cell_angle_gamma   151.36311721
_symmetry_Int_Tables_number   1
_chemical_formula_structural   Th2BeSi4Ir
_chemical_formula_sum   'Th2 Be1 Si4 Ir1'
_cell_volume   145.64721525
_cell_formula_units_Z   1
loop_
 _symmetry_equiv_pos_site_id
 _symmetry_equiv_pos_as_xyz
  1  'x, y, z'
loop_
 _atom_site_type_symbol
 _atom_site_label
 _atom_site_symmetry_multiplicity
 _atom_site_fract_x
 _atom_site_fract_y
 _atom_site_fract_z
 _atom_site_occupancy
  Th  Th0  1  0.899274  0.100726  0.750000  1
  Th  Th1  1  0.109455  0.890545  0.250000  1
  Be  Be2  1  0.673266  0.326734  0.750000  1
  Si  Si3  1  0.538294  0.461706  0.750000  1
  Si  Si4  1  0.466175  0.533825  0.250000  1
  Si  Si5  1  0.245333  0.754667  0.750000  1
  Si  Si6  1  0.748563  0.251437  0.250000  1
  Ir  Ir7  1  0.319642  0.680358  0.250000  1
