# generated using pymatgen
data_Ce3Dy(Rh2Pb)2
_symmetry_space_group_name_H-M   'P 1'
_cell_length_a   7.75985126
_cell_length_b   7.75985204
_cell_length_c   3.69491100
_cell_angle_alpha   90.00000000
_cell_angle_beta   90.00000000
_cell_angle_gamma   88.47506811
_symmetry_Int_Tables_number   1
_chemical_formula_structural   Ce3Dy(Rh2Pb)2
_chemical_formula_sum   'Ce3 Dy1 Rh4 Pb2'
_cell_volume   222.41136829
_cell_formula_units_Z   1
loop_
 _symmetry_equiv_pos_site_id
 _symmetry_equiv_pos_as_xyz
  1  'x, y, z'
loop_
 _atom_site_type_symbol
 _atom_site_label
 _atom_site_symmetry_multiplicity
 _atom_site_fract_x
 _atom_site_fract_y
 _atom_site_fract_z
 _atom_site_occupancy
  Ce  Ce0  1  0.329854  0.829854  0.500000  1
  Ce  Ce1  1  0.168260  0.326433  0.500000  1
  Ce  Ce2  1  0.826433  0.668260  0.500000  1
  Dy  Dy3  1  0.668773  0.168773  0.500000  1
  Rh  Rh4  1  0.141665  0.641665  0.000000  1
  Rh  Rh5  1  0.881608  0.381608  0.000000  1
  Rh  Rh6  1  0.629620  0.860064  0.000000  1
  Rh  Rh7  1  0.360064  0.129620  0.000000  1
  Pb  Pb8  1  0.993654  0.000067  0.000000  1
  Pb  Pb9  1  0.500067  0.493654  0.000000  1
