# generated using pymatgen
data_DyNp3(WN2)4
_symmetry_space_group_name_H-M   'P 1'
_cell_length_a   3.18046000
_cell_length_b   5.62738666
_cell_length_c   10.85700759
_cell_angle_alpha   89.85416737
_cell_angle_beta   90.00000000
_cell_angle_gamma   90.00000000
_symmetry_Int_Tables_number   1
_chemical_formula_structural   DyNp3(WN2)4
_chemical_formula_sum   'Dy1 Np3 W4 N8'
_cell_volume   194.31459849
_cell_formula_units_Z   1
loop_
 _symmetry_equiv_pos_site_id
 _symmetry_equiv_pos_as_xyz
  1  'x, y, z'
loop_
 _atom_site_type_symbol
 _atom_site_label
 _atom_site_symmetry_multiplicity
 _atom_site_fract_x
 _atom_site_fract_y
 _atom_site_fract_z
 _atom_site_occupancy
  Dy  Dy0  1  0.750000  0.924977  0.855051  1
  Np  Np1  1  0.250000  0.575185  0.356694  1
  Np  Np2  1  0.250000  0.070511  0.142033  1
  Np  Np3  1  0.750000  0.425214  0.643589  1
  W  W4  1  0.250000  0.931471  0.603731  1
  W  W5  1  0.250000  0.434773  0.901382  1
  W  W6  1  0.750000  0.068522  0.397916  1
  W  W7  1  0.750000  0.566596  0.101159  1
  N  N8  1  0.250000  0.663025  0.745828  1
  N  N9  1  0.250000  0.170798  0.754781  1
  N  N10  1  0.750000  0.332713  0.254087  1
  N  N11  1  0.750000  0.833260  0.245208  1
  N  N12  1  0.250000  0.254257  0.495246  1
  N  N13  1  0.250000  0.758876  0.003632  1
  N  N14  1  0.750000  0.744778  0.504645  1
  N  N15  1  0.750000  0.245042  0.995017  1
