# generated using pymatgen
data_Tb2LuMg(Co4P3)2
_symmetry_space_group_name_H-M   'P 1'
_cell_length_a   3.72142100
_cell_length_b   10.60801500
_cell_length_c   12.26283600
_cell_angle_alpha   90.00000000
_cell_angle_beta   90.00000000
_cell_angle_gamma   90.00000000
_symmetry_Int_Tables_number   1
_chemical_formula_structural   Tb2LuMg(Co4P3)2
_chemical_formula_sum   'Tb4 Lu2 Mg2 Co16 P12'
_cell_volume   484.09862528
_cell_formula_units_Z   2
loop_
 _symmetry_equiv_pos_site_id
 _symmetry_equiv_pos_as_xyz
  1  'x, y, z'
loop_
 _atom_site_type_symbol
 _atom_site_label
 _atom_site_symmetry_multiplicity
 _atom_site_fract_x
 _atom_site_fract_y
 _atom_site_fract_z
 _atom_site_occupancy
  Tb  Tb0  1  0.000000  0.500000  0.525448  1
  Tb  Tb1  1  0.500000  0.000000  0.473144  1
  Tb  Tb2  1  0.000000  0.678146  0.793856  1
  Tb  Tb3  1  0.000000  0.321854  0.793856  1
  Lu  Lu4  1  0.500000  0.822929  0.206259  1
  Lu  Lu5  1  0.500000  0.177071  0.206259  1
  Mg  Mg6  1  0.500000  0.500000  0.156633  1
  Mg  Mg7  1  0.000000  0.000000  0.843377  1
  Co  Co8  1  0.500000  0.500000  0.705654  1
  Co  Co9  1  0.000000  0.000000  0.293103  1
  Co  Co10  1  0.000000  0.500000  0.990619  1
  Co  Co11  1  0.500000  0.000000  0.013221  1
  Co  Co12  1  0.500000  0.331676  0.998652  1
  Co  Co13  1  0.500000  0.668324  0.998652  1
  Co  Co14  1  0.000000  0.166591  0.004911  1
  Co  Co15  1  0.000000  0.833409  0.004911  1
  Co  Co16  1  0.500000  0.295773  0.430035  1
  Co  Co17  1  0.500000  0.704227  0.430035  1
  Co  Co18  1  0.000000  0.203238  0.566632  1
  Co  Co19  1  0.000000  0.796762  0.566632  1
  Co  Co20  1  0.500000  0.878190  0.705494  1
  Co  Co21  1  0.500000  0.121810  0.705494  1
  Co  Co22  1  0.000000  0.623227  0.292925  1
  Co  Co23  1  0.000000  0.376773  0.292925  1
  P  P24  1  0.500000  0.500000  0.886984  1
  P  P25  1  0.000000  0.000000  0.116341  1
  P  P26  1  0.500000  0.500000  0.354870  1
  P  P27  1  0.000000  0.000000  0.644283  1
  P  P28  1  0.500000  0.308613  0.614259  1
  P  P29  1  0.500000  0.691387  0.614259  1
  P  P30  1  0.000000  0.189944  0.382214  1
  P  P31  1  0.000000  0.810056  0.382214  1
  P  P32  1  0.500000  0.839434  0.894192  1
  P  P33  1  0.500000  0.160566  0.894192  1
  P  P34  1  0.000000  0.662606  0.108733  1
  P  P35  1  0.000000  0.337394  0.108733  1
