# generated using pymatgen
data_HoTm3(Fe5P3)4
_symmetry_space_group_name_H-M   'P 1'
_cell_length_a   3.64224100
_cell_length_b   10.26890613
_cell_length_c   11.79701430
_cell_angle_alpha   90.02214942
_cell_angle_beta   90.00000000
_cell_angle_gamma   90.00000000
_symmetry_Int_Tables_number   1
_chemical_formula_structural   HoTm3(Fe5P3)4
_chemical_formula_sum   'Ho1 Tm3 Fe20 P12'
_cell_volume   441.22990155
_cell_formula_units_Z   1
loop_
 _symmetry_equiv_pos_site_id
 _symmetry_equiv_pos_as_xyz
  1  'x, y, z'
loop_
 _atom_site_type_symbol
 _atom_site_label
 _atom_site_symmetry_multiplicity
 _atom_site_fract_x
 _atom_site_fract_y
 _atom_site_fract_z
 _atom_site_occupancy
  Ho  Ho0  1  0.250000  0.580443  0.704721  1
  Tm  Tm1  1  0.250000  0.919908  0.204364  1
  Tm  Tm2  1  0.750000  0.419591  0.295645  1
  Tm  Tm3  1  0.750000  0.080011  0.795508  1
  Fe  Fe4  1  0.250000  0.708288  0.988847  1
  Fe  Fe5  1  0.250000  0.792013  0.488851  1
  Fe  Fe6  1  0.750000  0.291607  0.011195  1
  Fe  Fe7  1  0.750000  0.208046  0.510860  1
  Fe  Fe8  1  0.250000  0.405205  0.489477  1
  Fe  Fe9  1  0.250000  0.094147  0.989877  1
  Fe  Fe10  1  0.750000  0.594418  0.509582  1
  Fe  Fe11  1  0.750000  0.905633  0.010167  1
  Fe  Fe12  1  0.250000  0.219599  0.176409  1
  Fe  Fe13  1  0.250000  0.280155  0.676559  1
  Fe  Fe14  1  0.750000  0.780727  0.823527  1
  Fe  Fe15  1  0.750000  0.719677  0.323415  1
  Fe  Fe16  1  0.250000  0.876243  0.701661  1
  Fe  Fe17  1  0.250000  0.624639  0.201786  1
  Fe  Fe18  1  0.750000  0.124379  0.298234  1
  Fe  Fe19  1  0.750000  0.374990  0.798794  1
  Fe  Fe20  1  0.250000  0.462651  0.932862  1
  Fe  Fe21  1  0.250000  0.036984  0.432052  1
  Fe  Fe22  1  0.750000  0.536786  0.068247  1
  Fe  Fe23  1  0.750000  0.963670  0.567431  1
  P  P24  1  0.250000  0.422144  0.113630  1
  P  P25  1  0.250000  0.077823  0.613083  1
  P  P26  1  0.750000  0.577903  0.887670  1
  P  P27  1  0.750000  0.922407  0.386561  1
  P  P28  1  0.250000  0.264739  0.871559  1
  P  P29  1  0.250000  0.234923  0.371138  1
  P  P30  1  0.750000  0.735280  0.128495  1
  P  P31  1  0.750000  0.765879  0.628285  1
  P  P32  1  0.250000  0.600235  0.396130  1
  P  P33  1  0.250000  0.899535  0.895936  1
  P  P34  1  0.750000  0.398926  0.603480  1
  P  P35  1  0.750000  0.100396  0.103962  1
