# generated using pymatgen
data_Nd2Ga2CuIr
_symmetry_space_group_name_H-M   'P 1'
_cell_length_a   4.45340700
_cell_length_b   7.16183800
_cell_length_c   7.67497600
_cell_angle_alpha   90.00000000
_cell_angle_beta   90.00000000
_cell_angle_gamma   90.00000000
_symmetry_Int_Tables_number   1
_chemical_formula_structural   Nd2Ga2CuIr
_chemical_formula_sum   'Nd4 Ga4 Cu2 Ir2'
_cell_volume   244.79013205
_cell_formula_units_Z   2
loop_
 _symmetry_equiv_pos_site_id
 _symmetry_equiv_pos_as_xyz
  1  'x, y, z'
loop_
 _atom_site_type_symbol
 _atom_site_label
 _atom_site_symmetry_multiplicity
 _atom_site_fract_x
 _atom_site_fract_y
 _atom_site_fract_z
 _atom_site_occupancy
  Nd  Nd0  1  0.250000  0.024516  0.806197  1
  Nd  Nd1  1  0.250000  0.524516  0.693803  1
  Nd  Nd2  1  0.750000  0.987344  0.202010  1
  Nd  Nd3  1  0.750000  0.487344  0.297990  1
  Ga  Ga4  1  0.250000  0.176822  0.423137  1
  Ga  Ga5  1  0.250000  0.676822  0.076863  1
  Ga  Ga6  1  0.750000  0.824111  0.581474  1
  Ga  Ga7  1  0.750000  0.324111  0.918526  1
  Cu  Cu8  1  0.750000  0.200688  0.592513  1
  Cu  Cu9  1  0.750000  0.700688  0.907487  1
  Ir  Ir10  1  0.250000  0.786517  0.406591  1
  Ir  Ir11  1  0.250000  0.286517  0.093409  1
