# generated using pymatgen
data_LiNd3Cu3Sn4
_symmetry_space_group_name_H-M   'P 1'
_cell_length_a   8.60647820
_cell_length_b   8.70140234
_cell_length_c   8.70140305
_cell_angle_alpha   149.34311360
_cell_angle_beta   131.66528876
_cell_angle_gamma   58.43453038
_symmetry_Int_Tables_number   1
_chemical_formula_structural   LiNd3Cu3Sn4
_chemical_formula_sum   'Li1 Nd3 Cu3 Sn4'
_cell_volume   246.20472042
_cell_formula_units_Z   1
loop_
 _symmetry_equiv_pos_site_id
 _symmetry_equiv_pos_as_xyz
  1  'x, y, z'
loop_
 _atom_site_type_symbol
 _atom_site_label
 _atom_site_symmetry_multiplicity
 _atom_site_fract_x
 _atom_site_fract_y
 _atom_site_fract_z
 _atom_site_occupancy
  Li  Li0  1  0.851533  0.669681  0.181852  1
  Nd  Nd1  1  0.499748  0.998436  0.501312  1
  Nd  Nd2  1  0.144321  0.132544  0.011777  1
  Nd  Nd3  1  0.861993  0.868470  0.993523  1
  Cu  Cu4  1  0.483322  0.669144  0.814178  1
  Cu  Cu5  1  0.516978  0.334059  0.182919  1
  Cu  Cu6  1  0.140497  0.327459  0.813038  1
  Sn  Sn7  1  0.802060  0.500102  0.301957  1
  Sn  Sn8  1  0.200849  0.498709  0.702140  1
  Sn  Sn9  1  0.705771  0.216551  0.489220  1
  Sn  Sn10  1  0.292930  0.784846  0.508084  1
