# generated using pymatgen
data_Eu2Cu17Si8Ni
_symmetry_space_group_name_H-M   'P 1'
_cell_length_a   8.17209396
_cell_length_b   8.17209437
_cell_length_c   8.12319888
_cell_angle_alpha   120.50832221
_cell_angle_beta   120.50832972
_cell_angle_gamma   89.46988147
_symmetry_Int_Tables_number   1
_chemical_formula_structural   Eu2Cu17Si8Ni
_chemical_formula_sum   'Eu2 Cu17 Si8 Ni1'
_cell_volume   379.44973437
_cell_formula_units_Z   1
loop_
 _symmetry_equiv_pos_site_id
 _symmetry_equiv_pos_as_xyz
  1  'x, y, z'
loop_
 _atom_site_type_symbol
 _atom_site_label
 _atom_site_symmetry_multiplicity
 _atom_site_fract_x
 _atom_site_fract_y
 _atom_site_fract_z
 _atom_site_occupancy
  Eu  Eu0  1  0.250000  0.250000  0.000000  1
  Eu  Eu1  1  0.750000  0.750000  0.000000  1
  Cu  Cu2  1  0.933722  0.202596  0.136318  1
  Cu  Cu3  1  0.201802  0.068317  0.270119  1
  Cu  Cu4  1  0.798198  0.931683  0.729881  1
  Cu  Cu5  1  0.431683  0.298198  0.729881  1
  Cu  Cu6  1  0.066278  0.797404  0.863682  1
  Cu  Cu7  1  0.807253  0.058069  0.500000  1
  Cu  Cu8  1  0.558069  0.307253  0.500000  1
  Cu  Cu9  1  0.192747  0.941931  0.500000  1
  Cu  Cu10  1  0.441931  0.692747  0.500000  1
  Cu  Cu11  1  0.943431  0.443431  0.754416  1
  Cu  Cu12  1  0.689014  0.189014  0.245584  1
  Cu  Cu13  1  0.056569  0.556569  0.245584  1
  Cu  Cu14  1  0.702596  0.433722  0.136318  1
  Cu  Cu15  1  0.568317  0.701802  0.270119  1
  Cu  Cu16  1  0.000000  0.500000  0.500000  1
  Cu  Cu17  1  0.310986  0.810986  0.754416  1
  Cu  Cu18  1  0.297404  0.566278  0.863682  1
  Si  Si19  1  0.785332  0.285332  0.841606  1
  Si  Si20  1  0.556274  0.056274  0.841606  1
  Si  Si21  1  0.055779  0.207348  0.500000  1
  Si  Si22  1  0.292652  0.444221  0.500000  1
  Si  Si23  1  0.944221  0.792652  0.500000  1
  Si  Si24  1  0.443726  0.943726  0.158394  1
  Si  Si25  1  0.214668  0.714668  0.158394  1
  Si  Si26  1  0.707348  0.555779  0.500000  1
  Ni  Ni27  1  0.500000  0.000000  0.500000  1
