# generated using pymatgen
data_La5GeSe4
_symmetry_space_group_name_H-M   'P 1'
_cell_length_a   7.54174019
_cell_length_b   7.54240776
_cell_length_c   7.54130287
_cell_angle_alpha   99.48645496
_cell_angle_beta   99.48360503
_cell_angle_gamma   132.09026507
_symmetry_Int_Tables_number   1
_chemical_formula_structural   La5GeSe4
_chemical_formula_sum   'La5 Ge1 Se4'
_cell_volume   290.93622396
_cell_formula_units_Z   1
loop_
 _symmetry_equiv_pos_site_id
 _symmetry_equiv_pos_as_xyz
  1  'x, y, z'
loop_
 _atom_site_type_symbol
 _atom_site_label
 _atom_site_symmetry_multiplicity
 _atom_site_fract_x
 _atom_site_fract_y
 _atom_site_fract_z
 _atom_site_occupancy
  La  La0  1  0.402119  0.793918  0.196059  1
  La  La1  1  0.000000  0.000000  0.000000  1
  La  La2  1  0.597881  0.206082  0.803941  1
  La  La3  1  0.206088  0.402193  0.608221  1
  La  La4  1  0.793912  0.597807  0.391779  1
  Ge  Ge5  1  0.500000  0.500000  0.000000  1
  Se  Se6  1  0.098455  0.698682  0.797088  1
  Se  Se7  1  0.698683  0.901507  0.600211  1
  Se  Se8  1  0.301317  0.098493  0.399789  1
  Se  Se9  1  0.901545  0.301318  0.202912  1
