# generated using pymatgen
data_Hf3Nb5(GaC3)2
_symmetry_space_group_name_H-M   'P 1'
_cell_length_a   3.20539700
_cell_length_b   3.20539742
_cell_length_c   24.27903700
_cell_angle_alpha   90.00000000
_cell_angle_beta   90.00000000
_cell_angle_gamma   119.99998539
_symmetry_Int_Tables_number   1
_chemical_formula_structural   Hf3Nb5(GaC3)2
_chemical_formula_sum   'Hf3 Nb5 Ga2 C6'
_cell_volume   216.03586750
_cell_formula_units_Z   1
loop_
 _symmetry_equiv_pos_site_id
 _symmetry_equiv_pos_as_xyz
  1  'x, y, z'
loop_
 _atom_site_type_symbol
 _atom_site_label
 _atom_site_symmetry_multiplicity
 _atom_site_fract_x
 _atom_site_fract_y
 _atom_site_fract_z
 _atom_site_occupancy
  Hf  Hf0  1  0.666667  0.333333  0.554341  1
  Hf  Hf1  1  0.666667  0.333333  0.945203  1
  Hf  Hf2  1  0.333333  0.666667  0.055073  1
  Nb  Nb3  1  0.000000  0.000000  0.341226  1
  Nb  Nb4  1  0.000000  0.000000  0.660748  1
  Nb  Nb5  1  0.000000  0.000000  0.838731  1
  Nb  Nb6  1  0.000000  0.000000  0.162041  1
  Nb  Nb7  1  0.333333  0.666667  0.443437  1
  Ga  Ga8  1  0.333333  0.666667  0.251024  1
  Ga  Ga9  1  0.666667  0.333333  0.749755  1
  C  C10  1  0.000000  0.000000  0.497405  1
  C  C11  1  0.000000  0.000000  0.000166  1
  C  C12  1  0.666667  0.333333  0.389688  1
  C  C13  1  0.333333  0.666667  0.610881  1
  C  C14  1  0.333333  0.666667  0.887178  1
  C  C15  1  0.666667  0.333333  0.113104  1
