# generated using pymatgen
data_Ac6Cu6P17
_symmetry_space_group_name_H-M   'P 1'
_cell_length_a   9.14074214
_cell_length_b   9.14074262
_cell_length_c   9.14074300
_cell_angle_alpha   109.47122591
_cell_angle_beta   109.47122697
_cell_angle_gamma   109.47121324
_symmetry_Int_Tables_number   1
_chemical_formula_structural   Ac6Cu6P17
_chemical_formula_sum   'Ac6 Cu6 P17'
_cell_volume   587.92580625
_cell_formula_units_Z   1
loop_
 _symmetry_equiv_pos_site_id
 _symmetry_equiv_pos_as_xyz
  1  'x, y, z'
loop_
 _atom_site_type_symbol
 _atom_site_label
 _atom_site_symmetry_multiplicity
 _atom_site_fract_x
 _atom_site_fract_y
 _atom_site_fract_z
 _atom_site_occupancy
  Ac  Ac0  1  0.707908  0.000000  0.707908  1
  Ac  Ac1  1  0.292092  0.292092  0.000000  1
  Ac  Ac2  1  0.707908  0.707908  0.000000  1
  Ac  Ac3  1  0.000000  0.292092  0.292092  1
  Ac  Ac4  1  0.000000  0.707908  0.707908  1
  Ac  Ac5  1  0.292092  0.000000  0.292092  1
  Cu  Cu6  1  0.750000  0.500000  0.250000  1
  Cu  Cu7  1  0.250000  0.750000  0.500000  1
  Cu  Cu8  1  0.750000  0.250000  0.500000  1
  Cu  Cu9  1  0.500000  0.250000  0.750000  1
  Cu  Cu10  1  0.500000  0.750000  0.250000  1
  Cu  Cu11  1  0.250000  0.500000  0.750000  1
  P  P12  1  0.000000  0.000000  0.000000  1
  P  P13  1  0.569187  0.569187  0.569187  1
  P  P14  1  0.000000  0.430813  0.000000  1
  P  P15  1  0.430813  0.000000  0.000000  1
  P  P16  1  0.000000  0.000000  0.430813  1
  P  P17  1  0.374484  0.374484  0.601151  1
  P  P18  1  0.000000  0.226666  0.625516  1
  P  P19  1  0.226666  0.000000  0.625516  1
  P  P20  1  0.773334  0.398849  0.773334  1
  P  P21  1  0.398849  0.773334  0.773334  1
  P  P22  1  0.601151  0.374484  0.374484  1
  P  P23  1  0.000000  0.625516  0.226666  1
  P  P24  1  0.773334  0.773334  0.398849  1
  P  P25  1  0.625516  0.226666  0.000000  1
  P  P26  1  0.226666  0.625516  0.000000  1
  P  P27  1  0.374484  0.601151  0.374484  1
  P  P28  1  0.625516  0.000000  0.226666  1
