# generated using pymatgen
data_Tb24CuTc7
_symmetry_space_group_name_H-M   'P 1'
_cell_length_a   6.33224266
_cell_length_b   9.23203100
_cell_length_c   14.78952458
_cell_angle_alpha   90.00000000
_cell_angle_beta   90.01839157
_cell_angle_gamma   90.00000000
_symmetry_Int_Tables_number   1
_chemical_formula_structural   Tb24CuTc7
_chemical_formula_sum   'Tb24 Cu1 Tc7'
_cell_volume   864.58758471
_cell_formula_units_Z   1
loop_
 _symmetry_equiv_pos_site_id
 _symmetry_equiv_pos_as_xyz
  1  'x, y, z'
loop_
 _atom_site_type_symbol
 _atom_site_label
 _atom_site_symmetry_multiplicity
 _atom_site_fract_x
 _atom_site_fract_y
 _atom_site_fract_z
 _atom_site_occupancy
  Tb  Tb0  1  0.534740  0.750000  0.355074  1
  Tb  Tb1  1  0.032712  0.250000  0.146925  1
  Tb  Tb2  1  0.467134  0.250000  0.646896  1
  Tb  Tb3  1  0.961595  0.750000  0.854053  1
  Tb  Tb4  1  0.784112  0.750000  0.107711  1
  Tb  Tb5  1  0.284684  0.250000  0.390875  1
  Tb  Tb6  1  0.218091  0.250000  0.889869  1
  Tb  Tb7  1  0.714530  0.750000  0.609933  1
  Tb  Tb8  1  0.437803  0.937281  0.790005  1
  Tb  Tb9  1  0.922844  0.070840  0.710038  1
  Tb  Tb10  1  0.565250  0.434956  0.209941  1
  Tb  Tb11  1  0.067090  0.566133  0.290140  1
  Tb  Tb12  1  0.565250  0.065044  0.209941  1
  Tb  Tb13  1  0.067090  0.933867  0.290140  1
  Tb  Tb14  1  0.437803  0.562719  0.790005  1
  Tb  Tb15  1  0.922844  0.429160  0.710038  1
  Tb  Tb16  1  0.244298  0.941322  0.533201  1
  Tb  Tb17  1  0.740331  0.064892  0.965944  1
  Tb  Tb18  1  0.757606  0.435669  0.466007  1
  Tb  Tb19  1  0.258566  0.564909  0.033831  1
  Tb  Tb20  1  0.757606  0.064331  0.466007  1
  Tb  Tb21  1  0.258566  0.935091  0.033831  1
  Tb  Tb22  1  0.244298  0.558678  0.533201  1
  Tb  Tb23  1  0.740331  0.435108  0.965944  1
  Cu  Cu24  1  0.146108  0.750000  0.677552  1
  Tc  Tc25  1  0.936345  0.750000  0.449646  1
  Tc  Tc26  1  0.426716  0.250000  0.058136  1
  Tc  Tc27  1  0.073021  0.250000  0.560934  1
  Tc  Tc28  1  0.570775  0.750000  0.936315  1
  Tc  Tc29  1  0.359445  0.750000  0.181849  1
  Tc  Tc30  1  0.861880  0.250000  0.318760  1
  Tc  Tc31  1  0.640534  0.250000  0.817253  1
