# generated using pymatgen
data_Tb3In3Cu2Rh
_symmetry_space_group_name_H-M   'P 1'
_cell_length_a   7.56104400
_cell_length_b   7.56104298
_cell_length_c   3.91709600
_cell_angle_alpha   90.00000000
_cell_angle_beta   90.00000000
_cell_angle_gamma   120.00000448
_symmetry_Int_Tables_number   1
_chemical_formula_structural   Tb3In3Cu2Rh
_chemical_formula_sum   'Tb3 In3 Cu2 Rh1'
_cell_volume   193.93593990
_cell_formula_units_Z   1
loop_
 _symmetry_equiv_pos_site_id
 _symmetry_equiv_pos_as_xyz
  1  'x, y, z'
loop_
 _atom_site_type_symbol
 _atom_site_label
 _atom_site_symmetry_multiplicity
 _atom_site_fract_x
 _atom_site_fract_y
 _atom_site_fract_z
 _atom_site_occupancy
  Tb  Tb0  1  0.014371  0.594798  0.500000  1
  Tb  Tb1  1  0.405202  0.419572  0.500000  1
  Tb  Tb2  1  0.580428  0.985629  0.500000  1
  In  In3  1  0.751291  0.745166  0.000000  1
  In  In4  1  0.993875  0.248709  0.000000  1
  In  In5  1  0.254834  0.006125  0.000000  1
  Cu  Cu6  1  0.000000  0.000000  0.500000  1
  Cu  Cu7  1  0.666667  0.333333  0.000000  1
  Rh  Rh8  1  0.333333  0.666667  0.000000  1
