# generated using pymatgen
data_Y8Sc12Si15Tc
_symmetry_space_group_name_H-M   'P 1'
_cell_length_a   7.09709103
_cell_length_b   7.46333535
_cell_length_c   13.97874100
_cell_angle_alpha   90.00000000
_cell_angle_beta   90.00000000
_cell_angle_gamma   90.19262068
_symmetry_Int_Tables_number   1
_chemical_formula_structural   Y8Sc12Si15Tc
_chemical_formula_sum   'Y8 Sc12 Si15 Tc1'
_cell_volume   740.42135434
_cell_formula_units_Z   1
loop_
 _symmetry_equiv_pos_site_id
 _symmetry_equiv_pos_as_xyz
  1  'x, y, z'
loop_
 _atom_site_type_symbol
 _atom_site_label
 _atom_site_symmetry_multiplicity
 _atom_site_fract_x
 _atom_site_fract_y
 _atom_site_fract_z
 _atom_site_occupancy
  Y  Y0  1  0.011354  0.178305  0.095953  1
  Y  Y1  1  0.991017  0.826939  0.903926  1
  Y  Y2  1  0.489232  0.675697  0.903985  1
  Y  Y3  1  0.991017  0.826939  0.596074  1
  Y  Y4  1  0.510674  0.323135  0.096026  1
  Y  Y5  1  0.011354  0.178305  0.404047  1
  Y  Y6  1  0.510674  0.323135  0.403974  1
  Y  Y7  1  0.489232  0.675697  0.596015  1
  Sc  Sc8  1  0.156245  0.498558  0.750000  1
  Sc  Sc9  1  0.838412  0.495448  0.250000  1
  Sc  Sc10  1  0.338920  0.004836  0.250000  1
  Sc  Sc11  1  0.667838  0.999416  0.750000  1
  Sc  Sc12  1  0.316391  0.171578  0.628082  1
  Sc  Sc13  1  0.671921  0.826153  0.373730  1
  Sc  Sc14  1  0.171683  0.677985  0.373686  1
  Sc  Sc15  1  0.671921  0.826153  0.126270  1
  Sc  Sc16  1  0.837520  0.319588  0.627516  1
  Sc  Sc17  1  0.316391  0.171578  0.871918  1
  Sc  Sc18  1  0.837520  0.319588  0.872484  1
  Sc  Sc19  1  0.171683  0.677985  0.126314  1
  Si  Si20  1  0.968316  0.884033  0.250000  1
  Si  Si21  1  0.469996  0.614533  0.250000  1
  Si  Si22  1  0.529723  0.387788  0.750000  1
  Si  Si23  1  0.286612  0.867873  0.750000  1
  Si  Si24  1  0.713171  0.128801  0.250000  1
  Si  Si25  1  0.214241  0.370733  0.250000  1
  Si  Si26  1  0.779918  0.627756  0.750000  1
  Si  Si27  1  0.159796  0.468608  0.536880  1
  Si  Si28  1  0.844872  0.536607  0.461425  1
  Si  Si29  1  0.344660  0.965252  0.459876  1
  Si  Si30  1  0.844872  0.536607  0.038575  1
  Si  Si31  1  0.654866  0.034235  0.538957  1
  Si  Si32  1  0.159796  0.468608  0.963120  1
  Si  Si33  1  0.654866  0.034235  0.961043  1
  Si  Si34  1  0.344660  0.965252  0.040124  1
  Tc  Tc35  1  0.028641  0.112062  0.750000  1
