# generated using pymatgen
data_Lu2Al8Si2Os3
_symmetry_space_group_name_H-M   'P 1'
_cell_length_a   8.68265500
_cell_length_b   8.68265500
_cell_length_c   6.54842500
_cell_angle_alpha   90.00000000
_cell_angle_beta   90.00000000
_cell_angle_gamma   90.00000000
_symmetry_Int_Tables_number   1
_chemical_formula_structural   Lu2Al8Si2Os3
_chemical_formula_sum   'Lu4 Al16 Si4 Os6'
_cell_volume   493.67592403
_cell_formula_units_Z   2
loop_
 _symmetry_equiv_pos_site_id
 _symmetry_equiv_pos_as_xyz
  1  'x, y, z'
loop_
 _atom_site_type_symbol
 _atom_site_label
 _atom_site_symmetry_multiplicity
 _atom_site_fract_x
 _atom_site_fract_y
 _atom_site_fract_z
 _atom_site_occupancy
  Lu  Lu0  1  0.658988  0.158988  0.000000  1
  Lu  Lu1  1  0.341012  0.841012  0.000000  1
  Lu  Lu2  1  0.841012  0.658988  0.000000  1
  Lu  Lu3  1  0.158988  0.341012  0.000000  1
  Al  Al4  1  0.930675  0.205238  0.291206  1
  Al  Al5  1  0.705238  0.430675  0.291206  1
  Al  Al6  1  0.569325  0.705238  0.708794  1
  Al  Al7  1  0.294762  0.569325  0.708794  1
  Al  Al8  1  0.794762  0.930675  0.291206  1
  Al  Al9  1  0.930675  0.205238  0.708794  1
  Al  Al10  1  0.294762  0.569325  0.291206  1
  Al  Al11  1  0.069325  0.794762  0.291206  1
  Al  Al12  1  0.705238  0.430675  0.708794  1
  Al  Al13  1  0.430675  0.294762  0.708794  1
  Al  Al14  1  0.069325  0.794762  0.708794  1
  Al  Al15  1  0.205238  0.069325  0.708794  1
  Al  Al16  1  0.794762  0.930675  0.708794  1
  Al  Al17  1  0.205238  0.069325  0.291206  1
  Al  Al18  1  0.569325  0.705238  0.291206  1
  Al  Al19  1  0.430675  0.294762  0.291206  1
  Si  Si20  1  0.500000  0.000000  0.304504  1
  Si  Si21  1  0.000000  0.500000  0.695496  1
  Si  Si22  1  0.000000  0.500000  0.304504  1
  Si  Si23  1  0.500000  0.000000  0.695496  1
  Os  Os24  1  0.674637  0.174637  0.500000  1
  Os  Os25  1  0.825363  0.674637  0.500000  1
  Os  Os26  1  0.174637  0.325363  0.500000  1
  Os  Os27  1  0.000000  0.000000  0.000000  1
  Os  Os28  1  0.325363  0.825363  0.500000  1
  Os  Os29  1  0.500000  0.500000  0.000000  1
