# generated using pymatgen
data_Y4Ho12MgCo4Hg3
_symmetry_space_group_name_H-M   'P 1'
_cell_length_a   9.46240616
_cell_length_b   9.43798622
_cell_length_c   9.43798796
_cell_angle_alpha   59.94876712
_cell_angle_beta   60.01816782
_cell_angle_gamma   60.01816297
_symmetry_Int_Tables_number   1
_chemical_formula_structural   Y4Ho12MgCo4Hg3
_chemical_formula_sum   'Y4 Ho12 Mg1 Co4 Hg3'
_cell_volume   595.93103796
_cell_formula_units_Z   1
loop_
 _symmetry_equiv_pos_site_id
 _symmetry_equiv_pos_as_xyz
  1  'x, y, z'
loop_
 _atom_site_type_symbol
 _atom_site_label
 _atom_site_symmetry_multiplicity
 _atom_site_fract_x
 _atom_site_fract_y
 _atom_site_fract_z
 _atom_site_occupancy
  Y  Y0  1  0.561277  0.939104  0.562728  1
  Y  Y1  1  0.937937  0.561071  0.939105  1
  Y  Y2  1  0.561277  0.562728  0.939104  1
  Y  Y3  1  0.937937  0.939105  0.561071  1
  Ho  Ho4  1  0.345683  0.344361  0.344361  1
  Ho  Ho5  1  0.347664  0.346156  0.963223  1
  Ho  Ho6  1  0.347664  0.963223  0.346156  1
  Ho  Ho7  1  0.952621  0.349821  0.349821  1
  Ho  Ho8  1  0.809086  0.189248  0.189248  1
  Ho  Ho9  1  0.183930  0.813426  0.813426  1
  Ho  Ho10  1  0.185699  0.812312  0.187151  1
  Ho  Ho11  1  0.809306  0.188117  0.810767  1
  Ho  Ho12  1  0.185699  0.187151  0.812312  1
  Ho  Ho13  1  0.809306  0.810767  0.188117  1
  Ho  Ho14  1  0.939505  0.560254  0.560254  1
  Ho  Ho15  1  0.559319  0.939595  0.939595  1
  Mg  Mg16  1  0.285553  0.571006  0.571006  1
  Co  Co17  1  0.139053  0.142462  0.142462  1
  Co  Co18  1  0.138665  0.143997  0.577661  1
  Co  Co19  1  0.138665  0.577661  0.143997  1
  Co  Co20  1  0.577456  0.141572  0.141572  1
  Hg  Hg21  1  0.582238  0.584614  0.584614  1
  Hg  Hg22  1  0.582230  0.585930  0.246325  1
  Hg  Hg23  1  0.582230  0.246325  0.585930  1
