# generated using pymatgen
data_LiY4Zn3Pt4
_symmetry_space_group_name_H-M   'P 1'
_cell_length_a   4.00984000
_cell_length_b   7.26467400
_cell_length_c   16.50681900
_cell_angle_alpha   90.00000000
_cell_angle_beta   90.00000000
_cell_angle_gamma   90.00000000
_symmetry_Int_Tables_number   1
_chemical_formula_structural   LiY4Zn3Pt4
_chemical_formula_sum   'Li2 Y8 Zn6 Pt8'
_cell_volume   480.84661517
_cell_formula_units_Z   2
loop_
 _symmetry_equiv_pos_site_id
 _symmetry_equiv_pos_as_xyz
  1  'x, y, z'
loop_
 _atom_site_type_symbol
 _atom_site_label
 _atom_site_symmetry_multiplicity
 _atom_site_fract_x
 _atom_site_fract_y
 _atom_site_fract_z
 _atom_site_occupancy
  Li  Li0  1  0.250000  0.994415  0.440428  1
  Li  Li1  1  0.750000  0.505585  0.940428  1
  Y  Y2  1  0.750000  0.445168  0.214191  1
  Y  Y3  1  0.750000  0.946762  0.285242  1
  Y  Y4  1  0.750000  0.836461  0.062338  1
  Y  Y5  1  0.250000  0.054832  0.714191  1
  Y  Y6  1  0.250000  0.158936  0.938864  1
  Y  Y7  1  0.250000  0.553238  0.785242  1
  Y  Y8  1  0.750000  0.341064  0.438864  1
  Y  Y9  1  0.250000  0.663539  0.562338  1
  Zn  Zn10  1  0.750000  0.999956  0.558799  1
  Zn  Zn11  1  0.250000  0.622797  0.345865  1
  Zn  Zn12  1  0.750000  0.384736  0.653476  1
  Zn  Zn13  1  0.750000  0.877203  0.845865  1
  Zn  Zn14  1  0.250000  0.500044  0.058799  1
  Zn  Zn15  1  0.250000  0.115264  0.153476  1
  Pt  Pt16  1  0.250000  0.251096  0.562275  1
  Pt  Pt17  1  0.750000  0.248904  0.062275  1
  Pt  Pt18  1  0.250000  0.246193  0.312132  1
  Pt  Pt19  1  0.750000  0.253807  0.812132  1
  Pt  Pt20  1  0.250000  0.752983  0.938296  1
  Pt  Pt21  1  0.750000  0.756261  0.688093  1
  Pt  Pt22  1  0.750000  0.747017  0.438296  1
  Pt  Pt23  1  0.250000  0.743739  0.188093  1
