# generated using pymatgen
data_U(SbO2)6
_symmetry_space_group_name_H-M   'P 1'
_cell_length_a   7.18361904
_cell_length_b   7.18361900
_cell_length_c   7.18361975
_cell_angle_alpha   101.26264803
_cell_angle_beta   101.26264805
_cell_angle_gamma   101.26266295
_symmetry_Int_Tables_number   1
_chemical_formula_structural   U(SbO2)6
_chemical_formula_sum   'U1 Sb6 O12'
_cell_volume   345.90405189
_cell_formula_units_Z   1
loop_
 _symmetry_equiv_pos_site_id
 _symmetry_equiv_pos_as_xyz
  1  'x, y, z'
loop_
 _atom_site_type_symbol
 _atom_site_label
 _atom_site_symmetry_multiplicity
 _atom_site_fract_x
 _atom_site_fract_y
 _atom_site_fract_z
 _atom_site_occupancy
  U  U0  1  0.000000  0.000000  0.000000  1
  Sb  Sb1  1  0.287955  0.539380  0.163905  1
  Sb  Sb2  1  0.539380  0.163905  0.287955  1
  Sb  Sb3  1  0.460620  0.836095  0.712045  1
  Sb  Sb4  1  0.712045  0.460620  0.836095  1
  Sb  Sb5  1  0.836095  0.712045  0.460620  1
  Sb  Sb6  1  0.163905  0.287955  0.539380  1
  O  O7  1  0.408198  0.198818  0.511625  1
  O  O8  1  0.909400  0.705932  0.004293  1
  O  O9  1  0.198818  0.511625  0.408198  1
  O  O10  1  0.801182  0.488375  0.591802  1
  O  O11  1  0.591802  0.801182  0.488375  1
  O  O12  1  0.511625  0.408198  0.198818  1
  O  O13  1  0.488375  0.591802  0.801182  1
  O  O14  1  0.995707  0.090600  0.294068  1
  O  O15  1  0.004293  0.909400  0.705932  1
  O  O16  1  0.705932  0.004293  0.909400  1
  O  O17  1  0.090600  0.294068  0.995707  1
  O  O18  1  0.294068  0.995707  0.090600  1
