# generated using pymatgen
data_Pa6Zn15Ag8P
_symmetry_space_group_name_H-M   'P 1'
_cell_length_a   9.15333866
_cell_length_b   9.15333783
_cell_length_c   9.15333800
_cell_angle_alpha   59.99999938
_cell_angle_beta   60.00000239
_cell_angle_gamma   60.00000067
_symmetry_Int_Tables_number   1
_chemical_formula_structural   Pa6Zn15Ag8P
_chemical_formula_sum   'Pa6 Zn15 Ag8 P1'
_cell_volume   542.27993113
_cell_formula_units_Z   1
loop_
 _symmetry_equiv_pos_site_id
 _symmetry_equiv_pos_as_xyz
  1  'x, y, z'
loop_
 _atom_site_type_symbol
 _atom_site_label
 _atom_site_symmetry_multiplicity
 _atom_site_fract_x
 _atom_site_fract_y
 _atom_site_fract_z
 _atom_site_occupancy
  Pa  Pa0  1  0.704934  0.295066  0.295066  1
  Pa  Pa1  1  0.295066  0.704934  0.704934  1
  Pa  Pa2  1  0.295066  0.704934  0.295066  1
  Pa  Pa3  1  0.704934  0.295066  0.704934  1
  Pa  Pa4  1  0.295066  0.295066  0.704934  1
  Pa  Pa5  1  0.704934  0.704934  0.295066  1
  Zn  Zn6  1  0.500000  0.000000  0.000000  1
  Zn  Zn7  1  0.000000  0.500000  0.500000  1
  Zn  Zn8  1  0.000000  0.500000  0.000000  1
  Zn  Zn9  1  0.500000  0.000000  0.500000  1
  Zn  Zn10  1  0.000000  0.000000  0.500000  1
  Zn  Zn11  1  0.500000  0.500000  0.000000  1
  Zn  Zn12  1  0.330968  0.330968  0.330968  1
  Zn  Zn13  1  0.669032  0.669032  0.669032  1
  Zn  Zn14  1  0.330968  0.330968  0.007098  1
  Zn  Zn15  1  0.330968  0.007098  0.330968  1
  Zn  Zn16  1  0.669032  0.669032  0.992902  1
  Zn  Zn17  1  0.669032  0.992902  0.669032  1
  Zn  Zn18  1  0.007098  0.330968  0.330968  1
  Zn  Zn19  1  0.992902  0.669032  0.669032  1
  Zn  Zn20  1  0.000000  0.000000  0.000000  1
  Ag  Ag21  1  0.121132  0.121132  0.121132  1
  Ag  Ag22  1  0.878868  0.878868  0.878868  1
  Ag  Ag23  1  0.121132  0.121132  0.636605  1
  Ag  Ag24  1  0.121132  0.636605  0.121132  1
  Ag  Ag25  1  0.878868  0.878868  0.363395  1
  Ag  Ag26  1  0.878868  0.363395  0.878868  1
  Ag  Ag27  1  0.636605  0.121132  0.121132  1
  Ag  Ag28  1  0.363395  0.878868  0.878868  1
  P  P29  1  0.500000  0.500000  0.500000  1
