# generated using pymatgen
data_Hf8In4FeAu7
_symmetry_space_group_name_H-M   'P 1'
_cell_length_a   7.54952892
_cell_length_b   7.54952838
_cell_length_c   7.00614261
_cell_angle_alpha   90.31356283
_cell_angle_beta   90.31356406
_cell_angle_gamma   90.24573820
_symmetry_Int_Tables_number   1
_chemical_formula_structural   Hf8In4FeAu7
_chemical_formula_sum   'Hf8 In4 Fe1 Au7'
_cell_volume   399.30209618
_cell_formula_units_Z   1
loop_
 _symmetry_equiv_pos_site_id
 _symmetry_equiv_pos_as_xyz
  1  'x, y, z'
loop_
 _atom_site_type_symbol
 _atom_site_label
 _atom_site_symmetry_multiplicity
 _atom_site_fract_x
 _atom_site_fract_y
 _atom_site_fract_z
 _atom_site_occupancy
  Hf  Hf0  1  0.159273  0.159273  0.016751  1
  Hf  Hf1  1  0.858790  0.858790  0.996786  1
  Hf  Hf2  1  0.626271  0.343755  0.482746  1
  Hf  Hf3  1  0.343755  0.626271  0.482746  1
  Hf  Hf4  1  0.675320  0.307820  0.010347  1
  Hf  Hf5  1  0.307820  0.675320  0.010347  1
  Hf  Hf6  1  0.809465  0.809465  0.498498  1
  Hf  Hf7  1  0.204772  0.204772  0.485476  1
  In  In8  1  0.497915  0.006528  0.243733  1
  In  In9  1  0.499184  0.996683  0.749041  1
  In  In10  1  0.006528  0.497915  0.243733  1
  In  In11  1  0.996683  0.499184  0.749041  1
  Fe  Fe12  1  0.372224  0.372224  0.224900  1
  Au  Au13  1  0.631516  0.631516  0.784861  1
  Au  Au14  1  0.631848  0.631848  0.205080  1
  Au  Au15  1  0.870702  0.135646  0.712842  1
  Au  Au16  1  0.871160  0.131893  0.294751  1
  Au  Au17  1  0.369236  0.369236  0.800728  1
  Au  Au18  1  0.131893  0.871160  0.294751  1
  Au  Au19  1  0.135646  0.870702  0.712842  1
