# generated using pymatgen
data_PaAlFe4Re7
_symmetry_space_group_name_H-M   'P 1'
_cell_length_a   4.80027140
_cell_length_b   6.73576871
_cell_length_c   6.73576818
_cell_angle_alpha   81.25636803
_cell_angle_beta   69.12519633
_cell_angle_gamma   69.12519339
_symmetry_Int_Tables_number   1
_chemical_formula_structural   PaAlFe4Re7
_chemical_formula_sum   'Pa1 Al1 Fe4 Re7'
_cell_volume   190.06010310
_cell_formula_units_Z   1
loop_
 _symmetry_equiv_pos_site_id
 _symmetry_equiv_pos_as_xyz
  1  'x, y, z'
loop_
 _atom_site_type_symbol
 _atom_site_label
 _atom_site_symmetry_multiplicity
 _atom_site_fract_x
 _atom_site_fract_y
 _atom_site_fract_z
 _atom_site_occupancy
  Pa  Pa0  1  0.997007  0.002993  0.002993  1
  Al  Al1  1  0.273499  0.226501  0.226501  1
  Fe  Fe2  1  0.003377  0.000432  0.490340  1
  Fe  Fe3  1  0.505852  0.000432  0.490340  1
  Fe  Fe4  1  0.505852  0.490340  0.000432  1
  Fe  Fe5  1  0.003377  0.490340  0.000432  1
  Re  Re6  1  0.999492  0.354335  0.646682  1
  Re  Re7  1  0.999492  0.646682  0.354335  1
  Re  Re8  1  0.634523  0.365477  0.365477  1
  Re  Re9  1  0.354500  0.645500  0.645500  1
  Re  Re10  1  0.502912  0.786733  0.207442  1
  Re  Re11  1  0.502912  0.207442  0.786733  1
  Re  Re12  1  0.717205  0.782795  0.782795  1
