# generated using pymatgen
data_Hf3Zr6Ta4O3
_symmetry_space_group_name_H-M   'P 1'
_cell_length_a   8.80613400
_cell_length_b   8.80613471
_cell_length_c   8.57792100
_cell_angle_alpha   90.00000000
_cell_angle_beta   90.00000000
_cell_angle_gamma   120.00000483
_symmetry_Int_Tables_number   1
_chemical_formula_structural   Hf3Zr6Ta4O3
_chemical_formula_sum   'Hf6 Zr12 Ta8 O6'
_cell_volume   576.08062267
_cell_formula_units_Z   2
loop_
 _symmetry_equiv_pos_site_id
 _symmetry_equiv_pos_as_xyz
  1  'x, y, z'
loop_
 _atom_site_type_symbol
 _atom_site_label
 _atom_site_symmetry_multiplicity
 _atom_site_fract_x
 _atom_site_fract_y
 _atom_site_fract_z
 _atom_site_occupancy
  Hf  Hf0  1  0.452940  0.905882  0.250000  1
  Hf  Hf1  1  0.547060  0.094118  0.750000  1
  Hf  Hf2  1  0.094118  0.547060  0.250000  1
  Hf  Hf3  1  0.905882  0.452940  0.750000  1
  Hf  Hf4  1  0.452940  0.547060  0.250000  1
  Hf  Hf5  1  0.547060  0.452940  0.750000  1
  Zr  Zr6  1  0.207201  0.414404  0.563311  1
  Zr  Zr7  1  0.792799  0.585596  0.436689  1
  Zr  Zr8  1  0.585596  0.792799  0.563311  1
  Zr  Zr9  1  0.792799  0.585596  0.063311  1
  Zr  Zr10  1  0.414404  0.207201  0.436689  1
  Zr  Zr11  1  0.207201  0.414404  0.936689  1
  Zr  Zr12  1  0.207201  0.792799  0.563311  1
  Zr  Zr13  1  0.414404  0.207201  0.063311  1
  Zr  Zr14  1  0.792799  0.207201  0.436689  1
  Zr  Zr15  1  0.585596  0.792799  0.936689  1
  Zr  Zr16  1  0.792799  0.207201  0.063311  1
  Zr  Zr17  1  0.207201  0.792799  0.936689  1
  Ta  Ta18  1  0.111935  0.223869  0.250000  1
  Ta  Ta19  1  0.888065  0.776131  0.750000  1
  Ta  Ta20  1  0.776131  0.888065  0.250000  1
  Ta  Ta21  1  0.223869  0.111935  0.750000  1
  Ta  Ta22  1  0.111935  0.888065  0.250000  1
  Ta  Ta23  1  0.888065  0.111935  0.750000  1
  Ta  Ta24  1  0.000000  0.000000  0.000000  1
  Ta  Ta25  1  0.000000  0.000000  0.500000  1
  O  O26  1  0.500000  0.000000  0.000000  1
  O  O27  1  0.000000  0.500000  0.000000  1
  O  O28  1  0.500000  0.000000  0.500000  1
  O  O29  1  0.500000  0.500000  0.000000  1
  O  O30  1  0.000000  0.500000  0.500000  1
  O  O31  1  0.500000  0.500000  0.500000  1
