# generated using pymatgen
data_NdDy2PaIn2Rh3
_symmetry_space_group_name_H-M   'P 1'
_cell_length_a   7.43577120
_cell_length_b   7.51425391
_cell_length_c   4.22268100
_cell_angle_alpha   90.00000000
_cell_angle_beta   90.00000000
_cell_angle_gamma   119.37449317
_symmetry_Int_Tables_number   1
_chemical_formula_structural   NdDy2PaIn2Rh3
_chemical_formula_sum   'Nd1 Dy2 Pa1 In2 Rh3'
_cell_volume   205.60505745
_cell_formula_units_Z   1
loop_
 _symmetry_equiv_pos_site_id
 _symmetry_equiv_pos_as_xyz
  1  'x, y, z'
loop_
 _atom_site_type_symbol
 _atom_site_label
 _atom_site_symmetry_multiplicity
 _atom_site_fract_x
 _atom_site_fract_y
 _atom_site_fract_z
 _atom_site_occupancy
  Nd  Nd0  1  0.971621  0.563512  0.500000  1
  Dy  Dy1  1  0.627749  0.998774  0.500000  1
  Dy  Dy2  1  0.406921  0.434507  0.500000  1
  Pa  Pa3  1  0.268289  0.999555  0.000000  1
  In  In4  1  0.744508  0.745274  0.000000  1
  In  In5  1  0.003903  0.254536  0.000000  1
  Rh  Rh6  1  0.025328  0.004925  0.500000  1
  Rh  Rh7  1  0.327616  0.693850  0.000000  1
  Rh  Rh8  1  0.624066  0.305067  0.000000  1
