# generated using pymatgen
data_Na2Cr3Co5Ni4As7
_symmetry_space_group_name_H-M   'P 1'
_cell_length_a   9.49659207
_cell_length_b   9.52305715
_cell_length_c   3.69752600
_cell_angle_alpha   90.00000000
_cell_angle_beta   90.00000000
_cell_angle_gamma   120.08193417
_symmetry_Int_Tables_number   1
_chemical_formula_structural   Na2Cr3Co5Ni4As7
_chemical_formula_sum   'Na2 Cr3 Co5 Ni4 As7'
_cell_volume   289.35226496
_cell_formula_units_Z   1
loop_
 _symmetry_equiv_pos_site_id
 _symmetry_equiv_pos_as_xyz
  1  'x, y, z'
loop_
 _atom_site_type_symbol
 _atom_site_label
 _atom_site_symmetry_multiplicity
 _atom_site_fract_x
 _atom_site_fract_y
 _atom_site_fract_z
 _atom_site_occupancy
  Na  Na0  1  0.333645  0.667299  0.000000  1
  Na  Na1  1  0.666099  0.333325  0.500000  1
  Cr  Cr2  1  0.227753  0.126909  0.500000  1
  Cr  Cr3  1  0.878699  0.101781  0.500000  1
  Cr  Cr4  1  0.897082  0.774045  0.500000  1
  Co  Co5  1  0.117993  0.276543  0.000000  1
  Co  Co6  1  0.724168  0.842244  0.000000  1
  Co  Co7  1  0.159239  0.880415  0.000000  1
  Co  Co8  1  0.046539  0.433792  0.500000  1
  Co  Co9  1  0.564811  0.613523  0.500000  1
  Ni  Ni10  1  0.427115  0.372890  0.000000  1
  Ni  Ni11  1  0.628919  0.056986  0.000000  1
  Ni  Ni12  1  0.942918  0.572300  0.000000  1
  Ni  Ni13  1  0.386165  0.948500  0.500000  1
  As  As14  1  0.286876  0.417056  0.500000  1
  As  As15  1  0.587279  0.871120  0.500000  1
  As  As16  1  0.124376  0.708827  0.500000  1
  As  As17  1  0.414209  0.117766  0.000000  1
  As  As18  1  0.884342  0.299425  0.000000  1
  As  As19  1  0.699813  0.585399  0.000000  1
  As  As20  1  0.001960  0.999856  0.000000  1
