# generated using pymatgen
data_Pr4ErSn4
_symmetry_space_group_name_H-M   'P 1'
_cell_length_a   8.28773400
_cell_length_b   8.43613000
_cell_length_c   16.03705600
_cell_angle_alpha   90.00000000
_cell_angle_beta   90.00000000
_cell_angle_gamma   90.00000000
_symmetry_Int_Tables_number   1
_chemical_formula_structural   Pr4ErSn4
_chemical_formula_sum   'Pr16 Er4 Sn16'
_cell_volume   1121.25324504
_cell_formula_units_Z   4
loop_
 _symmetry_equiv_pos_site_id
 _symmetry_equiv_pos_as_xyz
  1  'x, y, z'
loop_
 _atom_site_type_symbol
 _atom_site_label
 _atom_site_symmetry_multiplicity
 _atom_site_fract_x
 _atom_site_fract_y
 _atom_site_fract_z
 _atom_site_occupancy
  Pr  Pr0  1  0.368159  0.836859  0.879422  1
  Pr  Pr1  1  0.868159  0.663141  0.620578  1
  Pr  Pr2  1  0.631841  0.163141  0.379422  1
  Pr  Pr3  1  0.131841  0.336859  0.120578  1
  Pr  Pr4  1  0.631841  0.163141  0.120578  1
  Pr  Pr5  1  0.131841  0.336859  0.379422  1
  Pr  Pr6  1  0.368159  0.836859  0.620578  1
  Pr  Pr7  1  0.868159  0.663141  0.879422  1
  Pr  Pr8  1  0.518549  0.318307  0.900942  1
  Pr  Pr9  1  0.018549  0.181693  0.599058  1
  Pr  Pr10  1  0.481451  0.681693  0.400942  1
  Pr  Pr11  1  0.981451  0.818307  0.099058  1
  Pr  Pr12  1  0.481451  0.681693  0.099058  1
  Pr  Pr13  1  0.981451  0.818307  0.400942  1
  Pr  Pr14  1  0.518549  0.318307  0.599058  1
  Pr  Pr15  1  0.018549  0.181693  0.900942  1
  Er  Er16  1  0.199175  0.501232  0.750000  1
  Er  Er17  1  0.699175  0.998768  0.750000  1
  Er  Er18  1  0.800825  0.498768  0.250000  1
  Er  Er19  1  0.300825  0.001232  0.250000  1
  Sn  Sn20  1  0.291178  0.033402  0.044291  1
  Sn  Sn21  1  0.791178  0.466598  0.455709  1
  Sn  Sn22  1  0.708822  0.966598  0.544291  1
  Sn  Sn23  1  0.208822  0.533402  0.955709  1
  Sn  Sn24  1  0.708822  0.966598  0.955709  1
  Sn  Sn25  1  0.208822  0.533402  0.544291  1
  Sn  Sn26  1  0.291178  0.033402  0.455709  1
  Sn  Sn27  1  0.791178  0.466598  0.044291  1
  Sn  Sn28  1  0.564570  0.616444  0.750000  1
  Sn  Sn29  1  0.064570  0.883556  0.750000  1
  Sn  Sn30  1  0.435430  0.383556  0.250000  1
  Sn  Sn31  1  0.935430  0.116444  0.250000  1
  Sn  Sn32  1  0.323243  0.145558  0.750000  1
  Sn  Sn33  1  0.823243  0.354442  0.750000  1
  Sn  Sn34  1  0.676757  0.854442  0.250000  1
  Sn  Sn35  1  0.176757  0.645558  0.250000  1
