# generated using pymatgen
data_Li4PaNi9As7
_symmetry_space_group_name_H-M   'P 1'
_cell_length_a   9.43958800
_cell_length_b   9.43958763
_cell_length_c   3.83745200
_cell_angle_alpha   90.00000000
_cell_angle_beta   90.00000000
_cell_angle_gamma   120.00000832
_symmetry_Int_Tables_number   1
_chemical_formula_structural   Li4PaNi9As7
_chemical_formula_sum   'Li4 Pa1 Ni9 As7'
_cell_volume   296.12809535
_cell_formula_units_Z   1
loop_
 _symmetry_equiv_pos_site_id
 _symmetry_equiv_pos_as_xyz
  1  'x, y, z'
loop_
 _atom_site_type_symbol
 _atom_site_label
 _atom_site_symmetry_multiplicity
 _atom_site_fract_x
 _atom_site_fract_y
 _atom_site_fract_z
 _atom_site_occupancy
  Li  Li0  1  0.774190  0.545117  0.500000  1
  Li  Li1  1  0.454883  0.229073  0.500000  1
  Li  Li2  1  0.770927  0.225810  0.500000  1
  Li  Li3  1  0.000000  0.000000  0.500000  1
  Pa  Pa4  1  0.333333  0.666667  0.000000  1
  Ni  Ni5  1  0.274039  0.374071  0.500000  1
  Ni  Ni6  1  0.625929  0.899967  0.500000  1
  Ni  Ni7  1  0.100033  0.725961  0.500000  1
  Ni  Ni8  1  0.495248  0.452036  0.000000  1
  Ni  Ni9  1  0.547964  0.043212  0.000000  1
  Ni  Ni10  1  0.956788  0.504752  0.000000  1
  Ni  Ni11  1  0.715433  0.761218  0.000000  1
  Ni  Ni12  1  0.238782  0.954214  0.000000  1
  Ni  Ni13  1  0.045786  0.284567  0.000000  1
  As  As14  1  0.962991  0.756512  0.000000  1
  As  As15  1  0.243488  0.206479  0.000000  1
  As  As16  1  0.793521  0.037009  0.000000  1
  As  As17  1  0.666667  0.333333  0.000000  1
  As  As18  1  0.545289  0.618712  0.500000  1
  As  As19  1  0.381288  0.926577  0.500000  1
  As  As20  1  0.073423  0.454711  0.500000  1
