# generated using pymatgen
data_Sm2Ga9Ir2Pt
_symmetry_space_group_name_H-M   'P 1'
_cell_length_a   7.66183297
_cell_length_b   7.66183349
_cell_length_c   9.55727440
_cell_angle_alpha   89.98366144
_cell_angle_beta   89.98366140
_cell_angle_gamma   119.81266488
_symmetry_Int_Tables_number   1
_chemical_formula_structural   Sm2Ga9Ir2Pt
_chemical_formula_sum   'Sm4 Ga18 Ir4 Pt2'
_cell_volume   486.79570547
_cell_formula_units_Z   2
loop_
 _symmetry_equiv_pos_site_id
 _symmetry_equiv_pos_as_xyz
  1  'x, y, z'
loop_
 _atom_site_type_symbol
 _atom_site_label
 _atom_site_symmetry_multiplicity
 _atom_site_fract_x
 _atom_site_fract_y
 _atom_site_fract_z
 _atom_site_occupancy
  Sm  Sm0  1  0.996577  0.668635  0.250314  1
  Sm  Sm1  1  0.003423  0.331365  0.749686  1
  Sm  Sm2  1  0.668635  0.996577  0.250314  1
  Sm  Sm3  1  0.331365  0.003423  0.749686  1
  Ga  Ga4  1  0.126853  0.126852  0.250500  1
  Ga  Ga5  1  0.873148  0.873147  0.749500  1
  Ga  Ga6  1  0.000204  0.331049  0.081339  1
  Ga  Ga7  1  0.999796  0.668951  0.918661  1
  Ga  Ga8  1  0.000673  0.665622  0.577910  1
  Ga  Ga9  1  0.334378  0.999327  0.422090  1
  Ga  Ga10  1  0.999327  0.334378  0.422090  1
  Ga  Ga11  1  0.665622  0.000673  0.577910  1
  Ga  Ga12  1  0.668951  0.999796  0.918661  1
  Ga  Ga13  1  0.331049  0.000204  0.081339  1
  Ga  Ga14  1  0.331967  0.331967  0.561626  1
  Ga  Ga15  1  0.668033  0.668033  0.438374  1
  Ga  Ga16  1  0.669962  0.669962  0.066089  1
  Ga  Ga17  1  0.330038  0.330038  0.933911  1
  Ga  Ga18  1  0.339753  0.544150  0.252956  1
  Ga  Ga19  1  0.660247  0.455850  0.747044  1
  Ga  Ga20  1  0.544150  0.339753  0.252956  1
  Ga  Ga21  1  0.455850  0.660247  0.747044  1
  Ir  Ir22  1  0.328579  0.671421  0.500000  1
  Ir  Ir23  1  0.671421  0.328579  0.500000  1
  Ir  Ir24  1  0.000000  0.000000  0.000000  1
  Ir  Ir25  1  0.000000  0.000000  0.500000  1
  Pt  Pt26  1  0.670814  0.329186  0.000000  1
  Pt  Pt27  1  0.329186  0.670814  0.000000  1
