# generated using pymatgen
data_Rb2SiPPt2
_symmetry_space_group_name_H-M   'P 1'
_cell_length_a   6.90239303
_cell_length_b   6.89776364
_cell_length_c   7.83180200
_cell_angle_alpha   90.00000000
_cell_angle_beta   90.00000000
_cell_angle_gamma   110.68891017
_symmetry_Int_Tables_number   1
_chemical_formula_structural   Rb2SiPPt2
_chemical_formula_sum   'Rb4 Si2 P2 Pt4'
_cell_volume   348.83435936
_cell_formula_units_Z   2
loop_
 _symmetry_equiv_pos_site_id
 _symmetry_equiv_pos_as_xyz
  1  'x, y, z'
loop_
 _atom_site_type_symbol
 _atom_site_label
 _atom_site_symmetry_multiplicity
 _atom_site_fract_x
 _atom_site_fract_y
 _atom_site_fract_z
 _atom_site_occupancy
  Rb  Rb0  1  0.188173  0.808025  0.506824  1
  Rb  Rb1  1  0.688173  0.308025  0.993176  1
  Rb  Rb2  1  0.811360  0.192196  0.488953  1
  Rb  Rb3  1  0.311360  0.692196  0.011047  1
  Si  Si4  1  0.163758  0.176106  0.831681  1
  Si  Si5  1  0.663758  0.676106  0.668319  1
  P  P6  1  0.838702  0.824963  0.170464  1
  P  P7  1  0.338702  0.324963  0.329536  1
  Pt  Pt8  1  0.366963  0.376357  0.623085  1
  Pt  Pt9  1  0.631044  0.622353  0.368239  1
  Pt  Pt10  1  0.131044  0.122353  0.131761  1
  Pt  Pt11  1  0.866963  0.876357  0.876915  1
