# generated using pymatgen
data_Ta3Ti3Re6Si5B
_symmetry_space_group_name_H-M   'P 1'
_cell_length_a   7.49324508
_cell_length_b   7.50810538
_cell_length_c   7.49324618
_cell_angle_alpha   126.40408759
_cell_angle_beta   128.25962959
_cell_angle_gamma   77.67504945
_symmetry_Int_Tables_number   1
_chemical_formula_structural   Ta3Ti3Re6Si5B
_chemical_formula_sum   'Ta3 Ti3 Re6 Si5 B1'
_cell_volume   258.38873180
_cell_formula_units_Z   1
loop_
 _symmetry_equiv_pos_site_id
 _symmetry_equiv_pos_as_xyz
  1  'x, y, z'
loop_
 _atom_site_type_symbol
 _atom_site_label
 _atom_site_symmetry_multiplicity
 _atom_site_fract_x
 _atom_site_fract_y
 _atom_site_fract_z
 _atom_site_occupancy
  Ta  Ta0  1  0.050877  0.095419  0.544542  1
  Ta  Ta1  1  0.751778  0.896171  0.644393  1
  Ta  Ta2  1  0.248900  0.898683  0.149783  1
  Ti  Ti3  1  0.552814  0.099451  0.046637  1
  Ti  Ti4  1  0.448823  0.494387  0.545564  1
  Ti  Ti5  1  0.947837  0.494716  0.046879  1
  Re  Re6  1  0.511481  0.245977  0.757915  1
  Re  Re7  1  0.988062  0.245977  0.234496  1
  Re  Re8  1  0.112146  0.748085  0.609227  1
  Re  Re9  1  0.861437  0.496806  0.609292  1
  Re  Re10  1  0.638858  0.748085  0.135939  1
  Re  Re11  1  0.387514  0.496806  0.135368  1
  Si  Si12  1  0.251301  0.499210  0.747909  1
  Si  Si13  1  0.333811  0.825122  0.498275  1
  Si  Si14  1  0.664965  0.168541  0.495862  1
  Si  Si15  1  0.826848  0.825122  0.991312  1
  Si  Si16  1  0.172679  0.168541  0.003576  1
  B  B17  1  0.749866  0.495098  0.245232  1
