# generated using pymatgen
data_Ho2TmZr7Sn6
_symmetry_space_group_name_H-M   'P 1'
_cell_length_a   5.94789200
_cell_length_b   8.60891564
_cell_length_c   8.68015602
_cell_angle_alpha   119.37170325
_cell_angle_beta   90.00023500
_cell_angle_gamma   89.99989624
_symmetry_Int_Tables_number   1
_chemical_formula_structural   Ho2TmZr7Sn6
_chemical_formula_sum   'Ho2 Tm1 Zr7 Sn6'
_cell_volume   387.33308588
_cell_formula_units_Z   1
loop_
 _symmetry_equiv_pos_site_id
 _symmetry_equiv_pos_as_xyz
  1  'x, y, z'
loop_
 _atom_site_type_symbol
 _atom_site_label
 _atom_site_symmetry_multiplicity
 _atom_site_fract_x
 _atom_site_fract_y
 _atom_site_fract_z
 _atom_site_occupancy
  Ho  Ho0  1  0.749999  0.234014  0.000348  1
  Ho  Ho1  1  0.249999  0.764957  0.001737  1
  Tm  Tm2  1  0.250003  0.000316  0.758058  1
  Zr  Zr3  1  0.500878  0.334358  0.666154  1
  Zr  Zr4  1  0.500803  0.666826  0.331903  1
  Zr  Zr5  1  0.999197  0.666822  0.331899  1
  Zr  Zr6  1  0.999119  0.334360  0.666154  1
  Zr  Zr7  1  0.750000  0.745310  0.745978  1
  Zr  Zr8  1  0.749995  0.000422  0.247819  1
  Zr  Zr9  1  0.249996  0.250579  0.252317  1
  Sn  Sn10  1  0.749998  0.610163  0.999888  1
  Sn  Sn11  1  0.749999  0.392473  0.394544  1
  Sn  Sn12  1  0.750005  0.996925  0.602192  1
  Sn  Sn13  1  0.250000  0.396541  0.003581  1
  Sn  Sn14  1  0.249996  0.602040  0.600486  1
  Sn  Sn15  1  0.250010  0.003891  0.396944  1
