# generated using pymatgen
data_TbY3(ZnSi)4
_symmetry_space_group_name_H-M   'P 1'
_cell_length_a   4.14331000
_cell_length_b   4.14330938
_cell_length_c   15.87411600
_cell_angle_alpha   90.00000000
_cell_angle_beta   90.00000000
_cell_angle_gamma   120.00000495
_symmetry_Int_Tables_number   1
_chemical_formula_structural   TbY3(ZnSi)4
_chemical_formula_sum   'Tb1 Y3 Zn4 Si4'
_cell_volume   236.00160199
_cell_formula_units_Z   1
loop_
 _symmetry_equiv_pos_site_id
 _symmetry_equiv_pos_as_xyz
  1  'x, y, z'
loop_
 _atom_site_type_symbol
 _atom_site_label
 _atom_site_symmetry_multiplicity
 _atom_site_fract_x
 _atom_site_fract_y
 _atom_site_fract_z
 _atom_site_occupancy
  Tb  Tb0  1  0.000000  0.000000  0.500000  1
  Y  Y1  1  0.000000  0.000000  0.249755  1
  Y  Y2  1  0.000000  0.000000  0.750245  1
  Y  Y3  1  0.000000  0.000000  0.000000  1
  Zn  Zn4  1  0.333333  0.666667  0.135871  1
  Zn  Zn5  1  0.666667  0.333333  0.864129  1
  Zn  Zn6  1  0.666667  0.333333  0.635760  1
  Zn  Zn7  1  0.333333  0.666667  0.364240  1
  Si  Si8  1  0.333333  0.666667  0.618973  1
  Si  Si9  1  0.666667  0.333333  0.381027  1
  Si  Si10  1  0.666667  0.333333  0.118720  1
  Si  Si11  1  0.333333  0.666667  0.881280  1
