# generated using pymatgen
data_ErThCoNi6
_symmetry_space_group_name_H-M   'P 1'
_cell_length_a   4.93980137
_cell_length_b   4.92462909
_cell_length_c   12.40890560
_cell_angle_alpha   78.55475609
_cell_angle_beta   78.53393704
_cell_angle_gamma   60.10155596
_symmetry_Int_Tables_number   1
_chemical_formula_structural   ErThCoNi6
_chemical_formula_sum   'Er2 Th2 Co2 Ni12'
_cell_volume   254.71016017
_cell_formula_units_Z   2
loop_
 _symmetry_equiv_pos_site_id
 _symmetry_equiv_pos_as_xyz
  1  'x, y, z'
loop_
 _atom_site_type_symbol
 _atom_site_label
 _atom_site_symmetry_multiplicity
 _atom_site_fract_x
 _atom_site_fract_y
 _atom_site_fract_z
 _atom_site_occupancy
  Er  Er0  1  0.851718  0.851909  0.444464  1
  Er  Er1  1  0.148282  0.148091  0.555536  1
  Th  Th2  1  0.948285  0.948329  0.155058  1
  Th  Th3  1  0.051715  0.051671  0.844942  1
  Co  Co4  1  0.500000  0.000000  0.000000  1
  Co  Co5  1  0.500000  0.500000  0.000000  1
  Ni  Ni6  1  0.500000  0.500000  0.500000  1
  Ni  Ni7  1  0.721884  0.722423  0.833271  1
  Ni  Ni8  1  0.278116  0.277577  0.166729  1
  Ni  Ni9  1  0.610883  0.611261  0.166592  1
  Ni  Ni10  1  0.389117  0.388739  0.833408  1
  Ni  Ni11  1  0.000000  0.500000  0.000000  1
  Ni  Ni12  1  0.388458  0.388453  0.332662  1
  Ni  Ni13  1  0.890262  0.388441  0.332856  1
  Ni  Ni14  1  0.388458  0.890427  0.332662  1
  Ni  Ni15  1  0.611542  0.611547  0.667338  1
  Ni  Ni16  1  0.109738  0.611559  0.667144  1
  Ni  Ni17  1  0.611542  0.109573  0.667338  1
