# generated using pymatgen
data_YHo3Co4(P3Rh4)4
_symmetry_space_group_name_H-M   'P 1'
_cell_length_a   3.84764900
_cell_length_b   10.76513205
_cell_length_c   12.40296106
_cell_angle_alpha   90.01152465
_cell_angle_beta   90.00000000
_cell_angle_gamma   90.00000000
_symmetry_Int_Tables_number   1
_chemical_formula_structural   YHo3Co4(P3Rh4)4
_chemical_formula_sum   'Y1 Ho3 Co4 P12 Rh16'
_cell_volume   513.73621300
_cell_formula_units_Z   1
loop_
 _symmetry_equiv_pos_site_id
 _symmetry_equiv_pos_as_xyz
  1  'x, y, z'
loop_
 _atom_site_type_symbol
 _atom_site_label
 _atom_site_symmetry_multiplicity
 _atom_site_fract_x
 _atom_site_fract_y
 _atom_site_fract_z
 _atom_site_occupancy
  Y  Y0  1  0.250000  0.585162  0.707641  1
  Ho  Ho1  1  0.250000  0.914882  0.207580  1
  Ho  Ho2  1  0.750000  0.414838  0.292412  1
  Ho  Ho3  1  0.750000  0.085157  0.792445  1
  Co  Co4  1  0.250000  0.464133  0.934054  1
  Co  Co5  1  0.250000  0.035785  0.433778  1
  Co  Co6  1  0.750000  0.535738  0.066316  1
  Co  Co7  1  0.750000  0.964354  0.566153  1
  P  P8  1  0.250000  0.424098  0.106229  1
  P  P9  1  0.250000  0.075884  0.606125  1
  P  P10  1  0.750000  0.575856  0.894144  1
  P  P11  1  0.750000  0.924138  0.393828  1
  P  P12  1  0.250000  0.271954  0.872481  1
  P  P13  1  0.250000  0.228010  0.372481  1
  P  P14  1  0.750000  0.728054  0.127496  1
  P  P15  1  0.750000  0.772300  0.627264  1
  P  P16  1  0.250000  0.599181  0.388012  1
  P  P17  1  0.250000  0.900795  0.887976  1
  P  P18  1  0.750000  0.400531  0.611837  1
  P  P19  1  0.750000  0.099174  0.112021  1
  Rh  Rh20  1  0.250000  0.716474  0.987746  1
  Rh  Rh21  1  0.250000  0.783597  0.487618  1
  Rh  Rh22  1  0.750000  0.283533  0.012405  1
  Rh  Rh23  1  0.750000  0.216410  0.512268  1
  Rh  Rh24  1  0.250000  0.408154  0.479710  1
  Rh  Rh25  1  0.250000  0.091745  0.979755  1
  Rh  Rh26  1  0.750000  0.591748  0.519585  1
  Rh  Rh27  1  0.750000  0.908243  0.020295  1
  Rh  Rh28  1  0.250000  0.227772  0.178283  1
  Rh  Rh29  1  0.250000  0.272164  0.678230  1
  Rh  Rh30  1  0.750000  0.772654  0.821986  1
  Rh  Rh31  1  0.750000  0.727848  0.321613  1
  Rh  Rh32  1  0.250000  0.887146  0.699012  1
  Rh  Rh33  1  0.250000  0.612966  0.199014  1
  Rh  Rh34  1  0.750000  0.112978  0.300967  1
  Rh  Rh35  1  0.750000  0.386544  0.801239  1
