# generated using pymatgen
data_Tb4Tm2Si24Os3Ru5
_symmetry_space_group_name_H-M   'P 1'
_cell_length_a   10.09079535
_cell_length_b   10.09079582
_cell_length_c   8.13637507
_cell_angle_alpha   90.00267794
_cell_angle_beta   90.00268485
_cell_angle_gamma   132.44254871
_symmetry_Int_Tables_number   1
_chemical_formula_structural   Tb4Tm2Si24Os3Ru5
_chemical_formula_sum   'Tb4 Tm2 Si24 Os3 Ru5'
_cell_volume   611.38009524
_cell_formula_units_Z   1
loop_
 _symmetry_equiv_pos_site_id
 _symmetry_equiv_pos_as_xyz
  1  'x, y, z'
loop_
 _atom_site_type_symbol
 _atom_site_label
 _atom_site_symmetry_multiplicity
 _atom_site_fract_x
 _atom_site_fract_y
 _atom_site_fract_z
 _atom_site_occupancy
  Tb  Tb0  1  0.502070  0.002074  0.750221  1
  Tb  Tb1  1  0.997926  0.497930  0.249779  1
  Tb  Tb2  1  0.498141  0.997823  0.249588  1
  Tb  Tb3  1  0.002177  0.501859  0.750412  1
  Tm  Tm4  1  0.500030  0.499970  0.500000  1
  Tm  Tm5  1  0.000048  0.999952  0.000000  1
  Si  Si6  1  0.795759  0.204241  0.500000  1
  Si  Si7  1  0.295625  0.704375  0.000000  1
  Si  Si8  1  0.204342  0.795658  0.500000  1
  Si  Si9  1  0.704954  0.295046  0.000000  1
  Si  Si10  1  0.331912  0.331668  0.833349  1
  Si  Si11  1  0.668332  0.668088  0.166651  1
  Si  Si12  1  0.166970  0.167206  0.332077  1
  Si  Si13  1  0.832794  0.833030  0.667923  1
  Si  Si14  1  0.120693  0.888169  0.728439  1
  Si  Si15  1  0.111831  0.879307  0.271561  1
  Si  Si16  1  0.612852  0.379593  0.227352  1
  Si  Si17  1  0.620407  0.387148  0.772648  1
  Si  Si18  1  0.878617  0.111654  0.270387  1
  Si  Si19  1  0.888346  0.121383  0.729613  1
  Si  Si20  1  0.388098  0.621281  0.772249  1
  Si  Si21  1  0.378719  0.611902  0.227751  1
  Si  Si22  1  0.344619  0.112054  0.504986  1
  Si  Si23  1  0.887946  0.655381  0.495014  1
  Si  Si24  1  0.387974  0.155759  0.003488  1
  Si  Si25  1  0.844241  0.612026  0.996512  1
  Si  Si26  1  0.655543  0.888079  0.494719  1
  Si  Si27  1  0.111921  0.344457  0.505281  1
  Si  Si28  1  0.613475  0.846108  0.995484  1
  Si  Si29  1  0.153892  0.386525  0.004516  1
  Os  Os30  1  0.668937  0.331063  0.500000  1
  Os  Os31  1  0.168927  0.831073  0.000000  1
  Os  Os32  1  0.331050  0.668950  0.500000  1
  Ru  Ru33  1  0.830997  0.169003  0.000000  1
  Ru  Ru34  1  0.127518  0.127433  0.626382  1
  Ru  Ru35  1  0.872567  0.872482  0.373618  1
  Ru  Ru36  1  0.374271  0.374522  0.127842  1
  Ru  Ru37  1  0.625478  0.625729  0.872158  1
