# generated using pymatgen
data_Sr4GdHoNb2O12
_symmetry_space_group_name_H-M   'P 1'
_cell_length_a   5.96853958
_cell_length_b   5.86199983
_cell_length_c   10.17663246
_cell_angle_alpha   55.05114439
_cell_angle_beta   89.94939447
_cell_angle_gamma   89.97241677
_symmetry_Int_Tables_number   1
_chemical_formula_structural   Sr4GdHoNb2O12
_chemical_formula_sum   'Sr4 Gd1 Ho1 Nb2 O12'
_cell_volume   291.84584155
_cell_formula_units_Z   1
loop_
 _symmetry_equiv_pos_site_id
 _symmetry_equiv_pos_as_xyz
  1  'x, y, z'
loop_
 _atom_site_type_symbol
 _atom_site_label
 _atom_site_symmetry_multiplicity
 _atom_site_fract_x
 _atom_site_fract_y
 _atom_site_fract_z
 _atom_site_occupancy
  Sr  Sr0  1  0.459542  0.257450  0.752166  1
  Sr  Sr1  1  0.960382  0.739521  0.750972  1
  Sr  Sr2  1  0.039618  0.260479  0.249028  1
  Sr  Sr3  1  0.540458  0.742550  0.247834  1
  Gd  Gd4  1  0.500000  0.000000  0.500000  1
  Ho  Ho5  1  0.000000  0.000000  0.000000  1
  Nb  Nb6  1  0.500000  0.500000  0.000000  1
  Nb  Nb7  1  0.000000  0.500000  0.500000  1
  O  O8  1  0.723428  0.641525  0.548780  1
  O  O9  1  0.223431  0.352392  0.952544  1
  O  O10  1  0.276572  0.358475  0.451220  1
  O  O11  1  0.776569  0.647608  0.047456  1
  O  O12  1  0.193393  0.732002  0.544196  1
  O  O13  1  0.697816  0.266610  0.957150  1
  O  O14  1  0.806607  0.267998  0.455804  1
  O  O15  1  0.302184  0.733390  0.042850  1
  O  O16  1  0.027519  0.178460  0.736310  1
  O  O17  1  0.528140  0.820287  0.766633  1
  O  O18  1  0.972481  0.821540  0.263690  1
  O  O19  1  0.471860  0.179713  0.233367  1
