# generated using pymatgen
data_ThFe4Tc7Os
_symmetry_space_group_name_H-M   'P 1'
_cell_length_a   6.77043367
_cell_length_b   6.77043402
_cell_length_c   6.77043494
_cell_angle_alpha   97.31833050
_cell_angle_beta   96.93296637
_cell_angle_gamma   138.75610669
_symmetry_Int_Tables_number   1
_chemical_formula_structural   ThFe4Tc7Os
_chemical_formula_sum   'Th1 Fe4 Tc7 Os1'
_cell_volume   191.49074155
_cell_formula_units_Z   1
loop_
 _symmetry_equiv_pos_site_id
 _symmetry_equiv_pos_as_xyz
  1  'x, y, z'
loop_
 _atom_site_type_symbol
 _atom_site_label
 _atom_site_symmetry_multiplicity
 _atom_site_fract_x
 _atom_site_fract_y
 _atom_site_fract_z
 _atom_site_occupancy
  Th  Th0  1  0.000169  0.000000  0.000169  1
  Fe  Fe1  1  0.499505  0.500842  0.499595  1
  Fe  Fe2  1  0.998753  0.499158  0.998663  1
  Fe  Fe3  1  0.499505  0.999910  0.998663  1
  Fe  Fe4  1  0.998753  0.000090  0.499595  1
  Tc  Tc5  1  0.499101  0.283695  0.782796  1
  Tc  Tc6  1  0.499101  0.716305  0.215406  1
  Tc  Tc7  1  0.724383  0.500000  0.224383  1
  Tc  Tc8  1  0.360081  0.000000  0.360081  1
  Tc  Tc9  1  0.641875  0.000000  0.641875  1
  Tc  Tc10  1  0.000188  0.642608  0.642796  1
  Tc  Tc11  1  0.000188  0.357392  0.357580  1
  Os  Os12  1  0.278398  0.500000  0.778398  1
