# generated using pymatgen
data_Lu12AlNi4Bi
_symmetry_space_group_name_H-M   'P 1'
_cell_length_a   8.19930246
_cell_length_b   8.19930273
_cell_length_c   8.19930061
_cell_angle_alpha   112.03695443
_cell_angle_beta   110.45150920
_cell_angle_gamma   105.98471167
_symmetry_Int_Tables_number   1
_chemical_formula_structural   Lu12AlNi4Bi
_chemical_formula_sum   'Lu12 Al1 Ni4 Bi1'
_cell_volume   423.07918251
_cell_formula_units_Z   1
loop_
 _symmetry_equiv_pos_site_id
 _symmetry_equiv_pos_as_xyz
  1  'x, y, z'
loop_
 _atom_site_type_symbol
 _atom_site_label
 _atom_site_symmetry_multiplicity
 _atom_site_fract_x
 _atom_site_fract_y
 _atom_site_fract_z
 _atom_site_occupancy
  Lu  Lu0  1  0.433479  0.229513  0.203967  1
  Lu  Lu1  1  0.566521  0.770487  0.796033  1
  Lu  Lu2  1  0.025545  0.229513  0.796033  1
  Lu  Lu3  1  0.974455  0.770487  0.203967  1
  Lu  Lu4  1  0.179524  0.283184  0.462709  1
  Lu  Lu5  1  0.820476  0.716816  0.537291  1
  Lu  Lu6  1  0.179524  0.716816  0.896339  1
  Lu  Lu7  1  0.820476  0.283184  0.103661  1
  Lu  Lu8  1  0.321153  0.630901  0.309748  1
  Lu  Lu9  1  0.678847  0.369099  0.690252  1
  Lu  Lu10  1  0.321153  0.011406  0.690252  1
  Lu  Lu11  1  0.678847  0.988594  0.309748  1
  Al  Al12  1  0.000000  0.000000  0.000000  1
  Ni  Ni13  1  0.349882  0.000000  0.349882  1
  Ni  Ni14  1  0.650118  0.000000  0.650118  1
  Ni  Ni15  1  0.119981  0.619981  0.500000  1
  Ni  Ni16  1  0.880019  0.380019  0.500000  1
  Bi  Bi17  1  0.500000  0.500000  0.000000  1
