# generated using pymatgen
data_V12Ga6PtRhN4
_symmetry_space_group_name_H-M   'P 1'
_cell_length_a   6.61284406
_cell_length_b   6.63028030
_cell_length_c   6.63437605
_cell_angle_alpha   90.00188598
_cell_angle_beta   89.98583961
_cell_angle_gamma   90.36890313
_symmetry_Int_Tables_number   1
_chemical_formula_structural   V12Ga6PtRhN4
_chemical_formula_sum   'V12 Ga6 Pt1 Rh1 N4'
_cell_volume   290.87824393
_cell_formula_units_Z   1
loop_
 _symmetry_equiv_pos_site_id
 _symmetry_equiv_pos_as_xyz
  1  'x, y, z'
loop_
 _atom_site_type_symbol
 _atom_site_label
 _atom_site_symmetry_multiplicity
 _atom_site_fract_x
 _atom_site_fract_y
 _atom_site_fract_z
 _atom_site_occupancy
  V  V0  1  0.789823  0.961553  0.376609  1
  V  V1  1  0.711268  0.037792  0.876568  1
  V  V2  1  0.212667  0.457880  0.125192  1
  V  V3  1  0.286805  0.544395  0.623212  1
  V  V4  1  0.959420  0.381423  0.787472  1
  V  V5  1  0.041241  0.872043  0.710074  1
  V  V6  1  0.458397  0.126544  0.212284  1
  V  V7  1  0.539611  0.619114  0.286944  1
  V  V8  1  0.379935  0.786027  0.960181  1
  V  V9  1  0.873526  0.710992  0.040648  1
  V  V10  1  0.119585  0.212248  0.458626  1
  V  V11  1  0.627721  0.290015  0.539575  1
  Ga  Ga12  1  0.821760  0.320071  0.178160  1
  Ga  Ga13  1  0.678269  0.679916  0.678015  1
  Ga  Ga14  1  0.568957  0.429965  0.929964  1
  Ga  Ga15  1  0.428854  0.930797  0.565770  1
  Ga  Ga16  1  0.933119  0.572391  0.429031  1
  Ga  Ga17  1  0.069917  0.066336  0.070030  1
  Pt  Pt18  1  0.318818  0.178628  0.817903  1
  Rh  Rh19  1  0.180853  0.821632  0.317888  1
  N  N20  1  0.877244  0.122467  0.628957  1
  N  N21  1  0.622621  0.877282  0.129434  1
  N  N22  1  0.127396  0.626596  0.878791  1
  N  N23  1  0.372191  0.373894  0.378672  1
