# generated using pymatgen
data_Na2ThB2Pt7
_symmetry_space_group_name_H-M   'P 1'
_cell_length_a   8.28478983
_cell_length_b   8.28478921
_cell_length_c   8.28478900
_cell_angle_alpha   39.08873579
_cell_angle_beta   39.08874104
_cell_angle_gamma   39.08874054
_symmetry_Int_Tables_number   1
_chemical_formula_structural   Na2ThB2Pt7
_chemical_formula_sum   'Na2 Th1 B2 Pt7'
_cell_volume   203.34399817
_cell_formula_units_Z   1
loop_
 _symmetry_equiv_pos_site_id
 _symmetry_equiv_pos_as_xyz
  1  'x, y, z'
loop_
 _atom_site_type_symbol
 _atom_site_label
 _atom_site_symmetry_multiplicity
 _atom_site_fract_x
 _atom_site_fract_y
 _atom_site_fract_z
 _atom_site_occupancy
  Na  Na0  1  0.136181  0.136181  0.136181  1
  Na  Na1  1  0.007101  0.007101  0.007101  1
  Th  Th2  1  0.857155  0.857155  0.857155  1
  B  B3  1  0.667385  0.667385  0.667385  1
  B  B4  1  0.332146  0.332146  0.332146  1
  Pt  Pt5  1  0.434708  0.933815  0.434708  1
  Pt  Pt6  1  0.434708  0.434708  0.933815  1
  Pt  Pt7  1  0.933815  0.434708  0.434708  1
  Pt  Pt8  1  0.565767  0.065594  0.565767  1
  Pt  Pt9  1  0.565767  0.565767  0.065594  1
  Pt  Pt10  1  0.065594  0.565767  0.565767  1
  Pt  Pt11  1  0.499671  0.499671  0.499671  1
