# generated using pymatgen
data_La4TaBi2SbO14
_symmetry_space_group_name_H-M   'P 1'
_cell_length_a   6.80927113
_cell_length_b   6.80927171
_cell_length_c   7.76954739
_cell_angle_alpha   90.18364721
_cell_angle_beta   90.18364523
_cell_angle_gamma   111.48216079
_symmetry_Int_Tables_number   1
_chemical_formula_structural   La4TaBi2SbO14
_chemical_formula_sum   'La4 Ta1 Bi2 Sb1 O14'
_cell_volume   335.21320110
_cell_formula_units_Z   1
loop_
 _symmetry_equiv_pos_site_id
 _symmetry_equiv_pos_as_xyz
  1  'x, y, z'
loop_
 _atom_site_type_symbol
 _atom_site_label
 _atom_site_symmetry_multiplicity
 _atom_site_fract_x
 _atom_site_fract_y
 _atom_site_fract_z
 _atom_site_occupancy
  La  La0  1  0.008318  0.991682  0.500000  1
  La  La1  1  0.009958  0.990042  0.000000  1
  La  La2  1  0.495478  0.957340  0.749046  1
  La  La3  1  0.042660  0.504522  0.250954  1
  Ta  Ta4  1  0.498570  0.501430  0.500000  1
  Bi  Bi5  1  0.522940  0.030331  0.251868  1
  Bi  Bi6  1  0.969669  0.477060  0.748132  1
  Sb  Sb7  1  0.496031  0.503969  0.000000  1
  O  O8  1  0.429810  0.198689  0.533040  1
  O  O9  1  0.801311  0.570190  0.466960  1
  O  O10  1  0.427329  0.195342  0.965687  1
  O  O11  1  0.804658  0.572671  0.034313  1
  O  O12  1  0.559214  0.822890  0.465801  1
  O  O13  1  0.177110  0.440786  0.534199  1
  O  O14  1  0.557322  0.819872  0.034228  1
  O  O15  1  0.180128  0.442678  0.965772  1
  O  O16  1  0.169304  0.876688  0.251585  1
  O  O17  1  0.123312  0.830696  0.748415  1
  O  O18  1  0.867508  0.097051  0.750732  1
  O  O19  1  0.902949  0.132492  0.249268  1
  O  O20  1  0.414519  0.458099  0.251468  1
  O  O21  1  0.541901  0.585481  0.748532  1
