# generated using pymatgen
data_Hf18Mo8IrSe
_symmetry_space_group_name_H-M   'P 1'
_cell_length_a   8.72596300
_cell_length_b   8.72601917
_cell_length_c   8.61127100
_cell_angle_alpha   90.00000000
_cell_angle_beta   90.00000000
_cell_angle_gamma   119.99993790
_symmetry_Int_Tables_number   1
_chemical_formula_structural   Hf18Mo8IrSe
_chemical_formula_sum   'Hf18 Mo8 Ir1 Se1'
_cell_volume   567.84223319
_cell_formula_units_Z   1
loop_
 _symmetry_equiv_pos_site_id
 _symmetry_equiv_pos_as_xyz
  1  'x, y, z'
loop_
 _atom_site_type_symbol
 _atom_site_label
 _atom_site_symmetry_multiplicity
 _atom_site_fract_x
 _atom_site_fract_y
 _atom_site_fract_z
 _atom_site_occupancy
  Hf  Hf0  1  0.542249  0.084497  0.250000  1
  Hf  Hf1  1  0.455948  0.911896  0.750000  1
  Hf  Hf2  1  0.915503  0.457751  0.250000  1
  Hf  Hf3  1  0.088105  0.544053  0.750000  1
  Hf  Hf4  1  0.542248  0.457750  0.250000  1
  Hf  Hf5  1  0.455948  0.544053  0.750000  1
  Hf  Hf6  1  0.198458  0.396916  0.052324  1
  Hf  Hf7  1  0.805900  0.611801  0.953969  1
  Hf  Hf8  1  0.603085  0.801543  0.052323  1
  Hf  Hf9  1  0.805900  0.611801  0.546031  1
  Hf  Hf10  1  0.388199  0.194100  0.953970  1
  Hf  Hf11  1  0.198458  0.396916  0.447676  1
  Hf  Hf12  1  0.198458  0.801543  0.052324  1
  Hf  Hf13  1  0.388199  0.194100  0.546030  1
  Hf  Hf14  1  0.805900  0.194099  0.953969  1
  Hf  Hf15  1  0.603085  0.801543  0.447677  1
  Hf  Hf16  1  0.805900  0.194099  0.546031  1
  Hf  Hf17  1  0.198458  0.801543  0.447676  1
  Mo  Mo18  1  0.000000  0.000000  0.002314  1
  Mo  Mo19  1  0.000000  0.000000  0.497686  1
  Mo  Mo20  1  0.888293  0.776586  0.250000  1
  Mo  Mo21  1  0.110452  0.220906  0.750000  1
  Mo  Mo22  1  0.223414  0.111708  0.250000  1
  Mo  Mo23  1  0.779093  0.889547  0.750000  1
  Mo  Mo24  1  0.888293  0.111707  0.250000  1
  Mo  Mo25  1  0.110452  0.889547  0.750000  1
  Ir  Ir26  1  0.333333  0.666665  0.250000  1
  Se  Se27  1  0.666667  0.333334  0.750000  1
