# generated using pymatgen
data_TmLu(Co2O5)2
_symmetry_space_group_name_H-M   'P 1'
_cell_length_a   5.67200600
_cell_length_b   7.09593815
_cell_length_c   8.28669220
_cell_angle_alpha   90.02442909
_cell_angle_beta   90.00000000
_cell_angle_gamma   90.00000000
_symmetry_Int_Tables_number   1
_chemical_formula_structural   TmLu(Co2O5)2
_chemical_formula_sum   'Tm2 Lu2 Co8 O20'
_cell_volume   333.52444593
_cell_formula_units_Z   2
loop_
 _symmetry_equiv_pos_site_id
 _symmetry_equiv_pos_as_xyz
  1  'x, y, z'
loop_
 _atom_site_type_symbol
 _atom_site_label
 _atom_site_symmetry_multiplicity
 _atom_site_fract_x
 _atom_site_fract_y
 _atom_site_fract_z
 _atom_site_occupancy
  Tm  Tm0  1  0.000000  0.137061  0.171694  1
  Tm  Tm1  1  0.000000  0.862939  0.828306  1
  Lu  Lu2  1  0.000000  0.637149  0.328782  1
  Lu  Lu3  1  0.000000  0.362851  0.671218  1
  Co  Co4  1  0.253886  0.000000  0.500000  1
  Co  Co5  1  0.746484  0.500000  0.000000  1
  Co  Co6  1  0.746114  0.000000  0.500000  1
  Co  Co7  1  0.253516  0.500000  0.000000  1
  Co  Co8  1  0.500000  0.409358  0.349081  1
  Co  Co9  1  0.500000  0.590642  0.650919  1
  Co  Co10  1  0.500000  0.908429  0.151318  1
  Co  Co11  1  0.500000  0.091571  0.848682  1
  O  O12  1  0.271633  0.000000  0.000000  1
  O  O13  1  0.730163  0.500000  0.500000  1
  O  O14  1  0.728367  0.000000  0.000000  1
  O  O15  1  0.269837  0.500000  0.500000  1
  O  O16  1  0.000000  0.165377  0.444741  1
  O  O17  1  0.000000  0.834623  0.555259  1
  O  O18  1  0.000000  0.665082  0.056679  1
  O  O19  1  0.000000  0.334918  0.943321  1
  O  O20  1  0.500000  0.151825  0.429532  1
  O  O21  1  0.500000  0.848175  0.570468  1
  O  O22  1  0.500000  0.652892  0.068531  1
  O  O23  1  0.500000  0.347108  0.931469  1
  O  O24  1  0.240377  0.396136  0.207546  1
  O  O25  1  0.240377  0.603864  0.792454  1
  O  O26  1  0.759252  0.892318  0.293205  1
  O  O27  1  0.759252  0.107682  0.706795  1
  O  O28  1  0.759623  0.603864  0.792454  1
  O  O29  1  0.759623  0.396136  0.207546  1
  O  O30  1  0.240748  0.107682  0.706795  1
  O  O31  1  0.240748  0.892318  0.293205  1
