# generated using pymatgen
data_Y8Tm2Ir5Au
_symmetry_space_group_name_H-M   'P 1'
_cell_length_a   11.06084951
_cell_length_b   10.99649900
_cell_length_c   6.33380302
_cell_angle_alpha   90.00000000
_cell_angle_beta   89.87299465
_cell_angle_gamma   90.00000000
_symmetry_Int_Tables_number   1
_chemical_formula_structural   Y8Tm2Ir5Au
_chemical_formula_sum   'Y16 Tm4 Ir10 Au2'
_cell_volume   770.38249858
_cell_formula_units_Z   2
loop_
 _symmetry_equiv_pos_site_id
 _symmetry_equiv_pos_as_xyz
  1  'x, y, z'
loop_
 _atom_site_type_symbol
 _atom_site_label
 _atom_site_symmetry_multiplicity
 _atom_site_fract_x
 _atom_site_fract_y
 _atom_site_fract_z
 _atom_site_occupancy
  Y  Y0  1  0.290915  0.087798  0.371789  1
  Y  Y1  1  0.290915  0.912202  0.871789  1
  Y  Y2  1  0.699044  0.091715  0.865859  1
  Y  Y3  1  0.699044  0.908285  0.365859  1
  Y  Y4  1  0.577894  0.788159  0.876818  1
  Y  Y5  1  0.577894  0.211841  0.376818  1
  Y  Y6  1  0.408977  0.789621  0.376241  1
  Y  Y7  1  0.408977  0.210379  0.876241  1
  Y  Y8  1  0.210940  0.411813  0.621662  1
  Y  Y9  1  0.210940  0.588187  0.121662  1
  Y  Y10  1  0.788417  0.419777  0.123629  1
  Y  Y11  1  0.788417  0.580223  0.623629  1
  Y  Y12  1  0.917629  0.706464  0.138361  1
  Y  Y13  1  0.917629  0.293536  0.638361  1
  Y  Y14  1  0.095426  0.704224  0.624570  1
  Y  Y15  1  0.095426  0.295776  0.124570  1
  Tm  Tm16  1  0.009224  0.997849  0.500143  1
  Tm  Tm17  1  0.009224  0.002151  0.000143  1
  Tm  Tm18  1  0.500044  0.498689  0.000652  1
  Tm  Tm19  1  0.500044  0.501311  0.500652  1
  Ir  Ir20  1  0.151345  0.151379  0.750099  1
  Ir  Ir21  1  0.151345  0.848621  0.250099  1
  Ir  Ir22  1  0.653594  0.348185  0.748121  1
  Ir  Ir23  1  0.653594  0.651815  0.248121  1
  Ir  Ir24  1  0.349677  0.348533  0.251718  1
  Ir  Ir25  1  0.349677  0.651467  0.751718  1
  Ir  Ir26  1  0.499337  0.999820  0.121461  1
  Ir  Ir27  1  0.499337  0.000180  0.621461  1
  Ir  Ir28  1  0.000349  0.500875  0.878306  1
  Ir  Ir29  1  0.000349  0.499125  0.378306  1
  Au  Au30  1  0.847187  0.152879  0.250571  1
  Au  Au31  1  0.847187  0.847121  0.750571  1
