# generated using pymatgen
data_YbGe3Pd5
_symmetry_space_group_name_H-M   'P 1'
_cell_length_a   4.07275000
_cell_length_b   7.44646300
_cell_length_c   20.32356200
_cell_angle_alpha   90.00000000
_cell_angle_beta   90.00000000
_cell_angle_gamma   90.00000000
_symmetry_Int_Tables_number   1
_chemical_formula_structural   YbGe3Pd5
_chemical_formula_sum   'Yb4 Ge12 Pd20'
_cell_volume   616.36449681
_cell_formula_units_Z   4
loop_
 _symmetry_equiv_pos_site_id
 _symmetry_equiv_pos_as_xyz
  1  'x, y, z'
loop_
 _atom_site_type_symbol
 _atom_site_label
 _atom_site_symmetry_multiplicity
 _atom_site_fract_x
 _atom_site_fract_y
 _atom_site_fract_z
 _atom_site_occupancy
  Yb  Yb0  1  0.750000  0.378250  0.355722  1
  Yb  Yb1  1  0.750000  0.121750  0.855722  1
  Yb  Yb2  1  0.250000  0.621750  0.644278  1
  Yb  Yb3  1  0.250000  0.878250  0.144278  1
  Ge  Ge4  1  0.250000  0.375281  0.240522  1
  Ge  Ge5  1  0.750000  0.146922  0.077024  1
  Ge  Ge6  1  0.750000  0.904519  0.585738  1
  Ge  Ge7  1  0.750000  0.875281  0.259478  1
  Ge  Ge8  1  0.750000  0.595481  0.085738  1
  Ge  Ge9  1  0.250000  0.853078  0.922976  1
  Ge  Ge10  1  0.250000  0.124719  0.740522  1
  Ge  Ge11  1  0.250000  0.404519  0.914262  1
  Ge  Ge12  1  0.250000  0.095481  0.414262  1
  Ge  Ge13  1  0.750000  0.353078  0.577024  1
  Ge  Ge14  1  0.750000  0.624719  0.759478  1
  Ge  Ge15  1  0.250000  0.646922  0.422976  1
  Pd  Pd16  1  0.750000  0.122846  0.486733  1
  Pd  Pd17  1  0.250000  0.823680  0.800143  1
  Pd  Pd18  1  0.250000  0.676320  0.300143  1
  Pd  Pd19  1  0.750000  0.643132  0.883616  1
  Pd  Pd20  1  0.250000  0.143132  0.616384  1
  Pd  Pd21  1  0.250000  0.127226  0.994839  1
  Pd  Pd22  1  0.750000  0.176320  0.199857  1
  Pd  Pd23  1  0.250000  0.356868  0.116384  1
  Pd  Pd24  1  0.750000  0.856868  0.383616  1
  Pd  Pd25  1  0.250000  0.429818  0.794164  1
  Pd  Pd26  1  0.250000  0.877154  0.513267  1
  Pd  Pd27  1  0.750000  0.627226  0.505161  1
  Pd  Pd28  1  0.750000  0.377154  0.986733  1
  Pd  Pd29  1  0.250000  0.372774  0.494839  1
  Pd  Pd30  1  0.250000  0.070182  0.294164  1
  Pd  Pd31  1  0.750000  0.570182  0.205836  1
  Pd  Pd32  1  0.750000  0.929818  0.705836  1
  Pd  Pd33  1  0.750000  0.323680  0.699857  1
  Pd  Pd34  1  0.750000  0.872774  0.005161  1
  Pd  Pd35  1  0.250000  0.622846  0.013267  1
