# generated using pymatgen
data_Ho8CoHg2Ru
_symmetry_space_group_name_H-M   'P 1'
_cell_length_a   9.59810430
_cell_length_b   9.49606014
_cell_length_c   9.49606137
_cell_angle_alpha   59.57208901
_cell_angle_beta   59.64389137
_cell_angle_gamma   59.64389295
_symmetry_Int_Tables_number   1
_chemical_formula_structural   Ho8CoHg2Ru
_chemical_formula_sum   'Ho16 Co2 Hg4 Ru2'
_cell_volume   606.72199900
_cell_formula_units_Z   2
loop_
 _symmetry_equiv_pos_site_id
 _symmetry_equiv_pos_as_xyz
  1  'x, y, z'
loop_
 _atom_site_type_symbol
 _atom_site_label
 _atom_site_symmetry_multiplicity
 _atom_site_fract_x
 _atom_site_fract_y
 _atom_site_fract_z
 _atom_site_occupancy
  Ho  Ho0  1  0.938399  0.938902  0.559001  1
  Ho  Ho1  1  0.810880  0.189120  0.189120  1
  Ho  Ho2  1  0.936869  0.563131  0.563131  1
  Ho  Ho3  1  0.938399  0.559001  0.938902  1
  Ho  Ho4  1  0.815375  0.806957  0.187326  1
  Ho  Ho5  1  0.341106  0.349982  0.349982  1
  Ho  Ho6  1  0.558865  0.941135  0.941135  1
  Ho  Ho7  1  0.563698  0.938902  0.559001  1
  Ho  Ho8  1  0.189943  0.810057  0.810057  1
  Ho  Ho9  1  0.190344  0.187326  0.806957  1
  Ho  Ho10  1  0.344961  0.354178  0.955902  1
  Ho  Ho11  1  0.344961  0.955902  0.354178  1
  Ho  Ho12  1  0.815375  0.187326  0.806957  1
  Ho  Ho13  1  0.563698  0.559001  0.938902  1
  Ho  Ho14  1  0.190344  0.806957  0.187326  1
  Ho  Ho15  1  0.958932  0.349982  0.349982  1
  Co  Co16  1  0.138694  0.579568  0.143044  1
  Co  Co17  1  0.138694  0.143044  0.579568  1
  Hg  Hg18  1  0.584649  0.583073  0.247630  1
  Hg  Hg19  1  0.248168  0.583395  0.583395  1
  Hg  Hg20  1  0.585043  0.583395  0.583395  1
  Hg  Hg21  1  0.584649  0.247630  0.583073  1
  Ru  Ru22  1  0.579362  0.141022  0.141022  1
  Ru  Ru23  1  0.138593  0.141022  0.141022  1
