# generated using pymatgen
data_K20Hf3ZrP12
_symmetry_space_group_name_H-M   'P 1'
_cell_length_a   8.30518670
_cell_length_b   8.97412717
_cell_length_c   17.44629454
_cell_angle_alpha   59.80333549
_cell_angle_beta   89.92665933
_cell_angle_gamma   89.96626016
_symmetry_Int_Tables_number   1
_chemical_formula_structural   K20Hf3ZrP12
_chemical_formula_sum   'K20 Hf3 Zr1 P12'
_cell_volume   1123.85692979
_cell_formula_units_Z   1
loop_
 _symmetry_equiv_pos_site_id
 _symmetry_equiv_pos_as_xyz
  1  'x, y, z'
loop_
 _atom_site_type_symbol
 _atom_site_label
 _atom_site_symmetry_multiplicity
 _atom_site_fract_x
 _atom_site_fract_y
 _atom_site_fract_z
 _atom_site_occupancy
  K  K0  1  0.165738  0.842072  0.739495  1
  K  K1  1  0.665748  0.158270  0.760225  1
  K  K2  1  0.833710  0.157550  0.260550  1
  K  K3  1  0.334535  0.841591  0.239994  1
  K  K4  1  0.169569  0.162743  0.419460  1
  K  K5  1  0.669526  0.837338  0.080812  1
  K  K6  1  0.830484  0.836936  0.580830  1
  K  K7  1  0.330524  0.163384  0.918945  1
  K  K8  1  0.006336  0.084923  0.091669  1
  K  K9  1  0.506149  0.915041  0.408276  1
  K  K10  1  0.993653  0.915248  0.908144  1
  K  K11  1  0.493620  0.084923  0.591721  1
  K  K12  1  0.520607  0.258933  0.078744  1
  K  K13  1  0.020637  0.740192  0.421262  1
  K  K14  1  0.479945  0.740526  0.920915  1
  K  K15  1  0.979592  0.259968  0.578713  1
  K  K16  1  0.984862  0.549916  0.258321  1
  K  K17  1  0.485714  0.449994  0.242322  1
  K  K18  1  0.015094  0.450163  0.741937  1
  K  K19  1  0.514803  0.549919  0.757997  1
  Hf  Hf20  1  0.367680  0.492492  0.581234  1
  Hf  Hf21  1  0.867029  0.507549  0.918329  1
  Hf  Hf22  1  0.632378  0.507456  0.418797  1
  Zr  Zr23  1  0.132889  0.492683  0.081700  1
  P  P24  1  0.323467  0.487023  0.436499  1
  P  P25  1  0.821581  0.512955  0.062923  1
  P  P26  1  0.676586  0.512849  0.563504  1
  P  P27  1  0.175593  0.487372  0.935487  1
  P  P28  1  0.216891  0.212453  0.219025  1
  P  P29  1  0.716239  0.785025  0.282467  1
  P  P30  1  0.783765  0.785441  0.782220  1
  P  P31  1  0.283964  0.214794  0.717492  1
  P  P32  1  0.254198  0.757205  0.078110  1
  P  P33  1  0.753223  0.245427  0.421954  1
  P  P34  1  0.746796  0.245090  0.921904  1
  P  P35  1  0.246874  0.754554  0.578021  1
