# generated using pymatgen
data_RbCd9Au2
_symmetry_space_group_name_H-M   'P 1'
_cell_length_a   9.52173932
_cell_length_b   9.52871077
_cell_length_c   9.52174002
_cell_angle_alpha   99.28400274
_cell_angle_beta   99.25540365
_cell_angle_gamma   132.62695161
_symmetry_Int_Tables_number   1
_chemical_formula_structural   RbCd9Au2
_chemical_formula_sum   'Rb2 Cd18 Au4'
_cell_volume   582.30825058
_cell_formula_units_Z   2
loop_
 _symmetry_equiv_pos_site_id
 _symmetry_equiv_pos_as_xyz
  1  'x, y, z'
loop_
 _atom_site_type_symbol
 _atom_site_label
 _atom_site_symmetry_multiplicity
 _atom_site_fract_x
 _atom_site_fract_y
 _atom_site_fract_z
 _atom_site_occupancy
  Rb  Rb0  1  0.750002  0.249916  0.499914  1
  Rb  Rb1  1  0.499998  0.500084  0.000086  1
  Cd  Cd2  1  0.990492  0.313876  0.919854  1
  Cd  Cd3  1  0.686172  0.605846  0.676586  1
  Cd  Cd4  1  0.394022  0.313876  0.323384  1
  Cd  Cd5  1  0.686160  0.009595  0.080235  1
  Cd  Cd6  1  0.855978  0.436124  0.176616  1
  Cd  Cd7  1  0.394162  0.070697  0.080386  1
  Cd  Cd8  1  0.000134  0.000183  0.000048  1
  Cd  Cd9  1  0.855838  0.679303  0.419614  1
  Cd  Cd10  1  0.249866  0.749817  0.499952  1
  Cd  Cd11  1  0.320642  0.740405  0.176565  1
  Cd  Cd12  1  0.259508  0.436124  0.580146  1
  Cd  Cd13  1  0.563840  0.740405  0.419765  1
  Cd  Cd14  1  0.990310  0.070697  0.676535  1
  Cd  Cd15  1  0.929358  0.009595  0.323435  1
  Cd  Cd16  1  0.320742  0.144154  0.580326  1
  Cd  Cd17  1  0.259690  0.679303  0.823465  1
  Cd  Cd18  1  0.563828  0.144154  0.823414  1
  Cd  Cd19  1  0.929258  0.605846  0.919674  1
  Au  Au20  1  0.125000  0.875000  0.750000  1
  Au  Au21  1  0.125000  0.875000  0.250000  1
  Au  Au22  1  0.625000  0.875000  0.750000  1
  Au  Au23  1  0.125000  0.375000  0.250000  1
