# generated using pymatgen
data_LiCa2TbCd2Sn3
_symmetry_space_group_name_H-M   'P 1'
_cell_length_a   7.57623210
_cell_length_b   7.54891383
_cell_length_c   4.68667700
_cell_angle_alpha   90.00000000
_cell_angle_beta   90.00000000
_cell_angle_gamma   119.88078603
_symmetry_Int_Tables_number   1
_chemical_formula_structural   LiCa2TbCd2Sn3
_chemical_formula_sum   'Li1 Ca2 Tb1 Cd2 Sn3'
_cell_volume   232.40948613
_cell_formula_units_Z   1
loop_
 _symmetry_equiv_pos_site_id
 _symmetry_equiv_pos_as_xyz
  1  'x, y, z'
loop_
 _atom_site_type_symbol
 _atom_site_label
 _atom_site_symmetry_multiplicity
 _atom_site_fract_x
 _atom_site_fract_y
 _atom_site_fract_z
 _atom_site_occupancy
  Li  Li0  1  0.000000  0.763808  0.000000  1
  Ca  Ca1  1  0.565058  0.566862  0.500000  1
  Ca  Ca2  1  0.434942  0.001804  0.500000  1
  Tb  Tb3  1  0.000000  0.427311  0.500000  1
  Cd  Cd4  1  0.248145  0.244759  0.000000  1
  Cd  Cd5  1  0.751855  0.996614  0.000000  1
  Sn  Sn6  1  0.317090  0.663435  0.000000  1
  Sn  Sn7  1  0.682910  0.346345  0.000000  1
  Sn  Sn8  1  0.000000  0.989063  0.500000  1
