# generated using pymatgen
data_Rb4Na2YHoAs4
_symmetry_space_group_name_H-M   'P 1'
_cell_length_a   9.45778908
_cell_length_b   9.45778783
_cell_length_c   9.45778752
_cell_angle_alpha   135.31611651
_cell_angle_beta   135.23494585
_cell_angle_gamma   65.10240893
_symmetry_Int_Tables_number   1
_chemical_formula_structural   Rb4Na2YHoAs4
_chemical_formula_sum   'Rb4 Na2 Y1 Ho1 As4'
_cell_volume   412.88594006
_cell_formula_units_Z   1
loop_
 _symmetry_equiv_pos_site_id
 _symmetry_equiv_pos_as_xyz
  1  'x, y, z'
loop_
 _atom_site_type_symbol
 _atom_site_label
 _atom_site_symmetry_multiplicity
 _atom_site_fract_x
 _atom_site_fract_y
 _atom_site_fract_z
 _atom_site_occupancy
  Rb  Rb0  1  0.682119  0.399706  0.717692  1
  Rb  Rb1  1  0.817881  0.035572  0.217587  1
  Rb  Rb2  1  0.182014  0.964428  0.782308  1
  Rb  Rb3  1  0.317986  0.600294  0.282413  1
  Na  Na4  1  0.750000  0.000000  0.750000  1
  Na  Na5  1  0.250000  0.000000  0.250000  1
  Y  Y6  1  0.250000  0.500000  0.750000  1
  Ho  Ho7  1  0.750000  0.500000  0.250000  1
  As  As8  1  0.406148  0.182781  0.778080  1
  As  As9  1  0.595299  0.817219  0.223367  1
  As  As10  1  0.093852  0.371933  0.276633  1
  As  As11  1  0.904701  0.628067  0.721920  1
