# generated using pymatgen
data_Pr6In8GePb
_symmetry_space_group_name_H-M   'P 1'
_cell_length_a   8.62663828
_cell_length_b   8.62663724
_cell_length_c   8.62663717
_cell_angle_alpha   119.69555817
_cell_angle_beta   119.69555386
_cell_angle_gamma   90.52812732
_symmetry_Int_Tables_number   1
_chemical_formula_structural   Pr6In8GePb
_chemical_formula_sum   'Pr6 In8 Ge1 Pb1'
_cell_volume   456.01966620
_cell_formula_units_Z   1
loop_
 _symmetry_equiv_pos_site_id
 _symmetry_equiv_pos_as_xyz
  1  'x, y, z'
loop_
 _atom_site_type_symbol
 _atom_site_label
 _atom_site_symmetry_multiplicity
 _atom_site_fract_x
 _atom_site_fract_y
 _atom_site_fract_z
 _atom_site_occupancy
  Pr  Pr0  1  0.738821  0.738821  0.000000  1
  Pr  Pr1  1  0.261179  0.261179  0.000000  1
  Pr  Pr2  1  0.648347  0.175827  0.824174  1
  Pr  Pr3  1  0.351653  0.824173  0.175826  1
  Pr  Pr4  1  0.175827  0.351653  0.527480  1
  Pr  Pr5  1  0.824173  0.648347  0.472520  1
  In  In6  1  0.319632  0.831253  0.788089  1
  In  In7  1  0.680368  0.168747  0.211911  1
  In  In8  1  0.043163  0.531542  0.211911  1
  In  In9  1  0.831253  0.043163  0.511620  1
  In  In10  1  0.468458  0.680368  0.511620  1
  In  In11  1  0.956837  0.468458  0.788089  1
  In  In12  1  0.168747  0.956837  0.488380  1
  In  In13  1  0.531542  0.319632  0.488380  1
  Ge  Ge14  1  0.500000  0.500000  0.000000  1
  Pb  Pb15  1  0.000000  0.000000  0.000000  1
