# generated using pymatgen
data_Pr18Sm2Si15Br
_symmetry_space_group_name_H-M   'P 1'
_cell_length_a   7.96103665
_cell_length_b   7.90495669
_cell_length_c   15.35455942
_cell_angle_alpha   89.66282236
_cell_angle_beta   89.13874982
_cell_angle_gamma   90.21782950
_symmetry_Int_Tables_number   1
_chemical_formula_structural   Pr18Sm2Si15Br
_chemical_formula_sum   'Pr18 Sm2 Si15 Br1'
_cell_volume   966.15454943
_cell_formula_units_Z   1
loop_
 _symmetry_equiv_pos_site_id
 _symmetry_equiv_pos_as_xyz
  1  'x, y, z'
loop_
 _atom_site_type_symbol
 _atom_site_label
 _atom_site_symmetry_multiplicity
 _atom_site_fract_x
 _atom_site_fract_y
 _atom_site_fract_z
 _atom_site_occupancy
  Pr  Pr0  1  0.795818  0.189483  0.752971  1
  Pr  Pr1  1  0.687592  0.689329  0.496844  1
  Pr  Pr2  1  0.381277  0.005172  0.442289  1
  Pr  Pr3  1  0.496975  0.869003  0.699318  1
  Pr  Pr4  1  0.509917  0.121519  0.196531  1
  Pr  Pr5  1  0.876191  0.485853  0.300446  1
  Pr  Pr6  1  0.122207  0.517692  0.804647  1
  Pr  Pr7  1  0.631017  0.986361  0.952308  1
  Pr  Pr8  1  0.996846  0.383707  0.545110  1
  Pr  Pr9  1  0.992736  0.622677  0.053615  1
  Pr  Pr10  1  0.139675  0.987666  0.875288  1
  Pr  Pr11  1  0.517916  0.629666  0.126112  1
  Pr  Pr12  1  0.482196  0.371766  0.630560  1
  Pr  Pr13  1  0.633761  0.521189  0.876747  1
  Pr  Pr14  1  0.368506  0.477306  0.374357  1
  Pr  Pr15  1  0.870572  0.019388  0.375965  1
  Pr  Pr16  1  0.983431  0.128162  0.124498  1
  Pr  Pr17  1  0.013216  0.862633  0.620944  1
  Sm  Sm18  1  0.311167  0.310883  0.999687  1
  Sm  Sm19  1  0.186543  0.808845  0.249620  1
  Si  Si20  1  0.330951  0.695607  0.951658  1
  Si  Si21  1  0.662027  0.304121  0.453403  1
  Si  Si22  1  0.699101  0.334445  0.050249  1
  Si  Si23  1  0.304330  0.667642  0.549291  1
  Si  Si24  1  0.805806  0.831154  0.202753  1
  Si  Si25  1  0.168193  0.192693  0.296342  1
  Si  Si26  1  0.842413  0.804592  0.797493  1
  Si  Si27  1  0.287417  0.923192  0.060041  1
  Si  Si28  1  0.573907  0.786313  0.307754  1
  Si  Si29  1  0.449727  0.211064  0.827081  1
  Si  Si30  1  0.790614  0.576974  0.688935  1
  Si  Si31  1  0.211948  0.424429  0.189617  1
  Si  Si32  1  0.704491  0.075570  0.560538  1
  Si  Si33  1  0.929626  0.291017  0.941148  1
  Si  Si34  1  0.078644  0.712111  0.438351  1
  Br  Br35  1  0.163250  0.180777  0.687488  1
