# generated using pymatgen
data_HoPa(TcB4)2
_symmetry_space_group_name_H-M   'P 1'
_cell_length_a   3.63062100
_cell_length_b   5.95863155
_cell_length_c   11.53523321
_cell_angle_alpha   89.84236422
_cell_angle_beta   90.00000000
_cell_angle_gamma   90.00000000
_symmetry_Int_Tables_number   1
_chemical_formula_structural   HoPa(TcB4)2
_chemical_formula_sum   'Ho2 Pa2 Tc4 B16'
_cell_volume   249.54690183
_cell_formula_units_Z   2
loop_
 _symmetry_equiv_pos_site_id
 _symmetry_equiv_pos_as_xyz
  1  'x, y, z'
loop_
 _atom_site_type_symbol
 _atom_site_label
 _atom_site_symmetry_multiplicity
 _atom_site_fract_x
 _atom_site_fract_y
 _atom_site_fract_z
 _atom_site_occupancy
  Ho  Ho0  1  0.000000  0.127438  0.148089  1
  Ho  Ho1  1  0.000000  0.872562  0.851911  1
  Pa  Pa2  1  0.000000  0.628222  0.348296  1
  Pa  Pa3  1  0.000000  0.371778  0.651704  1
  Tc  Tc4  1  0.000000  0.635313  0.091179  1
  Tc  Tc5  1  0.000000  0.364687  0.908821  1
  Tc  Tc6  1  0.000000  0.139872  0.407354  1
  Tc  Tc7  1  0.000000  0.860128  0.592646  1
  B  B8  1  0.500000  0.787940  0.185713  1
  B  B9  1  0.500000  0.212060  0.814287  1
  B  B10  1  0.500000  0.288112  0.313744  1
  B  B11  1  0.500000  0.711888  0.686256  1
  B  B12  1  0.500000  0.863787  0.031432  1
  B  B13  1  0.500000  0.136213  0.968568  1
  B  B14  1  0.500000  0.364975  0.468594  1
  B  B15  1  0.500000  0.635025  0.531406  1
  B  B16  1  0.500000  0.888059  0.453442  1
  B  B17  1  0.500000  0.111941  0.546558  1
  B  B18  1  0.500000  0.386581  0.045946  1
  B  B19  1  0.500000  0.613419  0.954054  1
  B  B20  1  0.500000  0.974003  0.308271  1
  B  B21  1  0.500000  0.025997  0.691729  1
  B  B22  1  0.500000  0.477446  0.191145  1
  B  B23  1  0.500000  0.522554  0.808855  1
