# generated using pymatgen
data_YLu2Cu4Si3Ge
_symmetry_space_group_name_H-M   'P 1'
_cell_length_a   7.79380305
_cell_length_b   7.79380259
_cell_length_c   7.79380267
_cell_angle_alpha   149.40226414
_cell_angle_beta   130.21825007
_cell_angle_gamma   59.57147938
_symmetry_Int_Tables_number   1
_chemical_formula_structural   YLu2Cu4Si3Ge
_chemical_formula_sum   'Y1 Lu2 Cu4 Si3 Ge1'
_cell_volume   182.51818349
_cell_formula_units_Z   1
loop_
 _symmetry_equiv_pos_site_id
 _symmetry_equiv_pos_as_xyz
  1  'x, y, z'
loop_
 _atom_site_type_symbol
 _atom_site_label
 _atom_site_symmetry_multiplicity
 _atom_site_fract_x
 _atom_site_fract_y
 _atom_site_fract_z
 _atom_site_occupancy
  Y  Y0  1  0.999074  0.999074  0.000000  1
  Lu  Lu1  1  0.372149  0.872149  0.500000  1
  Lu  Lu2  1  0.628159  0.128159  0.500000  1
  Cu  Cu3  1  0.644415  0.332833  0.311583  1
  Cu  Cu4  1  0.364475  0.667901  0.696574  1
  Cu  Cu5  1  0.021251  0.332833  0.688417  1
  Cu  Cu6  1  0.971326  0.667901  0.303426  1
  Si  Si7  1  0.782205  0.782205  0.000000  1
  Si  Si8  1  0.682403  0.499758  0.182646  1
  Si  Si9  1  0.317112  0.499758  0.817354  1
  Ge  Ge10  1  0.217429  0.217429  0.000000  1
