# generated using pymatgen
data_Dy4Fe3ReOs4
_symmetry_space_group_name_H-M   'P 1'
_cell_length_a   5.24487369
_cell_length_b   5.20688905
_cell_length_c   8.78094400
_cell_angle_alpha   90.00000000
_cell_angle_beta   90.00000000
_cell_angle_gamma   118.72441982
_symmetry_Int_Tables_number   1
_chemical_formula_structural   Dy4Fe3ReOs4
_chemical_formula_sum   'Dy4 Fe3 Re1 Os4'
_cell_volume   210.29315825
_cell_formula_units_Z   1
loop_
 _symmetry_equiv_pos_site_id
 _symmetry_equiv_pos_as_xyz
  1  'x, y, z'
loop_
 _atom_site_type_symbol
 _atom_site_label
 _atom_site_symmetry_multiplicity
 _atom_site_fract_x
 _atom_site_fract_y
 _atom_site_fract_z
 _atom_site_occupancy
  Dy  Dy0  1  0.327598  0.665918  0.439383  1
  Dy  Dy1  1  0.664952  0.336667  0.564467  1
  Dy  Dy2  1  0.664952  0.336667  0.935533  1
  Dy  Dy3  1  0.327598  0.665918  0.060617  1
  Fe  Fe4  1  0.832433  0.657232  0.250000  1
  Fe  Fe5  1  0.178730  0.837357  0.750000  1
  Fe  Fe6  1  0.175108  0.339359  0.750000  1
  Re  Re7  1  0.832491  0.155593  0.250000  1
  Os  Os8  1  0.991433  0.002506  0.503793  1
  Os  Os9  1  0.991433  0.002506  0.996207  1
  Os  Os10  1  0.349754  0.165630  0.250000  1
  Os  Os11  1  0.663517  0.834647  0.750000  1
