# generated using pymatgen
data_YEr(Tm2Ni)2
_symmetry_space_group_name_H-M   'P 1'
_cell_length_a   6.28389500
_cell_length_b   6.75782100
_cell_length_c   9.44675400
_cell_angle_alpha   90.00000000
_cell_angle_beta   90.00000000
_cell_angle_gamma   90.00000000
_symmetry_Int_Tables_number   1
_chemical_formula_structural   YEr(Tm2Ni)2
_chemical_formula_sum   'Y2 Er2 Tm8 Ni4'
_cell_volume   401.16054244
_cell_formula_units_Z   2
loop_
 _symmetry_equiv_pos_site_id
 _symmetry_equiv_pos_as_xyz
  1  'x, y, z'
loop_
 _atom_site_type_symbol
 _atom_site_label
 _atom_site_symmetry_multiplicity
 _atom_site_fract_x
 _atom_site_fract_y
 _atom_site_fract_z
 _atom_site_occupancy
  Y  Y0  1  0.863834  0.529257  0.250000  1
  Y  Y1  1  0.636166  0.029257  0.250000  1
  Er  Er2  1  0.138518  0.468105  0.750000  1
  Er  Er3  1  0.361482  0.968105  0.750000  1
  Tm  Tm4  1  0.320139  0.678744  0.065151  1
  Tm  Tm5  1  0.179861  0.178744  0.434849  1
  Tm  Tm6  1  0.679547  0.321490  0.567012  1
  Tm  Tm7  1  0.820453  0.821490  0.932988  1
  Tm  Tm8  1  0.679547  0.321490  0.932988  1
  Tm  Tm9  1  0.820453  0.821490  0.567012  1
  Tm  Tm10  1  0.320139  0.678744  0.434849  1
  Tm  Tm11  1  0.179861  0.178744  0.065151  1
  Ni  Ni12  1  0.058624  0.893748  0.250000  1
  Ni  Ni13  1  0.441376  0.393748  0.250000  1
  Ni  Ni14  1  0.946382  0.108422  0.750000  1
  Ni  Ni15  1  0.553618  0.608422  0.750000  1
