# generated using pymatgen
data_La7YbYIr6
_symmetry_space_group_name_H-M   'P 1'
_cell_length_a   7.76157936
_cell_length_b   7.76157987
_cell_length_c   7.76158106
_cell_angle_alpha   69.41545501
_cell_angle_beta   69.41545306
_cell_angle_gamma   69.41544747
_symmetry_Int_Tables_number   1
_chemical_formula_structural   La7YbYIr6
_chemical_formula_sum   'La7 Yb1 Y1 Ir6'
_cell_volume   395.66783203
_cell_formula_units_Z   1
loop_
 _symmetry_equiv_pos_site_id
 _symmetry_equiv_pos_as_xyz
  1  'x, y, z'
loop_
 _atom_site_type_symbol
 _atom_site_label
 _atom_site_symmetry_multiplicity
 _atom_site_fract_x
 _atom_site_fract_y
 _atom_site_fract_z
 _atom_site_occupancy
  La  La0  1  0.193403  0.193403  0.193403  1
  La  La1  1  0.144013  0.391748  0.678733  1
  La  La2  1  0.678733  0.144013  0.391748  1
  La  La3  1  0.391748  0.678733  0.144013  1
  La  La4  1  0.852062  0.613269  0.321296  1
  La  La5  1  0.321296  0.852062  0.613269  1
  La  La6  1  0.613269  0.321296  0.852062  1
  Yb  Yb7  1  0.999359  0.999359  0.999359  1
  Y  Y8  1  0.808258  0.808258  0.808258  1
  Ir  Ir9  1  0.951863  0.173615  0.584915  1
  Ir  Ir10  1  0.584915  0.951863  0.173615  1
  Ir  Ir11  1  0.173615  0.584915  0.951863  1
  Ir  Ir12  1  0.045548  0.820988  0.420930  1
  Ir  Ir13  1  0.420930  0.045548  0.820988  1
  Ir  Ir14  1  0.820988  0.420930  0.045548  1
