# generated using pymatgen
data_Ti5In4CoRh
_symmetry_space_group_name_H-M   'P 1'
_cell_length_a   3.13912900
_cell_length_b   7.31082111
_cell_length_c   16.97892405
_cell_angle_alpha   90.10509226
_cell_angle_beta   90.00000000
_cell_angle_gamma   90.00000000
_symmetry_Int_Tables_number   1
_chemical_formula_structural   Ti5In4CoRh
_chemical_formula_sum   'Ti10 In8 Co2 Rh2'
_cell_volume   389.65903940
_cell_formula_units_Z   2
loop_
 _symmetry_equiv_pos_site_id
 _symmetry_equiv_pos_as_xyz
  1  'x, y, z'
loop_
 _atom_site_type_symbol
 _atom_site_label
 _atom_site_symmetry_multiplicity
 _atom_site_fract_x
 _atom_site_fract_y
 _atom_site_fract_z
 _atom_site_occupancy
  Ti  Ti0  1  0.500000  0.500000  0.500000  1
  Ti  Ti1  1  0.500000  0.000000  0.000000  1
  Ti  Ti2  1  0.500000  0.843050  0.419366  1
  Ti  Ti3  1  0.500000  0.156950  0.580634  1
  Ti  Ti4  1  0.500000  0.652354  0.912632  1
  Ti  Ti5  1  0.500000  0.347646  0.087368  1
  Ti  Ti6  1  0.500000  0.236225  0.271107  1
  Ti  Ti7  1  0.500000  0.763775  0.728893  1
  Ti  Ti8  1  0.500000  0.297133  0.780982  1
  Ti  Ti9  1  0.500000  0.702867  0.219018  1
  In  In10  1  0.000000  0.185003  0.432614  1
  In  In11  1  0.000000  0.814997  0.567386  1
  In  In12  1  0.000000  0.317269  0.937795  1
  In  In13  1  0.000000  0.682731  0.062205  1
  In  In14  1  0.000000  0.545255  0.349241  1
  In  In15  1  0.000000  0.454745  0.650759  1
  In  In16  1  0.000000  0.957199  0.851646  1
  In  In17  1  0.000000  0.042801  0.148354  1
  Co  Co18  1  0.000000  0.567610  0.808401  1
  Co  Co19  1  0.000000  0.432390  0.191599  1
  Rh  Rh20  1  0.000000  0.931035  0.304815  1
  Rh  Rh21  1  0.000000  0.068965  0.695185  1
