# generated using pymatgen
data_Tb5MnNbO12
_symmetry_space_group_name_H-M   'P 1'
_cell_length_a   6.86592082
_cell_length_b   6.86592126
_cell_length_c   7.34890309
_cell_angle_alpha   74.39233440
_cell_angle_beta   74.39233133
_cell_angle_gamma   50.92720292
_symmetry_Int_Tables_number   1
_chemical_formula_structural   Tb5MnNbO12
_chemical_formula_sum   'Tb5 Mn1 Nb1 O12'
_cell_volume   256.73300836
_cell_formula_units_Z   1
loop_
 _symmetry_equiv_pos_site_id
 _symmetry_equiv_pos_as_xyz
  1  'x, y, z'
loop_
 _atom_site_type_symbol
 _atom_site_label
 _atom_site_symmetry_multiplicity
 _atom_site_fract_x
 _atom_site_fract_y
 _atom_site_fract_z
 _atom_site_occupancy
  Tb  Tb0  1  0.687289  0.699098  0.667975  1
  Tb  Tb1  1  0.687041  0.708825  0.140318  1
  Tb  Tb2  1  0.004094  0.995906  0.000000  1
  Tb  Tb3  1  0.291175  0.312959  0.859682  1
  Tb  Tb4  1  0.300902  0.312711  0.332025  1
  Mn  Mn5  1  0.262814  0.737186  0.500000  1
  Nb  Nb6  1  0.780930  0.219070  0.500000  1
  O  O7  1  0.400519  0.908888  0.924749  1
  O  O8  1  0.566718  0.103311  0.582605  1
  O  O9  1  0.896689  0.433282  0.417395  1
  O  O10  1  0.091112  0.599481  0.075251  1
  O  O11  1  0.013389  0.986708  0.314427  1
  O  O12  1  0.495834  0.504954  0.681396  1
  O  O13  1  0.897102  0.404833  0.925299  1
  O  O14  1  0.099523  0.578636  0.581842  1
  O  O15  1  0.421364  0.900477  0.418158  1
  O  O16  1  0.595167  0.102898  0.074701  1
  O  O17  1  0.495046  0.504166  0.318604  1
  O  O18  1  0.013292  0.986611  0.685573  1
