# generated using pymatgen
data_Dy2Mn4Fe8P7
_symmetry_space_group_name_H-M   'P 1'
_cell_length_a   9.06429231
_cell_length_b   9.17638331
_cell_length_c   3.60640100
_cell_angle_alpha   90.00000000
_cell_angle_beta   90.00000000
_cell_angle_gamma   120.19998610
_symmetry_Int_Tables_number   1
_chemical_formula_structural   Dy2Mn4Fe8P7
_chemical_formula_sum   'Dy2 Mn4 Fe8 P7'
_cell_volume   259.25752812
_cell_formula_units_Z   1
loop_
 _symmetry_equiv_pos_site_id
 _symmetry_equiv_pos_as_xyz
  1  'x, y, z'
loop_
 _atom_site_type_symbol
 _atom_site_label
 _atom_site_symmetry_multiplicity
 _atom_site_fract_x
 _atom_site_fract_y
 _atom_site_fract_z
 _atom_site_occupancy
  Dy  Dy0  1  0.669382  0.339737  0.000000  1
  Dy  Dy1  1  0.331533  0.661305  0.500000  1
  Mn  Mn2  1  0.610318  0.047803  0.500000  1
  Mn  Mn3  1  0.123214  0.892463  0.500000  1
  Mn  Mn4  1  0.103372  0.224027  0.500000  1
  Mn  Mn5  1  0.772793  0.877021  0.500000  1
  Fe  Fe6  1  0.376521  0.947418  0.000000  1
  Fe  Fe7  1  0.057631  0.426554  0.000000  1
  Fe  Fe8  1  0.574101  0.627949  0.000000  1
  Fe  Fe9  1  0.882184  0.728852  0.000000  1
  Fe  Fe10  1  0.271609  0.153314  0.000000  1
  Fe  Fe11  1  0.841300  0.119248  0.000000  1
  Fe  Fe12  1  0.950717  0.566479  0.500000  1
  Fe  Fe13  1  0.435475  0.387115  0.500000  1
  P  P14  1  0.109630  0.696545  0.000000  1
  P  P15  1  0.301504  0.410860  0.000000  1
  P  P16  1  0.588299  0.877010  0.000000  1
  P  P17  1  0.712395  0.594900  0.500000  1
  P  P18  1  0.403738  0.126560  0.500000  1
  P  P19  1  0.887000  0.294972  0.500000  1
  P  P20  1  0.997285  0.999869  0.000000  1
