# generated using pymatgen
data_Tb2YbTmNi13C4
_symmetry_space_group_name_H-M   'P 1'
_cell_length_a   8.33329647
_cell_length_b   8.33329643
_cell_length_c   3.84171100
_cell_angle_alpha   90.00000000
_cell_angle_beta   90.00000000
_cell_angle_gamma   91.02159784
_symmetry_Int_Tables_number   1
_chemical_formula_structural   Tb2YbTmNi13C4
_chemical_formula_sum   'Tb2 Yb1 Tm1 Ni13 C4'
_cell_volume   266.74071812
_cell_formula_units_Z   1
loop_
 _symmetry_equiv_pos_site_id
 _symmetry_equiv_pos_as_xyz
  1  'x, y, z'
loop_
 _atom_site_type_symbol
 _atom_site_label
 _atom_site_symmetry_multiplicity
 _atom_site_fract_x
 _atom_site_fract_y
 _atom_site_fract_z
 _atom_site_occupancy
  Tb  Tb0  1  0.346270  0.348171  0.500000  1
  Tb  Tb1  1  0.651829  0.653730  0.500000  1
  Yb  Yb2  1  0.191779  0.808221  0.500000  1
  Tm  Tm3  1  0.813170  0.186830  0.500000  1
  Ni  Ni4  1  0.999558  0.000442  0.000000  1
  Ni  Ni5  1  0.215423  0.571054  0.000000  1
  Ni  Ni6  1  0.785033  0.429062  0.000000  1
  Ni  Ni7  1  0.428946  0.784577  0.000000  1
  Ni  Ni8  1  0.570938  0.214967  0.000000  1
  Ni  Ni9  1  0.997290  0.499110  0.500000  1
  Ni  Ni10  1  0.500890  0.002710  0.500000  1
  Ni  Ni11  1  0.070924  0.290126  0.000000  1
  Ni  Ni12  1  0.925141  0.710814  0.000000  1
  Ni  Ni13  1  0.709874  0.929076  0.000000  1
  Ni  Ni14  1  0.289186  0.074859  0.000000  1
  Ni  Ni15  1  0.123016  0.117095  0.500000  1
  Ni  Ni16  1  0.882905  0.876984  0.500000  1
  C  C17  1  0.000295  0.502229  0.000000  1
  C  C18  1  0.497771  0.999705  0.000000  1
  C  C19  1  0.442725  0.557275  0.000000  1
  C  C20  1  0.557038  0.442962  0.000000  1
