# generated using pymatgen
data_Ta4CrSi4Pt3
_symmetry_space_group_name_H-M   'P 1'
_cell_length_a   3.76024800
_cell_length_b   6.46087918
_cell_length_c   7.44357008
_cell_angle_alpha   89.57377935
_cell_angle_beta   90.00000000
_cell_angle_gamma   90.00000000
_symmetry_Int_Tables_number   1
_chemical_formula_structural   Ta4CrSi4Pt3
_chemical_formula_sum   'Ta4 Cr1 Si4 Pt3'
_cell_volume   180.83286942
_cell_formula_units_Z   1
loop_
 _symmetry_equiv_pos_site_id
 _symmetry_equiv_pos_as_xyz
  1  'x, y, z'
loop_
 _atom_site_type_symbol
 _atom_site_label
 _atom_site_symmetry_multiplicity
 _atom_site_fract_x
 _atom_site_fract_y
 _atom_site_fract_z
 _atom_site_occupancy
  Ta  Ta0  1  0.250000  0.529392  0.174623  1
  Ta  Ta1  1  0.750000  0.483644  0.823236  1
  Ta  Ta2  1  0.750000  0.964314  0.658656  1
  Ta  Ta3  1  0.250000  0.023107  0.339058  1
  Cr  Cr4  1  0.250000  0.642438  0.565082  1
  Si  Si5  1  0.250000  0.764700  0.864551  1
  Si  Si6  1  0.750000  0.237037  0.127904  1
  Si  Si7  1  0.750000  0.732768  0.378341  1
  Si  Si8  1  0.250000  0.268309  0.628785  1
  Pt  Pt9  1  0.750000  0.356948  0.437179  1
  Pt  Pt10  1  0.750000  0.849130  0.067233  1
  Pt  Pt11  1  0.250000  0.148213  0.935350  1
