# generated using pymatgen
data_Ac2NpSe5
_symmetry_space_group_name_H-M   'P 1'
_cell_length_a   8.12970300
_cell_length_b   8.76837300
_cell_length_c   12.80652600
_cell_angle_alpha   90.00000000
_cell_angle_beta   90.00000000
_cell_angle_gamma   90.00000000
_symmetry_Int_Tables_number   1
_chemical_formula_structural   Ac2NpSe5
_chemical_formula_sum   'Ac8 Np4 Se20'
_cell_volume   912.90383516
_cell_formula_units_Z   4
loop_
 _symmetry_equiv_pos_site_id
 _symmetry_equiv_pos_as_xyz
  1  'x, y, z'
loop_
 _atom_site_type_symbol
 _atom_site_label
 _atom_site_symmetry_multiplicity
 _atom_site_fract_x
 _atom_site_fract_y
 _atom_site_fract_z
 _atom_site_occupancy
  Ac  Ac0  1  0.967709  0.498919  0.324819  1
  Ac  Ac1  1  0.532291  0.001081  0.824819  1
  Ac  Ac2  1  0.032291  0.998919  0.675181  1
  Ac  Ac3  1  0.467709  0.501081  0.175181  1
  Ac  Ac4  1  0.032291  0.501081  0.675181  1
  Ac  Ac5  1  0.467709  0.998919  0.175181  1
  Ac  Ac6  1  0.967709  0.001081  0.324819  1
  Ac  Ac7  1  0.532291  0.498919  0.824819  1
  Np  Np8  1  0.944251  0.750000  0.003584  1
  Np  Np9  1  0.555749  0.750000  0.503584  1
  Np  Np10  1  0.055749  0.250000  0.996416  1
  Np  Np11  1  0.444251  0.250000  0.496416  1
  Se  Se12  1  0.835376  0.034832  0.088372  1
  Se  Se13  1  0.664624  0.465168  0.588372  1
  Se  Se14  1  0.164624  0.534832  0.911628  1
  Se  Se15  1  0.335376  0.965168  0.411628  1
  Se  Se16  1  0.164624  0.965168  0.911628  1
  Se  Se17  1  0.335376  0.534832  0.411628  1
  Se  Se18  1  0.835376  0.465168  0.088372  1
  Se  Se19  1  0.664624  0.034832  0.588372  1
  Se  Se20  1  0.554367  0.750000  0.003010  1
  Se  Se21  1  0.945633  0.750000  0.503010  1
  Se  Se22  1  0.445633  0.250000  0.996990  1
  Se  Se23  1  0.054367  0.250000  0.496990  1
  Se  Se24  1  0.161933  0.750000  0.185958  1
  Se  Se25  1  0.338067  0.750000  0.685958  1
  Se  Se26  1  0.838067  0.250000  0.814042  1
  Se  Se27  1  0.661933  0.250000  0.314042  1
  Se  Se28  1  0.683850  0.750000  0.291262  1
  Se  Se29  1  0.816150  0.750000  0.791262  1
  Se  Se30  1  0.316150  0.250000  0.708738  1
  Se  Se31  1  0.183850  0.250000  0.208738  1
