# generated using pymatgen
data_VTc5S8
_symmetry_space_group_name_H-M   'P 1'
_cell_length_a   6.43960752
_cell_length_b   6.43165824
_cell_length_c   6.43264906
_cell_angle_alpha   92.69816034
_cell_angle_beta   93.07972564
_cell_angle_gamma   93.72886137
_symmetry_Int_Tables_number   1
_chemical_formula_structural   VTc5S8
_chemical_formula_sum   'V1 Tc5 S8'
_cell_volume   265.13323646
_cell_formula_units_Z   1
loop_
 _symmetry_equiv_pos_site_id
 _symmetry_equiv_pos_as_xyz
  1  'x, y, z'
loop_
 _atom_site_type_symbol
 _atom_site_label
 _atom_site_symmetry_multiplicity
 _atom_site_fract_x
 _atom_site_fract_y
 _atom_site_fract_z
 _atom_site_occupancy
  V  V0  1  0.409997  0.232170  0.549471  1
  Tc  Tc1  1  0.447684  0.589180  0.771812  1
  Tc  Tc2  1  0.771312  0.450166  0.592738  1
  Tc  Tc3  1  0.590173  0.770438  0.449290  1
  Tc  Tc4  1  0.551806  0.410747  0.230480  1
  Tc  Tc5  1  0.229919  0.549026  0.410645  1
  S  S6  1  0.778794  0.778239  0.779165  1
  S  S7  1  0.222656  0.219896  0.226247  1
  S  S8  1  0.280340  0.871563  0.620011  1
  S  S9  1  0.614436  0.274999  0.869776  1
  S  S10  1  0.872594  0.624404  0.273577  1
  S  S11  1  0.725910  0.131658  0.377725  1
  S  S12  1  0.375058  0.726874  0.128323  1
  S  S13  1  0.129321  0.370642  0.720744  1
