# generated using pymatgen
data_CsRb3Cd4(SiAs2)4
_symmetry_space_group_name_H-M   'P 1'
_cell_length_a   8.55025184
_cell_length_b   8.58747053
_cell_length_c   8.76839135
_cell_angle_alpha   70.86585232
_cell_angle_beta   76.33180480
_cell_angle_gamma   73.18872937
_symmetry_Int_Tables_number   1
_chemical_formula_structural   CsRb3Cd4(SiAs2)4
_chemical_formula_sum   'Cs1 Rb3 Cd4 Si4 As8'
_cell_volume   575.08498452
_cell_formula_units_Z   1
loop_
 _symmetry_equiv_pos_site_id
 _symmetry_equiv_pos_as_xyz
  1  'x, y, z'
loop_
 _atom_site_type_symbol
 _atom_site_label
 _atom_site_symmetry_multiplicity
 _atom_site_fract_x
 _atom_site_fract_y
 _atom_site_fract_z
 _atom_site_occupancy
  Cs  Cs0  1  0.448587  0.769167  0.324322  1
  Rb  Rb1  1  0.550410  0.235505  0.678236  1
  Rb  Rb2  1  0.432880  0.798808  0.817678  1
  Rb  Rb3  1  0.567071  0.203038  0.181798  1
  Cd  Cd4  1  0.998267  0.897032  0.687750  1
  Cd  Cd5  1  0.005507  0.101666  0.310931  1
  Cd  Cd6  1  0.966081  0.818008  0.171066  1
  Cd  Cd7  1  0.032765  0.182039  0.828344  1
  Si  Si8  1  0.960906  0.583276  0.596175  1
  Si  Si9  1  0.038824  0.415695  0.404214  1
  Si  Si10  1  0.141785  0.447955  0.979865  1
  Si  Si11  1  0.855013  0.551397  0.021135  1
  As  As12  1  0.811783  0.864125  0.467634  1
  As  As13  1  0.190749  0.136550  0.532619  1
  As  As14  1  0.792167  0.411140  0.310365  1
  As  As15  1  0.208341  0.583392  0.692433  1
  As  As16  1  0.769748  0.856897  0.959809  1
  As  As17  1  0.231320  0.144722  0.036561  1
  As  As18  1  0.772770  0.455427  0.825252  1
  As  As19  1  0.225025  0.544162  0.173812  1
