# generated using pymatgen
data_CeY2AlHg2Pd3
_symmetry_space_group_name_H-M   'P 1'
_cell_length_a   7.65197200
_cell_length_b   7.70850988
_cell_length_c   3.79492700
_cell_angle_alpha   90.00000000
_cell_angle_beta   90.00000000
_cell_angle_gamma   119.75765549
_symmetry_Int_Tables_number   1
_chemical_formula_structural   CeY2AlHg2Pd3
_chemical_formula_sum   'Ce1 Y2 Al1 Hg2 Pd3'
_cell_volume   194.32704639
_cell_formula_units_Z   1
loop_
 _symmetry_equiv_pos_site_id
 _symmetry_equiv_pos_as_xyz
  1  'x, y, z'
loop_
 _atom_site_type_symbol
 _atom_site_label
 _atom_site_symmetry_multiplicity
 _atom_site_fract_x
 _atom_site_fract_y
 _atom_site_fract_z
 _atom_site_occupancy
  Ce  Ce0  1  0.592365  0.000000  0.500000  1
  Y  Y1  1  0.000859  0.598113  0.500000  1
  Y  Y2  1  0.402745  0.401887  0.500000  1
  Al  Al3  1  0.253551  0.000000  0.000000  1
  Hg  Hg4  1  0.002954  0.266808  0.000000  1
  Hg  Hg5  1  0.736146  0.733192  0.000000  1
  Pd  Pd6  1  0.035014  0.000000  0.500000  1
  Pd  Pd7  1  0.332686  0.689007  0.000000  1
  Pd  Pd8  1  0.643680  0.310993  0.000000  1
