# generated using pymatgen
data_Lu(Ti3Pb2)2
_symmetry_space_group_name_H-M   'P 1'
_cell_length_a   8.44399877
_cell_length_b   8.44399905
_cell_length_c   8.44399935
_cell_angle_alpha   40.52742917
_cell_angle_beta   40.52742531
_cell_angle_gamma   40.52743101
_symmetry_Int_Tables_number   1
_chemical_formula_structural   Lu(Ti3Pb2)2
_chemical_formula_sum   'Lu1 Ti6 Pb4'
_cell_volume   229.29812791
_cell_formula_units_Z   1
loop_
 _symmetry_equiv_pos_site_id
 _symmetry_equiv_pos_as_xyz
  1  'x, y, z'
loop_
 _atom_site_type_symbol
 _atom_site_label
 _atom_site_symmetry_multiplicity
 _atom_site_fract_x
 _atom_site_fract_y
 _atom_site_fract_z
 _atom_site_occupancy
  Lu  Lu0  1  0.000000  0.000000  0.000000  1
  Ti  Ti1  1  0.601514  0.601514  0.117005  1
  Ti  Ti2  1  0.882996  0.398486  0.398485  1
  Ti  Ti3  1  0.398486  0.882996  0.398485  1
  Ti  Ti4  1  0.601514  0.117004  0.601515  1
  Ti  Ti5  1  0.117004  0.601514  0.601515  1
  Ti  Ti6  1  0.398486  0.398486  0.882995  1
  Pb  Pb7  1  0.125694  0.125694  0.125694  1
  Pb  Pb8  1  0.332063  0.332063  0.332063  1
  Pb  Pb9  1  0.667937  0.667937  0.667937  1
  Pb  Pb10  1  0.874306  0.874306  0.874306  1
