# generated using pymatgen
data_Ho8Ti3Nb9Si15Ge
_symmetry_space_group_name_H-M   'P 1'
_cell_length_a   7.07357805
_cell_length_b   7.06085400
_cell_length_c   12.99353199
_cell_angle_alpha   90.00320114
_cell_angle_beta   90.01413894
_cell_angle_gamma   89.92793662
_symmetry_Int_Tables_number   1
_chemical_formula_structural   Ho8Ti3Nb9Si15Ge
_chemical_formula_sum   'Ho8 Ti3 Nb9 Si15 Ge1'
_cell_volume   648.96794173
_cell_formula_units_Z   1
loop_
 _symmetry_equiv_pos_site_id
 _symmetry_equiv_pos_as_xyz
  1  'x, y, z'
loop_
 _atom_site_type_symbol
 _atom_site_label
 _atom_site_symmetry_multiplicity
 _atom_site_fract_x
 _atom_site_fract_y
 _atom_site_fract_z
 _atom_site_occupancy
  Ho  Ho0  1  0.342138  0.001149  0.465710  1
  Ho  Ho1  1  0.500184  0.841586  0.717795  1
  Ho  Ho2  1  0.500473  0.157358  0.217174  1
  Ho  Ho3  1  0.843148  0.499761  0.282842  1
  Ho  Ho4  1  0.157701  0.500934  0.783179  1
  Ho  Ho5  1  0.658473  0.997840  0.967882  1
  Ho  Ho6  1  0.999264  0.342987  0.531370  1
  Ho  Ho7  1  0.998480  0.659552  0.032839  1
  Ti  Ti8  1  0.847255  0.992249  0.373537  1
  Ti  Ti9  1  0.008221  0.152479  0.126724  1
  Ti  Ti10  1  0.987868  0.843404  0.625018  1
  Nb  Nb11  1  0.329260  0.329037  0.000369  1
  Nb  Nb12  1  0.173649  0.826420  0.250172  1
  Nb  Nb13  1  0.823936  0.173606  0.750361  1
  Nb  Nb14  1  0.671034  0.670577  0.499883  1
  Nb  Nb15  1  0.152483  0.007598  0.874845  1
  Nb  Nb16  1  0.492266  0.652409  0.124094  1
  Nb  Nb17  1  0.509639  0.349721  0.623900  1
  Nb  Nb18  1  0.652197  0.491938  0.876435  1
  Nb  Nb19  1  0.347906  0.508300  0.376385  1
  Si  Si20  1  0.366447  0.705472  0.932110  1
  Si  Si21  1  0.634746  0.293478  0.431548  1
  Si  Si22  1  0.706709  0.365463  0.069046  1
  Si  Si23  1  0.293202  0.635364  0.568028  1
  Si  Si24  1  0.798860  0.868362  0.183434  1
  Si  Si25  1  0.131447  0.202206  0.316935  1
  Si  Si26  1  0.866383  0.797185  0.817573  1
  Si  Si27  1  0.292330  0.954069  0.064295  1
  Si  Si28  1  0.549197  0.794320  0.313798  1
  Si  Si29  1  0.455037  0.206470  0.814540  1
  Si  Si30  1  0.795738  0.547758  0.686232  1
  Si  Si31  1  0.205738  0.451908  0.186360  1
  Si  Si32  1  0.708449  0.046009  0.562543  1
  Si  Si33  1  0.953878  0.293253  0.937877  1
  Si  Si34  1  0.045702  0.709508  0.436652  1
  Ge  Ge35  1  0.200560  0.130269  0.678517  1
