# generated using pymatgen
data_TmPa3CoNi3Sn2
_symmetry_space_group_name_H-M   'P 1'
_cell_length_a   7.39877109
_cell_length_b   7.39877098
_cell_length_c   3.53624700
_cell_angle_alpha   90.00000000
_cell_angle_beta   90.00000000
_cell_angle_gamma   91.11972846
_symmetry_Int_Tables_number   1
_chemical_formula_structural   TmPa3CoNi3Sn2
_chemical_formula_sum   'Tm1 Pa3 Co1 Ni3 Sn2'
_cell_volume   193.54360563
_cell_formula_units_Z   1
loop_
 _symmetry_equiv_pos_site_id
 _symmetry_equiv_pos_as_xyz
  1  'x, y, z'
loop_
 _atom_site_type_symbol
 _atom_site_label
 _atom_site_symmetry_multiplicity
 _atom_site_fract_x
 _atom_site_fract_y
 _atom_site_fract_z
 _atom_site_occupancy
  Tm  Tm0  1  0.829328  0.670672  0.500000  1
  Pa  Pa1  1  0.667603  0.174793  0.500000  1
  Pa  Pa2  1  0.325207  0.832397  0.500000  1
  Pa  Pa3  1  0.177400  0.322600  0.500000  1
  Co  Co4  1  0.367128  0.132872  0.000000  1
  Ni  Ni5  1  0.881790  0.363041  0.000000  1
  Ni  Ni6  1  0.136959  0.618210  0.000000  1
  Ni  Ni7  1  0.614676  0.885324  0.000000  1
  Sn  Sn8  1  0.507795  0.507886  0.000000  1
  Sn  Sn9  1  0.992114  0.992205  0.000000  1
