# generated using pymatgen
data_KLuAg2(NO3)8
_symmetry_space_group_name_H-M   'P 1'
_cell_length_a   8.36786892
_cell_length_b   8.08385325
_cell_length_c   7.96577320
_cell_angle_alpha   93.73049325
_cell_angle_beta   89.21435337
_cell_angle_gamma   90.64712282
_symmetry_Int_Tables_number   1
_chemical_formula_structural   KLuAg2(NO3)8
_chemical_formula_sum   'K1 Lu1 Ag2 N8 O24'
_cell_volume   537.62023507
_cell_formula_units_Z   1
loop_
 _symmetry_equiv_pos_site_id
 _symmetry_equiv_pos_as_xyz
  1  'x, y, z'
loop_
 _atom_site_type_symbol
 _atom_site_label
 _atom_site_symmetry_multiplicity
 _atom_site_fract_x
 _atom_site_fract_y
 _atom_site_fract_z
 _atom_site_occupancy
  K  K0  1  0.000000  0.000000  0.000000  1
  Lu  Lu1  1  0.000000  0.500000  0.500000  1
  Ag  Ag2  1  0.500000  0.500000  0.000000  1
  Ag  Ag3  1  0.500000  0.000000  0.500000  1
  N  N4  1  0.333836  0.358443  0.305150  1
  N  N5  1  0.354591  0.180475  0.831097  1
  N  N6  1  0.194465  0.823500  0.366671  1
  N  N7  1  0.849870  0.360516  0.204640  1
  N  N8  1  0.666164  0.641557  0.694850  1
  N  N9  1  0.150130  0.639484  0.795360  1
  N  N10  1  0.805535  0.176500  0.633329  1
  N  N11  1  0.645409  0.819525  0.168903  1
  O  O12  1  0.781993  0.298926  0.078466  1
  O  O13  1  0.198304  0.943057  0.277741  1
  O  O14  1  0.303220  0.799600  0.473330  1
  O  O15  1  0.253120  0.201219  0.944523  1
  O  O16  1  0.237431  0.358986  0.430052  1
  O  O17  1  0.444142  0.257949  0.287520  1
  O  O18  1  0.312280  0.468909  0.198335  1
  O  O19  1  0.189346  0.499243  0.722958  1
  O  O20  1  0.920994  0.282922  0.645519  1
  O  O21  1  0.663149  0.938861  0.281465  1
  O  O22  1  0.033843  0.712372  0.726464  1
  O  O23  1  0.522118  0.726245  0.178694  1
  O  O24  1  0.801696  0.056943  0.722259  1
  O  O25  1  0.696780  0.200400  0.526670  1
  O  O26  1  0.746880  0.798781  0.055477  1
  O  O27  1  0.218007  0.701074  0.921534  1
  O  O28  1  0.762569  0.641014  0.569948  1
  O  O29  1  0.555858  0.742051  0.712480  1
  O  O30  1  0.687720  0.531091  0.801665  1
  O  O31  1  0.810654  0.500757  0.277042  1
  O  O32  1  0.079006  0.717078  0.354481  1
  O  O33  1  0.336851  0.061139  0.718535  1
  O  O34  1  0.966157  0.287628  0.273536  1
  O  O35  1  0.477882  0.273755  0.821306  1
