# generated using pymatgen
data_Nd11Th3Ir5Pd
_symmetry_space_group_name_H-M   'P 1'
_cell_length_a   9.88851300
_cell_length_b   10.20922208
_cell_length_c   6.44483867
_cell_angle_alpha   90.00551642
_cell_angle_beta   90.00000000
_cell_angle_gamma   118.96616984
_symmetry_Int_Tables_number   1
_chemical_formula_structural   Nd11Th3Ir5Pd
_chemical_formula_sum   'Nd11 Th3 Ir5 Pd1'
_cell_volume   569.24206827
_cell_formula_units_Z   1
loop_
 _symmetry_equiv_pos_site_id
 _symmetry_equiv_pos_as_xyz
  1  'x, y, z'
loop_
 _atom_site_type_symbol
 _atom_site_label
 _atom_site_symmetry_multiplicity
 _atom_site_fract_x
 _atom_site_fract_y
 _atom_site_fract_z
 _atom_site_occupancy
  Nd  Nd0  1  0.460148  0.532525  0.296761  1
  Nd  Nd1  1  0.072376  0.532525  0.296761  1
  Nd  Nd2  1  0.929561  0.462859  0.794302  1
  Nd  Nd3  1  0.249777  0.125081  0.501122  1
  Nd  Nd4  1  0.539841  0.079681  0.805763  1
  Nd  Nd5  1  0.746459  0.878528  0.004114  1
  Nd  Nd6  1  0.661643  0.323284  0.284040  1
  Nd  Nd7  1  0.132069  0.878528  0.004114  1
  Nd  Nd8  1  0.460796  0.921592  0.305688  1
  Nd  Nd9  1  0.533299  0.462859  0.794302  1
  Nd  Nd10  1  0.875303  0.125081  0.501122  1
  Th  Th11  1  0.125649  0.251299  0.991893  1
  Th  Th12  1  0.876232  0.752464  0.506837  1
  Th  Th13  1  0.335676  0.671353  0.770414  1
  Ir  Ir14  1  0.826361  0.196798  0.045244  1
  Ir  Ir15  1  0.625977  0.800376  0.549025  1
  Ir  Ir16  1  0.370437  0.196798  0.045244  1
  Ir  Ir17  1  0.193428  0.386856  0.575170  1
  Ir  Ir18  1  0.174397  0.800376  0.549025  1
  Pd  Pd19  1  0.810571  0.621141  0.063061  1
