# generated using pymatgen
data_Pa2BiRh2
_symmetry_space_group_name_H-M   'P 1'
_cell_length_a   7.75665600
_cell_length_b   7.75665600
_cell_length_c   3.65880900
_cell_angle_alpha   90.00000000
_cell_angle_beta   90.00000000
_cell_angle_gamma   90.00000000
_symmetry_Int_Tables_number   1
_chemical_formula_structural   Pa2BiRh2
_chemical_formula_sum   'Pa4 Bi2 Rh4'
_cell_volume   220.13484966
_cell_formula_units_Z   2
loop_
 _symmetry_equiv_pos_site_id
 _symmetry_equiv_pos_as_xyz
  1  'x, y, z'
loop_
 _atom_site_type_symbol
 _atom_site_label
 _atom_site_symmetry_multiplicity
 _atom_site_fract_x
 _atom_site_fract_y
 _atom_site_fract_z
 _atom_site_occupancy
  Pa  Pa0  1  0.670348  0.829652  0.500000  1
  Pa  Pa1  1  0.329652  0.170348  0.500000  1
  Pa  Pa2  1  0.829652  0.329652  0.500000  1
  Pa  Pa3  1  0.170348  0.670348  0.500000  1
  Bi  Bi4  1  0.500000  0.500000  0.000000  1
  Bi  Bi5  1  0.000000  0.000000  0.000000  1
  Rh  Rh6  1  0.869363  0.630637  0.000000  1
  Rh  Rh7  1  0.630637  0.130637  0.000000  1
  Rh  Rh8  1  0.130637  0.369363  0.000000  1
  Rh  Rh9  1  0.369363  0.869363  0.000000  1
