# generated using pymatgen
data_Ac7Ru4C9
_symmetry_space_group_name_H-M   'P 1'
_cell_length_a   6.76492067
_cell_length_b   6.76492146
_cell_length_c   12.25081147
_cell_angle_alpha   71.13644711
_cell_angle_beta   71.13644528
_cell_angle_gamma   49.17022784
_symmetry_Int_Tables_number   1
_chemical_formula_structural   Ac7Ru4C9
_chemical_formula_sum   'Ac7 Ru4 C9'
_cell_volume   396.49818740
_cell_formula_units_Z   1
loop_
 _symmetry_equiv_pos_site_id
 _symmetry_equiv_pos_as_xyz
  1  'x, y, z'
loop_
 _atom_site_type_symbol
 _atom_site_label
 _atom_site_symmetry_multiplicity
 _atom_site_fract_x
 _atom_site_fract_y
 _atom_site_fract_z
 _atom_site_occupancy
  Ac  Ac0  1  0.368193  0.368193  0.847140  1
  Ac  Ac1  1  0.142373  0.142373  0.682158  1
  Ac  Ac2  1  0.857627  0.857627  0.317842  1
  Ac  Ac3  1  0.142812  0.142812  0.382963  1
  Ac  Ac4  1  0.857188  0.857188  0.617037  1
  Ac  Ac5  1  0.000000  0.000000  0.000000  1
  Ac  Ac6  1  0.631807  0.631807  0.152860  1
  Ru  Ru7  1  0.362477  0.362477  0.142272  1
  Ru  Ru8  1  0.562478  0.562478  0.572523  1
  Ru  Ru9  1  0.437522  0.437522  0.427477  1
  Ru  Ru10  1  0.637523  0.637523  0.857728  1
  C  C11  1  0.389688  0.389688  0.290159  1
  C  C12  1  0.911198  0.911198  0.824050  1
  C  C13  1  0.394239  0.394239  0.609157  1
  C  C14  1  0.204053  0.204053  0.142914  1
  C  C15  1  0.795947  0.795947  0.857086  1
  C  C16  1  0.500000  0.500000  0.000000  1
  C  C17  1  0.088802  0.088802  0.175950  1
  C  C18  1  0.610312  0.610312  0.709841  1
  C  C19  1  0.605761  0.605761  0.390843  1
