# generated using pymatgen
data_NaHf6MnCl14
_symmetry_space_group_name_H-M   'P 1'
_cell_length_a   9.64004000
_cell_length_b   9.64003953
_cell_length_c   11.73310500
_cell_angle_alpha   90.00000000
_cell_angle_beta   90.00000000
_cell_angle_gamma   95.92132510
_symmetry_Int_Tables_number   1
_chemical_formula_structural   NaHf6MnCl14
_chemical_formula_sum   'Na2 Hf12 Mn2 Cl28'
_cell_volume   1084.54411351
_cell_formula_units_Z   2
loop_
 _symmetry_equiv_pos_site_id
 _symmetry_equiv_pos_as_xyz
  1  'x, y, z'
loop_
 _atom_site_type_symbol
 _atom_site_label
 _atom_site_symmetry_multiplicity
 _atom_site_fract_x
 _atom_site_fract_y
 _atom_site_fract_z
 _atom_site_occupancy
  Na  Na0  1  0.500000  0.500000  0.000000  1
  Na  Na1  1  0.000000  0.000000  0.500000  1
  Hf  Hf2  1  0.348461  0.348461  0.388745  1
  Hf  Hf3  1  0.651539  0.651539  0.611255  1
  Hf  Hf4  1  0.151539  0.151539  0.888745  1
  Hf  Hf5  1  0.848461  0.848461  0.111255  1
  Hf  Hf6  1  0.951587  0.191639  0.117968  1
  Hf  Hf7  1  0.048413  0.808361  0.882032  1
  Hf  Hf8  1  0.548413  0.308361  0.617968  1
  Hf  Hf9  1  0.691639  0.451587  0.382032  1
  Hf  Hf10  1  0.451587  0.691639  0.382032  1
  Hf  Hf11  1  0.308361  0.548413  0.617968  1
  Hf  Hf12  1  0.808361  0.048413  0.882032  1
  Hf  Hf13  1  0.191639  0.951587  0.117968  1
  Mn  Mn14  1  0.000000  0.000000  0.000000  1
  Mn  Mn15  1  0.500000  0.500000  0.500000  1
  Cl  Cl16  1  0.120144  0.367910  0.007511  1
  Cl  Cl17  1  0.879856  0.632090  0.992489  1
  Cl  Cl18  1  0.379856  0.132090  0.507511  1
  Cl  Cl19  1  0.867910  0.620144  0.492489  1
  Cl  Cl20  1  0.620144  0.867910  0.492489  1
  Cl  Cl21  1  0.132090  0.379856  0.507511  1
  Cl  Cl22  1  0.632090  0.879856  0.992489  1
  Cl  Cl23  1  0.367910  0.120144  0.007511  1
  Cl  Cl24  1  0.745620  0.254380  0.000000  1
  Cl  Cl25  1  0.254380  0.745620  0.000000  1
  Cl  Cl26  1  0.754380  0.245620  0.500000  1
  Cl  Cl27  1  0.245620  0.754380  0.500000  1
  Cl  Cl28  1  0.901534  0.401534  0.250000  1
  Cl  Cl29  1  0.098467  0.598467  0.750000  1
  Cl  Cl30  1  0.598466  0.098467  0.750000  1
  Cl  Cl31  1  0.401534  0.901534  0.250000  1
  Cl  Cl32  1  0.155442  0.155442  0.263473  1
  Cl  Cl33  1  0.844558  0.844558  0.736527  1
  Cl  Cl34  1  0.344558  0.344558  0.763473  1
  Cl  Cl35  1  0.655442  0.655442  0.236527  1
  Cl  Cl36  1  0.289939  0.536343  0.248134  1
  Cl  Cl37  1  0.710061  0.463657  0.751866  1
  Cl  Cl38  1  0.210061  0.963657  0.748134  1
  Cl  Cl39  1  0.036343  0.789939  0.251866  1
  Cl  Cl40  1  0.789939  0.036343  0.251866  1
  Cl  Cl41  1  0.963657  0.210061  0.748134  1
  Cl  Cl42  1  0.463657  0.710061  0.751866  1
  Cl  Cl43  1  0.536343  0.289939  0.248134  1
