# generated using pymatgen
data_Yb2DyPuO6
_symmetry_space_group_name_H-M   'P 1'
_cell_length_a   6.72171235
_cell_length_b   6.72531282
_cell_length_c   6.70151500
_cell_angle_alpha   91.68550408
_cell_angle_beta   91.39540358
_cell_angle_gamma   91.32523138
_symmetry_Int_Tables_number   1
_chemical_formula_structural   Yb2DyPuO6
_chemical_formula_sum   'Yb4 Dy2 Pu2 O12'
_cell_volume   302.63906116
_cell_formula_units_Z   2
loop_
 _symmetry_equiv_pos_site_id
 _symmetry_equiv_pos_as_xyz
  1  'x, y, z'
loop_
 _atom_site_type_symbol
 _atom_site_label
 _atom_site_symmetry_multiplicity
 _atom_site_fract_x
 _atom_site_fract_y
 _atom_site_fract_z
 _atom_site_occupancy
  Yb  Yb0  1  0.554753  0.250508  0.061272  1
  Yb  Yb1  1  0.250637  0.061847  0.556866  1
  Yb  Yb2  1  0.064905  0.557545  0.252377  1
  Yb  Yb3  1  0.441089  0.748759  0.938472  1
  Dy  Dy4  1  0.938879  0.441914  0.746629  1
  Dy  Dy5  1  0.750921  0.936664  0.441152  1
  Pu  Pu6  1  0.999394  0.998332  0.999432  1
  Pu  Pu7  1  0.497750  0.498806  0.500116  1
  O  O8  1  0.292699  0.063464  0.922298  1
  O  O9  1  0.060566  0.916825  0.305890  1
  O  O10  1  0.920795  0.301618  0.058596  1
  O  O11  1  0.701672  0.934393  0.087844  1
  O  O12  1  0.925687  0.090220  0.688444  1
  O  O13  1  0.078734  0.694326  0.928484  1
  O  O14  1  0.190593  0.404740  0.541191  1
  O  O15  1  0.413334  0.539535  0.204029  1
  O  O16  1  0.468952  0.803250  0.588113  1
  O  O17  1  0.594722  0.459596  0.797467  1
  O  O18  1  0.810607  0.600265  0.471756  1
  O  O19  1  0.543311  0.197394  0.409570  1
