# generated using pymatgen
data_Pr3Nd(Er3Sn4)2
_symmetry_space_group_name_H-M   'P 1'
_cell_length_a   8.01475100
_cell_length_b   8.22347603
_cell_length_c   15.42744000
_cell_angle_alpha   89.99497655
_cell_angle_beta   90.00000000
_cell_angle_gamma   90.00000000
_symmetry_Int_Tables_number   1
_chemical_formula_structural   Pr3Nd(Er3Sn4)2
_chemical_formula_sum   'Pr6 Nd2 Er12 Sn16'
_cell_volume   1016.80887846
_cell_formula_units_Z   2
loop_
 _symmetry_equiv_pos_site_id
 _symmetry_equiv_pos_as_xyz
  1  'x, y, z'
loop_
 _atom_site_type_symbol
 _atom_site_label
 _atom_site_symmetry_multiplicity
 _atom_site_fract_x
 _atom_site_fract_y
 _atom_site_fract_z
 _atom_site_occupancy
  Pr  Pr0  1  0.490929  0.675527  0.404114  1
  Pr  Pr1  1  0.990929  0.824473  0.095886  1
  Pr  Pr2  1  0.490647  0.675336  0.095861  1
  Pr  Pr3  1  0.990647  0.824664  0.404139  1
  Pr  Pr4  1  0.509012  0.324293  0.595932  1
  Pr  Pr5  1  0.009012  0.175707  0.904068  1
  Nd  Nd6  1  0.509625  0.324302  0.903536  1
  Nd  Nd7  1  0.009625  0.175698  0.596464  1
  Er  Er8  1  0.348652  0.835390  0.875129  1
  Er  Er9  1  0.848652  0.664610  0.624871  1
  Er  Er10  1  0.651119  0.164337  0.375462  1
  Er  Er11  1  0.151119  0.335663  0.124538  1
  Er  Er12  1  0.651116  0.164777  0.124722  1
  Er  Er13  1  0.151116  0.335223  0.375278  1
  Er  Er14  1  0.348820  0.835721  0.624757  1
  Er  Er15  1  0.848820  0.664279  0.875243  1
  Er  Er16  1  0.181597  0.501746  0.750040  1
  Er  Er17  1  0.681597  0.998254  0.749960  1
  Er  Er18  1  0.818250  0.498082  0.249994  1
  Er  Er19  1  0.318250  0.001918  0.250006  1
  Sn  Sn20  1  0.315721  0.042220  0.041405  1
  Sn  Sn21  1  0.815721  0.457780  0.458595  1
  Sn  Sn22  1  0.686264  0.959071  0.542054  1
  Sn  Sn23  1  0.186264  0.540929  0.957946  1
  Sn  Sn24  1  0.684306  0.958624  0.958125  1
  Sn  Sn25  1  0.184306  0.541376  0.541875  1
  Sn  Sn26  1  0.313996  0.042116  0.458675  1
  Sn  Sn27  1  0.813996  0.457884  0.041325  1
  Sn  Sn28  1  0.546424  0.623253  0.750072  1
  Sn  Sn29  1  0.046424  0.876747  0.749928  1
  Sn  Sn30  1  0.453390  0.376391  0.250143  1
  Sn  Sn31  1  0.953390  0.123609  0.249857  1
  Sn  Sn32  1  0.315648  0.144671  0.750197  1
  Sn  Sn33  1  0.815648  0.355329  0.749803  1
  Sn  Sn34  1  0.684487  0.855869  0.249985  1
  Sn  Sn35  1  0.184487  0.644131  0.250015  1
