# generated using pymatgen
data_Li4Ho3LuPt4
_symmetry_space_group_name_H-M   'P 1'
_cell_length_a   4.00227700
_cell_length_b   6.98047653
_cell_length_c   8.36540429
_cell_angle_alpha   89.72633332
_cell_angle_beta   90.00000000
_cell_angle_gamma   90.00000000
_symmetry_Int_Tables_number   1
_chemical_formula_structural   Li4Ho3LuPt4
_chemical_formula_sum   'Li4 Ho3 Lu1 Pt4'
_cell_volume   233.70833146
_cell_formula_units_Z   1
loop_
 _symmetry_equiv_pos_site_id
 _symmetry_equiv_pos_as_xyz
  1  'x, y, z'
loop_
 _atom_site_type_symbol
 _atom_site_label
 _atom_site_symmetry_multiplicity
 _atom_site_fract_x
 _atom_site_fract_y
 _atom_site_fract_z
 _atom_site_occupancy
  Li  Li0  1  0.250000  0.631295  0.558821  1
  Li  Li1  1  0.750000  0.369733  0.440034  1
  Li  Li2  1  0.750000  0.871463  0.060153  1
  Li  Li3  1  0.250000  0.128671  0.941547  1
  Ho  Ho4  1  0.250000  0.542906  0.181713  1
  Ho  Ho5  1  0.750000  0.455661  0.819908  1
  Ho  Ho6  1  0.750000  0.956685  0.678634  1
  Lu  Lu7  1  0.250000  0.043724  0.320482  1
  Pt  Pt8  1  0.250000  0.745739  0.876670  1
  Pt  Pt9  1  0.750000  0.250266  0.126223  1
  Pt  Pt10  1  0.750000  0.757666  0.375014  1
  Pt  Pt11  1  0.250000  0.246191  0.620800  1
