# generated using pymatgen
data_Ti13Al9Ir8
_symmetry_space_group_name_H-M   'P 1'
_cell_length_a   8.75662884
_cell_length_b   8.75662845
_cell_length_c   8.75662909
_cell_angle_alpha   59.71076583
_cell_angle_beta   59.71076951
_cell_angle_gamma   59.71077448
_symmetry_Int_Tables_number   1
_chemical_formula_structural   Ti13Al9Ir8
_chemical_formula_sum   'Ti13 Al9 Ir8'
_cell_volume   471.66468084
_cell_formula_units_Z   1
loop_
 _symmetry_equiv_pos_site_id
 _symmetry_equiv_pos_as_xyz
  1  'x, y, z'
loop_
 _atom_site_type_symbol
 _atom_site_label
 _atom_site_symmetry_multiplicity
 _atom_site_fract_x
 _atom_site_fract_y
 _atom_site_fract_z
 _atom_site_occupancy
  Ti  Ti0  1  0.210433  0.210433  0.789922  1
  Ti  Ti1  1  0.789922  0.210433  0.210433  1
  Ti  Ti2  1  0.210433  0.789922  0.210433  1
  Ti  Ti3  1  0.795728  0.795728  0.193535  1
  Ti  Ti4  1  0.193535  0.795728  0.795728  1
  Ti  Ti5  1  0.795728  0.193535  0.795728  1
  Ti  Ti6  1  0.378314  0.378314  0.378314  1
  Ti  Ti7  1  0.378798  0.866678  0.378798  1
  Ti  Ti8  1  0.866678  0.378798  0.378798  1
  Ti  Ti9  1  0.378798  0.378798  0.866678  1
  Ti  Ti10  1  0.842729  0.474675  0.842729  1
  Ti  Ti11  1  0.474675  0.842729  0.842729  1
  Ti  Ti12  1  0.842729  0.842729  0.474675  1
  Al  Al13  1  0.155634  0.155634  0.155634  1
  Al  Al14  1  0.158481  0.527261  0.158481  1
  Al  Al15  1  0.527261  0.158481  0.158481  1
  Al  Al16  1  0.158481  0.158481  0.527261  1
  Al  Al17  1  0.620092  0.620092  0.620092  1
  Al  Al18  1  0.620161  0.142014  0.620161  1
  Al  Al19  1  0.142014  0.620161  0.620161  1
  Al  Al20  1  0.620161  0.620161  0.142014  1
  Al  Al21  1  0.829468  0.829468  0.829468  1
  Ir  Ir22  1  0.003369  0.003369  0.498505  1
  Ir  Ir23  1  0.498505  0.003369  0.003369  1
  Ir  Ir24  1  0.003369  0.498505  0.003369  1
  Ir  Ir25  1  0.498613  0.498613  0.002882  1
  Ir  Ir26  1  0.002882  0.498613  0.498613  1
  Ir  Ir27  1  0.498613  0.002882  0.498613  1
  Ir  Ir28  1  0.500997  0.500997  0.500997  1
  Ir  Ir29  1  0.003396  0.003396  0.003396  1
