# generated using pymatgen
data_Ce3Pt5
_symmetry_space_group_name_H-M   'P 1'
_cell_length_a   7.14102008
_cell_length_b   7.14091864
_cell_length_c   3.87475000
_cell_angle_alpha   90.00000000
_cell_angle_beta   90.00000000
_cell_angle_gamma   120.01749725
_symmetry_Int_Tables_number   1
_chemical_formula_structural   Ce3Pt5
_chemical_formula_sum   'Ce3 Pt5'
_cell_volume   171.08504901
_cell_formula_units_Z   1
loop_
 _symmetry_equiv_pos_site_id
 _symmetry_equiv_pos_as_xyz
  1  'x, y, z'
loop_
 _atom_site_type_symbol
 _atom_site_label
 _atom_site_symmetry_multiplicity
 _atom_site_fract_x
 _atom_site_fract_y
 _atom_site_fract_z
 _atom_site_occupancy
  Ce  Ce0  1  0.639064  0.999996  0.500000  1
  Ce  Ce1  1  0.000006  0.639082  0.500000  1
  Ce  Ce2  1  0.360954  0.360950  0.500000  1
  Pt  Pt3  1  0.227953  0.999949  0.000000  1
  Pt  Pt4  1  0.999959  0.227951  0.000000  1
  Pt  Pt5  1  0.772036  0.772028  0.000000  1
  Pt  Pt6  1  0.333333  0.666717  0.000000  1
  Pt  Pt7  1  0.666696  0.333327  0.000000  1
