# generated using pymatgen
data_Sc2Co5SiB2
_symmetry_space_group_name_H-M   'P 1'
_cell_length_a   8.61471200
_cell_length_b   8.61471200
_cell_length_c   2.95347900
_cell_angle_alpha   90.00000000
_cell_angle_beta   90.00000000
_cell_angle_gamma   90.00000000
_symmetry_Int_Tables_number   1
_chemical_formula_structural   Sc2Co5SiB2
_chemical_formula_sum   'Sc4 Co10 Si2 B4'
_cell_volume   219.18731333
_cell_formula_units_Z   2
loop_
 _symmetry_equiv_pos_site_id
 _symmetry_equiv_pos_as_xyz
  1  'x, y, z'
loop_
 _atom_site_type_symbol
 _atom_site_label
 _atom_site_symmetry_multiplicity
 _atom_site_fract_x
 _atom_site_fract_y
 _atom_site_fract_z
 _atom_site_occupancy
  Sc  Sc0  1  0.175176  0.675176  0.000000  1
  Sc  Sc1  1  0.675176  0.824824  0.000000  1
  Sc  Sc2  1  0.324824  0.175176  0.000000  1
  Sc  Sc3  1  0.824824  0.324824  0.000000  1
  Co  Co4  1  0.000000  0.500000  0.500000  1
  Co  Co5  1  0.500000  0.000000  0.500000  1
  Co  Co6  1  0.283767  0.430763  0.500000  1
  Co  Co7  1  0.716234  0.569237  0.500000  1
  Co  Co8  1  0.569237  0.283767  0.500000  1
  Co  Co9  1  0.430763  0.716234  0.500000  1
  Co  Co10  1  0.930763  0.783766  0.500000  1
  Co  Co11  1  0.783766  0.069237  0.500000  1
  Co  Co12  1  0.216233  0.930763  0.500000  1
  Co  Co13  1  0.069237  0.216233  0.500000  1
  Si  Si14  1  0.000000  0.000000  0.000000  1
  Si  Si15  1  0.500000  0.500000  0.000000  1
  B  B16  1  0.379225  0.879225  0.000000  1
  B  B17  1  0.879225  0.620775  0.000000  1
  B  B18  1  0.120775  0.379225  0.000000  1
  B  B19  1  0.620775  0.120775  0.000000  1
