# generated using pymatgen
data_Ho8Tm11ScPb16
_symmetry_space_group_name_H-M   'P 1'
_cell_length_a   8.14373129
_cell_length_b   15.49447900
_cell_length_c   8.21509000
_cell_angle_alpha   90.00000000
_cell_angle_beta   90.01518276
_cell_angle_gamma   90.00000000
_symmetry_Int_Tables_number   1
_chemical_formula_structural   Ho8Tm11ScPb16
_chemical_formula_sum   'Ho8 Tm11 Sc1 Pb16'
_cell_volume   1036.60362497
_cell_formula_units_Z   1
loop_
 _symmetry_equiv_pos_site_id
 _symmetry_equiv_pos_as_xyz
  1  'x, y, z'
loop_
 _atom_site_type_symbol
 _atom_site_label
 _atom_site_symmetry_multiplicity
 _atom_site_fract_x
 _atom_site_fract_y
 _atom_site_fract_z
 _atom_site_occupancy
  Ho  Ho0  1  0.462928  0.599187  0.676087  1
  Ho  Ho1  1  0.963065  0.901419  0.823670  1
  Ho  Ho2  1  0.537709  0.099705  0.323005  1
  Ho  Ho3  1  0.036670  0.400515  0.175687  1
  Ho  Ho4  1  0.537709  0.400295  0.323005  1
  Ho  Ho5  1  0.036670  0.099485  0.175687  1
  Ho  Ho6  1  0.462928  0.900813  0.676087  1
  Ho  Ho7  1  0.963065  0.598581  0.823670  1
  Tm  Tm8  1  0.624060  0.621275  0.157562  1
  Tm  Tm9  1  0.124318  0.878369  0.342477  1
  Tm  Tm10  1  0.376749  0.122458  0.843223  1
  Tm  Tm11  1  0.875386  0.377712  0.657571  1
  Tm  Tm12  1  0.376749  0.377542  0.843223  1
  Tm  Tm13  1  0.875386  0.122288  0.657571  1
  Tm  Tm14  1  0.624060  0.878725  0.157562  1
  Tm  Tm15  1  0.124318  0.621631  0.342477  1
  Tm  Tm16  1  0.792193  0.750000  0.494754  1
  Tm  Tm17  1  0.292224  0.750000  0.004757  1
  Tm  Tm18  1  0.207501  0.250000  0.505016  1
  Sc  Sc19  1  0.707757  0.250000  0.994791  1
  Pb  Pb20  1  0.717528  0.454870  0.966244  1
  Pb  Pb21  1  0.217511  0.043121  0.534887  1
  Pb  Pb22  1  0.283001  0.957350  0.034679  1
  Pb  Pb23  1  0.782732  0.542664  0.465495  1
  Pb  Pb24  1  0.283001  0.542650  0.034679  1
  Pb  Pb25  1  0.782732  0.957336  0.465495  1
  Pb  Pb26  1  0.717528  0.045130  0.966244  1
  Pb  Pb27  1  0.217511  0.456879  0.534887  1
  Pb  Pb28  1  0.429779  0.750000  0.373133  1
  Pb  Pb29  1  0.929814  0.750000  0.126431  1
  Pb  Pb30  1  0.571609  0.250000  0.629639  1
  Pb  Pb31  1  0.065599  0.250000  0.876354  1
  Pb  Pb32  1  0.651648  0.750000  0.845088  1
  Pb  Pb33  1  0.150854  0.750000  0.655638  1
  Pb  Pb34  1  0.351863  0.250000  0.153705  1
  Pb  Pb35  1  0.845843  0.250000  0.339524  1
