# generated using pymatgen
data_Ta4Be4NbSn
_symmetry_space_group_name_H-M   'P 1'
_cell_length_a   6.42493156
_cell_length_b   6.42855556
_cell_length_c   3.48474100
_cell_angle_alpha   90.00000000
_cell_angle_beta   90.00000000
_cell_angle_gamma   89.89768900
_symmetry_Int_Tables_number   1
_chemical_formula_structural   Ta4Be4NbSn
_chemical_formula_sum   'Ta4 Be4 Nb1 Sn1'
_cell_volume   143.93013093
_cell_formula_units_Z   1
loop_
 _symmetry_equiv_pos_site_id
 _symmetry_equiv_pos_as_xyz
  1  'x, y, z'
loop_
 _atom_site_type_symbol
 _atom_site_label
 _atom_site_symmetry_multiplicity
 _atom_site_fract_x
 _atom_site_fract_y
 _atom_site_fract_z
 _atom_site_occupancy
  Ta  Ta0  1  0.500046  0.500076  0.000000  1
  Ta  Ta1  1  0.669021  0.183089  0.500000  1
  Ta  Ta2  1  0.182130  0.330902  0.500000  1
  Ta  Ta3  1  0.818515  0.667230  0.500000  1
  Be  Be4  1  0.881975  0.389498  0.000000  1
  Be  Be5  1  0.389905  0.118557  0.000000  1
  Be  Be6  1  0.610774  0.882007  0.000000  1
  Be  Be7  1  0.117728  0.609941  0.000000  1
  Nb  Nb8  1  0.329576  0.818928  0.500000  1
  Sn  Sn9  1  0.000329  0.999773  0.000000  1
