# generated using pymatgen
data_Hf3SiTc3Ge2
_symmetry_space_group_name_H-M   'P 1'
_cell_length_a   7.04428400
_cell_length_b   7.04428459
_cell_length_c   3.40833800
_cell_angle_alpha   90.00000000
_cell_angle_beta   90.00000000
_cell_angle_gamma   120.00000662
_symmetry_Int_Tables_number   1
_chemical_formula_structural   Hf3SiTc3Ge2
_chemical_formula_sum   'Hf3 Si1 Tc3 Ge2'
_cell_volume   146.46943604
_cell_formula_units_Z   1
loop_
 _symmetry_equiv_pos_site_id
 _symmetry_equiv_pos_as_xyz
  1  'x, y, z'
loop_
 _atom_site_type_symbol
 _atom_site_label
 _atom_site_symmetry_multiplicity
 _atom_site_fract_x
 _atom_site_fract_y
 _atom_site_fract_z
 _atom_site_occupancy
  Hf  Hf0  1  0.399282  0.399282  0.500000  1
  Hf  Hf1  1  0.600718  0.000000  0.500000  1
  Hf  Hf2  1  0.000000  0.600718  0.500000  1
  Si  Si3  1  0.000000  0.000000  0.500000  1
  Tc  Tc4  1  0.748019  0.748019  0.000000  1
  Tc  Tc5  1  0.251981  0.000000  0.000000  1
  Tc  Tc6  1  0.000000  0.251981  0.000000  1
  Ge  Ge7  1  0.666667  0.333333  0.000000  1
  Ge  Ge8  1  0.333333  0.666667  0.000000  1
