# generated using pymatgen
data_DyMn2SiC
_symmetry_space_group_name_H-M   'P 1'
_cell_length_a   5.60248339
_cell_length_b   5.60248409
_cell_length_c   7.00972800
_cell_angle_alpha   90.00000000
_cell_angle_beta   90.00000000
_cell_angle_gamma   141.29429031
_symmetry_Int_Tables_number   1
_chemical_formula_structural   DyMn2SiC
_chemical_formula_sum   'Dy2 Mn4 Si2 C2'
_cell_volume   137.58306821
_cell_formula_units_Z   2
loop_
 _symmetry_equiv_pos_site_id
 _symmetry_equiv_pos_as_xyz
  1  'x, y, z'
loop_
 _atom_site_type_symbol
 _atom_site_label
 _atom_site_symmetry_multiplicity
 _atom_site_fract_x
 _atom_site_fract_y
 _atom_site_fract_z
 _atom_site_occupancy
  Dy  Dy0  1  0.543903  0.456097  0.250000  1
  Dy  Dy1  1  0.456097  0.543903  0.750000  1
  Mn  Mn2  1  0.831866  0.168134  0.061522  1
  Mn  Mn3  1  0.168134  0.831866  0.938478  1
  Mn  Mn4  1  0.168134  0.831866  0.561522  1
  Mn  Mn5  1  0.831866  0.168134  0.438478  1
  Si  Si6  1  0.264906  0.735094  0.250000  1
  Si  Si7  1  0.735094  0.264906  0.750000  1
  C  C8  1  0.000000  0.000000  0.000000  1
  C  C9  1  0.000000  0.000000  0.500000  1
