# generated using pymatgen
data_Yb2As4O9
_symmetry_space_group_name_H-M   'P 1'
_cell_length_a   7.05416246
_cell_length_b   7.64221182
_cell_length_c   11.32717968
_cell_angle_alpha   93.12477768
_cell_angle_beta   109.89220581
_cell_angle_gamma   114.23874134
_symmetry_Int_Tables_number   1
_chemical_formula_structural   Yb2As4O9
_chemical_formula_sum   'Yb4 As8 O18'
_cell_volume   509.98099170
_cell_formula_units_Z   2
loop_
 _symmetry_equiv_pos_site_id
 _symmetry_equiv_pos_as_xyz
  1  'x, y, z'
loop_
 _atom_site_type_symbol
 _atom_site_label
 _atom_site_symmetry_multiplicity
 _atom_site_fract_x
 _atom_site_fract_y
 _atom_site_fract_z
 _atom_site_occupancy
  Yb  Yb0  1  0.278547  0.945685  0.621997  1
  Yb  Yb1  1  0.721453  0.054315  0.378003  1
  Yb  Yb2  1  0.661361  0.578222  0.401657  1
  Yb  Yb3  1  0.338639  0.421778  0.598343  1
  As  As4  1  0.642785  0.818617  0.104551  1
  As  As5  1  0.357215  0.181383  0.895449  1
  As  As6  1  0.115459  0.716580  0.901593  1
  As  As7  1  0.884541  0.283420  0.098407  1
  As  As8  1  0.763194  0.913739  0.683620  1
  As  As9  1  0.236806  0.086261  0.316380  1
  As  As10  1  0.853068  0.368648  0.651945  1
  As  As11  1  0.146932  0.631352  0.348055  1
  O  O12  1  0.674882  0.772405  0.255186  1
  O  O13  1  0.325118  0.227595  0.744814  1
  O  O14  1  0.286391  0.909805  0.838766  1
  O  O15  1  0.713609  0.090195  0.161234  1
  O  O16  1  0.671161  0.281566  0.957173  1
  O  O17  1  0.328839  0.718434  0.042827  1
  O  O18  1  0.093928  0.503206  0.798602  1
  O  O19  1  0.906072  0.496794  0.201398  1
  O  O20  1  0.786504  0.879854  0.535558  1
  O  O21  1  0.213496  0.120146  0.464442  1
  O  O22  1  0.480248  0.759328  0.652612  1
  O  O23  1  0.519752  0.240672  0.347388  1
  O  O24  1  0.288206  0.494257  0.385220  1
  O  O25  1  0.711794  0.505743  0.614780  1
  O  O26  1  0.037543  0.674624  0.451429  1
  O  O27  1  0.962457  0.325376  0.548571  1
  O  O28  1  0.321992  0.860387  0.331497  1
  O  O29  1  0.678008  0.139613  0.668503  1
