# generated using pymatgen
data_Tm9LuTlSn5
_symmetry_space_group_name_H-M   'P 1'
_cell_length_a   6.47001701
_cell_length_b   8.83797850
_cell_length_c   8.83657900
_cell_angle_alpha   120.00203428
_cell_angle_beta   90.00309060
_cell_angle_gamma   89.99865558
_symmetry_Int_Tables_number   1
_chemical_formula_structural   Tm9LuTlSn5
_chemical_formula_sum   'Tm9 Lu1 Tl1 Sn5'
_cell_volume   437.58684336
_cell_formula_units_Z   1
loop_
 _symmetry_equiv_pos_site_id
 _symmetry_equiv_pos_as_xyz
  1  'x, y, z'
loop_
 _atom_site_type_symbol
 _atom_site_label
 _atom_site_symmetry_multiplicity
 _atom_site_fract_x
 _atom_site_fract_y
 _atom_site_fract_z
 _atom_site_occupancy
  Tm  Tm0  1  0.500907  0.666712  0.332764  1
  Tm  Tm1  1  0.999131  0.666704  0.332560  1
  Tm  Tm2  1  0.999154  0.334044  0.667324  1
  Tm  Tm3  1  0.750014  0.238553  0.999911  1
  Tm  Tm4  1  0.750067  0.760960  0.762918  1
  Tm  Tm5  1  0.750029  0.998271  0.237164  1
  Tm  Tm6  1  0.250027  0.762252  0.999963  1
  Tm  Tm7  1  0.250032  0.238439  0.238196  1
  Tm  Tm8  1  0.249969  0.000368  0.761926  1
  Lu  Lu9  1  0.500897  0.334031  0.667416  1
  Tl  Tl10  1  0.749484  0.603551  0.999508  1
  Sn  Sn11  1  0.749280  0.394658  0.395212  1
  Sn  Sn12  1  0.749378  0.000184  0.605101  1
  Sn  Sn13  1  0.250646  0.395027  0.999557  1
  Sn  Sn14  1  0.250450  0.604570  0.603750  1
  Sn  Sn15  1  0.250533  0.001673  0.396730  1
