# generated using pymatgen
data_Sc24CuTc7
_symmetry_space_group_name_H-M   'P 1'
_cell_length_a   5.82496133
_cell_length_b   8.59953000
_cell_length_c   13.72531860
_cell_angle_alpha   90.00000000
_cell_angle_beta   90.78381416
_cell_angle_gamma   90.00000000
_symmetry_Int_Tables_number   1
_chemical_formula_structural   Sc24CuTc7
_chemical_formula_sum   'Sc24 Cu1 Tc7'
_cell_volume   687.46336131
_cell_formula_units_Z   1
loop_
 _symmetry_equiv_pos_site_id
 _symmetry_equiv_pos_as_xyz
  1  'x, y, z'
loop_
 _atom_site_type_symbol
 _atom_site_label
 _atom_site_symmetry_multiplicity
 _atom_site_fract_x
 _atom_site_fract_y
 _atom_site_fract_z
 _atom_site_occupancy
  Sc  Sc0  1  0.534759  0.750000  0.355017  1
  Sc  Sc1  1  0.031725  0.250000  0.145466  1
  Sc  Sc2  1  0.470495  0.250000  0.645866  1
  Sc  Sc3  1  0.967862  0.750000  0.853451  1
  Sc  Sc4  1  0.795113  0.750000  0.110122  1
  Sc  Sc5  1  0.292516  0.250000  0.389935  1
  Sc  Sc6  1  0.205092  0.250000  0.887891  1
  Sc  Sc7  1  0.710180  0.750000  0.612839  1
  Sc  Sc8  1  0.432828  0.940328  0.787623  1
  Sc  Sc9  1  0.923604  0.067270  0.710437  1
  Sc  Sc10  1  0.564316  0.437478  0.209972  1
  Sc  Sc11  1  0.066457  0.563420  0.290379  1
  Sc  Sc12  1  0.564316  0.062522  0.209972  1
  Sc  Sc13  1  0.066457  0.936580  0.290379  1
  Sc  Sc14  1  0.432828  0.559672  0.787623  1
  Sc  Sc15  1  0.923604  0.432730  0.710437  1
  Sc  Sc16  1  0.249341  0.944089  0.535964  1
  Sc  Sc17  1  0.745549  0.059307  0.965770  1
  Sc  Sc18  1  0.753747  0.440083  0.466928  1
  Sc  Sc19  1  0.254167  0.559993  0.031906  1
  Sc  Sc20  1  0.753747  0.059917  0.466928  1
  Sc  Sc21  1  0.254167  0.940007  0.031906  1
  Sc  Sc22  1  0.249341  0.555911  0.535964  1
  Sc  Sc23  1  0.745549  0.440693  0.965770  1
  Cu  Cu24  1  0.144237  0.750000  0.677709  1
  Tc  Tc25  1  0.937610  0.750000  0.449670  1
  Tc  Tc26  1  0.430924  0.250000  0.057450  1
  Tc  Tc27  1  0.073216  0.250000  0.560049  1
  Tc  Tc28  1  0.570153  0.750000  0.937086  1
  Tc  Tc29  1  0.354468  0.750000  0.180040  1
  Tc  Tc30  1  0.856532  0.250000  0.320010  1
  Tc  Tc31  1  0.645097  0.250000  0.819440  1
