# generated using pymatgen
data_Pr4Co7AgO20
_symmetry_space_group_name_H-M   'P 1'
_cell_length_a   5.75841100
_cell_length_b   7.61092590
_cell_length_c   8.62573703
_cell_angle_alpha   89.33647662
_cell_angle_beta   90.00000000
_cell_angle_gamma   90.00000000
_symmetry_Int_Tables_number   1
_chemical_formula_structural   Pr4Co7AgO20
_chemical_formula_sum   'Pr4 Co7 Ag1 O20'
_cell_volume   378.01344233
_cell_formula_units_Z   1
loop_
 _symmetry_equiv_pos_site_id
 _symmetry_equiv_pos_as_xyz
  1  'x, y, z'
loop_
 _atom_site_type_symbol
 _atom_site_label
 _atom_site_symmetry_multiplicity
 _atom_site_fract_x
 _atom_site_fract_y
 _atom_site_fract_z
 _atom_site_occupancy
  Pr  Pr0  1  0.000000  0.360212  0.674438  1
  Pr  Pr1  1  0.000000  0.644522  0.327277  1
  Pr  Pr2  1  0.000000  0.851025  0.824858  1
  Pr  Pr3  1  0.000000  0.148274  0.172316  1
  Co  Co4  1  0.500000  0.901428  0.153929  1
  Co  Co5  1  0.500000  0.593814  0.650128  1
  Co  Co6  1  0.500000  0.413251  0.351124  1
  Co  Co7  1  0.259675  0.505812  0.004541  1
  Co  Co8  1  0.742902  0.998715  0.494555  1
  Co  Co9  1  0.740325  0.505812  0.004541  1
  Co  Co10  1  0.257098  0.998715  0.494555  1
  Ag  Ag11  1  0.500000  0.062831  0.841970  1
  O  O12  1  0.250824  0.902877  0.294040  1
  O  O13  1  0.235226  0.093014  0.693541  1
  O  O14  1  0.748835  0.408338  0.208377  1
  O  O15  1  0.747732  0.598853  0.793679  1
  O  O16  1  0.764774  0.093014  0.693541  1
  O  O17  1  0.749176  0.902877  0.294040  1
  O  O18  1  0.252268  0.598853  0.793679  1
  O  O19  1  0.251165  0.408338  0.208377  1
  O  O20  1  0.500000  0.367525  0.948797  1
  O  O21  1  0.500000  0.659689  0.069407  1
  O  O22  1  0.500000  0.849729  0.561189  1
  O  O23  1  0.500000  0.149460  0.433074  1
  O  O24  1  0.270175  0.991287  0.009054  1
  O  O25  1  0.716976  0.500104  0.501731  1
  O  O26  1  0.729825  0.991287  0.009054  1
  O  O27  1  0.283024  0.500104  0.501731  1
  O  O28  1  0.000000  0.154378  0.446269  1
  O  O29  1  0.000000  0.843863  0.545484  1
  O  O30  1  0.000000  0.654202  0.050272  1
  O  O31  1  0.000000  0.347799  0.950433  1
