# generated using pymatgen
data_Dy3Th(InCu2)2
_symmetry_space_group_name_H-M   'P 1'
_cell_length_a   7.60350381
_cell_length_b   7.60350381
_cell_length_c   3.75231900
_cell_angle_alpha   90.00000000
_cell_angle_beta   90.00000000
_cell_angle_gamma   88.99090054
_symmetry_Int_Tables_number   1
_chemical_formula_structural   Dy3Th(InCu2)2
_chemical_formula_sum   'Dy3 Th1 In2 Cu4'
_cell_volume   216.90018815
_cell_formula_units_Z   1
loop_
 _symmetry_equiv_pos_site_id
 _symmetry_equiv_pos_as_xyz
  1  'x, y, z'
loop_
 _atom_site_type_symbol
 _atom_site_label
 _atom_site_symmetry_multiplicity
 _atom_site_fract_x
 _atom_site_fract_y
 _atom_site_fract_z
 _atom_site_occupancy
  Dy  Dy0  1  0.825695  0.326580  0.499999  1
  Dy  Dy1  1  0.173420  0.674306  0.499999  1
  Dy  Dy2  1  0.674945  0.825056  0.499999  1
  Th  Th3  1  0.325560  0.174440  0.499999  1
  In  In4  1  0.994287  0.994812  0.000000  1
  In  In5  1  0.505188  0.505713  0.000000  1
  Cu  Cu6  1  0.623556  0.118590  0.000000  1
  Cu  Cu7  1  0.116712  0.383288  0.000000  1
  Cu  Cu8  1  0.879228  0.620772  0.000000  1
  Cu  Cu9  1  0.381410  0.876444  0.000000  1
