# generated using pymatgen
data_Tm12SiTc3
_symmetry_space_group_name_H-M   'P 1'
_cell_length_a   7.49646385
_cell_length_b   8.96197100
_cell_length_c   6.12348500
_cell_angle_alpha   90.00000000
_cell_angle_beta   90.36440597
_cell_angle_gamma   90.00000000
_symmetry_Int_Tables_number   1
_chemical_formula_structural   Tm12SiTc3
_chemical_formula_sum   'Tm12 Si1 Tc3'
_cell_volume   411.38633373
_cell_formula_units_Z   1
loop_
 _symmetry_equiv_pos_site_id
 _symmetry_equiv_pos_as_xyz
  1  'x, y, z'
loop_
 _atom_site_type_symbol
 _atom_site_label
 _atom_site_symmetry_multiplicity
 _atom_site_fract_x
 _atom_site_fract_y
 _atom_site_fract_z
 _atom_site_occupancy
  Tm  Tm0  1  0.469503  0.750000  0.127874  1
  Tm  Tm1  1  0.175251  0.063048  0.157219  1
  Tm  Tm2  1  0.175251  0.436953  0.157219  1
  Tm  Tm3  1  0.678552  0.064778  0.343197  1
  Tm  Tm4  1  0.678552  0.435223  0.343197  1
  Tm  Tm5  1  0.959651  0.750000  0.384025  1
  Tm  Tm6  1  0.038902  0.250000  0.625645  1
  Tm  Tm7  1  0.335173  0.560430  0.648417  1
  Tm  Tm8  1  0.335173  0.939571  0.648417  1
  Tm  Tm9  1  0.812885  0.560007  0.848031  1
  Tm  Tm10  1  0.812885  0.939994  0.848031  1
  Tm  Tm11  1  0.533247  0.250000  0.879025  1
  Si  Si12  1  0.117595  0.750000  0.937968  1
  Tc  Tc13  1  0.878460  0.250000  0.043060  1
  Tc  Tc14  1  0.377627  0.250000  0.457609  1
  Tc  Tc15  1  0.621295  0.750000  0.551079  1
