# generated using pymatgen
data_La4YbIn2Sn
_symmetry_space_group_name_H-M   'P 1'
_cell_length_a   9.18114814
_cell_length_b   9.18114776
_cell_length_c   9.18114800
_cell_angle_alpha   123.30274312
_cell_angle_beta   123.30274157
_cell_angle_gamma   84.36875279
_symmetry_Int_Tables_number   1
_chemical_formula_structural   La4YbIn2Sn
_chemical_formula_sum   'La8 Yb2 In4 Sn2'
_cell_volume   517.18749898
_cell_formula_units_Z   2
loop_
 _symmetry_equiv_pos_site_id
 _symmetry_equiv_pos_as_xyz
  1  'x, y, z'
loop_
 _atom_site_type_symbol
 _atom_site_label
 _atom_site_symmetry_multiplicity
 _atom_site_fract_x
 _atom_site_fract_y
 _atom_site_fract_z
 _atom_site_occupancy
  La  La0  1  0.325611  0.825611  0.840733  1
  La  La1  1  0.984876  0.484877  0.159266  1
  La  La2  1  0.174388  0.015123  0.499999  1
  La  La3  1  0.515122  0.674387  0.499999  1
  La  La4  1  0.674387  0.174389  0.159266  1
  La  La5  1  0.015123  0.515123  0.840733  1
  La  La6  1  0.484876  0.325611  0.499999  1
  La  La7  1  0.825611  0.984876  0.499999  1
  Yb  Yb8  1  0.000000  0.000000  0.000000  1
  Yb  Yb9  1  0.500000  0.500000  0.000000  1
  In  In10  1  0.625500  0.125501  0.751001  1
  In  In11  1  0.374498  0.874500  0.248999  1
  In  In12  1  0.874500  0.625501  0.500001  1
  In  In13  1  0.125501  0.374500  0.500001  1
  Sn  Sn14  1  0.250000  0.250000  0.000000  1
  Sn  Sn15  1  0.750000  0.750000  0.000000  1
