# generated using pymatgen
data_Pr2ErTh(ZnSn)4
_symmetry_space_group_name_H-M   'P 1'
_cell_length_a   4.58082500
_cell_length_b   4.58082541
_cell_length_c   16.27181400
_cell_angle_alpha   90.00000000
_cell_angle_beta   90.00000000
_cell_angle_gamma   120.00000429
_symmetry_Int_Tables_number   1
_chemical_formula_structural   Pr2ErTh(ZnSn)4
_chemical_formula_sum   'Pr2 Er1 Th1 Zn4 Sn4'
_cell_volume   295.70183825
_cell_formula_units_Z   1
loop_
 _symmetry_equiv_pos_site_id
 _symmetry_equiv_pos_as_xyz
  1  'x, y, z'
loop_
 _atom_site_type_symbol
 _atom_site_label
 _atom_site_symmetry_multiplicity
 _atom_site_fract_x
 _atom_site_fract_y
 _atom_site_fract_z
 _atom_site_occupancy
  Pr  Pr0  1  0.000000  0.000000  0.506210  1
  Pr  Pr1  1  0.000000  0.000000  0.993790  1
  Er  Er2  1  0.000000  0.000000  0.750000  1
  Th  Th3  1  0.000000  0.000000  0.250000  1
  Zn  Zn4  1  0.333333  0.666667  0.349150  1
  Zn  Zn5  1  0.666667  0.333333  0.664760  1
  Zn  Zn6  1  0.666667  0.333333  0.835240  1
  Zn  Zn7  1  0.333333  0.666667  0.150850  1
  Sn  Sn8  1  0.333333  0.666667  0.877888  1
  Sn  Sn9  1  0.666667  0.333333  0.116271  1
  Sn  Sn10  1  0.666667  0.333333  0.383729  1
  Sn  Sn11  1  0.333333  0.666667  0.622112  1
