# generated using pymatgen
data_Tb4Y5Tm3Co5Bi
_symmetry_space_group_name_H-M   'P 1'
_cell_length_a   8.35078773
_cell_length_b   8.36320226
_cell_length_c   8.35078727
_cell_angle_alpha   110.78403920
_cell_angle_beta   110.52908663
_cell_angle_gamma   107.06801327
_symmetry_Int_Tables_number   1
_chemical_formula_structural   Tb4Y5Tm3Co5Bi
_chemical_formula_sum   'Tb4 Y5 Tm3 Co5 Bi1'
_cell_volume   448.70003773
_cell_formula_units_Z   1
loop_
 _symmetry_equiv_pos_site_id
 _symmetry_equiv_pos_as_xyz
  1  'x, y, z'
loop_
 _atom_site_type_symbol
 _atom_site_label
 _atom_site_symmetry_multiplicity
 _atom_site_fract_x
 _atom_site_fract_y
 _atom_site_fract_z
 _atom_site_occupancy
  Tb  Tb0  1  0.600273  0.796117  0.805734  1
  Tb  Tb1  1  0.398728  0.204259  0.193725  1
  Tb  Tb2  1  0.990384  0.796117  0.195843  1
  Tb  Tb3  1  0.010533  0.204259  0.805532  1
  Y  Y4  1  0.815665  0.709279  0.523796  1
  Y  Y5  1  0.183626  0.291104  0.475629  1
  Y  Y6  1  0.185483  0.709279  0.893614  1
  Y  Y7  1  0.815476  0.291104  0.107479  1
  Y  Y8  1  0.687983  0.378991  0.691008  1
  Tm  Tm9  1  0.312341  0.624084  0.311746  1
  Tm  Tm10  1  0.687446  0.999212  0.311767  1
  Tm  Tm11  1  0.312111  0.000138  0.688027  1
  Co  Co12  1  0.620534  0.997695  0.619960  1
  Co  Co13  1  0.377735  0.997695  0.377162  1
  Co  Co14  1  0.112354  0.612730  0.500377  1
  Co  Co15  1  0.889574  0.388509  0.498934  1
  Co  Co16  1  0.999900  0.999418  0.999518  1
  Bi  Bi17  1  0.499856  0.500008  0.000153  1
