# generated using pymatgen
data_La2Ni5B2Ir
_symmetry_space_group_name_H-M   'P 1'
_cell_length_a   5.99867233
_cell_length_b   6.17395821
_cell_length_c   6.17395727
_cell_angle_alpha   132.84190200
_cell_angle_beta   107.08099840
_cell_angle_gamma   92.04303898
_symmetry_Int_Tables_number   1
_chemical_formula_structural   La2Ni5B2Ir
_chemical_formula_sum   'La2 Ni5 B2 Ir1'
_cell_volume   150.95542128
_cell_formula_units_Z   1
loop_
 _symmetry_equiv_pos_site_id
 _symmetry_equiv_pos_as_xyz
  1  'x, y, z'
loop_
 _atom_site_type_symbol
 _atom_site_label
 _atom_site_symmetry_multiplicity
 _atom_site_fract_x
 _atom_site_fract_y
 _atom_site_fract_z
 _atom_site_occupancy
  La  La0  1  0.820417  0.569898  0.250519  1
  La  La1  1  0.179583  0.430102  0.749481  1
  Ni  Ni2  1  0.319396  0.493550  0.323109  1
  Ni  Ni3  1  0.680604  0.506450  0.676891  1
  Ni  Ni4  1  0.680604  0.003713  0.174155  1
  Ni  Ni5  1  0.319396  0.996287  0.825845  1
  Ni  Ni6  1  0.000000  0.000000  0.000000  1
  B  B7  1  0.379320  0.132597  0.246724  1
  B  B8  1  0.620680  0.867403  0.753276  1
  Ir  Ir9  1  0.500000  0.000000  0.500000  1
