# generated using pymatgen
data_Li2NdYSi4
_symmetry_space_group_name_H-M   'P 1'
_cell_length_a   3.84851300
_cell_length_b   7.66700603
_cell_length_c   10.36037862
_cell_angle_alpha   90.15570249
_cell_angle_beta   90.00000000
_cell_angle_gamma   90.00000000
_symmetry_Int_Tables_number   1
_chemical_formula_structural   Li2NdYSi4
_chemical_formula_sum   'Li4 Nd2 Y2 Si8'
_cell_volume   305.69813307
_cell_formula_units_Z   2
loop_
 _symmetry_equiv_pos_site_id
 _symmetry_equiv_pos_as_xyz
  1  'x, y, z'
loop_
 _atom_site_type_symbol
 _atom_site_label
 _atom_site_symmetry_multiplicity
 _atom_site_fract_x
 _atom_site_fract_y
 _atom_site_fract_z
 _atom_site_occupancy
  Li  Li0  1  0.250000  0.989783  0.392719  1
  Li  Li1  1  0.750000  0.010217  0.607281  1
  Li  Li2  1  0.250000  0.493230  0.110180  1
  Li  Li3  1  0.750000  0.506770  0.889820  1
  Nd  Nd4  1  0.250000  0.141602  0.863706  1
  Nd  Nd5  1  0.750000  0.858398  0.136294  1
  Y  Y6  1  0.250000  0.637142  0.634967  1
  Y  Y7  1  0.750000  0.362858  0.365033  1
  Si  Si8  1  0.750000  0.274854  0.074513  1
  Si  Si9  1  0.250000  0.725146  0.925487  1
  Si  Si10  1  0.750000  0.765889  0.434282  1
  Si  Si11  1  0.250000  0.234111  0.565718  1
  Si  Si12  1  0.750000  0.836862  0.817947  1
  Si  Si13  1  0.250000  0.163138  0.182053  1
  Si  Si14  1  0.750000  0.344397  0.674823  1
  Si  Si15  1  0.250000  0.655603  0.325177  1
