# generated using pymatgen
data_Nb4V(CuSi)4
_symmetry_space_group_name_H-M   'P 1'
_cell_length_a   7.35371739
_cell_length_b   7.35371676
_cell_length_c   7.35371664
_cell_angle_alpha   93.49940753
_cell_angle_beta   93.49940382
_cell_angle_gamma   151.39289131
_symmetry_Int_Tables_number   1
_chemical_formula_structural   Nb4V(CuSi)4
_chemical_formula_sum   'Nb4 V1 Cu4 Si4'
_cell_volume   184.50135089
_cell_formula_units_Z   1
loop_
 _symmetry_equiv_pos_site_id
 _symmetry_equiv_pos_as_xyz
  1  'x, y, z'
loop_
 _atom_site_type_symbol
 _atom_site_label
 _atom_site_symmetry_multiplicity
 _atom_site_fract_x
 _atom_site_fract_y
 _atom_site_fract_z
 _atom_site_occupancy
  Nb  Nb0  1  0.126877  0.806756  0.933633  1
  Nb  Nb1  1  0.193244  0.126877  0.320121  1
  Nb  Nb2  1  0.806756  0.873123  0.679879  1
  Nb  Nb3  1  0.873123  0.193244  0.066367  1
  V  V4  1  0.500000  0.500000  0.000000  1
  Cu  Cu5  1  0.395549  0.918139  0.313688  1
  Cu  Cu6  1  0.604451  0.081861  0.686312  1
  Cu  Cu7  1  0.918139  0.604451  0.522590  1
  Cu  Cu8  1  0.081861  0.395549  0.477410  1
  Si  Si9  1  0.251981  0.558291  0.810272  1
  Si  Si10  1  0.441709  0.251981  0.693690  1
  Si  Si11  1  0.558291  0.748019  0.306310  1
  Si  Si12  1  0.748019  0.441709  0.189728  1
