# generated using pymatgen
data_Y4Os5Ru2W
_symmetry_space_group_name_H-M   'P 1'
_cell_length_a   5.23423788
_cell_length_b   5.23423780
_cell_length_c   9.11738400
_cell_angle_alpha   90.00000000
_cell_angle_beta   90.00000000
_cell_angle_gamma   117.80152431
_symmetry_Int_Tables_number   1
_chemical_formula_structural   Y4Os5Ru2W
_chemical_formula_sum   'Y4 Os5 Ru2 W1'
_cell_volume   220.95745315
_cell_formula_units_Z   1
loop_
 _symmetry_equiv_pos_site_id
 _symmetry_equiv_pos_as_xyz
  1  'x, y, z'
loop_
 _atom_site_type_symbol
 _atom_site_label
 _atom_site_symmetry_multiplicity
 _atom_site_fract_x
 _atom_site_fract_y
 _atom_site_fract_z
 _atom_site_occupancy
  Y  Y0  1  0.328791  0.671209  0.436900  1
  Y  Y1  1  0.665903  0.334097  0.567265  1
  Y  Y2  1  0.665903  0.334097  0.932735  1
  Y  Y3  1  0.328791  0.671209  0.063100  1
  Os  Os4  1  0.826932  0.650683  0.250000  1
  Os  Os5  1  0.349317  0.173068  0.250000  1
  Os  Os6  1  0.174732  0.825268  0.750000  1
  Os  Os7  1  0.170013  0.335550  0.750000  1
  Os  Os8  1  0.664450  0.829987  0.750000  1
  Ru  Ru9  1  0.991863  0.008137  0.502306  1
  Ru  Ru10  1  0.991863  0.008137  0.997694  1
  W  W11  1  0.841442  0.158558  0.250000  1
