# generated using pymatgen
data_La16Er4Sn15Sb
_symmetry_space_group_name_H-M   'P 1'
_cell_length_a   8.41532518
_cell_length_b   8.50279538
_cell_length_c   16.25268992
_cell_angle_alpha   89.97886794
_cell_angle_beta   90.11109414
_cell_angle_gamma   89.97324221
_symmetry_Int_Tables_number   1
_chemical_formula_structural   La16Er4Sn15Sb
_chemical_formula_sum   'La16 Er4 Sn15 Sb1'
_cell_volume   1162.93913740
_cell_formula_units_Z   1
loop_
 _symmetry_equiv_pos_site_id
 _symmetry_equiv_pos_as_xyz
  1  'x, y, z'
loop_
 _atom_site_type_symbol
 _atom_site_label
 _atom_site_symmetry_multiplicity
 _atom_site_fract_x
 _atom_site_fract_y
 _atom_site_fract_z
 _atom_site_occupancy
  La  La0  1  0.972271  0.819200  0.899556  1
  La  La1  1  0.471538  0.681357  0.600564  1
  La  La2  1  0.527811  0.319025  0.100457  1
  La  La3  1  0.028259  0.180344  0.399043  1
  La  La4  1  0.972419  0.819569  0.600481  1
  La  La5  1  0.472225  0.680815  0.899634  1
  La  La6  1  0.527042  0.318660  0.399127  1
  La  La7  1  0.027590  0.181159  0.100364  1
  La  La8  1  0.879837  0.660727  0.382370  1
  La  La9  1  0.379280  0.840092  0.117800  1
  La  La10  1  0.620078  0.159797  0.617788  1
  La  La11  1  0.120642  0.340162  0.882299  1
  La  La12  1  0.121639  0.339365  0.617440  1
  La  La13  1  0.620796  0.160181  0.882196  1
  La  La14  1  0.379191  0.839933  0.382103  1
  La  La15  1  0.879508  0.659888  0.117839  1
  Er  Er16  1  0.287332  0.002701  0.750283  1
  Er  Er17  1  0.787304  0.497299  0.751222  1
  Er  Er18  1  0.212492  0.502861  0.249733  1
  Er  Er19  1  0.712514  0.997188  0.249634  1
  Sn  Sn20  1  0.281053  0.029835  0.953522  1
  Sn  Sn21  1  0.719411  0.970610  0.453867  1
  Sn  Sn22  1  0.219084  0.529759  0.046408  1
  Sn  Sn23  1  0.219957  0.529447  0.453623  1
  Sn  Sn24  1  0.718979  0.970187  0.046427  1
  Sn  Sn25  1  0.280937  0.029427  0.546679  1
  Sn  Sn26  1  0.780919  0.470262  0.953405  1
  Sn  Sn27  1  0.167931  0.645308  0.749735  1
  Sn  Sn28  1  0.667861  0.854439  0.749683  1
  Sn  Sn29  1  0.331912  0.145123  0.250140  1
  Sn  Sn30  1  0.831499  0.355036  0.250169  1
  Sn  Sn31  1  0.924574  0.118082  0.749637  1
  Sn  Sn32  1  0.424131  0.381833  0.749615  1
  Sn  Sn33  1  0.576284  0.617754  0.250222  1
  Sn  Sn34  1  0.075541  0.882070  0.249950  1
  Sb  Sb35  1  0.780157  0.470505  0.546986  1
