# generated using pymatgen
data_HfSc3(Co3Os)2
_symmetry_space_group_name_H-M   'P 1'
_cell_length_a   4.90423000
_cell_length_b   4.90423020
_cell_length_c   8.20335800
_cell_angle_alpha   90.00000000
_cell_angle_beta   90.00000000
_cell_angle_gamma   119.99999863
_symmetry_Int_Tables_number   1
_chemical_formula_structural   HfSc3(Co3Os)2
_chemical_formula_sum   'Hf1 Sc3 Co6 Os2'
_cell_volume   170.86927621
_cell_formula_units_Z   1
loop_
 _symmetry_equiv_pos_site_id
 _symmetry_equiv_pos_as_xyz
  1  'x, y, z'
loop_
 _atom_site_type_symbol
 _atom_site_label
 _atom_site_symmetry_multiplicity
 _atom_site_fract_x
 _atom_site_fract_y
 _atom_site_fract_z
 _atom_site_occupancy
  Hf  Hf0  1  0.333333  0.666667  0.066797  1
  Sc  Sc1  1  0.333333  0.666667  0.436168  1
  Sc  Sc2  1  0.666667  0.333333  0.565745  1
  Sc  Sc3  1  0.666667  0.333333  0.929244  1
  Co  Co4  1  0.829500  0.170500  0.249745  1
  Co  Co5  1  0.829500  0.659001  0.249745  1
  Co  Co6  1  0.340999  0.170500  0.249745  1
  Co  Co7  1  0.170626  0.829374  0.750687  1
  Co  Co8  1  0.170626  0.341252  0.750687  1
  Co  Co9  1  0.658748  0.829374  0.750687  1
  Os  Os10  1  0.000000  0.000000  0.500932  1
  Os  Os11  1  0.000000  0.000000  0.999816  1
