# generated using pymatgen
data_Rb3Ir2(Se2O7)2
_symmetry_space_group_name_H-M   'P 1'
_cell_length_a   9.77669100
_cell_length_b   9.77669149
_cell_length_c   13.58906500
_cell_angle_alpha   90.00000000
_cell_angle_beta   90.00000000
_cell_angle_gamma   136.36276666
_symmetry_Int_Tables_number   1
_chemical_formula_structural   Rb3Ir2(Se2O7)2
_chemical_formula_sum   'Rb6 Ir4 Se8 O28'
_cell_volume   896.35306596
_cell_formula_units_Z   2
loop_
 _symmetry_equiv_pos_site_id
 _symmetry_equiv_pos_as_xyz
  1  'x, y, z'
loop_
 _atom_site_type_symbol
 _atom_site_label
 _atom_site_symmetry_multiplicity
 _atom_site_fract_x
 _atom_site_fract_y
 _atom_site_fract_z
 _atom_site_occupancy
  Rb  Rb0  1  0.322945  0.677055  0.527979  1
  Rb  Rb1  1  0.677055  0.322945  0.472021  1
  Rb  Rb2  1  0.177055  0.822945  0.027979  1
  Rb  Rb3  1  0.822945  0.177055  0.972021  1
  Rb  Rb4  1  0.000000  0.000000  0.500000  1
  Rb  Rb5  1  0.500000  0.500000  0.000000  1
  Ir  Ir6  1  0.418598  0.081402  0.750000  1
  Ir  Ir7  1  0.081402  0.418598  0.250000  1
  Ir  Ir8  1  0.581402  0.918598  0.250000  1
  Ir  Ir9  1  0.918598  0.581402  0.750000  1
  Se  Se10  1  0.806908  0.193092  0.678171  1
  Se  Se11  1  0.193092  0.806908  0.321829  1
  Se  Se12  1  0.693092  0.306908  0.178171  1
  Se  Se13  1  0.306908  0.693092  0.821829  1
  Se  Se14  1  0.530637  0.469363  0.694017  1
  Se  Se15  1  0.469363  0.530637  0.305983  1
  Se  Se16  1  0.969363  0.030637  0.194017  1
  Se  Se17  1  0.030637  0.969363  0.805983  1
  O  O18  1  0.556920  0.060241  0.649120  1
  O  O19  1  0.060241  0.556920  0.350880  1
  O  O20  1  0.560241  0.056920  0.149120  1
  O  O21  1  0.056920  0.560241  0.850880  1
  O  O22  1  0.443080  0.939759  0.350880  1
  O  O23  1  0.939759  0.443080  0.649120  1
  O  O24  1  0.439759  0.943080  0.850880  1
  O  O25  1  0.943080  0.439759  0.149120  1
  O  O26  1  0.174540  0.825460  0.697139  1
  O  O27  1  0.825460  0.174540  0.302861  1
  O  O28  1  0.325460  0.674540  0.197139  1
  O  O29  1  0.674540  0.325460  0.802861  1
  O  O30  1  0.400759  0.224628  0.652142  1
  O  O31  1  0.224628  0.400759  0.347858  1
  O  O32  1  0.724628  0.900759  0.152142  1
  O  O33  1  0.900759  0.724628  0.847858  1
  O  O34  1  0.599241  0.775372  0.347858  1
  O  O35  1  0.775372  0.599241  0.652142  1
  O  O36  1  0.275372  0.099241  0.847858  1
  O  O37  1  0.099241  0.275372  0.152142  1
  O  O38  1  0.463829  0.536171  0.611466  1
  O  O39  1  0.536171  0.463829  0.388534  1
  O  O40  1  0.036171  0.963829  0.111466  1
  O  O41  1  0.963829  0.036171  0.888534  1
  O  O42  1  0.859600  0.140400  0.578610  1
  O  O43  1  0.140400  0.859600  0.421390  1
  O  O44  1  0.640400  0.359600  0.078610  1
  O  O45  1  0.359600  0.640400  0.921390  1
