# generated using pymatgen
data_Ho2ScGaSi
_symmetry_space_group_name_H-M   'P 1'
_cell_length_a   7.31742600
_cell_length_b   7.30090000
_cell_length_c   4.25665100
_cell_angle_alpha   90.00000000
_cell_angle_beta   90.00000000
_cell_angle_gamma   90.00000000
_symmetry_Int_Tables_number   1
_chemical_formula_structural   Ho2ScGaSi
_chemical_formula_sum   'Ho4 Sc2 Ga2 Si2'
_cell_volume   227.40645247
_cell_formula_units_Z   2
loop_
 _symmetry_equiv_pos_site_id
 _symmetry_equiv_pos_as_xyz
  1  'x, y, z'
loop_
 _atom_site_type_symbol
 _atom_site_label
 _atom_site_symmetry_multiplicity
 _atom_site_fract_x
 _atom_site_fract_y
 _atom_site_fract_z
 _atom_site_occupancy
  Ho  Ho0  1  0.674715  0.177174  0.500000  1
  Ho  Ho1  1  0.825285  0.677174  0.500000  1
  Ho  Ho2  1  0.178966  0.323527  0.500000  1
  Ho  Ho3  1  0.321034  0.823527  0.500000  1
  Sc  Sc4  1  0.494402  0.496453  0.000000  1
  Sc  Sc5  1  0.005598  0.996453  0.000000  1
  Ga  Ga6  1  0.621371  0.879314  0.000000  1
  Ga  Ga7  1  0.878629  0.379314  0.000000  1
  Si  Si8  1  0.123472  0.623531  0.000000  1
  Si  Si9  1  0.376528  0.123531  0.000000  1
