# generated using pymatgen
data_Tb4ErSi12Ir19
_symmetry_space_group_name_H-M   'P 1'
_cell_length_a   12.84550600
_cell_length_b   12.84533984
_cell_length_c   3.98887800
_cell_angle_alpha   90.00000000
_cell_angle_beta   90.00000000
_cell_angle_gamma   119.99957736
_symmetry_Int_Tables_number   1
_chemical_formula_structural   Tb4ErSi12Ir19
_chemical_formula_sum   'Tb4 Er1 Si12 Ir19'
_cell_volume   570.00681720
_cell_formula_units_Z   1
loop_
 _symmetry_equiv_pos_site_id
 _symmetry_equiv_pos_as_xyz
  1  'x, y, z'
loop_
 _atom_site_type_symbol
 _atom_site_label
 _atom_site_symmetry_multiplicity
 _atom_site_fract_x
 _atom_site_fract_y
 _atom_site_fract_z
 _atom_site_occupancy
  Tb  Tb0  1  0.666639  0.333325  0.000000  1
  Tb  Tb1  1  0.333361  0.666686  0.000000  1
  Tb  Tb2  1  0.814800  0.814827  0.500000  1
  Tb  Tb3  1  0.185200  0.000027  0.500000  1
  Er  Er4  1  0.000000  0.185195  0.500000  1
  Si  Si5  1  0.688158  0.168710  0.500000  1
  Si  Si6  1  0.831263  0.519414  0.500000  1
  Si  Si7  1  0.480475  0.311814  0.500000  1
  Si  Si8  1  0.168737  0.688152  0.500000  1
  Si  Si9  1  0.519525  0.831340  0.500000  1
  Si  Si10  1  0.311842  0.480553  0.500000  1
  Si  Si11  1  0.631716  0.631703  0.000000  1
  Si  Si12  1  0.368284  0.999987  0.000000  1
  Si  Si13  1  0.000000  0.367923  0.000000  1
  Si  Si14  1  0.181145  0.181535  0.000000  1
  Si  Si15  1  0.818855  0.000390  0.000000  1
  Si  Si16  1  0.000000  0.818560  0.000000  1
  Ir  Ir17  1  0.806402  0.182567  0.000000  1
  Ir  Ir18  1  0.817522  0.623353  0.000000  1
  Ir  Ir19  1  0.376593  0.194193  0.000000  1
  Ir  Ir20  1  0.182478  0.805831  0.000000  1
  Ir  Ir21  1  0.623407  0.817600  0.000000  1
  Ir  Ir22  1  0.193598  0.376164  0.000000  1
  Ir  Ir23  1  0.447035  0.447006  0.000000  1
  Ir  Ir24  1  0.552965  0.999971  0.000000  1
  Ir  Ir25  1  0.000000  0.552844  0.000000  1
  Ir  Ir26  1  0.282576  0.282816  0.500000  1
  Ir  Ir27  1  0.717424  0.000239  0.500000  1
  Ir  Ir28  1  0.000000  0.717054  0.500000  1
  Ir  Ir29  1  0.873928  0.361557  0.500000  1
  Ir  Ir30  1  0.638274  0.512186  0.500000  1
  Ir  Ir31  1  0.487761  0.126078  0.500000  1
  Ir  Ir32  1  0.361726  0.873909  0.500000  1
  Ir  Ir33  1  0.512239  0.638315  0.500000  1
  Ir  Ir34  1  0.126072  0.487627  0.500000  1
  Ir  Ir35  1  0.000000  0.000550  0.000000  1
