# generated using pymatgen
data_SrAl4Au3
_symmetry_space_group_name_H-M   'P 1'
_cell_length_a   4.34351100
_cell_length_b   4.34351100
_cell_length_c   8.76276700
_cell_angle_alpha   90.00000000
_cell_angle_beta   90.00000000
_cell_angle_gamma   90.00000000
_symmetry_Int_Tables_number   1
_chemical_formula_structural   SrAl4Au3
_chemical_formula_sum   'Sr1 Al4 Au3'
_cell_volume   165.31913166
_cell_formula_units_Z   1
loop_
 _symmetry_equiv_pos_site_id
 _symmetry_equiv_pos_as_xyz
  1  'x, y, z'
loop_
 _atom_site_type_symbol
 _atom_site_label
 _atom_site_symmetry_multiplicity
 _atom_site_fract_x
 _atom_site_fract_y
 _atom_site_fract_z
 _atom_site_occupancy
  Sr  Sr0  1  0.000000  0.000000  0.500000  1
  Al  Al1  1  0.000000  0.500000  0.171048  1
  Al  Al2  1  0.000000  0.500000  0.828952  1
  Al  Al3  1  0.500000  0.000000  0.171048  1
  Al  Al4  1  0.500000  0.000000  0.828952  1
  Au  Au5  1  0.500000  0.500000  0.336241  1
  Au  Au6  1  0.500000  0.500000  0.663759  1
  Au  Au7  1  0.000000  0.000000  0.000000  1
