# generated using pymatgen
data_Pu4CrRe(B8Ru)2
_symmetry_space_group_name_H-M   'P 1'
_cell_length_a   5.97975842
_cell_length_b   11.56818736
_cell_length_c   3.52786200
_cell_angle_alpha   90.00000000
_cell_angle_beta   90.00000000
_cell_angle_gamma   90.18363867
_symmetry_Int_Tables_number   1
_chemical_formula_structural   Pu4CrRe(B8Ru)2
_chemical_formula_sum   'Pu4 Cr1 Re1 B16 Ru2'
_cell_volume   244.03847984
_cell_formula_units_Z   1
loop_
 _symmetry_equiv_pos_site_id
 _symmetry_equiv_pos_as_xyz
  1  'x, y, z'
loop_
 _atom_site_type_symbol
 _atom_site_label
 _atom_site_symmetry_multiplicity
 _atom_site_fract_x
 _atom_site_fract_y
 _atom_site_fract_z
 _atom_site_occupancy
  Pu  Pu0  1  0.627167  0.348403  0.000000  1
  Pu  Pu1  1  0.372831  0.649629  0.000000  1
  Pu  Pu2  1  0.124793  0.150309  0.000000  1
  Pu  Pu3  1  0.873787  0.850360  0.000000  1
  Cr  Cr4  1  0.629803  0.086664  0.000000  1
  Re  Re5  1  0.371509  0.914721  0.000000  1
  B  B6  1  0.783183  0.184527  0.500000  1
  B  B7  1  0.214026  0.814206  0.500000  1
  B  B8  1  0.286744  0.313034  0.500000  1
  B  B9  1  0.713385  0.686226  0.500000  1
  B  B10  1  0.862857  0.033540  0.500000  1
  B  B11  1  0.134936  0.968870  0.500000  1
  B  B12  1  0.364904  0.467718  0.500000  1
  B  B13  1  0.634970  0.531211  0.500000  1
  B  B14  1  0.885764  0.452369  0.500000  1
  B  B15  1  0.113695  0.546678  0.500000  1
  B  B16  1  0.387431  0.048004  0.500000  1
  B  B17  1  0.615870  0.954899  0.500000  1
  B  B18  1  0.972865  0.307084  0.500000  1
  B  B19  1  0.026508  0.692134  0.500000  1
  B  B20  1  0.477343  0.190990  0.500000  1
  B  B21  1  0.525930  0.808716  0.500000  1
  Ru  Ru22  1  0.137074  0.408434  0.000000  1
  Ru  Ru23  1  0.862626  0.591276  0.000000  1
