# generated using pymatgen
data_Rb6NaTaAs4
_symmetry_space_group_name_H-M   'P 1'
_cell_length_a   8.66954554
_cell_length_b   9.65225523
_cell_length_c   10.62313469
_cell_angle_alpha   82.94218428
_cell_angle_beta   90.92336876
_cell_angle_gamma   90.10458252
_symmetry_Int_Tables_number   1
_chemical_formula_structural   Rb6NaTaAs4
_chemical_formula_sum   'Rb12 Na2 Ta2 As8'
_cell_volume   882.10054144
_cell_formula_units_Z   2
loop_
 _symmetry_equiv_pos_site_id
 _symmetry_equiv_pos_as_xyz
  1  'x, y, z'
loop_
 _atom_site_type_symbol
 _atom_site_label
 _atom_site_symmetry_multiplicity
 _atom_site_fract_x
 _atom_site_fract_y
 _atom_site_fract_z
 _atom_site_occupancy
  Rb  Rb0  1  0.388255  0.884590  0.950858  1
  Rb  Rb1  1  0.389146  0.970326  0.554795  1
  Rb  Rb2  1  0.875204  0.481948  0.296581  1
  Rb  Rb3  1  0.894080  0.093323  0.537308  1
  Rb  Rb4  1  0.703700  0.314620  0.028399  1
  Rb  Rb5  1  0.170595  0.677494  0.472862  1
  Rb  Rb6  1  0.207494  0.168588  0.230677  1
  Rb  Rb7  1  0.386306  0.542749  0.210087  1
  Rb  Rb8  1  0.378093  0.532760  0.794475  1
  Rb  Rb9  1  0.893915  0.446797  0.707413  1
  Rb  Rb10  1  0.708420  0.865781  0.264031  1
  Rb  Rb11  1  0.187868  0.175790  0.826960  1
  Na  Na12  1  0.814107  0.976928  0.892652  1
  Na  Na13  1  0.732536  0.748081  0.707822  1
  Ta  Ta14  1  0.988517  0.690801  0.978548  1
  Ta  Ta15  1  0.500474  0.333243  0.528724  1
  As  As16  1  0.697903  0.680391  0.988020  1
  As  As17  1  0.211565  0.325432  0.519383  1
  As  As18  1  0.086006  0.445314  0.008694  1
  As  As19  1  0.584365  0.590059  0.508387  1
  As  As20  1  0.079756  0.832279  0.150804  1
  As  As21  1  0.590604  0.217144  0.344044  1
  As  As22  1  0.590151  0.188442  0.737975  1
  As  As23  1  0.063145  0.817121  0.760499  1
