# generated using pymatgen
data_Sc12Re7Si16Os
_symmetry_space_group_name_H-M   'P 1'
_cell_length_a   5.37479274
_cell_length_b   10.18547706
_cell_length_c   11.63843226
_cell_angle_alpha   95.14207407
_cell_angle_beta   103.38592697
_cell_angle_gamma   105.11309311
_symmetry_Int_Tables_number   1
_chemical_formula_structural   Sc12Re7Si16Os
_chemical_formula_sum   'Sc12 Re7 Si16 Os1'
_cell_volume   590.71651419
_cell_formula_units_Z   1
loop_
 _symmetry_equiv_pos_site_id
 _symmetry_equiv_pos_as_xyz
  1  'x, y, z'
loop_
 _atom_site_type_symbol
 _atom_site_label
 _atom_site_symmetry_multiplicity
 _atom_site_fract_x
 _atom_site_fract_y
 _atom_site_fract_z
 _atom_site_occupancy
  Sc  Sc0  1  0.531738  0.282067  0.048141  1
  Sc  Sc1  1  0.173583  0.468147  0.138045  1
  Sc  Sc2  1  0.453224  0.995295  0.154701  1
  Sc  Sc3  1  0.810239  0.506183  0.340318  1
  Sc  Sc4  1  0.068343  0.033015  0.361494  1
  Sc  Sc5  1  0.700452  0.220522  0.454274  1
  Sc  Sc6  1  0.299378  0.778309  0.545091  1
  Sc  Sc7  1  0.931621  0.966513  0.638983  1
  Sc  Sc8  1  0.190127  0.493414  0.658955  1
  Sc  Sc9  1  0.544812  0.004518  0.846213  1
  Sc  Sc10  1  0.826848  0.532160  0.862267  1
  Sc  Sc11  1  0.467682  0.718653  0.951979  1
  Re  Re12  1  0.575998  0.748373  0.216356  1
  Re  Re13  1  0.108530  0.756342  0.281902  1
  Re  Re14  1  0.287531  0.372808  0.423290  1
  Re  Re15  1  0.710603  0.625138  0.575371  1
  Re  Re16  1  0.891465  0.243910  0.718923  1
  Re  Re17  1  0.425594  0.253145  0.784455  1
  Re  Re18  1  0.014188  0.870601  0.920379  1
  Si  Si19  1  0.123598  0.724256  0.072334  1
  Si  Si20  1  0.717736  0.566391  0.109371  1
  Si  Si21  1  0.890639  0.896562  0.120521  1
  Si  Si22  1  0.362339  0.252451  0.248828  1
  Si  Si23  1  0.890130  0.251497  0.251103  1
  Si  Si24  1  0.378576  0.607177  0.372529  1
  Si  Si25  1  0.541504  0.935599  0.388701  1
  Si  Si26  1  0.826089  0.777241  0.428196  1
  Si  Si27  1  0.173702  0.222283  0.572296  1
  Si  Si28  1  0.458543  0.064065  0.611799  1
  Si  Si29  1  0.621311  0.392137  0.627119  1
  Si  Si30  1  0.108475  0.746546  0.747858  1
  Si  Si31  1  0.637344  0.746968  0.750326  1
  Si  Si32  1  0.109061  0.104495  0.877754  1
  Si  Si33  1  0.282677  0.434451  0.891498  1
  Si  Si34  1  0.878816  0.277207  0.929063  1
  Os  Os35  1  0.987506  0.131562  0.079570  1
