# generated using pymatgen
data_Y2HoIn3BiIr2
_symmetry_space_group_name_H-M   'P 1'
_cell_length_a   7.73945855
_cell_length_b   7.72941274
_cell_length_c   4.10167200
_cell_angle_alpha   90.00000000
_cell_angle_beta   90.00000000
_cell_angle_gamma   120.18011520
_symmetry_Int_Tables_number   1
_chemical_formula_structural   Y2HoIn3BiIr2
_chemical_formula_sum   'Y2 Ho1 In3 Bi1 Ir2'
_cell_volume   212.10824230
_cell_formula_units_Z   1
loop_
 _symmetry_equiv_pos_site_id
 _symmetry_equiv_pos_as_xyz
  1  'x, y, z'
loop_
 _atom_site_type_symbol
 _atom_site_label
 _atom_site_symmetry_multiplicity
 _atom_site_fract_x
 _atom_site_fract_y
 _atom_site_fract_z
 _atom_site_occupancy
  Y  Y0  1  0.583362  0.612516  0.000000  1
  Y  Y1  1  0.386437  0.970447  0.000000  1
  Ho  Ho2  1  0.032886  0.416900  0.000000  1
  In  In3  1  0.022610  0.768497  0.500000  1
  In  In4  1  0.232422  0.254796  0.500000  1
  In  In5  1  0.744828  0.977424  0.500000  1
  Bi  Bi6  1  0.667602  0.333377  0.500000  1
  Ir  Ir7  1  0.999584  0.001795  0.000000  1
  Ir  Ir8  1  0.330268  0.664249  0.500000  1
