# generated using pymatgen
data_Eu6Ti4Al43
_symmetry_space_group_name_H-M   'P 1'
_cell_length_a   11.04570900
_cell_length_b   11.04570923
_cell_length_c   17.69112600
_cell_angle_alpha   90.00000000
_cell_angle_beta   90.00000000
_cell_angle_gamma   120.00000829
_symmetry_Int_Tables_number   1
_chemical_formula_structural   Eu6Ti4Al43
_chemical_formula_sum   'Eu12 Ti8 Al86'
_cell_volume   1869.27533400
_cell_formula_units_Z   2
loop_
 _symmetry_equiv_pos_site_id
 _symmetry_equiv_pos_as_xyz
  1  'x, y, z'
loop_
 _atom_site_type_symbol
 _atom_site_label
 _atom_site_symmetry_multiplicity
 _atom_site_fract_x
 _atom_site_fract_y
 _atom_site_fract_z
 _atom_site_occupancy
  Eu  Eu0  1  0.529480  0.000000  0.594243  1
  Eu  Eu1  1  0.470520  0.000000  0.405757  1
  Eu  Eu2  1  0.000000  0.529480  0.594243  1
  Eu  Eu3  1  0.470520  0.000000  0.094243  1
  Eu  Eu4  1  0.000000  0.529480  0.905757  1
  Eu  Eu5  1  0.000000  0.470520  0.405757  1
  Eu  Eu6  1  0.529480  0.000000  0.905757  1
  Eu  Eu7  1  0.000000  0.470520  0.094243  1
  Eu  Eu8  1  0.470520  0.470520  0.594243  1
  Eu  Eu9  1  0.529480  0.529480  0.405757  1
  Eu  Eu10  1  0.529480  0.529480  0.094243  1
  Eu  Eu11  1  0.470520  0.470520  0.905757  1
  Ti  Ti12  1  0.000000  0.000000  0.500000  1
  Ti  Ti13  1  0.000000  0.000000  0.000000  1
  Ti  Ti14  1  0.728567  0.000000  0.750000  1
  Ti  Ti15  1  0.271433  0.000000  0.250000  1
  Ti  Ti16  1  0.000000  0.728567  0.750000  1
  Ti  Ti17  1  0.000000  0.271433  0.250000  1
  Ti  Ti18  1  0.271433  0.271433  0.750000  1
  Ti  Ti19  1  0.728567  0.728567  0.250000  1
  Al  Al20  1  0.150980  0.598156  0.750000  1
  Al  Al21  1  0.849020  0.401844  0.250000  1
  Al  Al22  1  0.401844  0.552824  0.750000  1
  Al  Al23  1  0.598156  0.150980  0.750000  1
  Al  Al24  1  0.598156  0.447176  0.250000  1
  Al  Al25  1  0.401844  0.849020  0.250000  1
  Al  Al26  1  0.447176  0.849020  0.750000  1
  Al  Al27  1  0.552824  0.401844  0.750000  1
  Al  Al28  1  0.552824  0.150980  0.250000  1
  Al  Al29  1  0.447176  0.598156  0.250000  1
  Al  Al30  1  0.849020  0.447176  0.750000  1
  Al  Al31  1  0.150980  0.552824  0.250000  1
  Al  Al32  1  0.155240  0.000000  0.116299  1
  Al  Al33  1  0.844760  0.000000  0.883701  1
  Al  Al34  1  0.000000  0.155240  0.116299  1
  Al  Al35  1  0.844760  0.000000  0.616299  1
  Al  Al36  1  0.000000  0.155240  0.383701  1
  Al  Al37  1  0.000000  0.844760  0.883701  1
  Al  Al38  1  0.155240  0.000000  0.383701  1
  Al  Al39  1  0.000000  0.844760  0.616299  1
  Al  Al40  1  0.844760  0.844760  0.116299  1
  Al  Al41  1  0.155240  0.155240  0.883701  1
  Al  Al42  1  0.155240  0.155240  0.616299  1
  Al  Al43  1  0.844760  0.844760  0.383701  1
  Al  Al44  1  0.247080  0.494160  0.500000  1
  Al  Al45  1  0.752920  0.505840  0.500000  1
  Al  Al46  1  0.505840  0.752920  0.500000  1
  Al  Al47  1  0.752920  0.505840  0.000000  1
  Al  Al48  1  0.494160  0.247080  0.000000  1
  Al  Al49  1  0.494160  0.247080  0.500000  1
  Al  Al50  1  0.247080  0.494160  0.000000  1
  Al  Al51  1  0.505840  0.752920  0.000000  1
  Al  Al52  1  0.247080  0.752920  0.500000  1
  Al  Al53  1  0.752920  0.247080  0.500000  1
  Al  Al54  1  0.752920  0.247080  0.000000  1
  Al  Al55  1  0.247080  0.752920  0.000000  1
  Al  Al56  1  0.147248  0.000000  0.750000  1
  Al  Al57  1  0.852752  0.000000  0.250000  1
  Al  Al58  1  0.000000  0.147248  0.750000  1
  Al  Al59  1  0.000000  0.852752  0.250000  1
  Al  Al60  1  0.852752  0.852752  0.750000  1
  Al  Al61  1  0.147248  0.147248  0.250000  1
  Al  Al62  1  0.333333  0.666667  0.626321  1
  Al  Al63  1  0.666667  0.333333  0.373679  1
  Al  Al64  1  0.666667  0.333333  0.126321  1
  Al  Al65  1  0.666667  0.333333  0.873679  1
  Al  Al66  1  0.333333  0.666667  0.873679  1
  Al  Al67  1  0.333333  0.666667  0.126321  1
  Al  Al68  1  0.333333  0.666667  0.373679  1
  Al  Al69  1  0.666667  0.333333  0.626321  1
  Al  Al70  1  0.251081  0.000000  0.530778  1
  Al  Al71  1  0.748919  0.000000  0.469222  1
  Al  Al72  1  0.000000  0.251081  0.530778  1
  Al  Al73  1  0.748919  0.000000  0.030778  1
  Al  Al74  1  0.000000  0.251081  0.969222  1
  Al  Al75  1  0.000000  0.748919  0.469222  1
  Al  Al76  1  0.251081  0.000000  0.969222  1
  Al  Al77  1  0.000000  0.748919  0.030778  1
  Al  Al78  1  0.748919  0.748919  0.530778  1
  Al  Al79  1  0.251081  0.251081  0.469222  1
  Al  Al80  1  0.251081  0.251081  0.030778  1
  Al  Al81  1  0.748919  0.748919  0.969222  1
  Al  Al82  1  0.157528  0.392189  0.664457  1
  Al  Al83  1  0.842472  0.607811  0.335543  1
  Al  Al84  1  0.607811  0.765337  0.664457  1
  Al  Al85  1  0.842472  0.607811  0.164457  1
  Al  Al86  1  0.392189  0.157528  0.835543  1
  Al  Al87  1  0.392189  0.234663  0.335543  1
  Al  Al88  1  0.157528  0.392189  0.835543  1
  Al  Al89  1  0.607811  0.842472  0.164457  1
  Al  Al90  1  0.234663  0.842472  0.664457  1
  Al  Al91  1  0.392189  0.234663  0.164457  1
  Al  Al92  1  0.765337  0.607811  0.835543  1
  Al  Al93  1  0.765337  0.157528  0.335543  1
  Al  Al94  1  0.607811  0.765337  0.835543  1
  Al  Al95  1  0.234663  0.392189  0.164457  1
  Al  Al96  1  0.607811  0.842472  0.335543  1
  Al  Al97  1  0.392189  0.157528  0.664457  1
  Al  Al98  1  0.765337  0.157528  0.164457  1
  Al  Al99  1  0.234663  0.392189  0.335543  1
  Al  Al100  1  0.234663  0.842472  0.835543  1
  Al  Al101  1  0.765337  0.607811  0.664457  1
  Al  Al102  1  0.842472  0.234663  0.835543  1
  Al  Al103  1  0.157528  0.765337  0.164457  1
  Al  Al104  1  0.157528  0.765337  0.335543  1
  Al  Al105  1  0.842472  0.234663  0.664457  1
