# generated using pymatgen
data_Pa8Cu3Si12Tc
_symmetry_space_group_name_H-M   'P 1'
_cell_length_a   7.95473200
_cell_length_b   7.95473237
_cell_length_c   8.09186400
_cell_angle_alpha   90.00000000
_cell_angle_beta   90.00000000
_cell_angle_gamma   119.99999013
_symmetry_Int_Tables_number   1
_chemical_formula_structural   Pa8Cu3Si12Tc
_chemical_formula_sum   'Pa8 Cu3 Si12 Tc1'
_cell_volume   443.43541522
_cell_formula_units_Z   1
loop_
 _symmetry_equiv_pos_site_id
 _symmetry_equiv_pos_as_xyz
  1  'x, y, z'
loop_
 _atom_site_type_symbol
 _atom_site_label
 _atom_site_symmetry_multiplicity
 _atom_site_fract_x
 _atom_site_fract_y
 _atom_site_fract_z
 _atom_site_occupancy
  Pa  Pa0  1  0.000000  0.000000  0.250431  1
  Pa  Pa1  1  0.000000  0.000000  0.749638  1
  Pa  Pa2  1  0.495930  0.504070  0.244178  1
  Pa  Pa3  1  0.495930  0.991860  0.244178  1
  Pa  Pa4  1  0.008140  0.504070  0.244178  1
  Pa  Pa5  1  0.495312  0.504688  0.756008  1
  Pa  Pa6  1  0.495312  0.990624  0.756008  1
  Pa  Pa7  1  0.009376  0.504688  0.756008  1
  Cu  Cu8  1  0.333333  0.666667  0.498458  1
  Cu  Cu9  1  0.666667  0.333333  0.499592  1
  Cu  Cu10  1  0.666667  0.333333  0.000643  1
  Si  Si11  1  0.168039  0.831961  0.499988  1
  Si  Si12  1  0.168039  0.336080  0.499988  1
  Si  Si13  1  0.663920  0.831961  0.499988  1
  Si  Si14  1  0.829610  0.170390  0.500002  1
  Si  Si15  1  0.829610  0.659218  0.500002  1
  Si  Si16  1  0.340782  0.170390  0.500002  1
  Si  Si17  1  0.829206  0.170794  0.999898  1
  Si  Si18  1  0.829206  0.658412  0.999898  1
  Si  Si19  1  0.341588  0.170794  0.999898  1
  Si  Si20  1  0.160925  0.839075  0.000293  1
  Si  Si21  1  0.160925  0.321852  0.000293  1
  Si  Si22  1  0.678148  0.839075  0.000293  1
  Tc  Tc23  1  0.333333  0.666667  0.000141  1
