# generated using pymatgen
data_Er8TaTi2Si16Mo9
_symmetry_space_group_name_H-M   'P 1'
_cell_length_a   6.88941744
_cell_length_b   6.88941747
_cell_length_c   12.75572079
_cell_angle_alpha   90.04797131
_cell_angle_beta   89.95202791
_cell_angle_gamma   89.66851591
_symmetry_Int_Tables_number   1
_chemical_formula_structural   Er8TaTi2Si16Mo9
_chemical_formula_sum   'Er8 Ta1 Ti2 Si16 Mo9'
_cell_volume   605.42790178
_cell_formula_units_Z   1
loop_
 _symmetry_equiv_pos_site_id
 _symmetry_equiv_pos_as_xyz
  1  'x, y, z'
loop_
 _atom_site_type_symbol
 _atom_site_label
 _atom_site_symmetry_multiplicity
 _atom_site_fract_x
 _atom_site_fract_y
 _atom_site_fract_z
 _atom_site_occupancy
  Er  Er0  1  0.340051  0.001379  0.468976  1
  Er  Er1  1  0.498110  0.838891  0.719483  1
  Er  Er2  1  0.498810  0.162130  0.217685  1
  Er  Er3  1  0.838891  0.498110  0.280517  1
  Er  Er4  1  0.162130  0.498810  0.782315  1
  Er  Er5  1  0.658980  0.000591  0.968893  1
  Er  Er6  1  0.001379  0.340051  0.531024  1
  Er  Er7  1  0.000591  0.658980  0.031107  1
  Ta  Ta8  1  0.668671  0.668671  0.500000  1
  Ti  Ti9  1  0.168927  0.831951  0.248871  1
  Ti  Ti10  1  0.831951  0.168927  0.751129  1
  Si  Si11  1  0.201722  0.129051  0.683372  1
  Si  Si12  1  0.373290  0.697427  0.934084  1
  Si  Si13  1  0.628927  0.297275  0.432446  1
  Si  Si14  1  0.697427  0.373290  0.065916  1
  Si  Si15  1  0.297275  0.628927  0.567554  1
  Si  Si16  1  0.796835  0.871503  0.183501  1
  Si  Si17  1  0.129051  0.201722  0.316628  1
  Si  Si18  1  0.871503  0.796835  0.816499  1
  Si  Si19  1  0.288085  0.963560  0.061390  1
  Si  Si20  1  0.538924  0.791567  0.312788  1
  Si  Si21  1  0.458211  0.210804  0.815290  1
  Si  Si22  1  0.791567  0.538924  0.687212  1
  Si  Si23  1  0.210804  0.458211  0.184710  1
  Si  Si24  1  0.709536  0.042147  0.564506  1
  Si  Si25  1  0.963560  0.288085  0.938610  1
  Si  Si26  1  0.042147  0.709536  0.435494  1
  Mo  Mo27  1  0.331883  0.331883  0.000000  1
  Mo  Mo28  1  0.155549  0.001413  0.872891  1
  Mo  Mo29  1  0.497391  0.666986  0.124232  1
  Mo  Mo30  1  0.503629  0.339664  0.624219  1
  Mo  Mo31  1  0.666986  0.497391  0.875768  1
  Mo  Mo32  1  0.339664  0.503629  0.375781  1
  Mo  Mo33  1  0.841679  0.994454  0.374208  1
  Mo  Mo34  1  0.001413  0.155549  0.127109  1
  Mo  Mo35  1  0.994454  0.841679  0.625792  1
