# generated using pymatgen
data_Ho5Lu3Mn(B8Rh)3
_symmetry_space_group_name_H-M   'P 1'
_cell_length_a   3.60951600
_cell_length_b   9.08885824
_cell_length_c   11.43566678
_cell_angle_alpha   90.04031342
_cell_angle_beta   90.00000000
_cell_angle_gamma   90.00000000
_symmetry_Int_Tables_number   1
_chemical_formula_structural   Ho5Lu3Mn(B8Rh)3
_chemical_formula_sum   'Ho5 Lu3 Mn1 B24 Rh3'
_cell_volume   375.16272851
_cell_formula_units_Z   1
loop_
 _symmetry_equiv_pos_site_id
 _symmetry_equiv_pos_as_xyz
  1  'x, y, z'
loop_
 _atom_site_type_symbol
 _atom_site_label
 _atom_site_symmetry_multiplicity
 _atom_site_fract_x
 _atom_site_fract_y
 _atom_site_fract_z
 _atom_site_occupancy
  Ho  Ho0  1  0.500000  0.317015  0.410034  1
  Ho  Ho1  1  0.500000  0.678962  0.585686  1
  Ho  Ho2  1  0.500000  0.177955  0.918654  1
  Ho  Ho3  1  0.500000  0.826338  0.087561  1
  Ho  Ho4  1  0.500000  0.440200  0.126552  1
  Lu  Lu5  1  0.500000  0.556653  0.873072  1
  Lu  Lu6  1  0.500000  0.056452  0.627186  1
  Lu  Lu7  1  0.500000  0.947783  0.370898  1
  Mn  Mn8  1  0.500000  0.137581  0.180121  1
  B  B9  1  0.000000  0.104945  0.471569  1
  B  B10  1  0.000000  0.895026  0.528691  1
  B  B11  1  0.000000  0.392920  0.969604  1
  B  B12  1  0.000000  0.608426  0.028476  1
  B  B13  1  0.000000  0.130689  0.314283  1
  B  B14  1  0.000000  0.868341  0.683318  1
  B  B15  1  0.000000  0.368781  0.816648  1
  B  B16  1  0.000000  0.632547  0.183589  1
  B  B17  1  0.000000  0.054143  0.068501  1
  B  B18  1  0.000000  0.946519  0.934380  1
  B  B19  1  0.000000  0.445370  0.565625  1
  B  B20  1  0.000000  0.553401  0.433547  1
  B  B21  1  0.000000  0.482140  0.286956  1
  B  B22  1  0.000000  0.518446  0.713452  1
  B  B23  1  0.000000  0.018430  0.787103  1
  B  B24  1  0.000000  0.985188  0.212963  1
  B  B25  1  0.000000  0.246172  0.082230  1
  B  B26  1  0.000000  0.750338  0.920622  1
  B  B27  1  0.000000  0.248999  0.579054  1
  B  B28  1  0.000000  0.751592  0.419995  1
  B  B29  1  0.000000  0.289426  0.234249  1
  B  B30  1  0.000000  0.706094  0.763968  1
  B  B31  1  0.000000  0.206749  0.735487  1
  B  B32  1  0.000000  0.794267  0.265157  1
  Rh  Rh33  1  0.500000  0.861604  0.820533  1
  Rh  Rh34  1  0.500000  0.360616  0.679182  1
  Rh  Rh35  1  0.500000  0.639895  0.321053  1
