# generated using pymatgen
data_Ba4Mn2CoO9
_symmetry_space_group_name_H-M   'P 1'
_cell_length_a   10.02072000
_cell_length_b   10.02072739
_cell_length_c   8.28626800
_cell_angle_alpha   90.00000000
_cell_angle_beta   89.99957117
_cell_angle_gamma   120.00002842
_symmetry_Int_Tables_number   1
_chemical_formula_structural   Ba4Mn2CoO9
_chemical_formula_sum   'Ba12 Mn6 Co3 O27'
_cell_volume   720.58904859
_cell_formula_units_Z   3
loop_
 _symmetry_equiv_pos_site_id
 _symmetry_equiv_pos_as_xyz
  1  'x, y, z'
loop_
 _atom_site_type_symbol
 _atom_site_label
 _atom_site_symmetry_multiplicity
 _atom_site_fract_x
 _atom_site_fract_y
 _atom_site_fract_z
 _atom_site_occupancy
  Ba  Ba0  1  0.332260  0.000131  0.000018  1
  Ba  Ba1  1  0.999945  0.330957  0.000023  1
  Ba  Ba2  1  0.667898  0.668110  0.999925  1
  Ba  Ba3  1  0.022017  0.688061  0.248473  1
  Ba  Ba4  1  0.666287  0.977745  0.249279  1
  Ba  Ba5  1  0.312805  0.333949  0.248876  1
  Ba  Ba6  1  0.356074  0.000121  0.500041  1
  Ba  Ba7  1  0.644658  0.644859  0.500018  1
  Ba  Ba8  1  0.999919  0.354324  0.499941  1
  Ba  Ba9  1  0.333996  0.311749  0.751233  1
  Ba  Ba10  1  0.687364  0.020955  0.750668  1
  Ba  Ba11  1  0.977835  0.665966  0.751450  1
  Mn  Mn12  1  0.333851  0.667241  0.079591  1
  Mn  Mn13  1  0.999848  0.000554  0.162060  1
  Mn  Mn14  1  0.333448  0.667076  0.408115  1
  Mn  Mn15  1  0.666428  0.333667  0.591996  1
  Mn  Mn16  1  0.999429  0.000119  0.837879  1
  Mn  Mn17  1  0.666127  0.333302  0.920388  1
  Co  Co18  1  0.670454  0.332994  0.253333  1
  Co  Co19  1  0.002861  0.998004  0.499977  1
  Co  Co20  1  0.329551  0.662469  0.746714  1
  O  O21  1  0.853707  0.000116  0.999978  1
  O  O22  1  0.146236  0.146309  0.999940  1
  O  O23  1  0.000044  0.853942  0.000033  1
  O  O24  1  0.814024  0.486806  0.058281  1
  O  O25  1  0.512957  0.328214  0.056545  1
  O  O26  1  0.670860  0.184968  0.058365  1
  O  O27  1  0.343483  0.820416  0.244509  1
  O  O28  1  0.476616  0.656290  0.244581  1
  O  O29  1  0.179456  0.523160  0.244444  1
  O  O30  1  0.991369  0.149114  0.299426  1
  O  O31  1  0.156741  0.008915  0.301866  1
  O  O32  1  0.851406  0.843917  0.301308  1
  O  O33  1  0.508774  0.322046  0.454432  1
  O  O34  1  0.677716  0.187470  0.452467  1
  O  O35  1  0.812528  0.491475  0.453155  1
  O  O36  1  0.187434  0.678913  0.546746  1
  O  O37  1  0.322212  0.509667  0.547580  1
  O  O38  1  0.491077  0.813166  0.545543  1
  O  O39  1  0.147909  0.991867  0.697628  1
  O  O40  1  0.007704  0.156892  0.699885  1
  O  O41  1  0.842408  0.851547  0.699746  1
  O  O42  1  0.656430  0.476845  0.755482  1
  O  O43  1  0.820498  0.343691  0.755565  1
  O  O44  1  0.523282  0.179627  0.755474  1
  O  O45  1  0.486963  0.815290  0.943444  1
  O  O46  1  0.329133  0.514177  0.941771  1
  O  O47  1  0.185982  0.672807  0.941807  1
