# generated using pymatgen
data_Y12AlIn(CoSi)2
_symmetry_space_group_name_H-M   'P 1'
_cell_length_a   8.48892347
_cell_length_b   8.48892428
_cell_length_c   8.48892432
_cell_angle_alpha   113.25794649
_cell_angle_beta   110.34492936
_cell_angle_gamma   104.91925745
_symmetry_Int_Tables_number   1
_chemical_formula_structural   Y12AlIn(CoSi)2
_chemical_formula_sum   'Y12 Al1 In1 Co2 Si2'
_cell_volume   468.37186034
_cell_formula_units_Z   1
loop_
 _symmetry_equiv_pos_site_id
 _symmetry_equiv_pos_as_xyz
  1  'x, y, z'
loop_
 _atom_site_type_symbol
 _atom_site_label
 _atom_site_symmetry_multiplicity
 _atom_site_fract_x
 _atom_site_fract_y
 _atom_site_fract_z
 _atom_site_occupancy
  Y  Y0  1  0.433627  0.236180  0.197447  1
  Y  Y1  1  0.566373  0.763820  0.802553  1
  Y  Y2  1  0.038733  0.236180  0.802553  1
  Y  Y3  1  0.961267  0.763820  0.197447  1
  Y  Y4  1  0.185382  0.284231  0.469614  1
  Y  Y5  1  0.814618  0.715769  0.530386  1
  Y  Y6  1  0.185382  0.715769  0.901152  1
  Y  Y7  1  0.814618  0.284231  0.098848  1
  Y  Y8  1  0.305966  0.616100  0.310135  1
  Y  Y9  1  0.694034  0.383900  0.689865  1
  Y  Y10  1  0.305966  0.995831  0.689865  1
  Y  Y11  1  0.694034  0.004169  0.310135  1
  Al  Al12  1  0.000000  0.000000  0.000000  1
  In  In13  1  0.500000  0.500000  0.000000  1
  Co  Co14  1  0.106088  0.606088  0.500000  1
  Co  Co15  1  0.893912  0.393912  0.500000  1
  Si  Si16  1  0.364843  0.000000  0.364843  1
  Si  Si17  1  0.635157  0.000000  0.635157  1
