# generated using pymatgen
data_K2EuPu5F20
_symmetry_space_group_name_H-M   'P 1'
_cell_length_a   8.53539606
_cell_length_b   8.52608894
_cell_length_c   8.52608900
_cell_angle_alpha   60.07223525
_cell_angle_beta   59.96388086
_cell_angle_gamma   59.96388614
_symmetry_Int_Tables_number   1
_chemical_formula_structural   K2EuPu5F20
_chemical_formula_sum   'K2 Eu1 Pu5 F20'
_cell_volume   438.74014247
_cell_formula_units_Z   1
loop_
 _symmetry_equiv_pos_site_id
 _symmetry_equiv_pos_as_xyz
  1  'x, y, z'
loop_
 _atom_site_type_symbol
 _atom_site_label
 _atom_site_symmetry_multiplicity
 _atom_site_fract_x
 _atom_site_fract_y
 _atom_site_fract_z
 _atom_site_occupancy
  K  K0  1  0.255853  0.244147  0.244147  1
  K  K1  1  0.755853  0.744147  0.744147  1
  Eu  Eu2  1  0.761194  0.238806  0.238806  1
  Pu  Pu3  1  0.241124  0.758876  0.758876  1
  Pu  Pu4  1  0.240449  0.759551  0.237683  1
  Pu  Pu5  1  0.762317  0.237683  0.759551  1
  Pu  Pu6  1  0.240449  0.237683  0.759551  1
  Pu  Pu7  1  0.762317  0.759551  0.237683  1
  F  F8  1  0.825418  0.506831  0.506831  1
  F  F9  1  0.160920  0.506831  0.506831  1
  F  F10  1  0.493169  0.839080  0.174582  1
  F  F11  1  0.493169  0.174582  0.839080  1
  F  F12  1  0.500582  0.833160  0.499418  1
  F  F13  1  0.166840  0.499418  0.833160  1
  F  F14  1  0.494376  0.167903  0.505624  1
  F  F15  1  0.832097  0.505624  0.167903  1
  F  F16  1  0.500582  0.499418  0.833160  1
  F  F17  1  0.494376  0.505624  0.167903  1
  F  F18  1  0.166840  0.833160  0.499418  1
  F  F19  1  0.832097  0.167903  0.505624  1
  F  F20  1  0.119814  0.110184  0.110184  1
  F  F21  1  0.886257  0.884822  0.884822  1
  F  F22  1  0.115178  0.113743  0.655902  1
  F  F23  1  0.115178  0.655902  0.113743  1
  F  F24  1  0.889816  0.880186  0.340181  1
  F  F25  1  0.889816  0.340181  0.880186  1
  F  F26  1  0.659819  0.110184  0.110184  1
  F  F27  1  0.344098  0.884822  0.884822  1
