# generated using pymatgen
data_Pr4Y8Fe2I17
_symmetry_space_group_name_H-M   'P 1'
_cell_length_a   9.86497721
_cell_length_b   11.92377802
_cell_length_c   11.83748293
_cell_angle_alpha   74.48271110
_cell_angle_beta   75.73277962
_cell_angle_gamma   65.81035553
_symmetry_Int_Tables_number   1
_chemical_formula_structural   Pr4Y8Fe2I17
_chemical_formula_sum   'Pr4 Y8 Fe2 I17'
_cell_volume   1208.93806318
_cell_formula_units_Z   1
loop_
 _symmetry_equiv_pos_site_id
 _symmetry_equiv_pos_as_xyz
  1  'x, y, z'
loop_
 _atom_site_type_symbol
 _atom_site_label
 _atom_site_symmetry_multiplicity
 _atom_site_fract_x
 _atom_site_fract_y
 _atom_site_fract_z
 _atom_site_occupancy
  Pr  Pr0  1  0.584762  0.760335  0.279873  1
  Pr  Pr1  1  0.819775  0.189260  0.586160  1
  Pr  Pr2  1  0.174838  0.811556  0.422444  1
  Pr  Pr3  1  0.146136  0.714454  0.149419  1
  Y  Y4  1  0.452052  0.494100  0.318375  1
  Y  Y5  1  0.548027  0.672771  0.013014  1
  Y  Y6  1  0.276007  0.980993  0.106559  1
  Y  Y7  1  0.854379  0.287796  0.849901  1
  Y  Y8  1  0.412953  0.240430  0.719538  1
  Y  Y9  1  0.719528  0.027468  0.890635  1
  Y  Y10  1  0.552019  0.496911  0.681681  1
  Y  Y11  1  0.458976  0.326729  0.977403  1
  Fe  Fe12  1  0.364153  0.739004  0.213827  1
  Fe  Fe13  1  0.636135  0.260980  0.784886  1
  I  I14  1  0.059296  0.105844  0.317019  1
  I  I15  1  0.466322  0.947218  0.846047  1
  I  I16  1  0.435277  0.801632  0.548931  1
  I  I17  1  0.556993  0.193125  0.460793  1
  I  I18  1  0.832605  0.718642  0.036275  1
  I  I19  1  0.237050  0.414845  0.231769  1
  I  I20  1  0.685728  0.375971  0.101189  1
  I  I21  1  0.527673  0.056655  0.152687  1
  I  I22  1  0.737001  0.472458  0.418263  1
  I  I23  1  0.883302  0.785246  0.370382  1
  I  I24  1  0.941987  0.892635  0.686424  1
  I  I25  1  0.166545  0.284341  0.954303  1
  I  I26  1  0.322181  0.626295  0.894393  1
  I  I27  1  0.996480  0.006360  0.001660  1
  I  I28  1  0.114332  0.218014  0.641595  1
  I  I29  1  0.773691  0.577076  0.766182  1
  I  I30  1  0.263793  0.520854  0.578372  1
