# generated using pymatgen
data_Hf2Nb2SiAs
_symmetry_space_group_name_H-M   'P 1'
_cell_length_a   3.61211700
_cell_length_b   7.01416800
_cell_length_c   8.51750200
_cell_angle_alpha   90.00000000
_cell_angle_beta   90.00000000
_cell_angle_gamma   90.00000000
_symmetry_Int_Tables_number   1
_chemical_formula_structural   Hf2Nb2SiAs
_chemical_formula_sum   'Hf4 Nb4 Si2 As2'
_cell_volume   215.79939212
_cell_formula_units_Z   2
loop_
 _symmetry_equiv_pos_site_id
 _symmetry_equiv_pos_as_xyz
  1  'x, y, z'
loop_
 _atom_site_type_symbol
 _atom_site_label
 _atom_site_symmetry_multiplicity
 _atom_site_fract_x
 _atom_site_fract_y
 _atom_site_fract_z
 _atom_site_occupancy
  Hf  Hf0  1  0.250000  0.043409  0.662458  1
  Hf  Hf1  1  0.250000  0.543409  0.837542  1
  Hf  Hf2  1  0.750000  0.460358  0.169037  1
  Hf  Hf3  1  0.750000  0.960358  0.330963  1
  Nb  Nb4  1  0.750000  0.862050  0.941551  1
  Nb  Nb5  1  0.250000  0.632627  0.437417  1
  Nb  Nb6  1  0.750000  0.362050  0.558449  1
  Nb  Nb7  1  0.250000  0.132627  0.062583  1
  Si  Si8  1  0.250000  0.256995  0.357718  1
  Si  Si9  1  0.250000  0.756995  0.142282  1
  As  As10  1  0.750000  0.744561  0.640944  1
  As  As11  1  0.750000  0.244561  0.859056  1
