# generated using pymatgen
data_CdGa2(SeO3)4
_symmetry_space_group_name_H-M   'P 1'
_cell_length_a   4.72040700
_cell_length_b   8.70244141
_cell_length_c   15.88121477
_cell_angle_alpha   72.30496076
_cell_angle_beta   90.00027822
_cell_angle_gamma   89.99889129
_symmetry_Int_Tables_number   1
_chemical_formula_structural   CdGa2(SeO3)4
_chemical_formula_sum   'Cd2 Ga4 Se8 O24'
_cell_volume   621.51966862
_cell_formula_units_Z   2
loop_
 _symmetry_equiv_pos_site_id
 _symmetry_equiv_pos_as_xyz
  1  'x, y, z'
loop_
 _atom_site_type_symbol
 _atom_site_label
 _atom_site_symmetry_multiplicity
 _atom_site_fract_x
 _atom_site_fract_y
 _atom_site_fract_z
 _atom_site_occupancy
  Cd  Cd0  1  0.000000  0.000000  0.000000  1
  Cd  Cd1  1  0.500000  0.000000  0.500000  1
  Ga  Ga2  1  0.522321  0.143162  0.789830  1
  Ga  Ga3  1  0.977665  0.143167  0.289832  1
  Ga  Ga4  1  0.477679  0.856838  0.210170  1
  Ga  Ga5  1  0.022335  0.856833  0.710168  1
  Se  Se6  1  0.550055  0.792015  0.870906  1
  Se  Se7  1  0.949972  0.792019  0.370909  1
  Se  Se8  1  0.449945  0.207985  0.129094  1
  Se  Se9  1  0.050028  0.207981  0.629091  1
  Se  Se10  1  0.013432  0.343502  0.863521  1
  Se  Se11  1  0.486547  0.343505  0.363524  1
  Se  Se12  1  0.986568  0.656498  0.136479  1
  Se  Se13  1  0.513453  0.656495  0.636476  1
  O  O14  1  0.746956  0.327882  0.790915  1
  O  O15  1  0.753024  0.327885  0.290920  1
  O  O16  1  0.253044  0.672118  0.209085  1
  O  O17  1  0.246976  0.672115  0.709080  1
  O  O18  1  0.822911  0.731472  0.817334  1
  O  O19  1  0.677112  0.731476  0.317338  1
  O  O20  1  0.177089  0.268528  0.182666  1
  O  O21  1  0.322888  0.268524  0.682662  1
  O  O22  1  0.226638  0.171188  0.871793  1
  O  O23  1  0.273353  0.171191  0.371794  1
  O  O24  1  0.773362  0.828812  0.128207  1
  O  O25  1  0.726647  0.828809  0.628206  1
  O  O26  1  0.679397  0.963279  0.893897  1
  O  O27  1  0.820612  0.963283  0.393899  1
  O  O28  1  0.320603  0.036721  0.106103  1
  O  O29  1  0.179388  0.036717  0.606101  1
  O  O30  1  0.337723  0.920307  0.787425  1
  O  O31  1  0.162284  0.920311  0.287428  1
  O  O32  1  0.662277  0.079693  0.212575  1
  O  O33  1  0.837716  0.079689  0.712572  1
  O  O34  1  0.872460  0.266034  0.966472  1
  O  O35  1  0.627525  0.266036  0.466475  1
  O  O36  1  0.127540  0.733966  0.033528  1
  O  O37  1  0.372475  0.733964  0.533525  1
