# generated using pymatgen
data_U7NbSb10
_symmetry_space_group_name_H-M   'P 1'
_cell_length_a   9.28501800
_cell_length_b   9.28501797
_cell_length_c   6.15211100
_cell_angle_alpha   90.00000000
_cell_angle_beta   90.00000000
_cell_angle_gamma   119.99999300
_symmetry_Int_Tables_number   1
_chemical_formula_structural   U7NbSb10
_chemical_formula_sum   'U7 Nb1 Sb10'
_cell_volume   459.32525349
_cell_formula_units_Z   1
loop_
 _symmetry_equiv_pos_site_id
 _symmetry_equiv_pos_as_xyz
  1  'x, y, z'
loop_
 _atom_site_type_symbol
 _atom_site_label
 _atom_site_symmetry_multiplicity
 _atom_site_fract_x
 _atom_site_fract_y
 _atom_site_fract_z
 _atom_site_occupancy
  U  U0  1  0.000000  0.000000  0.000000  1
  U  U1  1  0.000000  0.616548  0.247402  1
  U  U2  1  0.000000  0.383452  0.752598  1
  U  U3  1  0.383452  0.000000  0.752598  1
  U  U4  1  0.383452  0.383452  0.247402  1
  U  U5  1  0.616548  0.000000  0.247402  1
  U  U6  1  0.616548  0.616548  0.752598  1
  Nb  Nb7  1  0.000000  0.000000  0.500000  1
  Sb  Sb8  1  0.666667  0.333333  0.000000  1
  Sb  Sb9  1  0.725094  0.000000  0.739597  1
  Sb  Sb10  1  0.333333  0.666667  0.500000  1
  Sb  Sb11  1  0.274906  0.274906  0.739597  1
  Sb  Sb12  1  0.000000  0.725094  0.739597  1
  Sb  Sb13  1  0.274906  0.000000  0.260403  1
  Sb  Sb14  1  0.666667  0.333333  0.500000  1
  Sb  Sb15  1  0.725094  0.725094  0.260403  1
  Sb  Sb16  1  0.333333  0.666667  0.000000  1
  Sb  Sb17  1  0.000000  0.274906  0.260403  1
