# generated using pymatgen
data_Gd2SiI
_symmetry_space_group_name_H-M   'P 1'
_cell_length_a   7.81727290
_cell_length_b   7.81727365
_cell_length_c   7.81727219
_cell_angle_alpha   31.74291497
_cell_angle_beta   31.74290487
_cell_angle_gamma   31.74290099
_symmetry_Int_Tables_number   1
_chemical_formula_structural   Gd2SiI
_chemical_formula_sum   'Gd2 Si1 I1'
_cell_volume   117.43458394
_cell_formula_units_Z   1
loop_
 _symmetry_equiv_pos_site_id
 _symmetry_equiv_pos_as_xyz
  1  'x, y, z'
loop_
 _atom_site_type_symbol
 _atom_site_label
 _atom_site_symmetry_multiplicity
 _atom_site_fract_x
 _atom_site_fract_y
 _atom_site_fract_z
 _atom_site_occupancy
  Gd  Gd0  1  0.231830  0.231830  0.231830  1
  Gd  Gd1  1  0.768170  0.768170  0.768170  1
  Si  Si2  1  0.500000  0.500000  0.500000  1
  I  I3  1  0.000000  0.000000  0.000000  1
