# generated using pymatgen
data_Tm8Lu2(GaSb)3
_symmetry_space_group_name_H-M   'P 1'
_cell_length_a   8.69546506
_cell_length_b   8.71736722
_cell_length_c   6.35579400
_cell_angle_alpha   89.99843572
_cell_angle_beta   89.99333836
_cell_angle_gamma   119.70949494
_symmetry_Int_Tables_number   1
_chemical_formula_structural   Tm8Lu2(GaSb)3
_chemical_formula_sum   'Tm8 Lu2 Ga3 Sb3'
_cell_volume   418.44895324
_cell_formula_units_Z   1
loop_
 _symmetry_equiv_pos_site_id
 _symmetry_equiv_pos_as_xyz
  1  'x, y, z'
loop_
 _atom_site_type_symbol
 _atom_site_label
 _atom_site_symmetry_multiplicity
 _atom_site_fract_x
 _atom_site_fract_y
 _atom_site_fract_z
 _atom_site_occupancy
  Tm  Tm0  1  0.666071  0.322615  0.002943  1
  Tm  Tm1  1  0.333732  0.683714  0.496951  1
  Tm  Tm2  1  0.232725  0.985921  0.250017  1
  Tm  Tm3  1  0.757768  0.002129  0.749995  1
  Tm  Tm4  1  0.984159  0.233431  0.249971  1
  Tm  Tm5  1  0.763292  0.763783  0.250031  1
  Tm  Tm6  1  0.245476  0.231063  0.749904  1
  Tm  Tm7  1  0.015858  0.771823  0.750107  1
  Lu  Lu8  1  0.333489  0.684527  0.003558  1
  Lu  Lu9  1  0.666311  0.322061  0.496485  1
  Ga  Ga10  1  0.602918  0.998620  0.249836  1
  Ga  Ga11  1  0.402228  0.004504  0.749947  1
  Ga  Ga12  1  0.993786  0.601498  0.250206  1
  Sb  Sb13  1  0.386346  0.391070  0.249965  1
  Sb  Sb14  1  0.609624  0.607021  0.749991  1
  Sb  Sb15  1  0.006219  0.396217  0.750094  1
