# generated using pymatgen
data_Zr8Co2TcOs
_symmetry_space_group_name_H-M   'P 1'
_cell_length_a   8.69645518
_cell_length_b   8.69645482
_cell_length_c   8.69656700
_cell_angle_alpha   59.99957708
_cell_angle_beta   59.99957846
_cell_angle_gamma   59.92955786
_symmetry_Int_Tables_number   1
_chemical_formula_structural   Zr8Co2TcOs
_chemical_formula_sum   'Zr16 Co4 Tc2 Os2'
_cell_volume   464.81790749
_cell_formula_units_Z   2
loop_
 _symmetry_equiv_pos_site_id
 _symmetry_equiv_pos_as_xyz
  1  'x, y, z'
loop_
 _atom_site_type_symbol
 _atom_site_label
 _atom_site_symmetry_multiplicity
 _atom_site_fract_x
 _atom_site_fract_y
 _atom_site_fract_z
 _atom_site_occupancy
  Zr  Zr0  1  0.052500  0.649409  0.649046  1
  Zr  Zr1  1  0.649409  0.052500  0.649046  1
  Zr  Zr2  1  0.649282  0.649282  0.052589  1
  Zr  Zr3  1  0.649282  0.649282  0.648849  1
  Zr  Zr4  1  0.797073  0.797073  0.202927  1
  Zr  Zr5  1  0.202522  0.202522  0.797478  1
  Zr  Zr6  1  0.797519  0.202782  0.796795  1
  Zr  Zr7  1  0.202782  0.797519  0.202903  1
  Zr  Zr8  1  0.202782  0.797519  0.796795  1
  Zr  Zr9  1  0.797519  0.202782  0.202903  1
  Zr  Zr10  1  0.435305  0.435305  0.064695  1
  Zr  Zr11  1  0.064196  0.064196  0.435804  1
  Zr  Zr12  1  0.435412  0.064643  0.435460  1
  Zr  Zr13  1  0.064643  0.435412  0.064484  1
  Zr  Zr14  1  0.064643  0.435412  0.435460  1
  Zr  Zr15  1  0.435412  0.064643  0.064484  1
  Co  Co16  1  0.420204  0.859753  0.860021  1
  Co  Co17  1  0.859753  0.420204  0.860021  1
  Co  Co18  1  0.859739  0.859739  0.420551  1
  Co  Co19  1  0.859739  0.859739  0.859970  1
  Tc  Tc20  1  0.418116  0.418116  0.745811  1
  Tc  Tc21  1  0.418116  0.418116  0.417958  1
  Os  Os22  1  0.745639  0.418415  0.417973  1
  Os  Os23  1  0.418415  0.745639  0.417973  1
