# generated using pymatgen
data_SrUCo12Si2P5
_symmetry_space_group_name_H-M   'P 1'
_cell_length_a   9.16012491
_cell_length_b   9.13933575
_cell_length_c   3.58565400
_cell_angle_alpha   90.00066333
_cell_angle_beta   89.99984956
_cell_angle_gamma   120.27588669
_symmetry_Int_Tables_number   1
_chemical_formula_structural   SrUCo12Si2P5
_chemical_formula_sum   'Sr1 U1 Co12 Si2 P5'
_cell_volume   259.23937618
_cell_formula_units_Z   1
loop_
 _symmetry_equiv_pos_site_id
 _symmetry_equiv_pos_as_xyz
  1  'x, y, z'
loop_
 _atom_site_type_symbol
 _atom_site_label
 _atom_site_symmetry_multiplicity
 _atom_site_fract_x
 _atom_site_fract_y
 _atom_site_fract_z
 _atom_site_occupancy
  Sr  Sr0  1  0.335035  0.666762  0.499999  1
  U  U1  1  0.001811  0.998036  0.000004  1
  Co  Co2  1  0.101071  0.379138  0.000002  1
  Co  Co3  1  0.614004  0.717136  0.999995  1
  Co  Co4  1  0.289282  0.904145  0.000002  1
  Co  Co5  1  0.041045  0.778087  0.500003  1
  Co  Co6  1  0.225960  0.266645  0.499997  1
  Co  Co7  1  0.731915  0.957911  0.500000  1
  Co  Co8  1  0.815007  0.611297  0.999994  1
  Co  Co9  1  0.390989  0.212565  0.000002  1
  Co  Co10  1  0.791248  0.177869  0.000003  1
  Co  Co11  1  0.898905  0.436583  0.499995  1
  Co  Co12  1  0.556889  0.463564  0.499995  1
  Co  Co13  1  0.540002  0.098599  0.500006  1
  Si  Si14  1  0.668736  0.333216  0.000001  1
  Si  Si15  1  0.062053  0.620149  0.999998  1
  P  P16  1  0.769647  0.731867  0.499997  1
  P  P17  1  0.271182  0.041131  0.500003  1
  P  P18  1  0.960262  0.227505  0.500002  1
  P  P19  1  0.377130  0.442967  0.999997  1
  P  P20  1  0.557831  0.934822  0.000003  1
