# generated using pymatgen
data_Y2PuS3
_symmetry_space_group_name_H-M   'P 1'
_cell_length_a   3.95178400
_cell_length_b   3.95178508
_cell_length_c   9.52623400
_cell_angle_alpha   90.00000000
_cell_angle_beta   90.00000000
_cell_angle_gamma   120.00000773
_symmetry_Int_Tables_number   1
_chemical_formula_structural   Y2PuS3
_chemical_formula_sum   'Y2 Pu1 S3'
_cell_volume   128.83633395
_cell_formula_units_Z   1
loop_
 _symmetry_equiv_pos_site_id
 _symmetry_equiv_pos_as_xyz
  1  'x, y, z'
loop_
 _atom_site_type_symbol
 _atom_site_label
 _atom_site_symmetry_multiplicity
 _atom_site_fract_x
 _atom_site_fract_y
 _atom_site_fract_z
 _atom_site_occupancy
  Y  Y0  1  0.333333  0.666667  0.668551  1
  Y  Y1  1  0.666667  0.333333  0.331449  1
  Pu  Pu2  1  0.000000  0.000000  0.000000  1
  S  S3  1  0.333333  0.666667  0.167281  1
  S  S4  1  0.666667  0.333333  0.832719  1
  S  S5  1  0.000000  0.000000  0.500000  1
