# generated using pymatgen
data_SmGd3(CBr)2
_symmetry_space_group_name_H-M   'P 1'
_cell_length_a   3.74005900
_cell_length_b   3.74005729
_cell_length_c   14.45989400
_cell_angle_alpha   90.00000000
_cell_angle_beta   90.00000000
_cell_angle_gamma   119.99998857
_symmetry_Int_Tables_number   1
_chemical_formula_structural   SmGd3(CBr)2
_chemical_formula_sum   'Sm1 Gd3 C2 Br2'
_cell_volume   175.16708362
_cell_formula_units_Z   1
loop_
 _symmetry_equiv_pos_site_id
 _symmetry_equiv_pos_as_xyz
  1  'x, y, z'
loop_
 _atom_site_type_symbol
 _atom_site_label
 _atom_site_symmetry_multiplicity
 _atom_site_fract_x
 _atom_site_fract_y
 _atom_site_fract_z
 _atom_site_occupancy
  Sm  Sm0  1  0.333333  0.666667  0.091705  1
  Gd  Gd1  1  0.666667  0.333333  0.589824  1
  Gd  Gd2  1  0.666667  0.333333  0.910048  1
  Gd  Gd3  1  0.333333  0.666667  0.410174  1
  C  C4  1  0.000000  0.000000  0.997149  1
  C  C5  1  0.000000  0.000000  0.499862  1
  Br  Br6  1  0.333333  0.666667  0.748824  1
  Br  Br7  1  0.666667  0.333333  0.252414  1
