# generated using pymatgen
data_Ba2Na2YbSb4
_symmetry_space_group_name_H-M   'P 1'
_cell_length_a   8.02718000
_cell_length_b   8.85311798
_cell_length_c   18.82863600
_cell_angle_alpha   62.12715653
_cell_angle_beta   90.00000000
_cell_angle_gamma   90.00000000
_symmetry_Int_Tables_number   1
_chemical_formula_structural   Ba2Na2YbSb4
_chemical_formula_sum   'Ba8 Na8 Yb4 Sb16'
_cell_volume   1182.83494485
_cell_formula_units_Z   4
loop_
 _symmetry_equiv_pos_site_id
 _symmetry_equiv_pos_as_xyz
  1  'x, y, z'
loop_
 _atom_site_type_symbol
 _atom_site_label
 _atom_site_symmetry_multiplicity
 _atom_site_fract_x
 _atom_site_fract_y
 _atom_site_fract_z
 _atom_site_occupancy
  Ba  Ba0  1  0.992305  0.778827  0.405178  1
  Ba  Ba1  1  0.492305  0.221173  0.094822  1
  Ba  Ba2  1  0.005682  0.916319  0.903517  1
  Ba  Ba3  1  0.505682  0.083681  0.596483  1
  Ba  Ba4  1  0.007695  0.221173  0.594822  1
  Ba  Ba5  1  0.507695  0.778827  0.905178  1
  Ba  Ba6  1  0.994318  0.083681  0.096483  1
  Ba  Ba7  1  0.494318  0.916319  0.403517  1
  Na  Na8  1  0.651746  0.756876  0.247934  1
  Na  Na9  1  0.151746  0.243124  0.252066  1
  Na  Na10  1  0.348254  0.243124  0.752066  1
  Na  Na11  1  0.848254  0.756876  0.747934  1
  Na  Na12  1  0.823449  0.292652  0.375316  1
  Na  Na13  1  0.323449  0.707348  0.124684  1
  Na  Na14  1  0.176551  0.707348  0.624684  1
  Na  Na15  1  0.676551  0.292652  0.875316  1
  Yb  Yb16  1  0.173467  0.455967  0.872708  1
  Yb  Yb17  1  0.673467  0.544033  0.627292  1
  Yb  Yb18  1  0.826533  0.544033  0.127292  1
  Yb  Yb19  1  0.326533  0.455967  0.372708  1
  Sb  Sb20  1  0.522561  0.364061  0.247211  1
  Sb  Sb21  1  0.022561  0.635939  0.252789  1
  Sb  Sb22  1  0.477439  0.635939  0.752789  1
  Sb  Sb23  1  0.977439  0.364061  0.747211  1
  Sb  Sb24  1  0.779507  0.132063  0.247877  1
  Sb  Sb25  1  0.279507  0.867937  0.252123  1
  Sb  Sb26  1  0.220493  0.867937  0.752123  1
  Sb  Sb27  1  0.720493  0.132063  0.747877  1
  Sb  Sb28  1  0.655901  0.498431  0.461020  1
  Sb  Sb29  1  0.155901  0.501569  0.038980  1
  Sb  Sb30  1  0.342066  0.080891  0.959819  1
  Sb  Sb31  1  0.842066  0.919109  0.540181  1
  Sb  Sb32  1  0.344099  0.501569  0.538980  1
  Sb  Sb33  1  0.844099  0.498431  0.961020  1
  Sb  Sb34  1  0.657934  0.919109  0.040181  1
  Sb  Sb35  1  0.157934  0.080891  0.459819  1
