# generated using pymatgen
data_DyY3Al18CuIr5
_symmetry_space_group_name_H-M   'P 1'
_cell_length_a   7.57298484
_cell_length_b   7.57255020
_cell_length_c   9.46687420
_cell_angle_alpha   90.08253600
_cell_angle_beta   90.09307243
_cell_angle_gamma   119.70169493
_symmetry_Int_Tables_number   1
_chemical_formula_structural   DyY3Al18CuIr5
_chemical_formula_sum   'Dy1 Y3 Al18 Cu1 Ir5'
_cell_volume   471.56556496
_cell_formula_units_Z   1
loop_
 _symmetry_equiv_pos_site_id
 _symmetry_equiv_pos_as_xyz
  1  'x, y, z'
loop_
 _atom_site_type_symbol
 _atom_site_label
 _atom_site_symmetry_multiplicity
 _atom_site_fract_x
 _atom_site_fract_y
 _atom_site_fract_z
 _atom_site_occupancy
  Dy  Dy0  1  0.329506  0.004624  0.249780  1
  Y  Y1  1  0.995301  0.670548  0.750172  1
  Y  Y2  1  0.004689  0.329429  0.249841  1
  Y  Y3  1  0.670579  0.995313  0.750165  1
  Al  Al4  1  0.128303  0.128300  0.750752  1
  Al  Al5  1  0.871870  0.871679  0.249274  1
  Al  Al6  1  0.001078  0.337904  0.576540  1
  Al  Al7  1  0.999067  0.662262  0.423315  1
  Al  Al8  1  0.999947  0.666159  0.073646  1
  Al  Al9  1  0.333942  0.000192  0.926591  1
  Al  Al10  1  0.000173  0.333945  0.926464  1
  Al  Al11  1  0.665915  0.999816  0.073675  1
  Al  Al12  1  0.661975  0.998913  0.423322  1
  Al  Al13  1  0.337870  0.001097  0.576397  1
  Al  Al14  1  0.333374  0.333266  0.052329  1
  Al  Al15  1  0.666639  0.666641  0.947788  1
  Al  Al16  1  0.663603  0.663619  0.554716  1
  Al  Al17  1  0.336358  0.336232  0.445143  1
  Al  Al18  1  0.338626  0.547737  0.750351  1
  Al  Al19  1  0.661172  0.452105  0.249649  1
  Al  Al20  1  0.547754  0.338608  0.750355  1
  Al  Al21  1  0.452314  0.661568  0.249648  1
  Cu  Cu22  1  0.999993  0.000001  0.500002  1
  Ir  Ir23  1  0.671693  0.328129  0.499946  1
  Ir  Ir24  1  0.328216  0.671880  0.499919  1
  Ir  Ir25  1  0.328231  0.671873  0.000073  1
  Ir  Ir26  1  0.671665  0.328135  0.000059  1
  Ir  Ir27  1  0.000146  0.000024  0.000087  1
