# generated using pymatgen
data_CeY5RhBr10
_symmetry_space_group_name_H-M   'P 1'
_cell_length_a   7.37719658
_cell_length_b   9.22898104
_cell_length_c   9.34416300
_cell_angle_alpha   107.38470642
_cell_angle_beta   96.99968619
_cell_angle_gamma   104.30942634
_symmetry_Int_Tables_number   1
_chemical_formula_structural   CeY5RhBr10
_chemical_formula_sum   'Ce1 Y5 Rh1 Br10'
_cell_volume   574.96412283
_cell_formula_units_Z   1
loop_
 _symmetry_equiv_pos_site_id
 _symmetry_equiv_pos_as_xyz
  1  'x, y, z'
loop_
 _atom_site_type_symbol
 _atom_site_label
 _atom_site_symmetry_multiplicity
 _atom_site_fract_x
 _atom_site_fract_y
 _atom_site_fract_z
 _atom_site_occupancy
  Ce  Ce0  1  0.534509  0.202810  0.409927  1
  Y  Y1  1  0.465133  0.785832  0.586583  1
  Y  Y2  1  0.136250  0.369879  0.322448  1
  Y  Y3  1  0.864361  0.635538  0.678916  1
  Y  Y4  1  0.624579  0.545757  0.248516  1
  Y  Y5  1  0.377384  0.453118  0.752203  1
  Rh  Rh6  1  0.501526  0.495134  0.499048  1
  Br  Br7  1  0.138785  0.053373  0.226219  1
  Br  Br8  1  0.841330  0.946602  0.767412  1
  Br  Br9  1  0.249574  0.418107  0.042654  1
  Br  Br10  1  0.751313  0.587122  0.958592  1
  Br  Br11  1  0.727128  0.253985  0.149011  1
  Br  Br12  1  0.282763  0.753903  0.842796  1
  Br  Br13  1  0.047596  0.680465  0.414152  1
  Br  Br14  1  0.963202  0.328128  0.593187  1
  Br  Br15  1  0.409911  0.127627  0.684043  1
  Br  Br16  1  0.584656  0.862620  0.324290  1
