# generated using pymatgen
data_NaPd2Cl9
_symmetry_space_group_name_H-M   'P 1'
_cell_length_a   7.28283953
_cell_length_b   6.82630369
_cell_length_c   17.69359643
_cell_angle_alpha   88.25444533
_cell_angle_beta   95.36048636
_cell_angle_gamma   122.29655986
_symmetry_Int_Tables_number   1
_chemical_formula_structural   NaPd2Cl9
_chemical_formula_sum   'Na2 Pd4 Cl18'
_cell_volume   740.10041234
_cell_formula_units_Z   2
loop_
 _symmetry_equiv_pos_site_id
 _symmetry_equiv_pos_as_xyz
  1  'x, y, z'
loop_
 _atom_site_type_symbol
 _atom_site_label
 _atom_site_symmetry_multiplicity
 _atom_site_fract_x
 _atom_site_fract_y
 _atom_site_fract_z
 _atom_site_occupancy
  Na  Na0  1  0.907892  0.243316  0.535343  1
  Na  Na1  1  0.171037  0.749413  0.032325  1
  Pd  Pd2  1  0.839291  0.015384  0.171484  1
  Pd  Pd3  1  0.681622  0.029803  0.329033  1
  Pd  Pd4  1  0.323271  0.987325  0.672702  1
  Pd  Pd5  1  0.150999  0.967554  0.830438  1
  Cl  Cl6  1  0.956623  0.125785  0.859624  1
  Cl  Cl7  1  0.779548  0.359892  0.397054  1
  Cl  Cl8  1  0.693971  0.182912  0.661378  1
  Cl  Cl9  1  0.641834  0.184879  0.207570  1
  Cl  Cl10  1  0.955478  0.811586  0.706556  1
  Cl  Cl11  1  0.747835  0.869911  0.436242  1
  Cl  Cl12  1  0.592493  0.708675  0.248528  1
  Cl  Cl13  1  0.619062  0.848607  0.059827  1
  Cl  Cl14  1  0.377549  0.129010  0.940013  1
  Cl  Cl15  1  0.379783  0.291321  0.754903  1
  Cl  Cl16  1  0.264946  0.150907  0.563800  1
  Cl  Cl17  1  0.045238  0.184538  0.290315  1
  Cl  Cl18  1  0.364443  0.820274  0.788668  1
  Cl  Cl19  1  0.095954  0.328283  0.106118  1
  Cl  Cl20  1  0.326694  0.864618  0.355053  1
  Cl  Cl21  1  0.271105  0.678140  0.602024  1
  Cl  Cl22  1  0.018988  0.825608  0.157449  1
  Cl  Cl23  1  0.922168  0.634430  0.893166  1
