# generated using pymatgen
data_Ho16In4CoIrPt2
_symmetry_space_group_name_H-M   'P 1'
_cell_length_a   9.61112581
_cell_length_b   9.60788902
_cell_length_c   9.62800876
_cell_angle_alpha   60.14867456
_cell_angle_beta   60.05759727
_cell_angle_gamma   59.98767436
_symmetry_Int_Tables_number   1
_chemical_formula_structural   Ho16In4CoIrPt2
_chemical_formula_sum   'Ho16 In4 Co1 Ir1 Pt2'
_cell_volume   629.59002497
_cell_formula_units_Z   1
loop_
 _symmetry_equiv_pos_site_id
 _symmetry_equiv_pos_as_xyz
  1  'x, y, z'
loop_
 _atom_site_type_symbol
 _atom_site_label
 _atom_site_symmetry_multiplicity
 _atom_site_fract_x
 _atom_site_fract_y
 _atom_site_fract_z
 _atom_site_occupancy
  Ho  Ho0  1  0.440055  0.436141  0.061502  1
  Ho  Ho1  1  0.653505  0.641895  0.051089  1
  Ho  Ho2  1  0.187458  0.808630  0.194272  1
  Ho  Ho3  1  0.062290  0.436143  0.061494  1
  Ho  Ho4  1  0.191389  0.809229  0.808007  1
  Ho  Ho5  1  0.062587  0.437855  0.436957  1
  Ho  Ho6  1  0.810623  0.193472  0.185302  1
  Ho  Ho7  1  0.657348  0.646602  0.652527  1
  Ho  Ho8  1  0.811172  0.197723  0.809144  1
  Ho  Ho9  1  0.181977  0.197698  0.809149  1
  Ho  Ho10  1  0.043530  0.646585  0.652522  1
  Ho  Ho11  1  0.439913  0.059693  0.060477  1
  Ho  Ho12  1  0.061533  0.060024  0.436661  1
  Ho  Ho13  1  0.650020  0.054981  0.644974  1
  Ho  Ho14  1  0.809631  0.808633  0.194269  1
  Ho  Ho15  1  0.441780  0.060036  0.436651  1
  In  In16  1  0.416178  0.417243  0.416787  1
  In  In17  1  0.416401  0.418525  0.748677  1
  In  In18  1  0.417122  0.747778  0.417980  1
  In  In19  1  0.749795  0.417257  0.416770  1
  Co  Co20  1  0.857460  0.424056  0.861023  1
  Ir  Ir21  1  0.856883  0.860782  0.425461  1
  Pt  Pt22  1  0.426340  0.859513  0.859159  1
  Pt  Pt23  1  0.855008  0.859506  0.859148  1
