# generated using pymatgen
data_Ca3Tm5(Si4Mo3)4
_symmetry_space_group_name_H-M   'P 1'
_cell_length_a   6.72291488
_cell_length_b   6.93578948
_cell_length_c   12.94012871
_cell_angle_alpha   90.07332695
_cell_angle_beta   90.05271224
_cell_angle_gamma   90.08210084
_symmetry_Int_Tables_number   1
_chemical_formula_structural   Ca3Tm5(Si4Mo3)4
_chemical_formula_sum   'Ca3 Tm5 Si16 Mo12'
_cell_volume   603.38029800
_cell_formula_units_Z   1
loop_
 _symmetry_equiv_pos_site_id
 _symmetry_equiv_pos_as_xyz
  1  'x, y, z'
loop_
 _atom_site_type_symbol
 _atom_site_label
 _atom_site_symmetry_multiplicity
 _atom_site_fract_x
 _atom_site_fract_y
 _atom_site_fract_z
 _atom_site_occupancy
  Ca  Ca0  1  0.003281  0.834184  0.591199  1
  Ca  Ca1  1  0.497999  0.332585  0.408924  1
  Ca  Ca2  1  0.997886  0.167707  0.091351  1
  Tm  Tm3  1  0.498925  0.329485  0.094301  1
  Tm  Tm4  1  0.999109  0.169884  0.406003  1
  Tm  Tm5  1  0.502488  0.668634  0.593968  1
  Tm  Tm6  1  0.003093  0.831087  0.906241  1
  Tm  Tm7  1  0.503329  0.668470  0.905700  1
  Si  Si8  1  0.659755  0.041738  0.547098  1
  Si  Si9  1  0.162036  0.458358  0.953910  1
  Si  Si10  1  0.339205  0.956899  0.044559  1
  Si  Si11  1  0.840588  0.542401  0.454302  1
  Si  Si12  1  0.340324  0.957865  0.454400  1
  Si  Si13  1  0.838094  0.542784  0.044839  1
  Si  Si14  1  0.660585  0.042139  0.953983  1
  Si  Si15  1  0.159411  0.458052  0.546938  1
  Si  Si16  1  0.532870  0.369278  0.749843  1
  Si  Si17  1  0.032718  0.131826  0.751195  1
  Si  Si18  1  0.466115  0.628569  0.250070  1
  Si  Si19  1  0.966090  0.869576  0.249984  1
  Si  Si20  1  0.803848  0.633249  0.749395  1
  Si  Si21  1  0.301499  0.868511  0.749334  1
  Si  Si22  1  0.197783  0.368722  0.250002  1
  Si  Si23  1  0.698185  0.130027  0.249906  1
  Mo  Mo24  1  0.830133  0.335846  0.626448  1
  Mo  Mo25  1  0.331096  0.163091  0.874828  1
  Mo  Mo26  1  0.169609  0.665182  0.125642  1
  Mo  Mo27  1  0.667684  0.833532  0.373435  1
  Mo  Mo28  1  0.169538  0.665595  0.373840  1
  Mo  Mo29  1  0.666496  0.832200  0.124975  1
  Mo  Mo30  1  0.827614  0.339276  0.874820  1
  Mo  Mo31  1  0.330774  0.164879  0.626801  1
  Mo  Mo32  1  0.663806  0.001451  0.751219  1
  Mo  Mo33  1  0.164886  0.497577  0.751643  1
  Mo  Mo34  1  0.336614  0.994566  0.249080  1
  Mo  Mo35  1  0.836533  0.504774  0.249823  1
