# generated using pymatgen
data_Nb2I3BrO2
_symmetry_space_group_name_H-M   'P 1'
_cell_length_a   8.32037726
_cell_length_b   8.32214142
_cell_length_c   7.50312782
_cell_angle_alpha   76.34198913
_cell_angle_beta   76.33224266
_cell_angle_gamma   27.45008913
_symmetry_Int_Tables_number   1
_chemical_formula_structural   Nb2I3BrO2
_chemical_formula_sum   'Nb2 I3 Br1 O2'
_cell_volume   232.30843689
_cell_formula_units_Z   1
loop_
 _symmetry_equiv_pos_site_id
 _symmetry_equiv_pos_as_xyz
  1  'x, y, z'
loop_
 _atom_site_type_symbol
 _atom_site_label
 _atom_site_symmetry_multiplicity
 _atom_site_fract_x
 _atom_site_fract_y
 _atom_site_fract_z
 _atom_site_occupancy
  Nb  Nb0  1  0.016022  0.986628  0.792274  1
  Nb  Nb1  1  0.015350  0.987464  0.206555  1
  I  I2  1  0.105925  0.142431  0.435189  1
  I  I3  1  0.861498  0.900165  0.562229  1
  I  I4  1  0.840998  0.866545  0.076623  1
  Br  Br5  1  0.121184  0.149617  0.929085  1
  O  O6  1  0.488942  0.513685  0.783189  1
  O  O7  1  0.488944  0.514603  0.214856  1
