# generated using pymatgen
data_DyYAl9CuRh2
_symmetry_space_group_name_H-M   'P 1'
_cell_length_a   7.56956412
_cell_length_b   7.56978917
_cell_length_c   9.41467900
_cell_angle_alpha   90.00000000
_cell_angle_beta   90.00000000
_cell_angle_gamma   119.79390782
_symmetry_Int_Tables_number   1
_chemical_formula_structural   DyYAl9CuRh2
_chemical_formula_sum   'Dy2 Y2 Al18 Cu2 Rh4'
_cell_volume   468.15425209
_cell_formula_units_Z   2
loop_
 _symmetry_equiv_pos_site_id
 _symmetry_equiv_pos_as_xyz
  1  'x, y, z'
loop_
 _atom_site_type_symbol
 _atom_site_label
 _atom_site_symmetry_multiplicity
 _atom_site_fract_x
 _atom_site_fract_y
 _atom_site_fract_z
 _atom_site_occupancy
  Dy  Dy0  1  0.994071  0.672359  0.250000  1
  Dy  Dy1  1  0.005929  0.327641  0.750000  1
  Y  Y2  1  0.672342  0.993949  0.250000  1
  Y  Y3  1  0.327658  0.006051  0.750000  1
  Al  Al4  1  0.127215  0.127100  0.250000  1
  Al  Al5  1  0.872785  0.872900  0.750000  1
  Al  Al6  1  0.999844  0.337422  0.074674  1
  Al  Al7  1  0.000156  0.662578  0.925326  1
  Al  Al8  1  0.000156  0.662578  0.574674  1
  Al  Al9  1  0.337262  0.999750  0.425242  1
  Al  Al10  1  0.999844  0.337422  0.425326  1
  Al  Al11  1  0.662738  0.000250  0.574758  1
  Al  Al12  1  0.662738  0.000250  0.925242  1
  Al  Al13  1  0.337262  0.999750  0.074758  1
  Al  Al14  1  0.335182  0.335258  0.553346  1
  Al  Al15  1  0.664818  0.664742  0.446654  1
  Al  Al16  1  0.664818  0.664742  0.053346  1
  Al  Al17  1  0.335182  0.335258  0.946654  1
  Al  Al18  1  0.337340  0.548071  0.250000  1
  Al  Al19  1  0.662660  0.451929  0.750000  1
  Al  Al20  1  0.548204  0.337583  0.250000  1
  Al  Al21  1  0.451796  0.662417  0.750000  1
  Cu  Cu22  1  0.000000  0.000000  0.000000  1
  Cu  Cu23  1  0.000000  0.000000  0.500000  1
  Rh  Rh24  1  0.671416  0.328653  0.000000  1
  Rh  Rh25  1  0.328584  0.671347  0.000000  1
  Rh  Rh26  1  0.328584  0.671347  0.500000  1
  Rh  Rh27  1  0.671416  0.328653  0.500000  1
