# generated using pymatgen
data_Zr6Zn6S
_symmetry_space_group_name_H-M   'P 1'
_cell_length_a   8.72327186
_cell_length_b   8.72327228
_cell_length_c   8.72327200
_cell_angle_alpha   60.00000104
_cell_angle_beta   59.99999949
_cell_angle_gamma   59.99999902
_symmetry_Int_Tables_number   1
_chemical_formula_structural   Zr6Zn6S
_chemical_formula_sum   'Zr12 Zn12 S2'
_cell_volume   469.37856284
_cell_formula_units_Z   2
loop_
 _symmetry_equiv_pos_site_id
 _symmetry_equiv_pos_as_xyz
  1  'x, y, z'
loop_
 _atom_site_type_symbol
 _atom_site_label
 _atom_site_symmetry_multiplicity
 _atom_site_fract_x
 _atom_site_fract_y
 _atom_site_fract_z
 _atom_site_occupancy
  Zr  Zr0  1  0.204447  0.795553  0.204447  1
  Zr  Zr1  1  0.454447  0.045553  0.454447  1
  Zr  Zr2  1  0.454447  0.045553  0.045553  1
  Zr  Zr3  1  0.454447  0.454447  0.045553  1
  Zr  Zr4  1  0.204447  0.795553  0.795553  1
  Zr  Zr5  1  0.045553  0.454447  0.045553  1
  Zr  Zr6  1  0.795553  0.795553  0.204447  1
  Zr  Zr7  1  0.045553  0.454447  0.454447  1
  Zr  Zr8  1  0.204447  0.204447  0.795553  1
  Zr  Zr9  1  0.795553  0.204447  0.204447  1
  Zr  Zr10  1  0.795553  0.204447  0.795553  1
  Zr  Zr11  1  0.045553  0.045553  0.454447  1
  Zn  Zn12  1  0.833171  0.500487  0.833171  1
  Zn  Zn13  1  0.416829  0.416829  0.749513  1
  Zn  Zn14  1  0.749513  0.416829  0.416829  1
  Zn  Zn15  1  0.416829  0.416829  0.416829  1
  Zn  Zn16  1  0.833171  0.833171  0.500487  1
  Zn  Zn17  1  0.416829  0.749513  0.416829  1
  Zn  Zn18  1  0.833171  0.833171  0.833171  1
  Zn  Zn19  1  0.500487  0.833171  0.833171  1
  Zn  Zn20  1  0.625000  0.125000  0.625000  1
  Zn  Zn21  1  0.625000  0.625000  0.125000  1
  Zn  Zn22  1  0.125000  0.625000  0.625000  1
  Zn  Zn23  1  0.625000  0.625000  0.625000  1
  S  S24  1  0.000000  0.000000  0.000000  1
  S  S25  1  0.250000  0.250000  0.250000  1
