# generated using pymatgen
data_Y3Er3(AuO7)2
_symmetry_space_group_name_H-M   'P 1'
_cell_length_a   6.47651267
_cell_length_b   6.47353934
_cell_length_c   7.41863200
_cell_angle_alpha   90.00000000
_cell_angle_beta   90.00000000
_cell_angle_gamma   108.70560334
_symmetry_Int_Tables_number   1
_chemical_formula_structural   Y3Er3(AuO7)2
_chemical_formula_sum   'Y3 Er3 Au2 O14'
_cell_volume   294.60415172
_cell_formula_units_Z   1
loop_
 _symmetry_equiv_pos_site_id
 _symmetry_equiv_pos_as_xyz
  1  'x, y, z'
loop_
 _atom_site_type_symbol
 _atom_site_label
 _atom_site_symmetry_multiplicity
 _atom_site_fract_x
 _atom_site_fract_y
 _atom_site_fract_z
 _atom_site_occupancy
  Y  Y0  1  0.500649  0.500408  0.499478  1
  Y  Y1  1  0.500649  0.500408  0.000522  1
  Y  Y2  1  0.002523  0.471863  0.750000  1
  Er  Er3  1  0.529095  0.998535  0.750000  1
  Er  Er4  1  0.998311  0.528700  0.250000  1
  Er  Er5  1  0.471177  0.002146  0.250000  1
  Au  Au6  1  0.999699  0.999807  0.499297  1
  Au  Au7  1  0.999699  0.999807  0.000703  1
  O  O8  1  0.669023  0.920936  0.475002  1
  O  O9  1  0.916886  0.668970  0.522070  1
  O  O10  1  0.669023  0.920936  0.024998  1
  O  O11  1  0.916886  0.668970  0.977930  1
  O  O12  1  0.330861  0.079033  0.524472  1
  O  O13  1  0.082217  0.330415  0.473557  1
  O  O14  1  0.330861  0.079033  0.975528  1
  O  O15  1  0.082217  0.330415  0.026443  1
  O  O16  1  0.917874  0.078178  0.750000  1
  O  O17  1  0.081670  0.919777  0.250000  1
  O  O18  1  0.369241  0.635715  0.750000  1
  O  O19  1  0.634173  0.365615  0.250000  1
  O  O20  1  0.637458  0.359207  0.750000  1
  O  O21  1  0.359809  0.641125  0.250000  1
