# generated using pymatgen
data_Lu2Th8Si8N3
_symmetry_space_group_name_H-M   'P 1'
_cell_length_a   10.48226800
_cell_length_b   10.48226989
_cell_length_c   4.49995300
_cell_angle_alpha   90.00000000
_cell_angle_beta   90.00000000
_cell_angle_gamma   119.59103001
_symmetry_Int_Tables_number   1
_chemical_formula_structural   Lu2Th8Si8N3
_chemical_formula_sum   'Lu2 Th8 Si8 N3'
_cell_volume   429.95622948
_cell_formula_units_Z   1
loop_
 _symmetry_equiv_pos_site_id
 _symmetry_equiv_pos_as_xyz
  1  'x, y, z'
loop_
 _atom_site_type_symbol
 _atom_site_label
 _atom_site_symmetry_multiplicity
 _atom_site_fract_x
 _atom_site_fract_y
 _atom_site_fract_z
 _atom_site_occupancy
  Lu  Lu0  1  0.500000  0.000000  0.500000  1
  Lu  Lu1  1  0.000000  0.500000  0.500000  1
  Th  Th2  1  0.212930  0.787070  0.000000  1
  Th  Th3  1  0.208752  0.429247  0.000000  1
  Th  Th4  1  0.791248  0.570753  0.000000  1
  Th  Th5  1  0.429247  0.208752  0.000000  1
  Th  Th6  1  0.000000  0.000000  0.000000  1
  Th  Th7  1  0.570753  0.791248  0.000000  1
  Th  Th8  1  0.787070  0.212930  0.000000  1
  Th  Th9  1  0.500000  0.500000  0.500000  1
  Si  Si10  1  0.670724  0.329276  0.500000  1
  Si  Si11  1  0.000734  0.773416  0.500000  1
  Si  Si12  1  0.329276  0.670724  0.500000  1
  Si  Si13  1  0.220711  0.220711  0.500000  1
  Si  Si14  1  0.779289  0.779289  0.500000  1
  Si  Si15  1  0.773416  0.000734  0.500000  1
  Si  Si16  1  0.226584  0.999266  0.500000  1
  Si  Si17  1  0.999266  0.226584  0.500000  1
  N  N18  1  0.500000  0.500000  0.000000  1
  N  N19  1  0.500000  0.000000  0.000000  1
  N  N20  1  0.000000  0.500000  0.000000  1
