# generated using pymatgen
data_Tb2Y3AlBi2
_symmetry_space_group_name_H-M   'P 1'
_cell_length_a   9.05026695
_cell_length_b   9.05026705
_cell_length_c   6.52194500
_cell_angle_alpha   89.99991137
_cell_angle_beta   89.99991137
_cell_angle_gamma   119.95682213
_symmetry_Int_Tables_number   1
_chemical_formula_structural   Tb2Y3AlBi2
_chemical_formula_sum   'Tb4 Y6 Al2 Bi4'
_cell_volume   462.82769638
_cell_formula_units_Z   2
loop_
 _symmetry_equiv_pos_site_id
 _symmetry_equiv_pos_as_xyz
  1  'x, y, z'
loop_
 _atom_site_type_symbol
 _atom_site_label
 _atom_site_symmetry_multiplicity
 _atom_site_fract_x
 _atom_site_fract_y
 _atom_site_fract_z
 _atom_site_occupancy
  Tb  Tb0  1  0.669013  0.326530  0.506612  1
  Tb  Tb1  1  0.326530  0.669013  0.506612  1
  Tb  Tb2  1  0.326528  0.669010  0.993386  1
  Tb  Tb3  1  0.669010  0.326528  0.993386  1
  Y  Y4  1  0.760948  0.760948  0.250000  1
  Y  Y5  1  0.238397  0.998909  0.250000  1
  Y  Y6  1  0.998909  0.238397  0.250000  1
  Y  Y7  1  0.233400  0.233400  0.750000  1
  Y  Y8  1  0.764006  0.012419  0.750000  1
  Y  Y9  1  0.012419  0.764006  0.750000  1
  Al  Al10  1  0.396384  0.001192  0.749999  1
  Al  Al11  1  0.001192  0.396384  0.749999  1
  Bi  Bi12  1  0.394407  0.394407  0.250006  1
  Bi  Bi13  1  0.602170  0.996273  0.249996  1
  Bi  Bi14  1  0.996273  0.602170  0.249996  1
  Bi  Bi15  1  0.610413  0.610413  0.750004  1
