# generated using pymatgen
data_Ta4Nb3(BC)4
_symmetry_space_group_name_H-M   'P 1'
_cell_length_a   3.15403152
_cell_length_b   3.23164383
_cell_length_c   16.33224016
_cell_angle_alpha   95.67780182
_cell_angle_beta   95.54103770
_cell_angle_gamma   89.99999404
_symmetry_Int_Tables_number   1
_chemical_formula_structural   Ta4Nb3(BC)4
_chemical_formula_sum   'Ta4 Nb3 B4 C4'
_cell_volume   164.87130862
_cell_formula_units_Z   1
loop_
 _symmetry_equiv_pos_site_id
 _symmetry_equiv_pos_as_xyz
  1  'x, y, z'
loop_
 _atom_site_type_symbol
 _atom_site_label
 _atom_site_symmetry_multiplicity
 _atom_site_fract_x
 _atom_site_fract_y
 _atom_site_fract_z
 _atom_site_occupancy
  Ta  Ta0  1  0.081739  0.081739  0.163478  1
  Ta  Ta1  1  0.646692  0.646691  0.293385  1
  Ta  Ta2  1  0.214315  0.214315  0.428630  1
  Ta  Ta3  1  0.785453  0.785452  0.570906  1
  Nb  Nb4  1  0.500139  0.000139  0.000278  1
  Nb  Nb5  1  0.352782  0.352782  0.705563  1
  Nb  Nb6  1  0.918336  0.918335  0.836671  1
  B  B7  1  0.028613  0.528612  0.057227  1
  B  B8  1  0.558577  0.558576  0.117153  1
  B  B9  1  0.442364  0.442364  0.884729  1
  B  B10  1  0.971676  0.471676  0.943351  1
  C  C11  1  0.147736  0.147736  0.295472  1
  C  C12  1  0.715195  0.715194  0.430391  1
  C  C13  1  0.284069  0.284069  0.568139  1
  C  C14  1  0.852315  0.852314  0.704628  1
