# generated using pymatgen
data_MgVSiRh5
_symmetry_space_group_name_H-M   'P 1'
_cell_length_a   4.00028400
_cell_length_b   5.34166480
_cell_length_c   10.45408903
_cell_angle_alpha   91.53697933
_cell_angle_beta   90.00000000
_cell_angle_gamma   90.00000000
_symmetry_Int_Tables_number   1
_chemical_formula_structural   MgVSiRh5
_chemical_formula_sum   'Mg2 V2 Si2 Rh10'
_cell_volume   223.30444784
_cell_formula_units_Z   2
loop_
 _symmetry_equiv_pos_site_id
 _symmetry_equiv_pos_as_xyz
  1  'x, y, z'
loop_
 _atom_site_type_symbol
 _atom_site_label
 _atom_site_symmetry_multiplicity
 _atom_site_fract_x
 _atom_site_fract_y
 _atom_site_fract_z
 _atom_site_occupancy
  Mg  Mg0  1  0.500000  0.163694  0.637937  1
  Mg  Mg1  1  0.500000  0.836306  0.362063  1
  V  V2  1  0.500000  0.660913  0.853207  1
  V  V3  1  0.500000  0.339087  0.146793  1
  Si  Si4  1  0.000000  0.500000  0.500000  1
  Si  Si5  1  0.000000  0.000000  0.000000  1
  Rh  Rh6  1  0.500000  0.329929  0.388534  1
  Rh  Rh7  1  0.500000  0.670071  0.611466  1
  Rh  Rh8  1  0.500000  0.815776  0.096842  1
  Rh  Rh9  1  0.500000  0.184224  0.903158  1
  Rh  Rh10  1  0.000000  0.416252  0.744753  1
  Rh  Rh11  1  0.000000  0.583748  0.255247  1
  Rh  Rh12  1  0.000000  0.908445  0.768367  1
  Rh  Rh13  1  0.000000  0.091555  0.231633  1
  Rh  Rh14  1  0.000000  0.500000  0.000000  1
  Rh  Rh15  1  0.000000  0.000000  0.500000  1
