# generated using pymatgen
data_Zr2MnCoOs2
_symmetry_space_group_name_H-M   'P 1'
_cell_length_a   5.02171548
_cell_length_b   5.16734128
_cell_length_c   8.47494300
_cell_angle_alpha   90.00000000
_cell_angle_beta   90.00000000
_cell_angle_gamma   120.96402692
_symmetry_Int_Tables_number   1
_chemical_formula_structural   Zr2MnCoOs2
_chemical_formula_sum   'Zr4 Mn2 Co2 Os4'
_cell_volume   188.57553590
_cell_formula_units_Z   2
loop_
 _symmetry_equiv_pos_site_id
 _symmetry_equiv_pos_as_xyz
  1  'x, y, z'
loop_
 _atom_site_type_symbol
 _atom_site_label
 _atom_site_symmetry_multiplicity
 _atom_site_fract_x
 _atom_site_fract_y
 _atom_site_fract_z
 _atom_site_occupancy
  Zr  Zr0  1  0.334682  0.663571  0.065004  1
  Zr  Zr1  1  0.665318  0.328888  0.565004  1
  Zr  Zr2  1  0.665318  0.328888  0.934996  1
  Zr  Zr3  1  0.334682  0.663571  0.434996  1
  Mn  Mn4  1  0.664005  0.834900  0.750000  1
  Mn  Mn5  1  0.335995  0.170897  0.250000  1
  Co  Co6  1  0.174051  0.344956  0.750000  1
  Co  Co7  1  0.825949  0.170905  0.250000  1
  Os  Os8  1  0.000000  0.004561  0.500000  1
  Os  Os9  1  0.000000  0.004561  0.000000  1
  Os  Os10  1  0.826281  0.655292  0.250000  1
  Os  Os11  1  0.173719  0.829010  0.750000  1
