# generated using pymatgen
data_Yb8SmLuIr4
_symmetry_space_group_name_H-M   'P 1'
_cell_length_a   6.52988187
_cell_length_b   7.28996035
_cell_length_c   8.49066000
_cell_angle_alpha   97.27287015
_cell_angle_beta   112.61476027
_cell_angle_gamma   90.00000358
_symmetry_Int_Tables_number   1
_chemical_formula_structural   Yb8SmLuIr4
_chemical_formula_sum   'Yb8 Sm1 Lu1 Ir4'
_cell_volume   369.57545964
_cell_formula_units_Z   1
loop_
 _symmetry_equiv_pos_site_id
 _symmetry_equiv_pos_as_xyz
  1  'x, y, z'
loop_
 _atom_site_type_symbol
 _atom_site_label
 _atom_site_symmetry_multiplicity
 _atom_site_fract_x
 _atom_site_fract_y
 _atom_site_fract_z
 _atom_site_occupancy
  Yb  Yb0  1  0.973075  0.920998  0.171419  1
  Yb  Yb1  1  0.801657  0.579002  0.828581  1
  Yb  Yb2  1  0.026798  0.076823  0.828392  1
  Yb  Yb3  1  0.198404  0.423177  0.171608  1
  Yb  Yb4  1  0.642400  0.819355  0.436539  1
  Yb  Yb5  1  0.205861  0.680645  0.563461  1
  Yb  Yb6  1  0.356685  0.179730  0.561754  1
  Yb  Yb7  1  0.794931  0.320270  0.438246  1
  Sm  Sm8  1  0.564769  0.250000  0.000000  1
  Lu  Lu9  1  0.438311  0.750000  0.000000  1
  Ir  Ir10  1  0.814090  0.577823  0.212168  1
  Ir  Ir11  1  0.601922  0.922177  0.787832  1
  Ir  Ir12  1  0.185000  0.429095  0.788902  1
  Ir  Ir13  1  0.396096  0.070905  0.211098  1
