# generated using pymatgen
data_TaNb5Re5Si6Os
_symmetry_space_group_name_H-M   'P 1'
_cell_length_a   7.55767919
_cell_length_b   7.56932066
_cell_length_c   7.54586079
_cell_angle_alpha   127.40929381
_cell_angle_beta   123.91312362
_cell_angle_gamma   80.38890203
_symmetry_Int_Tables_number   1
_chemical_formula_structural   TaNb5Re5Si6Os
_chemical_formula_sum   'Ta1 Nb5 Re5 Si6 Os1'
_cell_volume   274.69834132
_cell_formula_units_Z   1
loop_
 _symmetry_equiv_pos_site_id
 _symmetry_equiv_pos_as_xyz
  1  'x, y, z'
loop_
 _atom_site_type_symbol
 _atom_site_label
 _atom_site_symmetry_multiplicity
 _atom_site_fract_x
 _atom_site_fract_y
 _atom_site_fract_z
 _atom_site_occupancy
  Ta  Ta0  1  0.549354  0.098801  0.053005  1
  Nb  Nb1  1  0.443914  0.483114  0.534389  1
  Nb  Nb2  1  0.969205  0.505374  0.043247  1
  Nb  Nb3  1  0.031752  0.071392  0.530396  1
  Nb  Nb4  1  0.756369  0.906036  0.653812  1
  Nb  Nb5  1  0.245205  0.912867  0.160960  1
  Re  Re6  1  0.969633  0.243786  0.215248  1
  Re  Re7  1  0.164606  0.750471  0.664891  1
  Re  Re8  1  0.845824  0.494287  0.593780  1
  Re  Re9  1  0.588162  0.749588  0.087516  1
  Re  Re10  1  0.398539  0.494416  0.145909  1
  Si  Si11  1  0.778465  0.546463  0.268579  1
  Si  Si12  1  0.232932  0.453553  0.723764  1
  Si  Si13  1  0.339583  0.833541  0.506196  1
  Si  Si14  1  0.665327  0.164010  0.499746  1
  Si  Si15  1  0.824970  0.828205  0.988729  1
  Si  Si16  1  0.165043  0.161833  0.992971  1
  Os  Os17  1  0.531119  0.244463  0.779061  1
