# generated using pymatgen
data_Tm4Al3(CoO4)5
_symmetry_space_group_name_H-M   'P 1'
_cell_length_a   5.63714300
_cell_length_b   7.15832678
_cell_length_c   8.28618666
_cell_angle_alpha   89.75487379
_cell_angle_beta   90.00000000
_cell_angle_gamma   90.00000000
_symmetry_Int_Tables_number   1
_chemical_formula_structural   Tm4Al3(CoO4)5
_chemical_formula_sum   'Tm4 Al3 Co5 O20'
_cell_volume   334.36538421
_cell_formula_units_Z   1
loop_
 _symmetry_equiv_pos_site_id
 _symmetry_equiv_pos_as_xyz
  1  'x, y, z'
loop_
 _atom_site_type_symbol
 _atom_site_label
 _atom_site_symmetry_multiplicity
 _atom_site_fract_x
 _atom_site_fract_y
 _atom_site_fract_z
 _atom_site_occupancy
  Tm  Tm0  1  0.500000  0.361391  0.331182  1
  Tm  Tm1  1  0.500000  0.639011  0.669098  1
  Tm  Tm2  1  0.500000  0.136103  0.829725  1
  Tm  Tm3  1  0.500000  0.871030  0.170493  1
  Al  Al4  1  0.000000  0.109062  0.143349  1
  Al  Al5  1  0.000000  0.893451  0.856781  1
  Al  Al6  1  0.000000  0.391349  0.644825  1
  Co  Co7  1  0.000000  0.590711  0.348207  1
  Co  Co8  1  0.245712  0.999153  0.501096  1
  Co  Co9  1  0.754288  0.999153  0.501096  1
  Co  Co10  1  0.752686  0.500710  0.999327  1
  Co  Co11  1  0.247314  0.500710  0.999327  1
  O  O12  1  0.222871  0.001501  0.999749  1
  O  O13  1  0.777129  0.001501  0.999749  1
  O  O14  1  0.774996  0.498812  0.501660  1
  O  O15  1  0.225004  0.498812  0.501660  1
  O  O16  1  0.000000  0.348636  0.073698  1
  O  O17  1  0.000000  0.654319  0.929285  1
  O  O18  1  0.000000  0.154353  0.572455  1
  O  O19  1  0.000000  0.847247  0.433700  1
  O  O20  1  0.500000  0.338423  0.055705  1
  O  O21  1  0.500000  0.662932  0.943242  1
  O  O22  1  0.500000  0.162509  0.556225  1
  O  O23  1  0.500000  0.837245  0.443507  1
  O  O24  1  0.252024  0.105168  0.290992  1
  O  O25  1  0.747515  0.894249  0.709298  1
  O  O26  1  0.252485  0.894249  0.709298  1
  O  O27  1  0.747276  0.395069  0.791042  1
  O  O28  1  0.747976  0.105168  0.290992  1
  O  O29  1  0.260719  0.606453  0.206098  1
  O  O30  1  0.739281  0.606453  0.206098  1
  O  O31  1  0.252724  0.395069  0.791042  1
