# generated using pymatgen
data_Dy8Er11ScSi15Bi
_symmetry_space_group_name_H-M   'P 1'
_cell_length_a   7.44620566
_cell_length_b   7.64537415
_cell_length_c   14.53735541
_cell_angle_alpha   90.20465690
_cell_angle_beta   86.95555754
_cell_angle_gamma   90.35112565
_symmetry_Int_Tables_number   1
_chemical_formula_structural   Dy8Er11ScSi15Bi
_chemical_formula_sum   'Dy8 Er11 Sc1 Si15 Bi1'
_cell_volume   826.40959166
_cell_formula_units_Z   1
loop_
 _symmetry_equiv_pos_site_id
 _symmetry_equiv_pos_as_xyz
  1  'x, y, z'
loop_
 _atom_site_type_symbol
 _atom_site_label
 _atom_site_symmetry_multiplicity
 _atom_site_fract_x
 _atom_site_fract_y
 _atom_site_fract_z
 _atom_site_occupancy
  Dy  Dy0  1  0.021038  0.182131  0.098761  1
  Dy  Dy1  1  0.980805  0.819907  0.904708  1
  Dy  Dy2  1  0.478098  0.682549  0.901794  1
  Dy  Dy3  1  0.997832  0.827582  0.599695  1
  Dy  Dy4  1  0.519358  0.318176  0.099289  1
  Dy  Dy5  1  0.996003  0.174269  0.396871  1
  Dy  Dy6  1  0.509754  0.313261  0.395104  1
  Dy  Dy7  1  0.515127  0.688094  0.603251  1
  Er  Er8  1  0.166127  0.506124  0.754857  1
  Er  Er9  1  0.832500  0.493965  0.251881  1
  Er  Er10  1  0.331422  0.007444  0.250236  1
  Er  Er11  1  0.671962  0.992719  0.750000  1
  Er  Er12  1  0.355953  0.151880  0.625743  1
  Er  Er13  1  0.648404  0.830846  0.376358  1
  Er  Er14  1  0.144327  0.681683  0.369291  1
  Er  Er15  1  0.671637  0.820765  0.121124  1
  Er  Er16  1  0.835901  0.329749  0.623165  1
  Er  Er17  1  0.326446  0.178894  0.879555  1
  Er  Er18  1  0.826268  0.322882  0.880256  1
  Sc  Sc19  1  0.172370  0.676757  0.125193  1
  Si  Si20  1  0.041878  0.113069  0.753596  1
  Si  Si21  1  0.958728  0.889310  0.242731  1
  Si  Si22  1  0.454971  0.609415  0.244466  1
  Si  Si23  1  0.539115  0.392314  0.753715  1
  Si  Si24  1  0.286859  0.867454  0.755030  1
  Si  Si25  1  0.714741  0.127945  0.244593  1
  Si  Si26  1  0.213222  0.373980  0.245292  1
  Si  Si27  1  0.789086  0.629730  0.753656  1
  Si  Si28  1  0.798722  0.536565  0.456499  1
  Si  Si29  1  0.303713  0.967895  0.455870  1
  Si  Si30  1  0.858662  0.531630  0.043389  1
  Si  Si31  1  0.697243  0.033099  0.541666  1
  Si  Si32  1  0.151959  0.473995  0.964327  1
  Si  Si33  1  0.644531  0.028371  0.959807  1
  Si  Si34  1  0.344425  0.964056  0.041614  1
  Bi  Bi35  1  0.200810  0.461495  0.536616  1
