# generated using pymatgen
data_YbY5ErFeI12
_symmetry_space_group_name_H-M   'P 1'
_cell_length_a   9.78734256
_cell_length_b   9.71539490
_cell_length_c   9.70550208
_cell_angle_alpha   106.74225576
_cell_angle_beta   106.81204588
_cell_angle_gamma   107.17794919
_symmetry_Int_Tables_number   1
_chemical_formula_structural   YbY5ErFeI12
_chemical_formula_sum   'Yb1 Y5 Er1 Fe1 I12'
_cell_volume   770.43337543
_cell_formula_units_Z   1
loop_
 _symmetry_equiv_pos_site_id
 _symmetry_equiv_pos_as_xyz
  1  'x, y, z'
loop_
 _atom_site_type_symbol
 _atom_site_label
 _atom_site_symmetry_multiplicity
 _atom_site_fract_x
 _atom_site_fract_y
 _atom_site_fract_z
 _atom_site_occupancy
  Yb  Yb0  1  0.499983  0.500042  0.500018  1
  Y  Y1  1  0.975450  0.906664  0.712547  1
  Y  Y2  1  0.092053  0.287910  0.024240  1
  Y  Y3  1  0.301821  0.024758  0.097346  1
  Y  Y4  1  0.906559  0.711866  0.975306  1
  Y  Y5  1  0.023766  0.093250  0.287164  1
  Er  Er6  1  0.702539  0.975546  0.903847  1
  Fe  Fe7  1  0.999606  0.999864  0.999906  1
  I  I8  1  0.072765  0.224925  0.681649  1
  I  I9  1  0.377805  0.149718  0.457209  1
  I  I10  1  0.621845  0.851043  0.544686  1
  I  I11  1  0.223363  0.680092  0.072105  1
  I  I12  1  0.775274  0.318014  0.927560  1
  I  I13  1  0.681016  0.072478  0.223978  1
  I  I14  1  0.544275  0.622551  0.850837  1
  I  I15  1  0.849139  0.543204  0.620659  1
  I  I16  1  0.927216  0.775097  0.318361  1
  I  I17  1  0.319037  0.926931  0.774050  1
  I  I18  1  0.455675  0.379355  0.149208  1
  I  I19  1  0.150813  0.456691  0.379323  1
