# generated using pymatgen
data_UPa3(GeIr)4
_symmetry_space_group_name_H-M   'P 1'
_cell_length_a   4.32806500
_cell_length_b   6.94461072
_cell_length_c   7.65211578
_cell_angle_alpha   90.09950193
_cell_angle_beta   90.00000000
_cell_angle_gamma   90.00000000
_symmetry_Int_Tables_number   1
_chemical_formula_structural   UPa3(GeIr)4
_chemical_formula_sum   'U1 Pa3 Ge4 Ir4'
_cell_volume   229.99720489
_cell_formula_units_Z   1
loop_
 _symmetry_equiv_pos_site_id
 _symmetry_equiv_pos_as_xyz
  1  'x, y, z'
loop_
 _atom_site_type_symbol
 _atom_site_label
 _atom_site_symmetry_multiplicity
 _atom_site_fract_x
 _atom_site_fract_y
 _atom_site_fract_z
 _atom_site_occupancy
  U  U0  1  0.750000  0.006637  0.704427  1
  Pa  Pa1  1  0.250000  0.492080  0.201175  1
  Pa  Pa2  1  0.750000  0.508305  0.796313  1
  Pa  Pa3  1  0.250000  0.992319  0.299335  1
  Ge  Ge4  1  0.250000  0.822481  0.914292  1
  Ge  Ge5  1  0.750000  0.183666  0.083838  1
  Ge  Ge6  1  0.250000  0.317047  0.584950  1
  Ge  Ge7  1  0.750000  0.681752  0.415746  1
  Ir  Ir8  1  0.750000  0.773827  0.086718  1
  Ir  Ir9  1  0.250000  0.224170  0.909670  1
  Ir  Ir10  1  0.750000  0.266687  0.415316  1
  Ir  Ir11  1  0.250000  0.731028  0.588219  1
