# generated using pymatgen
data_YbFe(GeO3)2
_symmetry_space_group_name_H-M   'P 1'
_cell_length_a   5.51440276
_cell_length_b   10.33367808
_cell_length_c   9.16686800
_cell_angle_alpha   88.93047391
_cell_angle_beta   89.69769556
_cell_angle_gamma   75.90198620
_symmetry_Int_Tables_number   1
_chemical_formula_structural   YbFe(GeO3)2
_chemical_formula_sum   'Yb4 Fe4 Ge8 O24'
_cell_volume   506.54356939
_cell_formula_units_Z   4
loop_
 _symmetry_equiv_pos_site_id
 _symmetry_equiv_pos_as_xyz
  1  'x, y, z'
loop_
 _atom_site_type_symbol
 _atom_site_label
 _atom_site_symmetry_multiplicity
 _atom_site_fract_x
 _atom_site_fract_y
 _atom_site_fract_z
 _atom_site_occupancy
  Yb  Yb0  1  0.750979  0.501645  0.196600  1
  Yb  Yb1  1  0.750688  0.001680  0.696158  1
  Yb  Yb2  1  0.249394  0.498322  0.803048  1
  Yb  Yb3  1  0.249530  0.998322  0.303701  1
  Fe  Fe4  1  0.749330  0.000298  0.090557  1
  Fe  Fe5  1  0.250382  0.999746  0.909239  1
  Fe  Fe6  1  0.749533  0.500432  0.591195  1
  Fe  Fe7  1  0.250318  0.499670  0.408494  1
  Ge  Ge8  1  0.770415  0.287105  0.903639  1
  Ge  Ge9  1  0.770262  0.787206  0.403768  1
  Ge  Ge10  1  0.730918  0.714011  0.900252  1
  Ge  Ge11  1  0.730844  0.213784  0.399757  1
  Ge  Ge12  1  0.229570  0.712960  0.096566  1
  Ge  Ge13  1  0.229594  0.212781  0.596175  1
  Ge  Ge14  1  0.269208  0.285928  0.099917  1
  Ge  Ge15  1  0.269265  0.786237  0.600215  1
  O  O16  1  0.521491  0.359020  0.034483  1
  O  O17  1  0.521457  0.859312  0.534611  1
  O  O18  1  0.975603  0.642266  0.036263  1
  O  O19  1  0.975647  0.142092  0.535753  1
  O  O20  1  0.478625  0.641008  0.965895  1
  O  O21  1  0.478617  0.140776  0.465466  1
  O  O22  1  0.024445  0.357774  0.963991  1
  O  O23  1  0.024337  0.857809  0.464255  1
  O  O24  1  0.142412  0.368496  0.256058  1
  O  O25  1  0.142855  0.869324  0.756115  1
  O  O26  1  0.350686  0.629925  0.256912  1
  O  O27  1  0.351021  0.129733  0.756342  1
  O  O28  1  0.857265  0.631051  0.744249  1
  O  O29  1  0.856956  0.130399  0.243930  1
  O  O30  1  0.649210  0.370386  0.743527  1
  O  O31  1  0.648785  0.870358  0.243727  1
  O  O32  1  0.853881  0.111800  0.904878  1
  O  O33  1  0.853298  0.611840  0.405369  1
  O  O34  1  0.641386  0.888664  0.902372  1
  O  O35  1  0.641163  0.388353  0.402194  1
  O  O36  1  0.146026  0.888286  0.094810  1
  O  O37  1  0.146332  0.388189  0.594023  1
  O  O38  1  0.358894  0.111322  0.097670  1
  O  O39  1  0.359378  0.611692  0.597830  1
