# generated using pymatgen
data_Na3PrWN4
_symmetry_space_group_name_H-M   'P 1'
_cell_length_a   6.20522020
_cell_length_b   6.09462072
_cell_length_c   9.11022301
_cell_angle_alpha   70.91028711
_cell_angle_beta   75.77201511
_cell_angle_gamma   68.88579365
_symmetry_Int_Tables_number   1
_chemical_formula_structural   Na3PrWN4
_chemical_formula_sum   'Na6 Pr2 W2 N8'
_cell_volume   300.51218346
_cell_formula_units_Z   2
loop_
 _symmetry_equiv_pos_site_id
 _symmetry_equiv_pos_as_xyz
  1  'x, y, z'
loop_
 _atom_site_type_symbol
 _atom_site_label
 _atom_site_symmetry_multiplicity
 _atom_site_fract_x
 _atom_site_fract_y
 _atom_site_fract_z
 _atom_site_occupancy
  Na  Na0  1  0.701177  0.660991  0.131268  1
  Na  Na1  1  0.298823  0.339009  0.868732  1
  Na  Na2  1  0.769374  0.251882  0.964326  1
  Na  Na3  1  0.230626  0.748118  0.035674  1
  Na  Na4  1  0.723982  0.477589  0.567899  1
  Na  Na5  1  0.276018  0.522411  0.432101  1
  Pr  Pr6  1  0.220259  0.930769  0.640198  1
  Pr  Pr7  1  0.779741  0.069231  0.359802  1
  W  W8  1  0.715831  0.849881  0.739391  1
  W  W9  1  0.284169  0.150119  0.260609  1
  N  N10  1  0.951773  0.743982  0.581622  1
  N  N11  1  0.048227  0.256018  0.418378  1
  N  N12  1  0.883023  0.885223  0.875686  1
  N  N13  1  0.116977  0.114777  0.124314  1
  N  N14  1  0.521954  0.645782  0.808607  1
  N  N15  1  0.478046  0.354218  0.191393  1
  N  N16  1  0.477270  0.852524  0.376167  1
  N  N17  1  0.522730  0.147476  0.623833  1
