# generated using pymatgen
data_Li7Zn(PRh3)2
_symmetry_space_group_name_H-M   'P 1'
_cell_length_a   6.62485144
_cell_length_b   6.62485006
_cell_length_c   6.62485000
_cell_angle_alpha   61.34369673
_cell_angle_beta   61.34370324
_cell_angle_gamma   61.34370435
_symmetry_Int_Tables_number   1
_chemical_formula_structural   Li7Zn(PRh3)2
_chemical_formula_sum   'Li7 Zn1 P2 Rh6'
_cell_volume   211.80339100
_cell_formula_units_Z   1
loop_
 _symmetry_equiv_pos_site_id
 _symmetry_equiv_pos_as_xyz
  1  'x, y, z'
loop_
 _atom_site_type_symbol
 _atom_site_label
 _atom_site_symmetry_multiplicity
 _atom_site_fract_x
 _atom_site_fract_y
 _atom_site_fract_z
 _atom_site_occupancy
  Li  Li0  1  0.727363  0.727363  0.727363  1
  Li  Li1  1  0.567528  0.834372  0.345492  1
  Li  Li2  1  0.345492  0.567528  0.834372  1
  Li  Li3  1  0.834372  0.345492  0.567528  1
  Li  Li4  1  0.650069  0.162892  0.448226  1
  Li  Li5  1  0.162892  0.448226  0.650069  1
  Li  Li6  1  0.448226  0.650069  0.162892  1
  Zn  Zn7  1  0.286339  0.286339  0.286339  1
  P  P8  1  0.890427  0.890427  0.890427  1
  P  P9  1  0.091270  0.091270  0.091270  1
  Rh  Rh10  1  0.924914  0.479567  0.100599  1
  Rh  Rh11  1  0.100599  0.924914  0.479567  1
  Rh  Rh12  1  0.479567  0.100599  0.924914  1
  Rh  Rh13  1  0.244793  0.007365  0.738783  1
  Rh  Rh14  1  0.738783  0.244793  0.007365  1
  Rh  Rh15  1  0.007365  0.738783  0.244793  1
