# generated using pymatgen
data_Pr2Dy2MgSn4
_symmetry_space_group_name_H-M   'P 1'
_cell_length_a   8.06373800
_cell_length_b   8.29120900
_cell_length_c   15.63459200
_cell_angle_alpha   90.00000000
_cell_angle_beta   90.00000000
_cell_angle_gamma   90.00000000
_symmetry_Int_Tables_number   1
_chemical_formula_structural   Pr2Dy2MgSn4
_chemical_formula_sum   'Pr8 Dy8 Mg4 Sn16'
_cell_volume   1045.29969511
_cell_formula_units_Z   4
loop_
 _symmetry_equiv_pos_site_id
 _symmetry_equiv_pos_as_xyz
  1  'x, y, z'
loop_
 _atom_site_type_symbol
 _atom_site_label
 _atom_site_symmetry_multiplicity
 _atom_site_fract_x
 _atom_site_fract_y
 _atom_site_fract_z
 _atom_site_occupancy
  Pr  Pr0  1  0.503176  0.320303  0.904412  1
  Pr  Pr1  1  0.003176  0.179697  0.595588  1
  Pr  Pr2  1  0.496824  0.679697  0.404412  1
  Pr  Pr3  1  0.996824  0.820303  0.095588  1
  Pr  Pr4  1  0.496824  0.679697  0.095588  1
  Pr  Pr5  1  0.996824  0.820303  0.404412  1
  Pr  Pr6  1  0.503176  0.320303  0.595588  1
  Pr  Pr7  1  0.003176  0.179697  0.904412  1
  Dy  Dy8  1  0.347443  0.830249  0.873849  1
  Dy  Dy9  1  0.847443  0.669751  0.626151  1
  Dy  Dy10  1  0.652557  0.169751  0.373849  1
  Dy  Dy11  1  0.152557  0.330249  0.126151  1
  Dy  Dy12  1  0.652557  0.169751  0.126151  1
  Dy  Dy13  1  0.152557  0.330249  0.373849  1
  Dy  Dy14  1  0.347443  0.830249  0.626151  1
  Dy  Dy15  1  0.847443  0.669751  0.873849  1
  Mg  Mg16  1  0.177799  0.500153  0.750000  1
  Mg  Mg17  1  0.677799  0.999847  0.750000  1
  Mg  Mg18  1  0.822201  0.499847  0.250000  1
  Mg  Mg19  1  0.322201  0.000153  0.250000  1
  Sn  Sn20  1  0.318211  0.039766  0.038453  1
  Sn  Sn21  1  0.818211  0.460234  0.461547  1
  Sn  Sn22  1  0.681789  0.960234  0.538453  1
  Sn  Sn23  1  0.181789  0.539766  0.961547  1
  Sn  Sn24  1  0.681789  0.960234  0.961547  1
  Sn  Sn25  1  0.181789  0.539766  0.538453  1
  Sn  Sn26  1  0.318211  0.039766  0.461547  1
  Sn  Sn27  1  0.818211  0.460234  0.038453  1
  Sn  Sn28  1  0.541997  0.609655  0.750000  1
  Sn  Sn29  1  0.041997  0.890345  0.750000  1
  Sn  Sn30  1  0.458003  0.390345  0.250000  1
  Sn  Sn31  1  0.958003  0.109655  0.250000  1
  Sn  Sn32  1  0.308745  0.139938  0.750000  1
  Sn  Sn33  1  0.808745  0.360062  0.750000  1
  Sn  Sn34  1  0.691255  0.860062  0.250000  1
  Sn  Sn35  1  0.191255  0.639938  0.250000  1
