# generated using pymatgen
data_Y4Zr3AlPt3Rh
_symmetry_space_group_name_H-M   'P 1'
_cell_length_a   4.59352400
_cell_length_b   7.09612023
_cell_length_c   8.21570695
_cell_angle_alpha   87.22632980
_cell_angle_beta   90.00000000
_cell_angle_gamma   90.00000000
_symmetry_Int_Tables_number   1
_chemical_formula_structural   Y4Zr3AlPt3Rh
_chemical_formula_sum   'Y4 Zr3 Al1 Pt3 Rh1'
_cell_volume   267.48708136
_cell_formula_units_Z   1
loop_
 _symmetry_equiv_pos_site_id
 _symmetry_equiv_pos_as_xyz
  1  'x, y, z'
loop_
 _atom_site_type_symbol
 _atom_site_label
 _atom_site_symmetry_multiplicity
 _atom_site_fract_x
 _atom_site_fract_y
 _atom_site_fract_z
 _atom_site_occupancy
  Y  Y0  1  0.750000  0.990695  0.333934  1
  Y  Y1  1  0.250000  0.039358  0.671257  1
  Y  Y2  1  0.250000  0.515553  0.815751  1
  Y  Y3  1  0.750000  0.471128  0.185954  1
  Zr  Zr4  1  0.750000  0.859302  0.922280  1
  Zr  Zr5  1  0.250000  0.139393  0.069879  1
  Zr  Zr6  1  0.250000  0.640906  0.435771  1
  Al  Al7  1  0.750000  0.358480  0.573670  1
  Pt  Pt8  1  0.750000  0.726548  0.609520  1
  Pt  Pt9  1  0.250000  0.267683  0.383846  1
  Pt  Pt10  1  0.250000  0.763398  0.101825  1
  Rh  Rh11  1  0.750000  0.227556  0.896315  1
