# generated using pymatgen
data_Tc9O25
_symmetry_space_group_name_H-M   'P 1'
_cell_length_a   5.44188300
_cell_length_b   6.71817843
_cell_length_c   27.69977800
_cell_angle_alpha   84.11229141
_cell_angle_beta   90.00000000
_cell_angle_gamma   90.00000000
_symmetry_Int_Tables_number   1
_chemical_formula_structural   Tc9O25
_chemical_formula_sum   'Tc18 O50'
_cell_volume   1007.34906668
_cell_formula_units_Z   2
loop_
 _symmetry_equiv_pos_site_id
 _symmetry_equiv_pos_as_xyz
  1  'x, y, z'
loop_
 _atom_site_type_symbol
 _atom_site_label
 _atom_site_symmetry_multiplicity
 _atom_site_fract_x
 _atom_site_fract_y
 _atom_site_fract_z
 _atom_site_occupancy
  Tc  Tc0  1  0.233036  0.500000  0.250000  1
  Tc  Tc1  1  0.766964  0.500000  0.750000  1
  Tc  Tc2  1  0.731520  0.806425  0.304491  1
  Tc  Tc3  1  0.731520  0.193575  0.195509  1
  Tc  Tc4  1  0.268480  0.193575  0.695509  1
  Tc  Tc5  1  0.268480  0.806425  0.804491  1
  Tc  Tc6  1  0.233410  0.115781  0.356991  1
  Tc  Tc7  1  0.233410  0.884219  0.143009  1
  Tc  Tc8  1  0.766590  0.884219  0.643009  1
  Tc  Tc9  1  0.766590  0.115781  0.856991  1
  Tc  Tc10  1  0.730894  0.410921  0.410174  1
  Tc  Tc11  1  0.730894  0.589079  0.089826  1
  Tc  Tc12  1  0.269106  0.589079  0.589826  1
  Tc  Tc13  1  0.269106  0.410921  0.910174  1
  Tc  Tc14  1  0.225322  0.713733  0.461476  1
  Tc  Tc15  1  0.225322  0.286267  0.038524  1
  Tc  Tc16  1  0.774678  0.286267  0.538524  1
  Tc  Tc17  1  0.774678  0.713733  0.961476  1
  O  O18  1  0.736599  0.000000  0.250000  1
  O  O19  1  0.263401  0.000000  0.750000  1
  O  O20  1  0.484608  0.651011  0.277703  1
  O  O21  1  0.484608  0.348989  0.222297  1
  O  O22  1  0.515392  0.348989  0.722297  1
  O  O23  1  0.515392  0.651011  0.777703  1
  O  O24  1  0.984663  0.652811  0.278757  1
  O  O25  1  0.984663  0.347189  0.221243  1
  O  O26  1  0.015337  0.347189  0.721243  1
  O  O27  1  0.015337  0.652811  0.778757  1
  O  O28  1  0.230741  0.305615  0.304216  1
  O  O29  1  0.230741  0.694385  0.195784  1
  O  O30  1  0.769259  0.694385  0.695784  1
  O  O31  1  0.769259  0.305615  0.804216  1
  O  O32  1  0.976322  0.961925  0.335334  1
  O  O33  1  0.976322  0.038075  0.164666  1
  O  O34  1  0.474400  0.954891  0.332500  1
  O  O35  1  0.023678  0.038075  0.664666  1
  O  O36  1  0.258200  0.225710  0.977780  1
  O  O37  1  0.258200  0.774290  0.522220  1
  O  O38  1  0.741800  0.774290  0.022220  1
  O  O39  1  0.741800  0.225710  0.477780  1
  O  O40  1  0.539617  0.551868  0.945395  1
  O  O41  1  0.539617  0.448132  0.554605  1
  O  O42  1  0.460383  0.448132  0.054605  1
  O  O43  1  0.460383  0.551868  0.445395  1
  O  O44  1  0.053291  0.588795  0.950502  1
  O  O45  1  0.053291  0.411205  0.549498  1
  O  O46  1  0.946709  0.411205  0.049498  1
  O  O47  1  0.946709  0.588795  0.450502  1
  O  O48  1  0.758217  0.934730  0.921890  1
  O  O49  1  0.758217  0.065270  0.578110  1
  O  O50  1  0.241783  0.065270  0.078110  1
  O  O51  1  0.241783  0.934730  0.421890  1
  O  O52  1  0.505207  0.256850  0.886306  1
  O  O53  1  0.505207  0.743150  0.613694  1
  O  O54  1  0.494793  0.743150  0.113694  1
  O  O55  1  0.494793  0.256850  0.386306  1
  O  O56  1  0.005069  0.275656  0.889412  1
  O  O57  1  0.005069  0.724344  0.610588  1
  O  O58  1  0.994931  0.724344  0.110588  1
  O  O59  1  0.994931  0.275656  0.389412  1
  O  O60  1  0.272527  0.614067  0.861402  1
  O  O61  1  0.272527  0.385933  0.638598  1
  O  O62  1  0.727473  0.385933  0.138598  1
  O  O63  1  0.727473  0.614067  0.361402  1
  O  O64  1  0.525600  0.954891  0.832500  1
  O  O65  1  0.525600  0.045109  0.667500  1
  O  O66  1  0.474400  0.045109  0.167500  1
  O  O67  1  0.023678  0.961925  0.835334  1
