# generated using pymatgen
data_CeTh3CoCuSi6
_symmetry_space_group_name_H-M   'P 1'
_cell_length_a   8.07864100
_cell_length_b   8.07864096
_cell_length_c   4.22182400
_cell_angle_alpha   90.00000000
_cell_angle_beta   90.00000000
_cell_angle_gamma   120.00000426
_symmetry_Int_Tables_number   1
_chemical_formula_structural   CeTh3CoCuSi6
_chemical_formula_sum   'Ce1 Th3 Co1 Cu1 Si6'
_cell_volume   238.62028166
_cell_formula_units_Z   1
loop_
 _symmetry_equiv_pos_site_id
 _symmetry_equiv_pos_as_xyz
  1  'x, y, z'
loop_
 _atom_site_type_symbol
 _atom_site_label
 _atom_site_symmetry_multiplicity
 _atom_site_fract_x
 _atom_site_fract_y
 _atom_site_fract_z
 _atom_site_occupancy
  Ce  Ce0  1  0.000000  0.000000  0.000000  1
  Th  Th1  1  0.504787  0.495213  0.000000  1
  Th  Th2  1  0.990425  0.495213  0.000000  1
  Th  Th3  1  0.504787  0.009575  0.000000  1
  Co  Co4  1  0.666667  0.333333  0.500000  1
  Cu  Cu5  1  0.333333  0.666667  0.500000  1
  Si  Si6  1  0.828789  0.657578  0.500000  1
  Si  Si7  1  0.167130  0.832870  0.500000  1
  Si  Si8  1  0.665741  0.832870  0.500000  1
  Si  Si9  1  0.167130  0.334259  0.500000  1
  Si  Si10  1  0.828789  0.171211  0.500000  1
  Si  Si11  1  0.342422  0.171211  0.500000  1
