# generated using pymatgen
data_Rb3Er(PSe4)2
_symmetry_space_group_name_H-M   'P 1'
_cell_length_a   9.50600973
_cell_length_b   18.11186100
_cell_length_c   10.11848300
_cell_angle_alpha   90.00000000
_cell_angle_beta   92.14466626
_cell_angle_gamma   90.00000000
_symmetry_Int_Tables_number   1
_chemical_formula_structural   Rb3Er(PSe4)2
_chemical_formula_sum   'Rb12 Er4 P8 Se32'
_cell_volume   1740.89435876
_cell_formula_units_Z   4
loop_
 _symmetry_equiv_pos_site_id
 _symmetry_equiv_pos_as_xyz
  1  'x, y, z'
loop_
 _atom_site_type_symbol
 _atom_site_label
 _atom_site_symmetry_multiplicity
 _atom_site_fract_x
 _atom_site_fract_y
 _atom_site_fract_z
 _atom_site_occupancy
  Rb  Rb0  1  0.239874  0.961412  0.015914  1
  Rb  Rb1  1  0.610196  0.790029  0.135360  1
  Rb  Rb2  1  0.096407  0.711166  0.139250  1
  Rb  Rb3  1  0.903592  0.211166  0.360750  1
  Rb  Rb4  1  0.389804  0.290029  0.364640  1
  Rb  Rb5  1  0.760127  0.461412  0.484087  1
  Rb  Rb6  1  0.239873  0.538588  0.515913  1
  Rb  Rb7  1  0.610196  0.709971  0.635360  1
  Rb  Rb8  1  0.096407  0.788834  0.639250  1
  Rb  Rb9  1  0.903593  0.288834  0.860750  1
  Rb  Rb10  1  0.389803  0.209972  0.864639  1
  Rb  Rb11  1  0.760127  0.038588  0.984086  1
  Er  Er12  1  0.732109  0.512960  0.019945  1
  Er  Er13  1  0.267892  0.012960  0.480055  1
  Er  Er14  1  0.732108  0.987039  0.519945  1
  Er  Er15  1  0.267892  0.487040  0.980054  1
  P  P16  1  0.030576  0.404456  0.219579  1
  P  P17  1  0.502877  0.597954  0.236650  1
  P  P18  1  0.497124  0.097954  0.263351  1
  P  P19  1  0.969425  0.904456  0.280420  1
  P  P20  1  0.030576  0.095544  0.719580  1
  P  P21  1  0.502876  0.902046  0.736649  1
  P  P22  1  0.497124  0.402046  0.763350  1
  P  P23  1  0.969424  0.595543  0.780420  1
  Se  Se24  1  0.476435  0.609173  0.014969  1
  Se  Se25  1  0.923117  0.875932  0.072808  1
  Se  Se26  1  0.180055  0.347904  0.089003  1
  Se  Se27  1  0.606362  0.183477  0.151474  1
  Se  Se28  1  0.808911  0.376035  0.156522  1
  Se  Se29  1  0.046920  0.525184  0.170068  1
  Se  Se30  1  0.264053  0.103868  0.238692  1
  Se  Se31  1  0.568642  0.981627  0.241965  1
  Se  Se32  1  0.431357  0.481627  0.258034  1
  Se  Se33  1  0.735946  0.603868  0.261307  1
  Se  Se34  1  0.953080  0.025184  0.329931  1
  Se  Se35  1  0.191088  0.876035  0.343477  1
  Se  Se36  1  0.393637  0.683478  0.348525  1
  Se  Se37  1  0.819945  0.847904  0.410996  1
  Se  Se38  1  0.076883  0.375932  0.427193  1
  Se  Se39  1  0.523565  0.109172  0.485032  1
  Se  Se40  1  0.476435  0.890828  0.514969  1
  Se  Se41  1  0.923117  0.624068  0.572807  1
  Se  Se42  1  0.180055  0.152096  0.589003  1
  Se  Se43  1  0.606363  0.316522  0.651475  1
  Se  Se44  1  0.808912  0.123965  0.656522  1
  Se  Se45  1  0.046920  0.974816  0.670069  1
  Se  Se46  1  0.264054  0.396132  0.738692  1
  Se  Se47  1  0.568642  0.518373  0.741965  1
  Se  Se48  1  0.431358  0.018373  0.758035  1
  Se  Se49  1  0.735946  0.896132  0.761308  1
  Se  Se50  1  0.953079  0.474816  0.829931  1
  Se  Se51  1  0.191088  0.623965  0.843478  1
  Se  Se52  1  0.393637  0.816523  0.848525  1
  Se  Se53  1  0.819945  0.652096  0.910997  1
  Se  Se54  1  0.076883  0.124068  0.927193  1
  Se  Se55  1  0.523565  0.390827  0.985031  1
