# generated using pymatgen
data_Nd12CuAgOs2
_symmetry_space_group_name_H-M   'P 1'
_cell_length_a   6.56965515
_cell_length_b   7.45681975
_cell_length_c   9.95160400
_cell_angle_alpha   90.00000000
_cell_angle_beta   90.00000000
_cell_angle_gamma   90.33168480
_symmetry_Int_Tables_number   1
_chemical_formula_structural   Nd12CuAgOs2
_chemical_formula_sum   'Nd12 Cu1 Ag1 Os2'
_cell_volume   487.50831492
_cell_formula_units_Z   1
loop_
 _symmetry_equiv_pos_site_id
 _symmetry_equiv_pos_as_xyz
  1  'x, y, z'
loop_
 _atom_site_type_symbol
 _atom_site_label
 _atom_site_symmetry_multiplicity
 _atom_site_fract_x
 _atom_site_fract_y
 _atom_site_fract_z
 _atom_site_occupancy
  Nd  Nd0  1  0.342604  0.669831  0.058677  1
  Nd  Nd1  1  0.172409  0.191712  0.441351  1
  Nd  Nd2  1  0.665737  0.324047  0.563988  1
  Nd  Nd3  1  0.829681  0.818189  0.934152  1
  Nd  Nd4  1  0.665737  0.324047  0.936012  1
  Nd  Nd5  1  0.829681  0.818189  0.565848  1
  Nd  Nd6  1  0.342604  0.669831  0.441323  1
  Nd  Nd7  1  0.172409  0.191712  0.058649  1
  Nd  Nd8  1  0.852665  0.513754  0.250000  1
  Nd  Nd9  1  0.616224  0.044407  0.250000  1
  Nd  Nd10  1  0.144813  0.477545  0.750000  1
  Nd  Nd11  1  0.371502  0.954679  0.750000  1
  Cu  Cu12  1  0.942011  0.115553  0.750000  1
  Ag  Ag13  1  0.056706  0.887200  0.250000  1
  Os  Os14  1  0.429080  0.383051  0.250000  1
  Os  Os15  1  0.566137  0.616254  0.750000  1
