# generated using pymatgen
data_Er2Tm(In2Ru)2
_symmetry_space_group_name_H-M   'P 1'
_cell_length_a   8.02519861
_cell_length_b   8.01949039
_cell_length_c   3.60625400
_cell_angle_alpha   90.00000000
_cell_angle_beta   90.00000000
_cell_angle_gamma   119.97870951
_symmetry_Int_Tables_number   1
_chemical_formula_structural   Er2Tm(In2Ru)2
_chemical_formula_sum   'Er2 Tm1 In4 Ru2'
_cell_volume   201.04007483
_cell_formula_units_Z   1
loop_
 _symmetry_equiv_pos_site_id
 _symmetry_equiv_pos_as_xyz
  1  'x, y, z'
loop_
 _atom_site_type_symbol
 _atom_site_label
 _atom_site_symmetry_multiplicity
 _atom_site_fract_x
 _atom_site_fract_y
 _atom_site_fract_z
 _atom_site_occupancy
  Er  Er0  1  0.292961  0.255085  0.500000  1
  Er  Er1  1  0.744713  0.037639  0.500000  1
  Tm  Tm2  1  0.962954  0.708202  0.500000  1
  In  In3  1  0.064912  0.402177  0.000000  1
  In  In4  1  0.598354  0.663029  0.000000  1
  In  In5  1  0.336345  0.934657  0.000000  1
  In  In6  1  0.666928  0.333694  0.000000  1
  Ru  Ru7  1  0.333022  0.666582  0.500000  1
  Ru  Ru8  1  0.999812  0.998934  0.000000  1
