# generated using pymatgen
data_Dy2TcB8W
_symmetry_space_group_name_H-M   'P 1'
_cell_length_a   6.00280190
_cell_length_b   11.61438967
_cell_length_c   3.61242400
_cell_angle_alpha   90.00000000
_cell_angle_beta   90.00000000
_cell_angle_gamma   89.90891327
_symmetry_Int_Tables_number   1
_chemical_formula_structural   Dy2TcB8W
_chemical_formula_sum   'Dy4 Tc2 B16 W2'
_cell_volume   251.85383830
_cell_formula_units_Z   2
loop_
 _symmetry_equiv_pos_site_id
 _symmetry_equiv_pos_as_xyz
  1  'x, y, z'
loop_
 _atom_site_type_symbol
 _atom_site_label
 _atom_site_symmetry_multiplicity
 _atom_site_fract_x
 _atom_site_fract_y
 _atom_site_fract_z
 _atom_site_occupancy
  Dy  Dy0  1  0.626938  0.348455  0.000000  1
  Dy  Dy1  1  0.373062  0.651545  0.000000  1
  Dy  Dy2  1  0.127527  0.148451  0.000000  1
  Dy  Dy3  1  0.872473  0.851549  0.000000  1
  Tc  Tc4  1  0.634021  0.086931  0.000000  1
  Tc  Tc5  1  0.365979  0.913069  0.000000  1
  B  B6  1  0.784499  0.184302  0.500000  1
  B  B7  1  0.215501  0.815698  0.500000  1
  B  B8  1  0.289031  0.312614  0.500000  1
  B  B9  1  0.710970  0.687386  0.500000  1
  B  B10  1  0.863413  0.031001  0.500000  1
  B  B11  1  0.136587  0.968999  0.500000  1
  B  B12  1  0.367106  0.467542  0.500000  1
  B  B13  1  0.632894  0.532458  0.500000  1
  B  B14  1  0.885191  0.452632  0.500000  1
  B  B15  1  0.114809  0.547368  0.500000  1
  B  B16  1  0.387102  0.046916  0.500000  1
  B  B17  1  0.612898  0.953084  0.500000  1
  B  B18  1  0.975144  0.305685  0.500000  1
  B  B19  1  0.024856  0.694315  0.500000  1
  B  B20  1  0.476676  0.191077  0.500000  1
  B  B21  1  0.523324  0.808923  0.500000  1
  W  W22  1  0.130251  0.414469  0.000000  1
  W  W23  1  0.869749  0.585531  0.000000  1
