# generated using pymatgen
data_Tb2Nd4Al24Ru5Pt3
_symmetry_space_group_name_H-M   'P 1'
_cell_length_a   8.91478633
_cell_length_b   8.90766399
_cell_length_c   9.59848039
_cell_angle_alpha   90.20290798
_cell_angle_beta   90.01942905
_cell_angle_gamma   119.76823117
_symmetry_Int_Tables_number   1
_chemical_formula_structural   Tb2Nd4Al24Ru5Pt3
_chemical_formula_sum   'Tb2 Nd4 Al24 Ru5 Pt3'
_cell_volume   661.62732447
_cell_formula_units_Z   1
loop_
 _symmetry_equiv_pos_site_id
 _symmetry_equiv_pos_as_xyz
  1  'x, y, z'
loop_
 _atom_site_type_symbol
 _atom_site_label
 _atom_site_symmetry_multiplicity
 _atom_site_fract_x
 _atom_site_fract_y
 _atom_site_fract_z
 _atom_site_occupancy
  Tb  Tb0  1  0.190272  0.806731  0.750223  1
  Tb  Tb1  1  0.188636  0.384458  0.751572  1
  Nd  Nd2  1  0.380431  0.188695  0.250025  1
  Nd  Nd3  1  0.810699  0.191176  0.250328  1
  Nd  Nd4  1  0.811948  0.618443  0.248387  1
  Nd  Nd5  1  0.618989  0.810970  0.750094  1
  Al  Al6  1  0.436430  0.872598  0.246050  1
  Al  Al7  1  0.125130  0.562034  0.251264  1
  Al  Al8  1  0.434994  0.564014  0.251104  1
  Al  Al9  1  0.561489  0.125844  0.753293  1
  Al  Al10  1  0.878559  0.439958  0.748972  1
  Al  Al11  1  0.563386  0.435410  0.748976  1
  Al  Al12  1  0.159191  0.832621  0.426076  1
  Al  Al13  1  0.158668  0.325837  0.427182  1
  Al  Al14  1  0.676366  0.837885  0.424184  1
  Al  Al15  1  0.842783  0.168213  0.577943  1
  Al  Al16  1  0.842981  0.675350  0.576686  1
  Al  Al17  1  0.321773  0.161319  0.578756  1
  Al  Al18  1  0.838290  0.165006  0.922411  1
  Al  Al19  1  0.843096  0.675300  0.922366  1
  Al  Al20  1  0.323533  0.157628  0.922332  1
  Al  Al21  1  0.163215  0.835569  0.073661  1
  Al  Al22  1  0.158580  0.325632  0.073713  1
  Al  Al23  1  0.674580  0.841420  0.074652  1
  Al  Al24  1  0.326579  0.663200  0.527021  1
  Al  Al25  1  0.672505  0.336386  0.478008  1
  Al  Al26  1  0.668750  0.329853  0.018823  1
  Al  Al27  1  0.329710  0.669214  0.976353  1
  Al  Al28  1  0.003023  0.999468  0.249789  1
  Al  Al29  1  0.000616  0.002407  0.750193  1
  Ru  Ru30  1  0.000118  0.999838  0.500535  1
  Ru  Ru31  1  0.000109  0.999899  0.999414  1
  Ru  Ru32  1  0.000722  0.500482  0.501672  1
  Ru  Ru33  1  0.498590  0.999042  0.998584  1
  Ru  Ru34  1  0.000669  0.500255  0.998391  1
  Pt  Pt35  1  0.498263  0.998975  0.501148  1
  Pt  Pt36  1  0.498279  0.499454  0.501253  1
  Pt  Pt37  1  0.498047  0.499417  0.998566  1
