# generated using pymatgen
data_Y20CoHg6Ru
_symmetry_space_group_name_H-M   'P 1'
_cell_length_a   9.68135400
_cell_length_b   9.68135393
_cell_length_c   9.62051200
_cell_angle_alpha   90.00000000
_cell_angle_beta   90.00000000
_cell_angle_gamma   119.99999342
_symmetry_Int_Tables_number   1
_chemical_formula_structural   Y20CoHg6Ru
_chemical_formula_sum   'Y20 Co1 Hg6 Ru1'
_cell_volume   780.91010702
_cell_formula_units_Z   1
loop_
 _symmetry_equiv_pos_site_id
 _symmetry_equiv_pos_as_xyz
  1  'x, y, z'
loop_
 _atom_site_type_symbol
 _atom_site_label
 _atom_site_symmetry_multiplicity
 _atom_site_fract_x
 _atom_site_fract_y
 _atom_site_fract_z
 _atom_site_occupancy
  Y  Y0  1  0.000000  0.000000  0.500177  1
  Y  Y1  1  0.000000  0.000000  0.999823  1
  Y  Y2  1  0.541742  0.458258  0.250000  1
  Y  Y3  1  0.541742  0.083485  0.250000  1
  Y  Y4  1  0.916515  0.458258  0.250000  1
  Y  Y5  1  0.458096  0.541904  0.750000  1
  Y  Y6  1  0.458096  0.916192  0.750000  1
  Y  Y7  1  0.083808  0.541904  0.750000  1
  Y  Y8  1  0.209269  0.790731  0.439056  1
  Y  Y9  1  0.209269  0.418539  0.439056  1
  Y  Y10  1  0.581461  0.790731  0.439056  1
  Y  Y11  1  0.788347  0.211653  0.564602  1
  Y  Y12  1  0.788347  0.576692  0.564602  1
  Y  Y13  1  0.423308  0.211653  0.564602  1
  Y  Y14  1  0.788347  0.211653  0.935398  1
  Y  Y15  1  0.788347  0.576692  0.935398  1
  Y  Y16  1  0.423308  0.211653  0.935398  1
  Y  Y17  1  0.209269  0.790731  0.060944  1
  Y  Y18  1  0.209269  0.418539  0.060944  1
  Y  Y19  1  0.581461  0.790731  0.060944  1
  Co  Co20  1  0.666667  0.333333  0.750000  1
  Hg  Hg21  1  0.880943  0.119057  0.250000  1
  Hg  Hg22  1  0.880943  0.761886  0.250000  1
  Hg  Hg23  1  0.238114  0.119057  0.250000  1
  Hg  Hg24  1  0.119165  0.880835  0.750000  1
  Hg  Hg25  1  0.119165  0.238330  0.750000  1
  Hg  Hg26  1  0.761670  0.880835  0.750000  1
  Ru  Ru27  1  0.333333  0.666667  0.250000  1
