# generated using pymatgen
data_Y3Ho5(B6Ir)4
_symmetry_space_group_name_H-M   'P 1'
_cell_length_a   3.64005900
_cell_length_b   9.18617001
_cell_length_c   11.53472300
_cell_angle_alpha   89.99878828
_cell_angle_beta   90.00000000
_cell_angle_gamma   90.00000000
_symmetry_Int_Tables_number   1
_chemical_formula_structural   Y3Ho5(B6Ir)4
_chemical_formula_sum   'Y3 Ho5 B24 Ir4'
_cell_volume   385.70038400
_cell_formula_units_Z   1
loop_
 _symmetry_equiv_pos_site_id
 _symmetry_equiv_pos_as_xyz
  1  'x, y, z'
loop_
 _atom_site_type_symbol
 _atom_site_label
 _atom_site_symmetry_multiplicity
 _atom_site_fract_x
 _atom_site_fract_y
 _atom_site_fract_z
 _atom_site_occupancy
  Y  Y0  1  0.000000  0.322180  0.412849  1
  Y  Y1  1  0.000000  0.677816  0.587230  1
  Y  Y2  1  0.000000  0.822201  0.087144  1
  Ho  Ho3  1  0.000000  0.177849  0.912892  1
  Ho  Ho4  1  0.000000  0.944187  0.374425  1
  Ho  Ho5  1  0.000000  0.055846  0.625600  1
  Ho  Ho6  1  0.000000  0.444072  0.125331  1
  Ho  Ho7  1  0.000000  0.555794  0.874531  1
  B  B8  1  0.500000  0.553173  0.433467  1
  B  B9  1  0.500000  0.446673  0.566704  1
  B  B10  1  0.500000  0.053470  0.066162  1
  B  B11  1  0.500000  0.947250  0.933420  1
  B  B12  1  0.500000  0.749361  0.420452  1
  B  B13  1  0.500000  0.250602  0.579742  1
  B  B14  1  0.500000  0.249178  0.079059  1
  B  B15  1  0.500000  0.750786  0.920374  1
  B  B16  1  0.500000  0.793109  0.265810  1
  B  B17  1  0.500000  0.206743  0.734549  1
  B  B18  1  0.500000  0.292991  0.233905  1
  B  B19  1  0.500000  0.707008  0.765956  1
  B  B20  1  0.500000  0.631987  0.184529  1
  B  B21  1  0.500000  0.367634  0.815686  1
  B  B22  1  0.500000  0.132005  0.315298  1
  B  B23  1  0.500000  0.868103  0.684734  1
  B  B24  1  0.500000  0.982082  0.213182  1
  B  B25  1  0.500000  0.018459  0.787046  1
  B  B26  1  0.500000  0.481891  0.286641  1
  B  B27  1  0.500000  0.517860  0.713416  1
  B  B28  1  0.500000  0.611532  0.030467  1
  B  B29  1  0.500000  0.387988  0.969320  1
  B  B30  1  0.500000  0.111196  0.469612  1
  B  B31  1  0.500000  0.888889  0.530429  1
  Ir  Ir32  1  0.000000  0.638375  0.321020  1
  Ir  Ir33  1  0.000000  0.361227  0.679262  1
  Ir  Ir34  1  0.000000  0.138308  0.178374  1
  Ir  Ir35  1  0.000000  0.862176  0.821378  1
