# generated using pymatgen
data_Sr2Pr2Pt6O19
_symmetry_space_group_name_H-M   'P 1'
_cell_length_a   8.00384776
_cell_length_b   7.99883012
_cell_length_c   7.99883000
_cell_angle_alpha   109.29881456
_cell_angle_beta   109.59304736
_cell_angle_gamma   109.49642719
_symmetry_Int_Tables_number   1
_chemical_formula_structural   Sr2Pr2Pt6O19
_chemical_formula_sum   'Sr2 Pr2 Pt6 O19'
_cell_volume   394.33339258
_cell_formula_units_Z   1
loop_
 _symmetry_equiv_pos_site_id
 _symmetry_equiv_pos_as_xyz
  1  'x, y, z'
loop_
 _atom_site_type_symbol
 _atom_site_label
 _atom_site_symmetry_multiplicity
 _atom_site_fract_x
 _atom_site_fract_y
 _atom_site_fract_z
 _atom_site_occupancy
  Sr  Sr0  1  0.687176  0.687911  0.688192  1
  Sr  Sr1  1  0.312824  0.001016  0.000734  1
  Pr  Pr2  1  0.998300  0.307985  0.003658  1
  Pr  Pr3  1  0.001700  0.005358  0.309685  1
  Pt  Pt4  1  0.339074  0.839154  0.497941  1
  Pt  Pt5  1  0.660926  0.158866  0.500080  1
  Pt  Pt6  1  0.840300  0.500744  0.340639  1
  Pt  Pt7  1  0.159700  0.500340  0.660444  1
  Pt  Pt8  1  0.500000  0.338149  0.838149  1
  Pt  Pt9  1  0.500000  0.657808  0.157808  1
  O  O10  1  0.653973  0.652088  0.001581  1
  O  O11  1  0.346027  0.347608  0.998116  1
  O  O12  1  0.654057  0.001997  0.653775  1
  O  O13  1  0.345943  0.999719  0.347940  1
  O  O14  1  0.000000  0.650630  0.650630  1
  O  O15  1  0.000000  0.346077  0.346077  1
  O  O16  1  0.000000  0.026216  0.026216  1
  O  O17  1  0.340527  0.610132  0.300000  1
  O  O18  1  0.659473  0.959472  0.269604  1
  O  O19  1  0.696714  0.382841  0.735820  1
  O  O20  1  0.617799  0.305649  0.347632  1
  O  O21  1  0.303286  0.039107  0.686128  1
  O  O22  1  0.962208  0.263592  0.655517  1
  O  O23  1  0.382201  0.729833  0.687851  1
  O  O24  1  0.037792  0.693309  0.301384  1
  O  O25  1  0.303020  0.342961  0.610693  1
  O  O26  1  0.734600  0.694168  0.384197  1
  O  O27  1  0.696980  0.307672  0.039941  1
  O  O28  1  0.265399  0.649597  0.959567  1
