# generated using pymatgen
data_Tb9Dy7Cd2CoHg2Ru3
_symmetry_space_group_name_H-M   'P 1'
_cell_length_a   9.64962495
_cell_length_b   9.64708222
_cell_length_c   9.58133102
_cell_angle_alpha   59.67059165
_cell_angle_beta   59.67306928
_cell_angle_gamma   59.90504899
_symmetry_Int_Tables_number   1
_chemical_formula_structural   Tb9Dy7Cd2CoHg2Ru3
_chemical_formula_sum   'Tb9 Dy7 Cd2 Co1 Hg2 Ru3'
_cell_volume   627.09833106
_cell_formula_units_Z   1
loop_
 _symmetry_equiv_pos_site_id
 _symmetry_equiv_pos_as_xyz
  1  'x, y, z'
loop_
 _atom_site_type_symbol
 _atom_site_label
 _atom_site_symmetry_multiplicity
 _atom_site_fract_x
 _atom_site_fract_y
 _atom_site_fract_z
 _atom_site_occupancy
  Tb  Tb0  1  0.594871  0.208617  0.602033  1
  Tb  Tb1  1  0.810801  0.811207  0.188955  1
  Tb  Tb2  1  0.208877  0.594946  0.601829  1
  Tb  Tb3  1  0.810289  0.189276  0.190490  1
  Tb  Tb4  1  0.060196  0.439796  0.438632  1
  Tb  Tb5  1  0.189389  0.810550  0.190296  1
  Tb  Tb6  1  0.596596  0.596756  0.209594  1
  Tb  Tb7  1  0.187816  0.187507  0.810282  1
  Tb  Tb8  1  0.064846  0.438766  0.056892  1
  Dy  Dy9  1  0.438162  0.437711  0.057458  1
  Dy  Dy10  1  0.594951  0.595191  0.602009  1
  Dy  Dy11  1  0.186149  0.815444  0.809950  1
  Dy  Dy12  1  0.059891  0.059488  0.438277  1
  Dy  Dy13  1  0.438943  0.064577  0.057320  1
  Dy  Dy14  1  0.815203  0.186040  0.810128  1
  Dy  Dy15  1  0.439926  0.060111  0.438353  1
  Cd  Cd16  1  0.510350  0.829305  0.829064  1
  Cd  Cd17  1  0.829205  0.510382  0.829114  1
  Co  Co18  1  0.390478  0.390535  0.830472  1
  Hg  Hg19  1  0.832724  0.832920  0.498408  1
  Hg  Hg20  1  0.833252  0.833370  0.833769  1
  Ru  Ru21  1  0.387963  0.388055  0.390921  1
  Ru  Ru22  1  0.830402  0.388837  0.392917  1
  Ru  Ru23  1  0.388714  0.830605  0.392836  1
