# generated using pymatgen
data_La12Sb(OsI4)3
_symmetry_space_group_name_H-M   'P 1'
_cell_length_a   11.29063252
_cell_length_b   11.29063274
_cell_length_c   11.29063313
_cell_angle_alpha   110.41913249
_cell_angle_beta   110.41912901
_cell_angle_gamma   110.41913399
_symmetry_Int_Tables_number   1
_chemical_formula_structural   La12Sb(OsI4)3
_chemical_formula_sum   'La12 Sb1 Os3 I12'
_cell_volume   1067.32961761
_cell_formula_units_Z   1
loop_
 _symmetry_equiv_pos_site_id
 _symmetry_equiv_pos_as_xyz
  1  'x, y, z'
loop_
 _atom_site_type_symbol
 _atom_site_label
 _atom_site_symmetry_multiplicity
 _atom_site_fract_x
 _atom_site_fract_y
 _atom_site_fract_z
 _atom_site_occupancy
  La  La0  1  0.464746  0.502741  0.218424  1
  La  La1  1  0.750000  0.227592  0.272408  1
  La  La2  1  0.750000  0.021177  0.478823  1
  La  La3  1  0.218424  0.464746  0.502741  1
  La  La4  1  0.272408  0.750000  0.227592  1
  La  La5  1  0.035254  0.281576  0.997259  1
  La  La6  1  0.997259  0.035254  0.281576  1
  La  La7  1  0.478823  0.750000  0.021177  1
  La  La8  1  0.502741  0.218424  0.464746  1
  La  La9  1  0.021177  0.478823  0.750000  1
  La  La10  1  0.281576  0.997259  0.035254  1
  La  La11  1  0.227592  0.272408  0.750000  1
  Sb  Sb12  1  0.250000  0.250000  0.250000  1
  Os  Os13  1  0.500809  0.999191  0.250000  1
  Os  Os14  1  0.999191  0.250000  0.500809  1
  Os  Os15  1  0.250000  0.500809  0.999191  1
  I  I16  1  0.250000  0.763056  0.736944  1
  I  I17  1  0.512578  0.501179  0.752183  1
  I  I18  1  0.987422  0.747817  0.998821  1
  I  I19  1  0.736944  0.250000  0.763056  1
  I  I20  1  0.998821  0.987422  0.747817  1
  I  I21  1  0.250000  0.998238  0.501762  1
  I  I22  1  0.752183  0.512578  0.501179  1
  I  I23  1  0.501762  0.250000  0.998238  1
  I  I24  1  0.763056  0.736944  0.250000  1
  I  I25  1  0.747817  0.998821  0.987422  1
  I  I26  1  0.998238  0.501762  0.250000  1
  I  I27  1  0.501179  0.752183  0.512578  1
