# generated using pymatgen
data_Tb3Pr16ErSn16
_symmetry_space_group_name_H-M   'P 1'
_cell_length_a   8.29647336
_cell_length_b   8.45949462
_cell_length_c   16.04754800
_cell_angle_alpha   90.00000000
_cell_angle_beta   90.00000000
_cell_angle_gamma   89.99496041
_symmetry_Int_Tables_number   1
_chemical_formula_structural   Tb3Pr16ErSn16
_chemical_formula_sum   'Tb3 Pr16 Er1 Sn16'
_cell_volume   1126.28065060
_cell_formula_units_Z   1
loop_
 _symmetry_equiv_pos_site_id
 _symmetry_equiv_pos_as_xyz
  1  'x, y, z'
loop_
 _atom_site_type_symbol
 _atom_site_label
 _atom_site_symmetry_multiplicity
 _atom_site_fract_x
 _atom_site_fract_y
 _atom_site_fract_z
 _atom_site_occupancy
  Tb  Tb0  1  0.698648  0.998425  0.750000  1
  Tb  Tb1  1  0.801047  0.498698  0.250000  1
  Tb  Tb2  1  0.300919  0.001303  0.250000  1
  Pr  Pr3  1  0.367524  0.836560  0.879539  1
  Pr  Pr4  1  0.867971  0.662990  0.620536  1
  Pr  Pr5  1  0.632613  0.162871  0.379353  1
  Pr  Pr6  1  0.132512  0.336900  0.121119  1
  Pr  Pr7  1  0.632613  0.162871  0.120647  1
  Pr  Pr8  1  0.132512  0.336900  0.378881  1
  Pr  Pr9  1  0.367524  0.836560  0.620461  1
  Pr  Pr10  1  0.867971  0.662990  0.879464  1
  Pr  Pr11  1  0.518761  0.318977  0.901215  1
  Pr  Pr12  1  0.018996  0.180908  0.598753  1
  Pr  Pr13  1  0.480971  0.681054  0.400739  1
  Pr  Pr14  1  0.980997  0.819000  0.098962  1
  Pr  Pr15  1  0.480971  0.681054  0.099261  1
  Pr  Pr16  1  0.980997  0.819000  0.401038  1
  Pr  Pr17  1  0.518761  0.318977  0.598785  1
  Pr  Pr18  1  0.018996  0.180908  0.901247  1
  Er  Er19  1  0.199018  0.501245  0.750000  1
  Sn  Sn20  1  0.291979  0.034232  0.044274  1
  Sn  Sn21  1  0.792328  0.465788  0.455841  1
  Sn  Sn22  1  0.707906  0.966263  0.544258  1
  Sn  Sn23  1  0.207721  0.534755  0.956249  1
  Sn  Sn24  1  0.707906  0.966263  0.955742  1
  Sn  Sn25  1  0.207721  0.534755  0.543751  1
  Sn  Sn26  1  0.291979  0.034232  0.455726  1
  Sn  Sn27  1  0.792328  0.465788  0.044159  1
  Sn  Sn28  1  0.564471  0.616738  0.750000  1
  Sn  Sn29  1  0.064795  0.884025  0.750000  1
  Sn  Sn30  1  0.435590  0.383512  0.250000  1
  Sn  Sn31  1  0.934949  0.115976  0.250000  1
  Sn  Sn32  1  0.325281  0.145426  0.750000  1
  Sn  Sn33  1  0.823651  0.353780  0.750000  1
  Sn  Sn34  1  0.675610  0.854109  0.250000  1
  Sn  Sn35  1  0.175468  0.646163  0.250000  1
