# generated using pymatgen
data_Pr8Tl5In3Rh8
_symmetry_space_group_name_H-M   'P 1'
_cell_length_a   4.18585000
_cell_length_b   7.74263662
_cell_length_c   17.23881000
_cell_angle_alpha   90.24121964
_cell_angle_beta   90.00000000
_cell_angle_gamma   90.00000000
_symmetry_Int_Tables_number   1
_chemical_formula_structural   Pr8Tl5In3Rh8
_chemical_formula_sum   'Pr8 Tl5 In3 Rh8'
_cell_volume   558.69652827
_cell_formula_units_Z   1
loop_
 _symmetry_equiv_pos_site_id
 _symmetry_equiv_pos_as_xyz
  1  'x, y, z'
loop_
 _atom_site_type_symbol
 _atom_site_label
 _atom_site_symmetry_multiplicity
 _atom_site_fract_x
 _atom_site_fract_y
 _atom_site_fract_z
 _atom_site_occupancy
  Pr  Pr0  1  0.750000  0.335749  0.438541  1
  Pr  Pr1  1  0.250000  0.056096  0.716163  1
  Pr  Pr2  1  0.250000  0.557327  0.784232  1
  Pr  Pr3  1  0.250000  0.662893  0.560937  1
  Pr  Pr4  1  0.750000  0.838936  0.060533  1
  Pr  Pr5  1  0.250000  0.161709  0.939612  1
  Pr  Pr6  1  0.750000  0.442729  0.215797  1
  Pr  Pr7  1  0.750000  0.944853  0.283580  1
  Tl  Tl8  1  0.750000  0.998673  0.566374  1
  Tl  Tl9  1  0.250000  0.501425  0.067314  1
  Tl  Tl10  1  0.750000  0.387289  0.655058  1
  Tl  Tl11  1  0.750000  0.498652  0.932981  1
  Tl  Tl12  1  0.250000  0.613110  0.344508  1
  In  In13  1  0.250000  0.114484  0.154606  1
  In  In14  1  0.250000  0.999157  0.434540  1
  In  In15  1  0.750000  0.885932  0.845546  1
  Rh  Rh16  1  0.750000  0.244310  0.813872  1
  Rh  Rh17  1  0.250000  0.238914  0.313307  1
  Rh  Rh18  1  0.250000  0.760974  0.934444  1
  Rh  Rh19  1  0.250000  0.255970  0.559649  1
  Rh  Rh20  1  0.250000  0.755558  0.185995  1
  Rh  Rh21  1  0.750000  0.750861  0.437199  1
  Rh  Rh22  1  0.750000  0.239051  0.065576  1
  Rh  Rh23  1  0.750000  0.755346  0.689633  1
