# generated using pymatgen
data_CsRb3(NpI6)2
_symmetry_space_group_name_H-M   'P 1'
_cell_length_a   8.44499051
_cell_length_b   8.43707171
_cell_length_c   12.57761800
_cell_angle_alpha   90.00000000
_cell_angle_beta   90.00000000
_cell_angle_gamma   90.21930976
_symmetry_Int_Tables_number   1
_chemical_formula_structural   CsRb3(NpI6)2
_chemical_formula_sum   'Cs1 Rb3 Np2 I12'
_cell_volume   896.16117674
_cell_formula_units_Z   1
loop_
 _symmetry_equiv_pos_site_id
 _symmetry_equiv_pos_as_xyz
  1  'x, y, z'
loop_
 _atom_site_type_symbol
 _atom_site_label
 _atom_site_symmetry_multiplicity
 _atom_site_fract_x
 _atom_site_fract_y
 _atom_site_fract_z
 _atom_site_occupancy
  Cs  Cs0  1  0.000000  0.500000  0.249358  1
  Rb  Rb1  1  0.500000  0.000000  0.250138  1
  Rb  Rb2  1  0.000000  0.500000  0.750506  1
  Rb  Rb3  1  0.500000  0.000000  0.749885  1
  Np  Np4  1  0.000000  0.000000  0.999571  1
  Np  Np5  1  0.500000  0.500000  0.500514  1
  I  I6  1  0.000000  0.000000  0.240031  1
  I  I7  1  0.500000  0.500000  0.259672  1
  I  I8  1  0.000000  0.000000  0.759473  1
  I  I9  1  0.500000  0.500000  0.740995  1
  I  I10  1  0.198674  0.294827  0.997974  1
  I  I11  1  0.702490  0.196263  0.000109  1
  I  I12  1  0.297510  0.803737  0.000109  1
  I  I13  1  0.697592  0.204659  0.499933  1
  I  I14  1  0.302408  0.795341  0.499933  1
  I  I15  1  0.801326  0.705173  0.997974  1
  I  I16  1  0.796611  0.697400  0.501911  1
  I  I17  1  0.203389  0.302600  0.501911  1
