# generated using pymatgen
data_GaMo12Pt3(RhN)4
_symmetry_space_group_name_H-M   'P 1'
_cell_length_a   6.86739143
_cell_length_b   6.86897038
_cell_length_c   6.86468846
_cell_angle_alpha   89.71565379
_cell_angle_beta   89.82485365
_cell_angle_gamma   89.70419298
_symmetry_Int_Tables_number   1
_chemical_formula_structural   GaMo12Pt3(RhN)4
_chemical_formula_sum   'Ga1 Mo12 Pt3 Rh4 N4'
_cell_volume   323.81066336
_cell_formula_units_Z   1
loop_
 _symmetry_equiv_pos_site_id
 _symmetry_equiv_pos_as_xyz
  1  'x, y, z'
loop_
 _atom_site_type_symbol
 _atom_site_label
 _atom_site_symmetry_multiplicity
 _atom_site_fract_x
 _atom_site_fract_y
 _atom_site_fract_z
 _atom_site_occupancy
  Ga  Ga0  1  0.190233  0.184961  0.183978  1
  Mo  Mo1  1  0.622762  0.702027  0.950749  1
  Mo  Mo2  1  0.461649  0.870579  0.304674  1
  Mo  Mo3  1  0.698443  0.952347  0.624901  1
  Mo  Mo4  1  0.552023  0.375379  0.202242  1
  Mo  Mo5  1  0.375875  0.201423  0.554454  1
  Mo  Mo6  1  0.201942  0.551776  0.375322  1
  Mo  Mo7  1  0.869158  0.306774  0.463078  1
  Mo  Mo8  1  0.045139  0.120747  0.795121  1
  Mo  Mo9  1  0.307143  0.461148  0.869769  1
  Mo  Mo10  1  0.121368  0.793678  0.043890  1
  Mo  Mo11  1  0.790815  0.044852  0.120096  1
  Mo  Mo12  1  0.952639  0.624573  0.699505  1
  Pt  Pt13  1  0.558234  0.558748  0.558915  1
  Pt  Pt14  1  0.062951  0.948429  0.428629  1
  Pt  Pt15  1  0.948521  0.427710  0.063200  1
  Rh  Rh16  1  0.308575  0.816218  0.689817  1
  Rh  Rh17  1  0.430330  0.061974  0.946823  1
  Rh  Rh18  1  0.813903  0.687754  0.306994  1
  Rh  Rh19  1  0.686206  0.305802  0.815574  1
  N  N20  1  0.376978  0.626957  0.125887  1
  N  N21  1  0.872666  0.872749  0.872336  1
  N  N22  1  0.126149  0.376815  0.626985  1
  N  N23  1  0.626298  0.126578  0.377061  1
