# generated using pymatgen
data_Tm12TlCo(TcNi)2
_symmetry_space_group_name_H-M   'P 1'
_cell_length_a   8.21592037
_cell_length_b   8.21817620
_cell_length_c   8.21591981
_cell_angle_alpha   111.19324703
_cell_angle_beta   112.48795532
_cell_angle_gamma   104.82258131
_symmetry_Int_Tables_number   1
_chemical_formula_structural   Tm12TlCo(TcNi)2
_chemical_formula_sum   'Tm12 Tl1 Co1 Tc2 Ni2'
_cell_volume   424.94977272
_cell_formula_units_Z   1
loop_
 _symmetry_equiv_pos_site_id
 _symmetry_equiv_pos_as_xyz
  1  'x, y, z'
loop_
 _atom_site_type_symbol
 _atom_site_label
 _atom_site_symmetry_multiplicity
 _atom_site_fract_x
 _atom_site_fract_y
 _atom_site_fract_z
 _atom_site_occupancy
  Tm  Tm0  1  0.273213  0.183671  0.453837  1
  Tm  Tm1  1  0.725400  0.819273  0.541483  1
  Tm  Tm2  1  0.277789  0.819273  0.093872  1
  Tm  Tm3  1  0.729834  0.183671  0.910458  1
  Tm  Tm4  1  0.615862  0.305033  0.300323  1
  Tm  Tm5  1  0.382874  0.680649  0.691927  1
  Tm  Tm6  1  0.004710  0.305033  0.689171  1
  Tm  Tm7  1  0.988721  0.680649  0.297772  1
  Tm  Tm8  1  0.228602  0.419763  0.191162  1
  Tm  Tm9  1  0.773647  0.577822  0.804174  1
  Tm  Tm10  1  0.227796  0.032319  0.804524  1
  Tm  Tm11  1  0.772327  0.963734  0.191408  1
  Tl  Tl12  1  0.500482  0.498140  0.997658  1
  Co  Co13  1  0.610239  0.108651  0.498412  1
  Tc  Tc14  1  0.000836  0.382900  0.382064  1
  Tc  Tc15  1  0.001687  0.001487  0.999801  1
  Ni  Ni16  1  0.001099  0.652080  0.650981  1
  Ni  Ni17  1  0.384881  0.885859  0.500978  1
