# generated using pymatgen
data_TbHoTm2Al18(Pd2Rh)2
_symmetry_space_group_name_H-M   'P 1'
_cell_length_a   7.53761300
_cell_length_b   7.53812652
_cell_length_c   9.44072600
_cell_angle_alpha   90.00000000
_cell_angle_beta   90.00000000
_cell_angle_gamma   119.29349961
_symmetry_Int_Tables_number   1
_chemical_formula_structural   TbHoTm2Al18(Pd2Rh)2
_chemical_formula_sum   'Tb1 Ho1 Tm2 Al18 Pd4 Rh2'
_cell_volume   467.82269058
_cell_formula_units_Z   1
loop_
 _symmetry_equiv_pos_site_id
 _symmetry_equiv_pos_as_xyz
  1  'x, y, z'
loop_
 _atom_site_type_symbol
 _atom_site_label
 _atom_site_symmetry_multiplicity
 _atom_site_fract_x
 _atom_site_fract_y
 _atom_site_fract_z
 _atom_site_occupancy
  Tb  Tb0  1  0.668972  0.994397  0.250000  1
  Ho  Ho1  1  0.994489  0.669302  0.250000  1
  Tm  Tm2  1  0.005602  0.329992  0.750000  1
  Tm  Tm3  1  0.329864  0.005456  0.750000  1
  Al  Al4  1  0.127335  0.127137  0.250000  1
  Al  Al5  1  0.874353  0.874161  0.750000  1
  Al  Al6  1  0.000495  0.331796  0.075470  1
  Al  Al7  1  0.000693  0.668240  0.921500  1
  Al  Al8  1  0.000693  0.668240  0.578500  1
  Al  Al9  1  0.330971  0.000080  0.424561  1
  Al  Al10  1  0.000495  0.331796  0.424530  1
  Al  Al11  1  0.668279  0.000653  0.578864  1
  Al  Al12  1  0.668279  0.000653  0.921136  1
  Al  Al13  1  0.330971  0.000080  0.075439  1
  Al  Al14  1  0.329665  0.329654  0.557643  1
  Al  Al15  1  0.670174  0.669826  0.446467  1
  Al  Al16  1  0.670174  0.669826  0.053533  1
  Al  Al17  1  0.329665  0.329654  0.942357  1
  Al  Al18  1  0.340443  0.547613  0.250000  1
  Al  Al19  1  0.659277  0.450720  0.750000  1
  Al  Al20  1  0.548026  0.341277  0.250000  1
  Al  Al21  1  0.450641  0.659120  0.750000  1
  Pd  Pd22  1  0.672312  0.327540  0.999460  1
  Pd  Pd23  1  0.327397  0.672259  0.999480  1
  Pd  Pd24  1  0.327397  0.672259  0.500520  1
  Pd  Pd25  1  0.672312  0.327540  0.500540  1
  Rh  Rh26  1  0.000515  0.000363  0.999201  1
  Rh  Rh27  1  0.000515  0.000363  0.500799  1
