# generated using pymatgen
data_La4Nd12Cd4Ir3Pt
_symmetry_space_group_name_H-M   'P 1'
_cell_length_a   10.00364101
_cell_length_b   10.00364103
_cell_length_c   10.00364148
_cell_angle_alpha   60.22759398
_cell_angle_beta   60.22759128
_cell_angle_gamma   60.22759563
_symmetry_Int_Tables_number   1
_chemical_formula_structural   La4Nd12Cd4Ir3Pt
_chemical_formula_sum   'La4 Nd12 Cd4 Ir3 Pt1'
_cell_volume   711.52693548
_cell_formula_units_Z   1
loop_
 _symmetry_equiv_pos_site_id
 _symmetry_equiv_pos_as_xyz
  1  'x, y, z'
loop_
 _atom_site_type_symbol
 _atom_site_label
 _atom_site_symmetry_multiplicity
 _atom_site_fract_x
 _atom_site_fract_y
 _atom_site_fract_z
 _atom_site_occupancy
  La  La0  1  0.346858  0.346858  0.346858  1
  La  La1  1  0.351347  0.351347  0.952611  1
  La  La2  1  0.351347  0.952611  0.351347  1
  La  La3  1  0.952611  0.351347  0.351347  1
  Nd  Nd4  1  0.806878  0.189486  0.189486  1
  Nd  Nd5  1  0.187785  0.810780  0.810780  1
  Nd  Nd6  1  0.189486  0.806878  0.189486  1
  Nd  Nd7  1  0.810780  0.187785  0.810780  1
  Nd  Nd8  1  0.189486  0.189486  0.806878  1
  Nd  Nd9  1  0.810780  0.810780  0.187785  1
  Nd  Nd10  1  0.938298  0.563485  0.563485  1
  Nd  Nd11  1  0.563896  0.937312  0.937312  1
  Nd  Nd12  1  0.563485  0.938298  0.563485  1
  Nd  Nd13  1  0.937312  0.563896  0.937312  1
  Nd  Nd14  1  0.563485  0.563485  0.938298  1
  Nd  Nd15  1  0.937312  0.937312  0.563896  1
  Cd  Cd16  1  0.580545  0.580545  0.580545  1
  Cd  Cd17  1  0.580276  0.580276  0.258729  1
  Cd  Cd18  1  0.580276  0.258729  0.580276  1
  Cd  Cd19  1  0.258729  0.580276  0.580276  1
  Ir  Ir20  1  0.141715  0.141715  0.573665  1
  Ir  Ir21  1  0.141715  0.573665  0.141715  1
  Ir  Ir22  1  0.573665  0.141715  0.141715  1
  Pt  Pt23  1  0.141929  0.141929  0.141929  1
