# generated using pymatgen
data_Sm2Ho2Ga4NiRu3
_symmetry_space_group_name_H-M   'P 1'
_cell_length_a   4.51392300
_cell_length_b   7.19360200
_cell_length_c   7.12807229
_cell_angle_alpha   89.35303956
_cell_angle_beta   90.00000000
_cell_angle_gamma   90.00000000
_symmetry_Int_Tables_number   1
_chemical_formula_structural   Sm2Ho2Ga4NiRu3
_chemical_formula_sum   'Sm2 Ho2 Ga4 Ni1 Ru3'
_cell_volume   231.44348570
_cell_formula_units_Z   1
loop_
 _symmetry_equiv_pos_site_id
 _symmetry_equiv_pos_as_xyz
  1  'x, y, z'
loop_
 _atom_site_type_symbol
 _atom_site_label
 _atom_site_symmetry_multiplicity
 _atom_site_fract_x
 _atom_site_fract_y
 _atom_site_fract_z
 _atom_site_occupancy
  Sm  Sm0  1  0.250000  0.522131  0.693657  1
  Sm  Sm1  1  0.750000  0.480248  0.304055  1
  Ho  Ho2  1  0.250000  0.023128  0.801700  1
  Ho  Ho3  1  0.750000  0.980167  0.200227  1
  Ga  Ga4  1  0.250000  0.195366  0.396231  1
  Ga  Ga5  1  0.250000  0.696203  0.103728  1
  Ga  Ga6  1  0.750000  0.801041  0.606911  1
  Ga  Ga7  1  0.750000  0.305043  0.894389  1
  Ni  Ni8  1  0.750000  0.662175  0.936178  1
  Ru  Ru9  1  0.250000  0.842909  0.433645  1
  Ru  Ru10  1  0.250000  0.336570  0.062272  1
  Ru  Ru11  1  0.750000  0.155021  0.567007  1
