# generated using pymatgen
data_Zr2CuSi2Au
_symmetry_space_group_name_H-M   'P 1'
_cell_length_a   3.98150500
_cell_length_b   6.63232852
_cell_length_c   7.57527652
_cell_angle_alpha   88.40310688
_cell_angle_beta   90.00000000
_cell_angle_gamma   90.00000000
_symmetry_Int_Tables_number   1
_chemical_formula_structural   Zr2CuSi2Au
_chemical_formula_sum   'Zr4 Cu2 Si4 Au2'
_cell_volume   199.95998017
_cell_formula_units_Z   2
loop_
 _symmetry_equiv_pos_site_id
 _symmetry_equiv_pos_as_xyz
  1  'x, y, z'
loop_
 _atom_site_type_symbol
 _atom_site_label
 _atom_site_symmetry_multiplicity
 _atom_site_fract_x
 _atom_site_fract_y
 _atom_site_fract_z
 _atom_site_occupancy
  Zr  Zr0  1  0.250000  0.518442  0.694386  1
  Zr  Zr1  1  0.750000  0.481558  0.305614  1
  Zr  Zr2  1  0.250000  0.015893  0.821139  1
  Zr  Zr3  1  0.750000  0.984107  0.178861  1
  Cu  Cu4  1  0.750000  0.336105  0.928119  1
  Cu  Cu5  1  0.250000  0.663895  0.071881  1
  Si  Si6  1  0.250000  0.282646  0.094403  1
  Si  Si7  1  0.750000  0.717354  0.905597  1
  Si  Si8  1  0.250000  0.761774  0.373649  1
  Si  Si9  1  0.750000  0.238226  0.626351  1
  Au  Au10  1  0.750000  0.836324  0.571478  1
  Au  Au11  1  0.250000  0.163676  0.428522  1
