# generated using pymatgen
data_Tb4Th2MgCo17P12
_symmetry_space_group_name_H-M   'P 1'
_cell_length_a   3.74540000
_cell_length_b   10.62738400
_cell_length_c   12.29122900
_cell_angle_alpha   90.00000000
_cell_angle_beta   90.00000000
_cell_angle_gamma   90.00000000
_symmetry_Int_Tables_number   1
_chemical_formula_structural   Tb4Th2MgCo17P12
_chemical_formula_sum   'Tb4 Th2 Mg1 Co17 P12'
_cell_volume   489.23767045
_cell_formula_units_Z   1
loop_
 _symmetry_equiv_pos_site_id
 _symmetry_equiv_pos_as_xyz
  1  'x, y, z'
loop_
 _atom_site_type_symbol
 _atom_site_label
 _atom_site_symmetry_multiplicity
 _atom_site_fract_x
 _atom_site_fract_y
 _atom_site_fract_z
 _atom_site_occupancy
  Tb  Tb0  1  0.500000  0.818991  0.204876  1
  Tb  Tb1  1  0.500000  0.181009  0.204876  1
  Tb  Tb2  1  0.000000  0.684755  0.796817  1
  Tb  Tb3  1  0.000000  0.315245  0.796817  1
  Th  Th4  1  0.000000  0.500000  0.528488  1
  Th  Th5  1  0.500000  0.000000  0.475310  1
  Mg  Mg6  1  0.500000  0.500000  0.149424  1
  Co  Co7  1  0.000000  0.000000  0.841111  1
  Co  Co8  1  0.500000  0.500000  0.702783  1
  Co  Co9  1  0.000000  0.000000  0.297580  1
  Co  Co10  1  0.000000  0.500000  0.985328  1
  Co  Co11  1  0.500000  0.000000  0.014045  1
  Co  Co12  1  0.500000  0.329487  0.992698  1
  Co  Co13  1  0.500000  0.670513  0.992698  1
  Co  Co14  1  0.000000  0.162726  0.002284  1
  Co  Co15  1  0.000000  0.837274  0.002284  1
  Co  Co16  1  0.500000  0.296681  0.432390  1
  Co  Co17  1  0.500000  0.703319  0.432390  1
  Co  Co18  1  0.000000  0.200678  0.571053  1
  Co  Co19  1  0.000000  0.799322  0.571053  1
  Co  Co20  1  0.500000  0.881165  0.711794  1
  Co  Co21  1  0.500000  0.118835  0.711794  1
  Co  Co22  1  0.000000  0.621920  0.290438  1
  Co  Co23  1  0.000000  0.378080  0.290438  1
  P  P24  1  0.500000  0.500000  0.882693  1
  P  P25  1  0.000000  0.000000  0.116794  1
  P  P26  1  0.500000  0.500000  0.348015  1
  P  P27  1  0.000000  0.000000  0.660914  1
  P  P28  1  0.500000  0.304529  0.618886  1
  P  P29  1  0.500000  0.695471  0.618886  1
  P  P30  1  0.000000  0.194614  0.383794  1
  P  P31  1  0.000000  0.805386  0.383794  1
  P  P32  1  0.500000  0.849992  0.892906  1
  P  P33  1  0.500000  0.150008  0.892906  1
  P  P34  1  0.000000  0.662240  0.100821  1
  P  P35  1  0.000000  0.337760  0.100821  1
