# generated using pymatgen
data_Nd8B8Ir19Rh
_symmetry_space_group_name_H-M   'P 1'
_cell_length_a   5.54086255
_cell_length_b   5.54781599
_cell_length_c   21.33886200
_cell_angle_alpha   90.00000000
_cell_angle_beta   90.00000000
_cell_angle_gamma   120.04060162
_symmetry_Int_Tables_number   1
_chemical_formula_structural   Nd8B8Ir19Rh
_chemical_formula_sum   'Nd8 B8 Ir19 Rh1'
_cell_volume   567.83673332
_cell_formula_units_Z   1
loop_
 _symmetry_equiv_pos_site_id
 _symmetry_equiv_pos_as_xyz
  1  'x, y, z'
loop_
 _atom_site_type_symbol
 _atom_site_label
 _atom_site_symmetry_multiplicity
 _atom_site_fract_x
 _atom_site_fract_y
 _atom_site_fract_z
 _atom_site_occupancy
  Nd  Nd0  1  0.666660  0.333338  0.522483  1
  Nd  Nd1  1  0.333148  0.666571  0.477631  1
  Nd  Nd2  1  0.333148  0.666571  0.022369  1
  Nd  Nd3  1  0.666660  0.333338  0.977517  1
  Nd  Nd4  1  0.666684  0.333390  0.675187  1
  Nd  Nd5  1  0.332945  0.666440  0.324939  1
  Nd  Nd6  1  0.332945  0.666440  0.175061  1
  Nd  Nd7  1  0.666684  0.333390  0.824813  1
  B  B8  1  0.000572  0.000319  0.678004  1
  B  B9  1  0.997707  0.998809  0.322162  1
  B  B10  1  0.997707  0.998809  0.177838  1
  B  B11  1  0.000572  0.000319  0.821996  1
  B  B12  1  0.669602  0.334760  0.325565  1
  B  B13  1  0.333113  0.666592  0.674529  1
  B  B14  1  0.333113  0.666592  0.825471  1
  B  B15  1  0.669602  0.334760  0.174435  1
  Ir  Ir16  1  0.999076  0.999539  0.499884  1
  Ir  Ir17  1  0.999076  0.999539  0.000116  1
  Ir  Ir18  1  0.167668  0.335374  0.750000  1
  Ir  Ir19  1  0.167669  0.832358  0.750000  1
  Ir  Ir20  1  0.664780  0.832426  0.750000  1
  Ir  Ir21  1  0.832162  0.664579  0.250000  1
  Ir  Ir22  1  0.832163  0.167513  0.250000  1
  Ir  Ir23  1  0.162800  0.325530  0.607667  1
  Ir  Ir24  1  0.162800  0.837345  0.607671  1
  Ir  Ir25  1  0.674886  0.837483  0.607819  1
  Ir  Ir26  1  0.837104  0.674708  0.392287  1
  Ir  Ir27  1  0.837105  0.162315  0.392282  1
  Ir  Ir28  1  0.326301  0.163114  0.391674  1
  Ir  Ir29  1  0.837104  0.674708  0.107713  1
  Ir  Ir30  1  0.837105  0.162315  0.107718  1
  Ir  Ir31  1  0.326301  0.163114  0.108326  1
  Ir  Ir32  1  0.162800  0.325530  0.892333  1
  Ir  Ir33  1  0.162800  0.837345  0.892329  1
  Ir  Ir34  1  0.674886  0.837483  0.892181  1
  Rh  Rh35  1  0.334551  0.167242  0.250000  1
