# generated using pymatgen
data_BaLa(Cd2Pt)4
_symmetry_space_group_name_H-M   'P 1'
_cell_length_a   8.43182092
_cell_length_b   8.43182092
_cell_length_c   4.52200200
_cell_angle_alpha   90.00000000
_cell_angle_beta   90.00000000
_cell_angle_gamma   91.76125887
_symmetry_Int_Tables_number   1
_chemical_formula_structural   BaLa(Cd2Pt)4
_chemical_formula_sum   'Ba1 La1 Cd8 Pt4'
_cell_volume   321.34258007
_cell_formula_units_Z   1
loop_
 _symmetry_equiv_pos_site_id
 _symmetry_equiv_pos_as_xyz
  1  'x, y, z'
loop_
 _atom_site_type_symbol
 _atom_site_label
 _atom_site_symmetry_multiplicity
 _atom_site_fract_x
 _atom_site_fract_y
 _atom_site_fract_z
 _atom_site_occupancy
  Ba  Ba0  1  0.000000  0.000000  0.000000  1
  La  La1  1  0.500000  0.500000  0.500000  1
  Cd  Cd2  1  0.344265  0.093236  0.500000  1
  Cd  Cd3  1  0.655735  0.906764  0.500000  1
  Cd  Cd4  1  0.842402  0.410600  0.000000  1
  Cd  Cd5  1  0.157598  0.589400  0.000000  1
  Cd  Cd6  1  0.093236  0.344265  0.500000  1
  Cd  Cd7  1  0.906764  0.655735  0.500000  1
  Cd  Cd8  1  0.410600  0.842402  0.000000  1
  Cd  Cd9  1  0.589400  0.157598  0.000000  1
  Pt  Pt10  1  0.767838  0.232162  0.500000  1
  Pt  Pt11  1  0.232162  0.767838  0.500000  1
  Pt  Pt12  1  0.296621  0.296621  0.000000  1
  Pt  Pt13  1  0.703379  0.703379  0.000000  1
