# generated using pymatgen
data_Hf8TiNb(Si3N)2
_symmetry_space_group_name_H-M   'P 1'
_cell_length_a   7.77696900
_cell_length_b   7.77696813
_cell_length_c   5.45440200
_cell_angle_alpha   90.00000000
_cell_angle_beta   90.00000000
_cell_angle_gamma   119.99999946
_symmetry_Int_Tables_number   1
_chemical_formula_structural   Hf8TiNb(Si3N)2
_chemical_formula_sum   'Hf8 Ti1 Nb1 Si6 N2'
_cell_volume   285.69225310
_cell_formula_units_Z   1
loop_
 _symmetry_equiv_pos_site_id
 _symmetry_equiv_pos_as_xyz
  1  'x, y, z'
loop_
 _atom_site_type_symbol
 _atom_site_label
 _atom_site_symmetry_multiplicity
 _atom_site_fract_x
 _atom_site_fract_y
 _atom_site_fract_z
 _atom_site_occupancy
  Hf  Hf0  1  0.235900  0.999621  0.250476  1
  Hf  Hf1  1  0.763721  0.999621  0.749524  1
  Hf  Hf2  1  0.000379  0.236279  0.250476  1
  Hf  Hf3  1  0.000379  0.764100  0.749524  1
  Hf  Hf4  1  0.763721  0.764100  0.250476  1
  Hf  Hf5  1  0.235900  0.236279  0.749524  1
  Hf  Hf6  1  0.666667  0.333333  0.500000  1
  Hf  Hf7  1  0.333333  0.666667  0.500000  1
  Ti  Ti8  1  0.666667  0.333333  0.000000  1
  Nb  Nb9  1  0.333333  0.666667  0.000000  1
  Si  Si10  1  0.594261  0.002751  0.237191  1
  Si  Si11  1  0.408490  0.002751  0.762809  1
  Si  Si12  1  0.997249  0.591510  0.237191  1
  Si  Si13  1  0.997249  0.405739  0.762809  1
  Si  Si14  1  0.408490  0.405739  0.237191  1
  Si  Si15  1  0.594261  0.591510  0.762809  1
  N  N16  1  0.000000  0.000000  0.000000  1
  N  N17  1  0.000000  0.000000  0.500000  1
