# generated using pymatgen
data_Tb3Ni2Ir7
_symmetry_space_group_name_H-M   'P 1'
_cell_length_a   5.29572874
_cell_length_b   5.29572826
_cell_length_c   8.99676950
_cell_angle_alpha   72.88367279
_cell_angle_beta   72.88367377
_cell_angle_gamma   60.00000884
_symmetry_Int_Tables_number   1
_chemical_formula_structural   Tb3Ni2Ir7
_chemical_formula_sum   'Tb3 Ni2 Ir7'
_cell_volume   205.50351621
_cell_formula_units_Z   1
loop_
 _symmetry_equiv_pos_site_id
 _symmetry_equiv_pos_as_xyz
  1  'x, y, z'
loop_
 _atom_site_type_symbol
 _atom_site_label
 _atom_site_symmetry_multiplicity
 _atom_site_fract_x
 _atom_site_fract_y
 _atom_site_fract_z
 _atom_site_occupancy
  Tb  Tb0  1  0.140157  0.140157  0.579530  1
  Tb  Tb1  1  0.859843  0.859843  0.420470  1
  Tb  Tb2  1  0.000000  0.000000  0.000000  1
  Ni  Ni3  1  0.333433  0.333433  0.999700  1
  Ni  Ni4  1  0.666567  0.666567  0.000300  1
  Ir  Ir5  1  0.078081  0.580646  0.760627  1
  Ir  Ir6  1  0.580646  0.580646  0.760627  1
  Ir  Ir7  1  0.580646  0.078081  0.760627  1
  Ir  Ir8  1  0.921919  0.419354  0.239373  1
  Ir  Ir9  1  0.419354  0.419354  0.239373  1
  Ir  Ir10  1  0.419354  0.921919  0.239373  1
  Ir  Ir11  1  0.500000  0.500000  0.500000  1
