# generated using pymatgen
data_La2Y5Lu13Si15Ge
_symmetry_space_group_name_H-M   'P 1'
_cell_length_a   7.36848445
_cell_length_b   7.63640123
_cell_length_c   14.42521089
_cell_angle_alpha   89.60464857
_cell_angle_beta   90.10221989
_cell_angle_gamma   89.96745768
_symmetry_Int_Tables_number   1
_chemical_formula_structural   La2Y5Lu13Si15Ge
_chemical_formula_sum   'La2 Y5 Lu13 Si15 Ge1'
_cell_volume   811.66716663
_cell_formula_units_Z   1
loop_
 _symmetry_equiv_pos_site_id
 _symmetry_equiv_pos_as_xyz
  1  'x, y, z'
loop_
 _atom_site_type_symbol
 _atom_site_label
 _atom_site_symmetry_multiplicity
 _atom_site_fract_x
 _atom_site_fract_y
 _atom_site_fract_z
 _atom_site_occupancy
  La  La0  1  0.521078  0.575596  0.343172  1
  La  La1  1  0.022381  0.423875  0.657401  1
  Y  Y2  1  0.977653  0.070247  0.149569  1
  Y  Y3  1  0.475685  0.931445  0.149564  1
  Y  Y4  1  0.974964  0.070844  0.850283  1
  Y  Y5  1  0.524273  0.571217  0.652807  1
  Y  Y6  1  0.024335  0.428633  0.348074  1
  Lu  Lu7  1  0.818102  0.577090  0.874926  1
  Lu  Lu8  1  0.314965  0.421424  0.124987  1
  Lu  Lu9  1  0.180260  0.927936  0.373343  1
  Lu  Lu10  1  0.679839  0.070650  0.627729  1
  Lu  Lu11  1  0.182038  0.926233  0.628309  1
  Lu  Lu12  1  0.681211  0.073337  0.371923  1
  Lu  Lu13  1  0.821444  0.572451  0.124438  1
  Lu  Lu14  1  0.317599  0.425760  0.873672  1
  Lu  Lu15  1  0.649003  0.240802  0.998974  1
  Lu  Lu16  1  0.146817  0.759021  0.000395  1
  Lu  Lu17  1  0.349043  0.258699  0.500207  1
  Lu  Lu18  1  0.849332  0.740806  0.500169  1
  Lu  Lu19  1  0.474770  0.934743  0.851413  1
  Si  Si20  1  0.019267  0.361457  0.999429  1
  Si  Si21  1  0.477430  0.864712  0.501148  1
  Si  Si22  1  0.976448  0.134268  0.499485  1
  Si  Si23  1  0.649489  0.280577  0.792705  1
  Si  Si24  1  0.150965  0.718340  0.208118  1
  Si  Si25  1  0.349139  0.214361  0.288145  1
  Si  Si26  1  0.852391  0.784892  0.712009  1
  Si  Si27  1  0.358877  0.215317  0.711145  1
  Si  Si28  1  0.858562  0.782704  0.288724  1
  Si  Si29  1  0.649069  0.275835  0.205845  1
  Si  Si30  1  0.151638  0.726783  0.794107  1
  Si  Si31  1  0.774160  0.883738  0.999323  1
  Si  Si32  1  0.273558  0.119268  0.998696  1
  Si  Si33  1  0.228907  0.625961  0.501712  1
  Si  Si34  1  0.728548  0.373191  0.498898  1
  Ge  Ge35  1  0.516760  0.637783  0.999155  1
