# generated using pymatgen
data_Tb4Ga18IrRu2Rh3
_symmetry_space_group_name_H-M   'P 1'
_cell_length_a   7.56030600
_cell_length_b   7.56030602
_cell_length_c   9.61985835
_cell_angle_alpha   90.09577625
_cell_angle_beta   90.09577280
_cell_angle_gamma   119.77551860
_symmetry_Int_Tables_number   1
_chemical_formula_structural   Tb4Ga18IrRu2Rh3
_chemical_formula_sum   'Tb4 Ga18 Ir1 Ru2 Rh3'
_cell_volume   477.25841368
_cell_formula_units_Z   1
loop_
 _symmetry_equiv_pos_site_id
 _symmetry_equiv_pos_as_xyz
  1  'x, y, z'
loop_
 _atom_site_type_symbol
 _atom_site_label
 _atom_site_symmetry_multiplicity
 _atom_site_fract_x
 _atom_site_fract_y
 _atom_site_fract_z
 _atom_site_occupancy
  Tb  Tb0  1  0.997205  0.667813  0.249330  1
  Tb  Tb1  1  0.002774  0.332147  0.750667  1
  Tb  Tb2  1  0.667853  0.997226  0.249333  1
  Tb  Tb3  1  0.332187  0.002795  0.750670  1
  Ga  Ga4  1  0.126606  0.126453  0.250597  1
  Ga  Ga5  1  0.873547  0.873394  0.749403  1
  Ga  Ga6  1  0.001926  0.335391  0.077710  1
  Ga  Ga7  1  0.998226  0.664882  0.922570  1
  Ga  Ga8  1  0.997766  0.665661  0.578096  1
  Ga  Ga9  1  0.334339  0.002234  0.421904  1
  Ga  Ga10  1  0.001155  0.333867  0.421649  1
  Ga  Ga11  1  0.666133  0.998845  0.578351  1
  Ga  Ga12  1  0.664609  0.998074  0.922290  1
  Ga  Ga13  1  0.335118  0.001774  0.077430  1
  Ga  Ga14  1  0.333793  0.333321  0.563055  1
  Ga  Ga15  1  0.666679  0.666207  0.436945  1
  Ga  Ga16  1  0.663535  0.663457  0.061279  1
  Ga  Ga17  1  0.336543  0.336465  0.938721  1
  Ga  Ga18  1  0.336905  0.546146  0.249004  1
  Ga  Ga19  1  0.663221  0.453500  0.750573  1
  Ga  Ga20  1  0.546500  0.336779  0.249427  1
  Ga  Ga21  1  0.453854  0.663095  0.750996  1
  Ir  Ir22  1  0.328089  0.671911  0.500000  1
  Ru  Ru23  1  0.672093  0.327907  0.000000  1
  Ru  Ru24  1  0.327785  0.672215  0.000000  1
  Rh  Rh25  1  0.671659  0.328341  0.500000  1
  Rh  Rh26  1  0.999850  0.000150  0.000000  1
  Rh  Rh27  1  0.000049  0.999951  0.500000  1
