# generated using pymatgen
data_CaLa11(GaRh)8
_symmetry_space_group_name_H-M   'P 1'
_cell_length_a   5.80022837
_cell_length_b   8.31446077
_cell_length_c   13.73547164
_cell_angle_alpha   90.04980326
_cell_angle_beta   89.95587537
_cell_angle_gamma   89.93407379
_symmetry_Int_Tables_number   1
_chemical_formula_structural   CaLa11(GaRh)8
_chemical_formula_sum   'Ca1 La11 Ga8 Rh8'
_cell_volume   662.40282668
_cell_formula_units_Z   1
loop_
 _symmetry_equiv_pos_site_id
 _symmetry_equiv_pos_as_xyz
  1  'x, y, z'
loop_
 _atom_site_type_symbol
 _atom_site_label
 _atom_site_symmetry_multiplicity
 _atom_site_fract_x
 _atom_site_fract_y
 _atom_site_fract_z
 _atom_site_occupancy
  Ca  Ca0  1  0.852703  0.899189  0.099096  1
  La  La1  1  0.635108  0.257511  0.249644  1
  La  La2  1  0.369329  0.742444  0.749538  1
  La  La3  1  0.367744  0.759980  0.247746  1
  La  La4  1  0.634101  0.240446  0.749218  1
  La  La5  1  0.150481  0.397979  0.095868  1
  La  La6  1  0.850281  0.601438  0.906061  1
  La  La7  1  0.851568  0.601054  0.595569  1
  La  La8  1  0.852411  0.899694  0.405744  1
  La  La9  1  0.148056  0.398083  0.404560  1
  La  La10  1  0.149643  0.100449  0.595344  1
  La  La11  1  0.146908  0.097906  0.907140  1
  Ga  Ga12  1  0.137815  0.106123  0.248542  1
  Ga  Ga13  1  0.862265  0.891547  0.750359  1
  Ga  Ga14  1  0.862056  0.610182  0.248515  1
  Ga  Ga15  1  0.137981  0.390906  0.749883  1
  Ga  Ga16  1  0.630701  0.248442  0.999931  1
  Ga  Ga17  1  0.373793  0.753232  0.000729  1
  Ga  Ga18  1  0.366523  0.749398  0.500190  1
  Ga  Ga19  1  0.632871  0.250646  0.499849  1
  Rh  Rh20  1  0.359348  0.034600  0.089105  1
  Rh  Rh21  1  0.632677  0.969253  0.907197  1
  Rh  Rh22  1  0.639313  0.968755  0.590361  1
  Rh  Rh23  1  0.639056  0.532203  0.409027  1
  Rh  Rh24  1  0.361903  0.029846  0.409274  1
  Rh  Rh25  1  0.360667  0.468783  0.590386  1
  Rh  Rh26  1  0.357559  0.470601  0.909576  1
  Rh  Rh27  1  0.637139  0.529305  0.091549  1
