# generated using pymatgen
data_La3BC2BrCl
_symmetry_space_group_name_H-M   'P 1'
_cell_length_a   15.19685600
_cell_length_b   3.97928100
_cell_length_c   11.52902200
_cell_angle_alpha   90.00000000
_cell_angle_beta   90.00000000
_cell_angle_gamma   90.00000000
_symmetry_Int_Tables_number   1
_chemical_formula_structural   La3BC2BrCl
_chemical_formula_sum   'La12 B4 C8 Br4 Cl4'
_cell_volume   697.18947856
_cell_formula_units_Z   4
loop_
 _symmetry_equiv_pos_site_id
 _symmetry_equiv_pos_as_xyz
  1  'x, y, z'
loop_
 _atom_site_type_symbol
 _atom_site_label
 _atom_site_symmetry_multiplicity
 _atom_site_fract_x
 _atom_site_fract_y
 _atom_site_fract_z
 _atom_site_occupancy
  La  La0  1  0.342488  0.249999  0.055427  1
  La  La1  1  0.865142  0.750001  0.124593  1
  La  La2  1  0.165871  0.750001  0.198194  1
  La  La3  1  0.665872  0.750001  0.301806  1
  La  La4  1  0.365142  0.750001  0.375407  1
  La  La5  1  0.842488  0.249999  0.444574  1
  La  La6  1  0.159594  0.750001  0.552157  1
  La  La7  1  0.637048  0.249999  0.619923  1
  La  La8  1  0.330853  0.249999  0.699521  1
  La  La9  1  0.830853  0.249999  0.800478  1
  La  La10  1  0.137048  0.249999  0.880077  1
  La  La11  1  0.659594  0.750001  0.947843  1
  B  B12  1  0.746541  0.249999  0.124950  1
  B  B13  1  0.246540  0.249999  0.375051  1
  B  B14  1  0.753943  0.750001  0.624236  1
  B  B15  1  0.253944  0.750001  0.875764  1
  C  C16  1  0.233149  0.750001  0.001481  1
  C  C17  1  0.774583  0.249999  0.248368  1
  C  C18  1  0.274583  0.249999  0.251632  1
  C  C19  1  0.733150  0.750001  0.498519  1
  C  C20  1  0.267548  0.249999  0.500368  1
  C  C21  1  0.724725  0.750001  0.747440  1
  C  C22  1  0.224726  0.750001  0.752560  1
  C  C23  1  0.767548  0.249999  0.999632  1
  Br  Br24  1  0.473425  0.750001  0.612044  1
  Br  Br25  1  0.009278  0.249999  0.633603  1
  Br  Br26  1  0.509277  0.249999  0.866396  1
  Br  Br27  1  0.973426  0.750001  0.887956  1
  Cl  Cl28  1  0.028050  0.249999  0.116987  1
  Cl  Cl29  1  0.487763  0.750001  0.136698  1
  Cl  Cl30  1  0.987763  0.750001  0.363301  1
  Cl  Cl31  1  0.528050  0.249999  0.383013  1
