# generated using pymatgen
data_Hf5Co16(MoP4)3
_symmetry_space_group_name_H-M   'P 1'
_cell_length_a   11.85320800
_cell_length_b   11.85320865
_cell_length_c   3.64099900
_cell_angle_alpha   90.00000000
_cell_angle_beta   90.00000000
_cell_angle_gamma   119.99999817
_symmetry_Int_Tables_number   1
_chemical_formula_structural   Hf5Co16(MoP4)3
_chemical_formula_sum   'Hf5 Co16 Mo3 P12'
_cell_volume   443.01969550
_cell_formula_units_Z   1
loop_
 _symmetry_equiv_pos_site_id
 _symmetry_equiv_pos_as_xyz
  1  'x, y, z'
loop_
 _atom_site_type_symbol
 _atom_site_label
 _atom_site_symmetry_multiplicity
 _atom_site_fract_x
 _atom_site_fract_y
 _atom_site_fract_z
 _atom_site_occupancy
  Hf  Hf0  1  0.666667  0.333333  0.000000  1
  Hf  Hf1  1  0.333333  0.666667  0.000000  1
  Hf  Hf2  1  0.820971  0.820971  0.500000  1
  Hf  Hf3  1  0.179029  0.000000  0.500000  1
  Hf  Hf4  1  0.000000  0.179029  0.500000  1
  Co  Co5  1  0.194040  0.373343  0.000000  1
  Co  Co6  1  0.179303  0.805960  0.000000  1
  Co  Co7  1  0.820697  0.626657  0.000000  1
  Co  Co8  1  0.805960  0.179303  0.000000  1
  Co  Co9  1  0.373343  0.194040  0.000000  1
  Co  Co10  1  0.129506  0.484508  0.500000  1
  Co  Co11  1  0.355003  0.870494  0.500000  1
  Co  Co12  1  0.515492  0.644997  0.500000  1
  Co  Co13  1  0.644997  0.515492  0.500000  1
  Co  Co14  1  0.870494  0.355003  0.500000  1
  Co  Co15  1  0.484508  0.129506  0.500000  1
  Co  Co16  1  0.000000  0.000000  0.000000  1
  Co  Co17  1  0.720546  0.000000  0.500000  1
  Co  Co18  1  0.000000  0.720546  0.500000  1
  Co  Co19  1  0.626657  0.820697  0.000000  1
  Co  Co20  1  0.279454  0.279454  0.500000  1
  Mo  Mo21  1  0.448133  0.448133  0.000000  1
  Mo  Mo22  1  0.551867  0.000000  0.000000  1
  Mo  Mo23  1  0.000000  0.551867  0.000000  1
  P  P24  1  0.644474  0.644474  0.000000  1
  P  P25  1  0.355526  0.000000  0.000000  1
  P  P26  1  0.000000  0.355526  0.000000  1
  P  P27  1  0.481620  0.313852  0.500000  1
  P  P28  1  0.686148  0.167768  0.500000  1
  P  P29  1  0.832232  0.518380  0.500000  1
  P  P30  1  0.518380  0.832232  0.500000  1
  P  P31  1  0.167768  0.686148  0.500000  1
  P  P32  1  0.824355  0.000000  0.000000  1
  P  P33  1  0.000000  0.824355  0.000000  1
  P  P34  1  0.313852  0.481620  0.500000  1
  P  P35  1  0.175645  0.175645  0.000000  1
