# generated using pymatgen
data_Ta4Fe5CoOs2
_symmetry_space_group_name_H-M   'P 1'
_cell_length_a   4.84470706
_cell_length_b   4.84470735
_cell_length_c   8.04986000
_cell_angle_alpha   90.00000000
_cell_angle_beta   90.00000000
_cell_angle_gamma   120.25565775
_symmetry_Int_Tables_number   1
_chemical_formula_structural   Ta4Fe5CoOs2
_chemical_formula_sum   'Ta4 Fe5 Co1 Os2'
_cell_volume   163.20348771
_cell_formula_units_Z   1
loop_
 _symmetry_equiv_pos_site_id
 _symmetry_equiv_pos_as_xyz
  1  'x, y, z'
loop_
 _atom_site_type_symbol
 _atom_site_label
 _atom_site_symmetry_multiplicity
 _atom_site_fract_x
 _atom_site_fract_y
 _atom_site_fract_z
 _atom_site_occupancy
  Ta  Ta0  1  0.332967  0.667033  0.431165  1
  Ta  Ta1  1  0.666284  0.333716  0.570648  1
  Ta  Ta2  1  0.666284  0.333716  0.929352  1
  Ta  Ta3  1  0.332967  0.667033  0.068835  1
  Fe  Fe4  1  0.176524  0.348513  0.750000  1
  Fe  Fe5  1  0.651487  0.823476  0.750000  1
  Fe  Fe6  1  0.824858  0.175142  0.250000  1
  Fe  Fe7  1  0.825360  0.650584  0.250000  1
  Fe  Fe8  1  0.349416  0.174640  0.250000  1
  Co  Co9  1  0.173895  0.826105  0.750000  1
  Os  Os10  1  0.999979  0.000021  0.501159  1
  Os  Os11  1  0.999979  0.000021  0.998841  1
