# generated using pymatgen
data_Ho8Ge(Pd5Pt)4
_symmetry_space_group_name_H-M   'P 1'
_cell_length_a   8.33760300
_cell_length_b   8.33760300
_cell_length_c   8.33316900
_cell_angle_alpha   90.00000000
_cell_angle_beta   90.00000000
_cell_angle_gamma   90.00000000
_symmetry_Int_Tables_number   1
_chemical_formula_structural   Ho8Ge(Pd5Pt)4
_chemical_formula_sum   'Ho8 Ge1 Pd20 Pt4'
_cell_volume   579.28544115
_cell_formula_units_Z   1
loop_
 _symmetry_equiv_pos_site_id
 _symmetry_equiv_pos_as_xyz
  1  'x, y, z'
loop_
 _atom_site_type_symbol
 _atom_site_label
 _atom_site_symmetry_multiplicity
 _atom_site_fract_x
 _atom_site_fract_y
 _atom_site_fract_z
 _atom_site_occupancy
  Ho  Ho0  1  0.253882  0.253882  0.254014  1
  Ho  Ho1  1  0.746118  0.746118  0.745986  1
  Ho  Ho2  1  0.746118  0.746118  0.254014  1
  Ho  Ho3  1  0.746118  0.253882  0.745986  1
  Ho  Ho4  1  0.253882  0.253882  0.745986  1
  Ho  Ho5  1  0.253882  0.746118  0.254014  1
  Ho  Ho6  1  0.253882  0.746118  0.745986  1
  Ho  Ho7  1  0.746118  0.253882  0.254014  1
  Ge  Ge8  1  0.000000  0.000000  0.000000  1
  Pd  Pd9  1  0.259436  0.500000  0.000000  1
  Pd  Pd10  1  0.740564  0.500000  0.000000  1
  Pd  Pd11  1  0.000000  0.259513  0.500000  1
  Pd  Pd12  1  0.500000  0.259436  0.000000  1
  Pd  Pd13  1  0.000000  0.740487  0.500000  1
  Pd  Pd14  1  0.500000  0.740564  0.000000  1
  Pd  Pd15  1  0.500000  0.000000  0.259411  1
  Pd  Pd16  1  0.259513  0.000000  0.500000  1
  Pd  Pd17  1  0.500000  0.000000  0.740589  1
  Pd  Pd18  1  0.740487  0.000000  0.500000  1
  Pd  Pd19  1  0.000000  0.500000  0.259411  1
  Pd  Pd20  1  0.000000  0.500000  0.740589  1
  Pd  Pd21  1  0.500000  0.500000  0.252926  1
  Pd  Pd22  1  0.500000  0.500000  0.747074  1
  Pd  Pd23  1  0.288633  0.000000  0.000000  1
  Pd  Pd24  1  0.711367  0.000000  0.000000  1
  Pd  Pd25  1  0.000000  0.288633  0.000000  1
  Pd  Pd26  1  0.000000  0.711367  0.000000  1
  Pd  Pd27  1  0.000000  0.000000  0.288497  1
  Pd  Pd28  1  0.000000  0.000000  0.711503  1
  Pt  Pt29  1  0.253052  0.500000  0.500000  1
  Pt  Pt30  1  0.746948  0.500000  0.500000  1
  Pt  Pt31  1  0.500000  0.253052  0.500000  1
  Pt  Pt32  1  0.500000  0.746948  0.500000  1
