# generated using pymatgen
data_TbY(BIr)4
_symmetry_space_group_name_H-M   'P 1'
_cell_length_a   7.17737744
_cell_length_b   6.18629736
_cell_length_c   5.49575196
_cell_angle_alpha   75.55759282
_cell_angle_beta   56.58240573
_cell_angle_gamma   47.86000442
_symmetry_Int_Tables_number   1
_chemical_formula_structural   TbY(BIr)4
_chemical_formula_sum   'Tb1 Y1 B4 Ir4'
_cell_volume   148.15735708
_cell_formula_units_Z   1
loop_
 _symmetry_equiv_pos_site_id
 _symmetry_equiv_pos_as_xyz
  1  'x, y, z'
loop_
 _atom_site_type_symbol
 _atom_site_label
 _atom_site_symmetry_multiplicity
 _atom_site_fract_x
 _atom_site_fract_y
 _atom_site_fract_z
 _atom_site_occupancy
  Tb  Tb0  1  0.750000  0.750000  0.750000  1
  Y  Y1  1  0.500000  0.500000  0.500000  1
  B  B2  1  0.180639  0.819361  0.180639  1
  B  B3  1  0.069864  0.430136  0.069864  1
  B  B4  1  0.819361  0.180638  0.819361  1
  B  B5  1  0.430136  0.069864  0.430136  1
  Ir  Ir6  1  0.872621  0.872621  0.127379  1
  Ir  Ir7  1  0.127379  0.127379  0.872621  1
  Ir  Ir8  1  0.377569  0.377569  0.122431  1
  Ir  Ir9  1  0.122431  0.122431  0.377569  1
