# generated using pymatgen
data_SmDySc3Ga2Si5Pt9
_symmetry_space_group_name_H-M   'P 1'
_cell_length_a   10.05414100
_cell_length_b   10.05414030
_cell_length_c   3.99141900
_cell_angle_alpha   90.00000000
_cell_angle_beta   90.00000000
_cell_angle_gamma   119.99999901
_symmetry_Int_Tables_number   1
_chemical_formula_structural   SmDySc3Ga2Si5Pt9
_chemical_formula_sum   'Sm1 Dy1 Sc3 Ga2 Si5 Pt9'
_cell_volume   349.42008832
_cell_formula_units_Z   1
loop_
 _symmetry_equiv_pos_site_id
 _symmetry_equiv_pos_as_xyz
  1  'x, y, z'
loop_
 _atom_site_type_symbol
 _atom_site_label
 _atom_site_symmetry_multiplicity
 _atom_site_fract_x
 _atom_site_fract_y
 _atom_site_fract_z
 _atom_site_occupancy
  Sm  Sm0  1  0.998843  0.996820  0.000000  1
  Dy  Dy1  1  0.333299  0.666849  0.500000  1
  Sc  Sc2  1  0.892440  0.455122  0.500000  1
  Sc  Sc3  1  0.561773  0.107285  0.500000  1
  Sc  Sc4  1  0.545013  0.437138  0.500000  1
  Ga  Ga5  1  0.244933  0.198440  0.500000  1
  Ga  Ga6  1  0.801687  0.047436  0.500000  1
  Si  Si7  1  0.949985  0.751553  0.500000  1
  Si  Si8  1  0.554724  0.646170  0.000000  1
  Si  Si9  1  0.354578  0.908980  0.000000  1
  Si  Si10  1  0.091667  0.446692  0.000000  1
  Si  Si11  1  0.666858  0.335369  0.000000  1
  Pt  Pt12  1  0.222569  0.929502  0.500000  1
  Pt  Pt13  1  0.064865  0.299349  0.500000  1
  Pt  Pt14  1  0.709212  0.766641  0.500000  1
  Pt  Pt15  1  0.315229  0.412565  0.000000  1
  Pt  Pt16  1  0.587948  0.901067  0.000000  1
  Pt  Pt17  1  0.098342  0.687142  0.000000  1
  Pt  Pt18  1  0.390178  0.170696  0.000000  1
  Pt  Pt19  1  0.826303  0.219087  0.000000  1
  Pt  Pt20  1  0.789555  0.616096  0.000000  1
