# generated using pymatgen
data_Er12TlFe4Hg
_symmetry_space_group_name_H-M   'P 1'
_cell_length_a   8.33003505
_cell_length_b   8.33003402
_cell_length_c   8.33003500
_cell_angle_alpha   110.01278481
_cell_angle_beta   111.63091517
_cell_angle_gamma   106.80671210
_symmetry_Int_Tables_number   1
_chemical_formula_structural   Er12TlFe4Hg
_chemical_formula_sum   'Er12 Tl1 Fe4 Hg1'
_cell_volume   444.14690372
_cell_formula_units_Z   1
loop_
 _symmetry_equiv_pos_site_id
 _symmetry_equiv_pos_as_xyz
  1  'x, y, z'
loop_
 _atom_site_type_symbol
 _atom_site_label
 _atom_site_symmetry_multiplicity
 _atom_site_fract_x
 _atom_site_fract_y
 _atom_site_fract_z
 _atom_site_occupancy
  Er  Er0  1  0.292163  0.188539  0.480703  1
  Er  Er1  1  0.707837  0.811461  0.519297  1
  Er  Er2  1  0.292163  0.811461  0.103624  1
  Er  Er3  1  0.707837  0.188539  0.896376  1
  Er  Er4  1  0.610532  0.311702  0.298831  1
  Er  Er5  1  0.389468  0.688298  0.701169  1
  Er  Er6  1  0.012874  0.311702  0.701169  1
  Er  Er7  1  0.987126  0.688298  0.298831  1
  Er  Er8  1  0.224447  0.437895  0.213448  1
  Er  Er9  1  0.775553  0.562105  0.786552  1
  Er  Er10  1  0.224447  0.011000  0.786552  1
  Er  Er11  1  0.775553  0.989000  0.213448  1
  Tl  Tl12  1  0.500000  0.500000  0.000000  1
  Fe  Fe13  1  0.000000  0.386808  0.386808  1
  Fe  Fe14  1  0.000000  0.613192  0.613192  1
  Fe  Fe15  1  0.391637  0.891637  0.500000  1
  Fe  Fe16  1  0.608363  0.108363  0.500000  1
  Hg  Hg17  1  0.000000  0.000000  0.000000  1
