# generated using pymatgen
data_Y6Ni17MoP12
_symmetry_space_group_name_H-M   'P 1'
_cell_length_a   3.80093000
_cell_length_b   10.67061900
_cell_length_c   12.44716300
_cell_angle_alpha   90.00000000
_cell_angle_beta   90.00000000
_cell_angle_gamma   90.00000000
_symmetry_Int_Tables_number   1
_chemical_formula_structural   Y6Ni17MoP12
_chemical_formula_sum   'Y6 Ni17 Mo1 P12'
_cell_volume   504.83547082
_cell_formula_units_Z   1
loop_
 _symmetry_equiv_pos_site_id
 _symmetry_equiv_pos_as_xyz
  1  'x, y, z'
loop_
 _atom_site_type_symbol
 _atom_site_label
 _atom_site_symmetry_multiplicity
 _atom_site_fract_x
 _atom_site_fract_y
 _atom_site_fract_z
 _atom_site_occupancy
  Y  Y0  1  0.000000  0.500000  0.523902  1
  Y  Y1  1  0.500000  0.000000  0.480711  1
  Y  Y2  1  0.500000  0.817415  0.206216  1
  Y  Y3  1  0.500000  0.182585  0.206216  1
  Y  Y4  1  0.000000  0.684140  0.793840  1
  Y  Y5  1  0.000000  0.315860  0.793840  1
  Ni  Ni6  1  0.000000  0.000000  0.839453  1
  Ni  Ni7  1  0.500000  0.500000  0.701746  1
  Ni  Ni8  1  0.000000  0.000000  0.300463  1
  Ni  Ni9  1  0.000000  0.500000  0.985648  1
  Ni  Ni10  1  0.500000  0.000000  0.016011  1
  Ni  Ni11  1  0.500000  0.328644  0.989983  1
  Ni  Ni12  1  0.500000  0.671356  0.989983  1
  Ni  Ni13  1  0.000000  0.162602  0.005255  1
  Ni  Ni14  1  0.000000  0.837398  0.005255  1
  Ni  Ni15  1  0.500000  0.302296  0.428265  1
  Ni  Ni16  1  0.500000  0.697704  0.428265  1
  Ni  Ni17  1  0.000000  0.198013  0.572257  1
  Ni  Ni18  1  0.000000  0.801987  0.572257  1
  Ni  Ni19  1  0.500000  0.879292  0.711243  1
  Ni  Ni20  1  0.500000  0.120708  0.711243  1
  Ni  Ni21  1  0.000000  0.619752  0.289589  1
  Ni  Ni22  1  0.000000  0.380248  0.289589  1
  Mo  Mo23  1  0.500000  0.500000  0.153046  1
  P  P24  1  0.500000  0.500000  0.880250  1
  P  P25  1  0.000000  0.000000  0.123965  1
  P  P26  1  0.500000  0.500000  0.347269  1
  P  P27  1  0.000000  0.000000  0.655885  1
  P  P28  1  0.500000  0.312944  0.614847  1
  P  P29  1  0.500000  0.687056  0.614847  1
  P  P30  1  0.000000  0.186201  0.386727  1
  P  P31  1  0.000000  0.813799  0.386727  1
  P  P32  1  0.500000  0.850155  0.892338  1
  P  P33  1  0.500000  0.149845  0.892338  1
  P  P34  1  0.000000  0.656716  0.105266  1
  P  P35  1  0.000000  0.343284  0.105266  1
