# generated using pymatgen
data_Yb3Ce4Y(SiPd)8
_symmetry_space_group_name_H-M   'P 1'
_cell_length_a   5.75150618
_cell_length_b   7.77153071
_cell_length_c   10.64994042
_cell_angle_alpha   88.27277303
_cell_angle_beta   90.18240610
_cell_angle_gamma   90.13786252
_symmetry_Int_Tables_number   1
_chemical_formula_structural   Yb3Ce4Y(SiPd)8
_chemical_formula_sum   'Yb3 Ce4 Y1 Si8 Pd8'
_cell_volume   475.81114298
_cell_formula_units_Z   1
loop_
 _symmetry_equiv_pos_site_id
 _symmetry_equiv_pos_as_xyz
  1  'x, y, z'
loop_
 _atom_site_type_symbol
 _atom_site_label
 _atom_site_symmetry_multiplicity
 _atom_site_fract_x
 _atom_site_fract_y
 _atom_site_fract_z
 _atom_site_occupancy
  Yb  Yb0  1  0.639686  0.032528  0.858597  1
  Yb  Yb1  1  0.862737  0.532314  0.861127  1
  Yb  Yb2  1  0.136412  0.467752  0.138911  1
  Ce  Ce3  1  0.871151  0.824681  0.367008  1
  Ce  Ce4  1  0.128552  0.174770  0.634004  1
  Ce  Ce5  1  0.372021  0.675464  0.634444  1
  Ce  Ce6  1  0.627789  0.324821  0.365466  1
  Y  Y7  1  0.366836  0.968505  0.140416  1
  Si  Si8  1  0.859439  0.537044  0.572284  1
  Si  Si9  1  0.139657  0.462197  0.428076  1
  Si  Si10  1  0.362340  0.964385  0.424849  1
  Si  Si11  1  0.641826  0.037356  0.571194  1
  Si  Si12  1  0.641615  0.623578  0.145848  1
  Si  Si13  1  0.355482  0.377937  0.853777  1
  Si  Si14  1  0.145006  0.875966  0.856049  1
  Si  Si15  1  0.853258  0.121315  0.147007  1
  Pd  Pd16  1  0.900235  0.836971  0.051536  1
  Pd  Pd17  1  0.097021  0.164013  0.948571  1
  Pd  Pd18  1  0.404333  0.663514  0.949146  1
  Pd  Pd19  1  0.596633  0.335954  0.050451  1
  Pd  Pd20  1  0.893281  0.819402  0.671236  1
  Pd  Pd21  1  0.105746  0.180224  0.329375  1
  Pd  Pd22  1  0.391617  0.679982  0.329940  1
  Pd  Pd23  1  0.607326  0.319326  0.670687  1
