# generated using pymatgen
data_Tb5Y5Si5Sn
_symmetry_space_group_name_H-M   'P 1'
_cell_length_a   8.54658627
_cell_length_b   8.57288745
_cell_length_c   6.43697800
_cell_angle_alpha   90.00000000
_cell_angle_beta   90.00000000
_cell_angle_gamma   119.86979242
_symmetry_Int_Tables_number   1
_chemical_formula_structural   Tb5Y5Si5Sn
_chemical_formula_sum   'Tb5 Y5 Si5 Sn1'
_cell_volume   408.97878924
_cell_formula_units_Z   1
loop_
 _symmetry_equiv_pos_site_id
 _symmetry_equiv_pos_as_xyz
  1  'x, y, z'
loop_
 _atom_site_type_symbol
 _atom_site_label
 _atom_site_symmetry_multiplicity
 _atom_site_fract_x
 _atom_site_fract_y
 _atom_site_fract_z
 _atom_site_occupancy
  Tb  Tb0  1  0.999005  0.243092  0.250000  1
  Tb  Tb1  1  0.331684  0.658410  0.496839  1
  Tb  Tb2  1  0.673241  0.341616  0.003157  1
  Tb  Tb3  1  0.673241  0.341616  0.496843  1
  Tb  Tb4  1  0.331684  0.658410  0.003161  1
  Y  Y5  1  0.989508  0.748671  0.750000  1
  Y  Y6  1  0.755906  0.756866  0.250000  1
  Y  Y7  1  0.764613  0.000002  0.750000  1
  Y  Y8  1  0.240956  0.251444  0.750000  1
  Y  Y9  1  0.241592  0.999989  0.250000  1
  Si  Si10  1  0.393623  0.392341  0.250000  1
  Si  Si11  1  0.001115  0.607870  0.250000  1
  Si  Si12  1  0.998803  0.393976  0.750000  1
  Si  Si13  1  0.604774  0.605898  0.750000  1
  Si  Si14  1  0.605853  0.999852  0.250000  1
  Sn  Sn15  1  0.394405  0.999947  0.750000  1
