# generated using pymatgen
data_Tb2Zr(SnRh)3
_symmetry_space_group_name_H-M   'P 1'
_cell_length_a   7.50776615
_cell_length_b   7.55817650
_cell_length_c   7.58303200
_cell_angle_alpha   90.00000000
_cell_angle_beta   90.00000000
_cell_angle_gamma   119.75425181
_symmetry_Int_Tables_number   1
_chemical_formula_structural   Tb2Zr(SnRh)3
_chemical_formula_sum   'Tb4 Zr2 Sn6 Rh6'
_cell_volume   373.56950976
_cell_formula_units_Z   2
loop_
 _symmetry_equiv_pos_site_id
 _symmetry_equiv_pos_as_xyz
  1  'x, y, z'
loop_
 _atom_site_type_symbol
 _atom_site_label
 _atom_site_symmetry_multiplicity
 _atom_site_fract_x
 _atom_site_fract_y
 _atom_site_fract_z
 _atom_site_occupancy
  Tb  Tb0  1  0.594552  0.998626  0.750000  1
  Tb  Tb1  1  0.595767  0.000583  0.250000  1
  Tb  Tb2  1  0.407344  0.411306  0.250000  1
  Tb  Tb3  1  0.995576  0.588373  0.250000  1
  Zr  Zr4  1  0.400472  0.396245  0.750000  1
  Zr  Zr5  1  0.006325  0.604749  0.750000  1
  Sn  Sn6  1  0.263893  0.000379  0.003054  1
  Sn  Sn7  1  0.737376  0.736565  0.509116  1
  Sn  Sn8  1  0.000226  0.263088  0.509219  1
  Sn  Sn9  1  0.000226  0.263088  0.990781  1
  Sn  Sn10  1  0.737376  0.736565  0.990884  1
  Sn  Sn11  1  0.263893  0.000379  0.496946  1
  Rh  Rh12  1  0.668014  0.341664  0.973830  1
  Rh  Rh13  1  0.668014  0.341664  0.526170  1
  Rh  Rh14  1  0.326311  0.658401  0.977414  1
  Rh  Rh15  1  0.326311  0.658401  0.522586  1
  Rh  Rh16  1  0.012381  0.999847  0.750000  1
  Rh  Rh17  1  0.995941  0.000076  0.250000  1
