# generated using pymatgen
data_CeHo11Co3Mo
_symmetry_space_group_name_H-M   'P 1'
_cell_length_a   6.24088634
_cell_length_b   6.98605168
_cell_length_c   9.34822700
_cell_angle_alpha   90.00000000
_cell_angle_beta   90.00000000
_cell_angle_gamma   91.35731840
_symmetry_Int_Tables_number   1
_chemical_formula_structural   CeHo11Co3Mo
_chemical_formula_sum   'Ce1 Ho11 Co3 Mo1'
_cell_volume   407.46043298
_cell_formula_units_Z   1
loop_
 _symmetry_equiv_pos_site_id
 _symmetry_equiv_pos_as_xyz
  1  'x, y, z'
loop_
 _atom_site_type_symbol
 _atom_site_label
 _atom_site_symmetry_multiplicity
 _atom_site_fract_x
 _atom_site_fract_y
 _atom_site_fract_z
 _atom_site_occupancy
  Ce  Ce0  1  0.363196  0.562038  0.250000  1
  Ho  Ho1  1  0.667836  0.171552  0.066518  1
  Ho  Ho2  1  0.133661  0.029532  0.250000  1
  Ho  Ho3  1  0.820309  0.681196  0.437378  1
  Ho  Ho4  1  0.320620  0.824433  0.928466  1
  Ho  Ho5  1  0.173676  0.325230  0.567064  1
  Ho  Ho6  1  0.667836  0.171552  0.433482  1
  Ho  Ho7  1  0.173676  0.325230  0.932936  1
  Ho  Ho8  1  0.320620  0.824433  0.571534  1
  Ho  Ho9  1  0.854189  0.957804  0.750000  1
  Ho  Ho10  1  0.644746  0.453281  0.750000  1
  Ho  Ho11  1  0.820309  0.681196  0.062622  1
  Co  Co12  1  0.456661  0.110468  0.750000  1
  Co  Co13  1  0.530803  0.865365  0.250000  1
  Co  Co14  1  0.043102  0.614085  0.750000  1
  Mo  Mo15  1  0.008757  0.402604  0.250000  1
