# generated using pymatgen
data_PrMnTeO6
_symmetry_space_group_name_H-M   'P 1'
_cell_length_a   5.21112765
_cell_length_b   5.21115455
_cell_length_c   5.15958193
_cell_angle_alpha   90.90993039
_cell_angle_beta   90.90077896
_cell_angle_gamma   117.64643359
_symmetry_Int_Tables_number   1
_chemical_formula_structural   PrMnTeO6
_chemical_formula_sum   'Pr1 Mn1 Te1 O6'
_cell_volume   124.05866518
_cell_formula_units_Z   1
loop_
 _symmetry_equiv_pos_site_id
 _symmetry_equiv_pos_as_xyz
  1  'x, y, z'
loop_
 _atom_site_type_symbol
 _atom_site_label
 _atom_site_symmetry_multiplicity
 _atom_site_fract_x
 _atom_site_fract_y
 _atom_site_fract_z
 _atom_site_occupancy
  Pr  Pr0  1  0.523187  0.477432  0.500088  1
  Mn  Mn1  1  0.852258  0.148442  0.999920  1
  Te  Te2  1  0.188964  0.811244  0.999996  1
  O  O3  1  0.149096  0.109278  0.211531  1
  O  O4  1  0.492556  0.833651  0.229583  1
  O  O5  1  0.892189  0.494681  0.199093  1
  O  O6  1  0.505088  0.107747  0.800766  1
  O  O7  1  0.165604  0.507321  0.769879  1
  O  O8  1  0.890388  0.850891  0.789182  1
