# generated using pymatgen
data_Yb4Cr(Si2Pt)5
_symmetry_space_group_name_H-M   'P 1'
_cell_length_a   8.25881803
_cell_length_b   8.25881751
_cell_length_c   8.25881828
_cell_angle_alpha   138.91231771
_cell_angle_beta   104.31164627
_cell_angle_gamma   89.94839149
_symmetry_Int_Tables_number   1
_chemical_formula_structural   Yb4Cr(Si2Pt)5
_chemical_formula_sum   'Yb4 Cr1 Si10 Pt5'
_cell_volume   343.18888043
_cell_formula_units_Z   1
loop_
 _symmetry_equiv_pos_site_id
 _symmetry_equiv_pos_as_xyz
  1  'x, y, z'
loop_
 _atom_site_type_symbol
 _atom_site_label
 _atom_site_symmetry_multiplicity
 _atom_site_fract_x
 _atom_site_fract_y
 _atom_site_fract_z
 _atom_site_occupancy
  Yb  Yb0  1  0.105454  0.870766  0.233112  1
  Yb  Yb1  1  0.894546  0.127657  0.765312  1
  Yb  Yb2  1  0.637654  0.372343  0.266888  1
  Yb  Yb3  1  0.362346  0.629234  0.734688  1
  Cr  Cr4  1  0.500000  0.750000  0.250000  1
  Si  Si5  1  0.000000  0.750000  0.750000  1
  Si  Si6  1  0.000000  0.250000  0.250000  1
  Si  Si7  1  0.273029  0.023029  0.750000  1
  Si  Si8  1  0.726971  0.476971  0.750000  1
  Si  Si9  1  0.724704  0.974704  0.250000  1
  Si  Si10  1  0.275296  0.525296  0.250000  1
  Si  Si11  1  0.757908  0.618541  0.160036  1
  Si  Si12  1  0.242092  0.402128  0.860634  1
  Si  Si13  1  0.458505  0.097872  0.339964  1
  Si  Si14  1  0.541495  0.881459  0.639366  1
  Pt  Pt15  1  0.500000  0.250000  0.750000  1
  Pt  Pt16  1  0.021982  0.635324  0.381441  1
  Pt  Pt17  1  0.978018  0.359459  0.613342  1
  Pt  Pt18  1  0.253883  0.140541  0.118559  1
  Pt  Pt19  1  0.746117  0.864676  0.886658  1
