# generated using pymatgen
data_Th6TlCd23
_symmetry_space_group_name_H-M   'P 1'
_cell_length_a   10.16930211
_cell_length_b   10.16930267
_cell_length_c   10.16930300
_cell_angle_alpha   60.00000218
_cell_angle_beta   60.00000036
_cell_angle_gamma   60.00000018
_symmetry_Int_Tables_number   1
_chemical_formula_structural   Th6TlCd23
_chemical_formula_sum   'Th6 Tl1 Cd23'
_cell_volume   743.63277339
_cell_formula_units_Z   1
loop_
 _symmetry_equiv_pos_site_id
 _symmetry_equiv_pos_as_xyz
  1  'x, y, z'
loop_
 _atom_site_type_symbol
 _atom_site_label
 _atom_site_symmetry_multiplicity
 _atom_site_fract_x
 _atom_site_fract_y
 _atom_site_fract_z
 _atom_site_occupancy
  Th  Th0  1  0.777628  0.777628  0.222372  1
  Th  Th1  1  0.222372  0.777628  0.222372  1
  Th  Th2  1  0.777628  0.222372  0.222372  1
  Th  Th3  1  0.222372  0.222372  0.777628  1
  Th  Th4  1  0.777628  0.222372  0.777628  1
  Th  Th5  1  0.222372  0.777628  0.777628  1
  Tl  Tl6  1  0.000000  0.000000  0.000000  1
  Cd  Cd7  1  0.843680  0.843680  0.468959  1
  Cd  Cd8  1  0.843680  0.468959  0.843680  1
  Cd  Cd9  1  0.468959  0.843680  0.843680  1
  Cd  Cd10  1  0.843680  0.843680  0.843680  1
  Cd  Cd11  1  0.156320  0.156320  0.531041  1
  Cd  Cd12  1  0.156320  0.531041  0.156320  1
  Cd  Cd13  1  0.531041  0.156320  0.156320  1
  Cd  Cd14  1  0.156320  0.156320  0.156320  1
  Cd  Cd15  1  0.625956  0.625956  0.122132  1
  Cd  Cd16  1  0.625956  0.122132  0.625956  1
  Cd  Cd17  1  0.122132  0.625956  0.625956  1
  Cd  Cd18  1  0.625956  0.625956  0.625956  1
  Cd  Cd19  1  0.374044  0.374044  0.877868  1
  Cd  Cd20  1  0.374044  0.877868  0.374044  1
  Cd  Cd21  1  0.877868  0.374044  0.374044  1
  Cd  Cd22  1  0.374044  0.374044  0.374044  1
  Cd  Cd23  1  0.000000  0.000000  0.500000  1
  Cd  Cd24  1  0.500000  0.000000  0.500000  1
  Cd  Cd25  1  0.000000  0.500000  0.500000  1
  Cd  Cd26  1  0.500000  0.500000  0.000000  1
  Cd  Cd27  1  0.000000  0.500000  0.000000  1
  Cd  Cd28  1  0.500000  0.000000  0.000000  1
  Cd  Cd29  1  0.500000  0.500000  0.500000  1
