# generated using pymatgen
data_La5Nd11Cd4(CoPd)2
_symmetry_space_group_name_H-M   'P 1'
_cell_length_a   9.93678132
_cell_length_b   9.99415600
_cell_length_c   10.02733849
_cell_angle_alpha   59.74378334
_cell_angle_beta   59.88360388
_cell_angle_gamma   60.31905548
_symmetry_Int_Tables_number   1
_chemical_formula_structural   La5Nd11Cd4(CoPd)2
_chemical_formula_sum   'La5 Nd11 Cd4 Co2 Pd2'
_cell_volume   703.82193738
_cell_formula_units_Z   1
loop_
 _symmetry_equiv_pos_site_id
 _symmetry_equiv_pos_as_xyz
  1  'x, y, z'
loop_
 _atom_site_type_symbol
 _atom_site_label
 _atom_site_symmetry_multiplicity
 _atom_site_fract_x
 _atom_site_fract_y
 _atom_site_fract_z
 _atom_site_occupancy
  La  La0  1  0.341639  0.342029  0.364236  1
  La  La1  1  0.344022  0.343956  0.950783  1
  La  La2  1  0.338757  0.958579  0.350942  1
  La  La3  1  0.957050  0.341501  0.354171  1
  La  La4  1  0.828739  0.188362  0.185201  1
  Nd  Nd5  1  0.186934  0.822339  0.800639  1
  Nd  Nd6  1  0.192888  0.818151  0.187391  1
  Nd  Nd7  1  0.820279  0.188062  0.799587  1
  Nd  Nd8  1  0.189477  0.186981  0.810635  1
  Nd  Nd9  1  0.808341  0.807730  0.188452  1
  Nd  Nd10  1  0.934354  0.564318  0.567802  1
  Nd  Nd11  1  0.562932  0.933738  0.936312  1
  Nd  Nd12  1  0.563343  0.934674  0.566216  1
  Nd  Nd13  1  0.936214  0.561564  0.937235  1
  Nd  Nd14  1  0.561234  0.561478  0.939668  1
  Nd  Nd15  1  0.934572  0.933177  0.566141  1
  Cd  Cd16  1  0.579464  0.580436  0.579736  1
  Cd  Cd17  1  0.579214  0.582063  0.259505  1
  Cd  Cd18  1  0.581454  0.255773  0.582347  1
  Cd  Cd19  1  0.256489  0.581948  0.580153  1
  Co  Co20  1  0.134944  0.149071  0.142077  1
  Co  Co21  1  0.145380  0.143854  0.570220  1
  Pd  Pd22  1  0.146898  0.573875  0.139328  1
  Pd  Pd23  1  0.575384  0.146343  0.141224  1
