# generated using pymatgen
data_PrThCrN3
_symmetry_space_group_name_H-M   'P 1'
_cell_length_a   3.59790188
_cell_length_b   3.77933438
_cell_length_c   6.95754838
_cell_angle_alpha   105.75946882
_cell_angle_beta   104.98470579
_cell_angle_gamma   89.99999875
_symmetry_Int_Tables_number   1
_chemical_formula_structural   PrThCrN3
_chemical_formula_sum   'Pr1 Th1 Cr1 N3'
_cell_volume   87.70279698
_cell_formula_units_Z   1
loop_
 _symmetry_equiv_pos_site_id
 _symmetry_equiv_pos_as_xyz
  1  'x, y, z'
loop_
 _atom_site_type_symbol
 _atom_site_label
 _atom_site_symmetry_multiplicity
 _atom_site_fract_x
 _atom_site_fract_y
 _atom_site_fract_z
 _atom_site_occupancy
  Pr  Pr0  1  0.643827  0.643827  0.287652  1
  Th  Th1  1  0.351415  0.351415  0.702830  1
  Cr  Cr2  1  0.002377  0.002377  0.004753  1
  N  N3  1  0.997823  0.497824  0.995646  1
  N  N4  1  0.165852  0.165852  0.331705  1
  N  N5  1  0.838708  0.838708  0.677414  1
