# generated using pymatgen
data_ZrSc6Al15Os7
_symmetry_space_group_name_H-M   'P 1'
_cell_length_a   8.82551595
_cell_length_b   8.82551629
_cell_length_c   8.82324815
_cell_angle_alpha   59.99149638
_cell_angle_beta   59.99149321
_cell_angle_gamma   60.00000115
_symmetry_Int_Tables_number   1
_chemical_formula_structural   ZrSc6Al15Os7
_chemical_formula_sum   'Zr1 Sc6 Al15 Os7'
_cell_volume   485.88991082
_cell_formula_units_Z   1
loop_
 _symmetry_equiv_pos_site_id
 _symmetry_equiv_pos_as_xyz
  1  'x, y, z'
loop_
 _atom_site_type_symbol
 _atom_site_label
 _atom_site_symmetry_multiplicity
 _atom_site_fract_x
 _atom_site_fract_y
 _atom_site_fract_z
 _atom_site_occupancy
  Zr  Zr0  1  0.880342  0.880342  0.358972  1
  Sc  Sc1  1  0.708976  0.708976  0.283607  1
  Sc  Sc2  1  0.298441  0.708976  0.283607  1
  Sc  Sc3  1  0.708976  0.298441  0.283607  1
  Sc  Sc4  1  0.284788  0.284788  0.716322  1
  Sc  Sc5  1  0.714102  0.284788  0.716322  1
  Sc  Sc6  1  0.284788  0.714102  0.716322  1
  Al  Al7  1  0.877678  0.365017  0.879626  1
  Al  Al8  1  0.365017  0.877678  0.879626  1
  Al  Al9  1  0.877678  0.877678  0.879626  1
  Al  Al10  1  0.123967  0.123967  0.628100  1
  Al  Al11  1  0.121796  0.635287  0.121123  1
  Al  Al12  1  0.635287  0.121796  0.121123  1
  Al  Al13  1  0.121796  0.121796  0.121123  1
  Al  Al14  1  0.665139  0.665139  0.004583  1
  Al  Al15  1  0.659469  0.014414  0.666649  1
  Al  Al16  1  0.014414  0.659469  0.666649  1
  Al  Al17  1  0.659469  0.659469  0.666649  1
  Al  Al18  1  0.336333  0.336333  0.991001  1
  Al  Al19  1  0.337236  0.988045  0.337483  1
  Al  Al20  1  0.988045  0.337236  0.337483  1
  Al  Al21  1  0.337236  0.337236  0.337483  1
  Os  Os22  1  0.004326  0.004326  0.987021  1
  Os  Os23  1  0.000176  0.000176  0.503809  1
  Os  Os24  1  0.495838  0.000176  0.503809  1
  Os  Os25  1  0.000176  0.495838  0.503809  1
  Os  Os26  1  0.499224  0.499224  0.001488  1
  Os  Os27  1  0.000065  0.499224  0.001488  1
  Os  Os28  1  0.499224  0.000065  0.001488  1
