# generated using pymatgen
data_Dy4Y12MgCd3Ir4
_symmetry_space_group_name_H-M   'P 1'
_cell_length_a   9.71043321
_cell_length_b   9.71055972
_cell_length_c   9.71043770
_cell_angle_alpha   59.78520693
_cell_angle_beta   59.78459843
_cell_angle_gamma   59.78518164
_symmetry_Int_Tables_number   1
_chemical_formula_structural   Dy4Y12MgCd3Ir4
_chemical_formula_sum   'Dy4 Y12 Mg1 Cd3 Ir4'
_cell_volume   644.29029939
_cell_formula_units_Z   1
loop_
 _symmetry_equiv_pos_site_id
 _symmetry_equiv_pos_as_xyz
  1  'x, y, z'
loop_
 _atom_site_type_symbol
 _atom_site_label
 _atom_site_symmetry_multiplicity
 _atom_site_fract_x
 _atom_site_fract_y
 _atom_site_fract_z
 _atom_site_occupancy
  Dy  Dy0  1  0.348866  0.348846  0.348864  1
  Dy  Dy1  1  0.348149  0.348130  0.956911  1
  Dy  Dy2  1  0.348140  0.956920  0.348140  1
  Dy  Dy3  1  0.956910  0.348132  0.348149  1
  Y  Y4  1  0.808929  0.190394  0.190391  1
  Y  Y5  1  0.187048  0.810917  0.810915  1
  Y  Y6  1  0.190392  0.808930  0.190390  1
  Y  Y7  1  0.810913  0.187053  0.810913  1
  Y  Y8  1  0.190391  0.190394  0.808928  1
  Y  Y9  1  0.810915  0.810917  0.187048  1
  Y  Y10  1  0.940438  0.561962  0.561951  1
  Y  Y11  1  0.561730  0.938283  0.938280  1
  Y  Y12  1  0.561959  0.940438  0.561960  1
  Y  Y13  1  0.938283  0.561734  0.938283  1
  Y  Y14  1  0.561952  0.561963  0.940437  1
  Y  Y15  1  0.938279  0.938283  0.561731  1
  Mg  Mg16  1  0.575233  0.575238  0.575233  1
  Cd  Cd17  1  0.581332  0.581338  0.255396  1
  Cd  Cd18  1  0.581334  0.255396  0.581334  1
  Cd  Cd19  1  0.255396  0.581338  0.581332  1
  Ir  Ir20  1  0.142353  0.142350  0.142353  1
  Ir  Ir21  1  0.143455  0.143452  0.574151  1
  Ir  Ir22  1  0.143456  0.574145  0.143457  1
  Ir  Ir23  1  0.574152  0.143452  0.143455  1
