# generated using pymatgen
data_Ho6RuO12
_symmetry_space_group_name_H-M   'P 1'
_cell_length_a   6.43836945
_cell_length_b   6.43836934
_cell_length_c   6.43837013
_cell_angle_alpha   98.51034955
_cell_angle_beta   98.51035084
_cell_angle_gamma   98.51034097
_symmetry_Int_Tables_number   1
_chemical_formula_structural   Ho6RuO12
_chemical_formula_sum   'Ho6 Ru1 O12'
_cell_volume   257.07437995
_cell_formula_units_Z   1
loop_
 _symmetry_equiv_pos_site_id
 _symmetry_equiv_pos_as_xyz
  1  'x, y, z'
loop_
 _atom_site_type_symbol
 _atom_site_label
 _atom_site_symmetry_multiplicity
 _atom_site_fract_x
 _atom_site_fract_y
 _atom_site_fract_z
 _atom_site_occupancy
  Ho  Ho0  1  0.611900  0.143414  0.313435  1
  Ho  Ho1  1  0.856586  0.686565  0.388100  1
  Ho  Ho2  1  0.686565  0.388100  0.856586  1
  Ho  Ho3  1  0.388100  0.856586  0.686565  1
  Ho  Ho4  1  0.143414  0.313435  0.611900  1
  Ho  Ho5  1  0.313435  0.611900  0.143414  1
  Ru  Ru6  1  0.000000  0.000000  0.000000  1
  O  O7  1  0.590403  0.434035  0.177687  1
  O  O8  1  0.434035  0.177687  0.590403  1
  O  O9  1  0.177687  0.590403  0.434035  1
  O  O10  1  0.409597  0.565965  0.822313  1
  O  O11  1  0.565965  0.822313  0.409597  1
  O  O12  1  0.822313  0.409597  0.565965  1
  O  O13  1  0.701056  0.035700  0.928497  1
  O  O14  1  0.071503  0.298944  0.964300  1
  O  O15  1  0.964300  0.071503  0.298944  1
  O  O16  1  0.298944  0.964300  0.071503  1
  O  O17  1  0.928497  0.701056  0.035700  1
  O  O18  1  0.035700  0.928497  0.701056  1
