# generated using pymatgen
data_Hf12ReTc5Ir6
_symmetry_space_group_name_H-M   'P 1'
_cell_length_a   4.61155100
_cell_length_b   6.49031700
_cell_length_c   13.89588100
_cell_angle_alpha   90.00000000
_cell_angle_beta   89.99962809
_cell_angle_gamma   90.00000000
_symmetry_Int_Tables_number   1
_chemical_formula_structural   Hf12ReTc5Ir6
_chemical_formula_sum   'Hf12 Re1 Tc5 Ir6'
_cell_volume   415.90966370
_cell_formula_units_Z   1
loop_
 _symmetry_equiv_pos_site_id
 _symmetry_equiv_pos_as_xyz
  1  'x, y, z'
loop_
 _atom_site_type_symbol
 _atom_site_label
 _atom_site_symmetry_multiplicity
 _atom_site_fract_x
 _atom_site_fract_y
 _atom_site_fract_z
 _atom_site_occupancy
  Hf  Hf0  1  0.500001  0.250338  0.000000  1
  Hf  Hf1  1  0.500001  0.749662  0.000000  1
  Hf  Hf2  1  0.999992  0.250122  0.166580  1
  Hf  Hf3  1  0.999992  0.749879  0.166580  1
  Hf  Hf4  1  0.499998  0.250229  0.333348  1
  Hf  Hf5  1  0.499998  0.749771  0.333348  1
  Hf  Hf6  1  0.000000  0.249766  0.500000  1
  Hf  Hf7  1  0.000000  0.750234  0.500000  1
  Hf  Hf8  1  0.500001  0.250229  0.666652  1
  Hf  Hf9  1  0.500001  0.749771  0.666652  1
  Hf  Hf10  1  0.000008  0.250122  0.833420  1
  Hf  Hf11  1  0.000008  0.749879  0.833420  1
  Re  Re12  1  0.000000  0.000000  0.000000  1
  Tc  Tc13  1  0.499975  0.499999  0.166859  1
  Tc  Tc14  1  0.999995  0.000000  0.333494  1
  Tc  Tc15  1  0.500001  0.499999  0.500000  1
  Tc  Tc16  1  0.000005  0.000000  0.666506  1
  Tc  Tc17  1  0.500025  0.499999  0.833140  1
  Ir  Ir18  1  0.000000  0.499999  0.000000  1
  Ir  Ir19  1  0.499996  0.000000  0.166944  1
  Ir  Ir20  1  0.999989  0.499999  0.333544  1
  Ir  Ir21  1  0.500001  0.000000  0.500000  1
  Ir  Ir22  1  0.000011  0.499999  0.666457  1
  Ir  Ir23  1  0.500003  0.000000  0.833056  1
