# generated using pymatgen
data_LiZr8(Si2Rh)7
_symmetry_space_group_name_H-M   'P 1'
_cell_length_a   9.72877227
_cell_length_b   9.72127332
_cell_length_c   9.75101000
_cell_angle_alpha   94.38875305
_cell_angle_beta   94.42939270
_cell_angle_gamma   147.76065408
_symmetry_Int_Tables_number   1
_chemical_formula_structural   LiZr8(Si2Rh)7
_chemical_formula_sum   'Li1 Zr8 Si14 Rh7'
_cell_volume   472.72584404
_cell_formula_units_Z   1
loop_
 _symmetry_equiv_pos_site_id
 _symmetry_equiv_pos_as_xyz
  1  'x, y, z'
loop_
 _atom_site_type_symbol
 _atom_site_label
 _atom_site_symmetry_multiplicity
 _atom_site_fract_x
 _atom_site_fract_y
 _atom_site_fract_z
 _atom_site_occupancy
  Li  Li0  1  0.397414  0.897403  0.794728  1
  Zr  Zr1  1  0.136028  0.136018  0.272100  1
  Zr  Zr2  1  0.864611  0.864608  0.729192  1
  Zr  Zr3  1  0.862282  0.133732  0.999986  1
  Zr  Zr4  1  0.137710  0.866234  0.000013  1
  Zr  Zr5  1  0.499723  0.309077  0.807654  1
  Zr  Zr6  1  0.495450  0.687599  0.193224  1
  Zr  Zr7  1  0.697765  0.505643  0.193234  1
  Zr  Zr8  1  0.307933  0.498573  0.807643  1
  Si  Si9  1  0.538069  0.129927  0.583900  1
  Si  Si10  1  0.521720  0.933427  0.410678  1
  Si  Si11  1  0.888937  0.477243  0.410671  1
  Si  Si12  1  0.045822  0.453956  0.583899  1
  Si  Si13  1  0.749024  0.749365  0.000755  1
  Si  Si14  1  0.251735  0.251380  0.000763  1
  Si  Si15  1  0.293775  0.293780  0.587556  1
  Si  Si16  1  0.705949  0.705946  0.411919  1
  Si  Si17  1  0.715351  0.306988  0.000023  1
  Si  Si18  1  0.284685  0.693064  0.000024  1
  Si  Si19  1  0.995158  0.286445  0.290866  1
  Si  Si20  1  0.985592  0.697058  0.710617  1
  Si  Si21  1  0.725045  0.013563  0.710620  1
  Si  Si22  1  0.295729  0.004444  0.290884  1
  Rh  Rh23  1  0.107584  0.607601  0.214964  1
  Rh  Rh24  1  0.114163  0.891508  0.507504  1
  Rh  Rh25  1  0.393298  0.615939  0.507536  1
  Rh  Rh26  1  0.593847  0.399895  0.495237  1
  Rh  Rh27  1  0.901374  0.095323  0.495203  1
  Rh  Rh28  1  0.898041  0.398054  0.796002  1
  Rh  Rh29  1  0.596191  0.096214  0.192604  1
