# generated using pymatgen
data_MgTiAsPd8
_symmetry_space_group_name_H-M   'P 1'
_cell_length_a   4.01503700
_cell_length_b   4.01503700
_cell_length_c   11.03539900
_cell_angle_alpha   90.00000000
_cell_angle_beta   90.00000000
_cell_angle_gamma   90.00000000
_symmetry_Int_Tables_number   1
_chemical_formula_structural   MgTiAsPd8
_chemical_formula_sum   'Mg1 Ti1 As1 Pd8'
_cell_volume   177.89639359
_cell_formula_units_Z   1
loop_
 _symmetry_equiv_pos_site_id
 _symmetry_equiv_pos_as_xyz
  1  'x, y, z'
loop_
 _atom_site_type_symbol
 _atom_site_label
 _atom_site_symmetry_multiplicity
 _atom_site_fract_x
 _atom_site_fract_y
 _atom_site_fract_z
 _atom_site_occupancy
  Mg  Mg0  1  0.500000  0.500000  0.180730  1
  Ti  Ti1  1  0.500000  0.500000  0.828254  1
  As  As2  1  0.000000  0.000000  0.500032  1
  Pd  Pd3  1  0.500000  0.000000  0.991413  1
  Pd  Pd4  1  0.000000  0.500000  0.991413  1
  Pd  Pd5  1  0.500000  0.000000  0.643214  1
  Pd  Pd6  1  0.000000  0.500000  0.643214  1
  Pd  Pd7  1  0.500000  0.000000  0.363304  1
  Pd  Pd8  1  0.000000  0.500000  0.363304  1
  Pd  Pd9  1  0.000000  0.000000  0.819047  1
  Pd  Pd10  1  0.000000  0.000000  0.176078  1
