# generated using pymatgen
data_HfTiBe9Re
_symmetry_space_group_name_H-M   'P 1'
_cell_length_a   7.49386404
_cell_length_b   7.49386317
_cell_length_c   7.49386301
_cell_angle_alpha   34.75012201
_cell_angle_beta   34.75011906
_cell_angle_gamma   34.75011762
_symmetry_Int_Tables_number   1
_chemical_formula_structural   HfTiBe9Re
_chemical_formula_sum   'Hf1 Ti1 Be9 Re1'
_cell_volume   122.03188341
_cell_formula_units_Z   1
loop_
 _symmetry_equiv_pos_site_id
 _symmetry_equiv_pos_as_xyz
  1  'x, y, z'
loop_
 _atom_site_type_symbol
 _atom_site_label
 _atom_site_symmetry_multiplicity
 _atom_site_fract_x
 _atom_site_fract_y
 _atom_site_fract_z
 _atom_site_occupancy
  Hf  Hf0  1  0.996381  0.996381  0.996381  1
  Ti  Ti1  1  0.144168  0.144168  0.144168  1
  Be  Be2  1  0.414339  0.918534  0.414339  1
  Be  Be3  1  0.414339  0.414339  0.918534  1
  Be  Be4  1  0.918534  0.414339  0.414339  1
  Be  Be5  1  0.588184  0.076181  0.588184  1
  Be  Be6  1  0.588184  0.588184  0.076181  1
  Be  Be7  1  0.076181  0.588184  0.588184  1
  Be  Be8  1  0.667197  0.667197  0.667197  1
  Be  Be9  1  0.336314  0.336314  0.336314  1
  Be  Be10  1  0.500169  0.500169  0.500169  1
  Re  Re11  1  0.856009  0.856009  0.856009  1
