# generated using pymatgen
data_Tm11ThCo3Tc
_symmetry_space_group_name_H-M   'P 1'
_cell_length_a   6.19989700
_cell_length_b   7.02168698
_cell_length_c   9.28789000
_cell_angle_alpha   90.00000000
_cell_angle_beta   90.00000000
_cell_angle_gamma   90.79267944
_symmetry_Int_Tables_number   1
_chemical_formula_structural   Tm11ThCo3Tc
_chemical_formula_sum   'Tm11 Th1 Co3 Tc1'
_cell_volume   404.29785638
_cell_formula_units_Z   1
loop_
 _symmetry_equiv_pos_site_id
 _symmetry_equiv_pos_as_xyz
  1  'x, y, z'
loop_
 _atom_site_type_symbol
 _atom_site_label
 _atom_site_symmetry_multiplicity
 _atom_site_fract_x
 _atom_site_fract_y
 _atom_site_fract_z
 _atom_site_occupancy
  Tm  Tm0  1  0.330640  0.672684  0.064437  1
  Tm  Tm1  1  0.177353  0.181173  0.434250  1
  Tm  Tm2  1  0.676836  0.323247  0.569935  1
  Tm  Tm3  1  0.827469  0.829398  0.932917  1
  Tm  Tm4  1  0.676836  0.323247  0.930065  1
  Tm  Tm5  1  0.827469  0.829398  0.567083  1
  Tm  Tm6  1  0.330640  0.672684  0.435563  1
  Tm  Tm7  1  0.177353  0.181173  0.065750  1
  Tm  Tm8  1  0.628179  0.042130  0.250000  1
  Tm  Tm9  1  0.146201  0.455033  0.750000  1
  Tm  Tm10  1  0.358274  0.955284  0.750000  1
  Th  Th11  1  0.841772  0.544497  0.250000  1
  Co  Co12  1  0.465655  0.384818  0.250000  1
  Co  Co13  1  0.954593  0.116131  0.750000  1
  Co  Co14  1  0.545543  0.614044  0.750000  1
  Tc  Tc15  1  0.035190  0.875055  0.250000  1
