# generated using pymatgen
data_Zr4Re3NiOs4
_symmetry_space_group_name_H-M   'P 1'
_cell_length_a   5.23614200
_cell_length_b   5.23614259
_cell_length_c   8.64139400
_cell_angle_alpha   90.00000000
_cell_angle_beta   90.00000000
_cell_angle_gamma   119.11943272
_symmetry_Int_Tables_number   1
_chemical_formula_structural   Zr4Re3NiOs4
_chemical_formula_sum   'Zr4 Re3 Ni1 Os4'
_cell_volume   206.97738936
_cell_formula_units_Z   1
loop_
 _symmetry_equiv_pos_site_id
 _symmetry_equiv_pos_as_xyz
  1  'x, y, z'
loop_
 _atom_site_type_symbol
 _atom_site_label
 _atom_site_symmetry_multiplicity
 _atom_site_fract_x
 _atom_site_fract_y
 _atom_site_fract_z
 _atom_site_occupancy
  Zr  Zr0  1  0.333642  0.666358  0.183372  1
  Zr  Zr1  1  0.670353  0.329647  0.308726  1
  Zr  Zr2  1  0.670353  0.329647  0.691274  1
  Zr  Zr3  1  0.333642  0.666358  0.816628  1
  Re  Re4  1  0.173859  0.342931  0.500000  1
  Re  Re5  1  0.657069  0.826141  0.500000  1
  Re  Re6  1  0.170854  0.829146  0.500000  1
  Ni  Ni7  1  0.827372  0.172628  0.000000  1
  Os  Os8  1  0.999397  0.000603  0.243784  1
  Os  Os9  1  0.999397  0.000603  0.756216  1
  Os  Os10  1  0.821945  0.657932  0.000000  1
  Os  Os11  1  0.342068  0.178055  0.000000  1
