# generated using pymatgen
data_SrB2IrRh
_symmetry_space_group_name_H-M   'P 1'
_cell_length_a   7.17319665
_cell_length_b   6.18585456
_cell_length_c   5.63343865
_cell_angle_alpha   74.56785812
_cell_angle_beta   56.22896938
_cell_angle_gamma   49.20315570
_symmetry_Int_Tables_number   1
_chemical_formula_structural   SrB2IrRh
_chemical_formula_sum   'Sr2 B4 Ir2 Rh2'
_cell_volume   155.42003619
_cell_formula_units_Z   2
loop_
 _symmetry_equiv_pos_site_id
 _symmetry_equiv_pos_as_xyz
  1  'x, y, z'
loop_
 _atom_site_type_symbol
 _atom_site_label
 _atom_site_symmetry_multiplicity
 _atom_site_fract_x
 _atom_site_fract_y
 _atom_site_fract_z
 _atom_site_occupancy
  Sr  Sr0  1  0.001305  0.001305  0.998695  1
  Sr  Sr1  1  0.251305  0.251305  0.248695  1
  B  B2  1  0.321550  0.679625  0.333608  1
  B  B3  1  0.584783  0.916392  0.570375  1
  B  B4  1  0.679625  0.321550  0.665217  1
  B  B5  1  0.916392  0.584783  0.928450  1
  Ir  Ir6  1  0.629605  0.629605  0.370395  1
  Ir  Ir7  1  0.879605  0.879605  0.620395  1
  Rh  Rh8  1  0.617915  0.617915  0.882085  1
  Rh  Rh9  1  0.367915  0.367915  0.632085  1
