# generated using pymatgen
data_YErRh6
_symmetry_space_group_name_H-M   'P 1'
_cell_length_a   5.25864900
_cell_length_b   5.25864821
_cell_length_c   17.53743600
_cell_angle_alpha   90.00000000
_cell_angle_beta   90.00000000
_cell_angle_gamma   119.99999868
_symmetry_Int_Tables_number   1
_chemical_formula_structural   YErRh6
_chemical_formula_sum   'Y3 Er3 Rh18'
_cell_volume   419.99588863
_cell_formula_units_Z   3
loop_
 _symmetry_equiv_pos_site_id
 _symmetry_equiv_pos_as_xyz
  1  'x, y, z'
loop_
 _atom_site_type_symbol
 _atom_site_label
 _atom_site_symmetry_multiplicity
 _atom_site_fract_x
 _atom_site_fract_y
 _atom_site_fract_z
 _atom_site_occupancy
  Y  Y0  1  0.333333  0.666666  0.041605  1
  Y  Y1  1  0.333333  0.666666  0.250123  1
  Y  Y2  1  0.666667  0.333334  0.749980  1
  Er  Er3  1  0.333333  0.666666  0.458189  1
  Er  Er4  1  0.666667  0.333334  0.541797  1
  Er  Er5  1  0.666667  0.333334  0.958002  1
  Rh  Rh6  1  0.000000  0.000000  0.999873  1
  Rh  Rh7  1  0.334614  0.167307  0.125542  1
  Rh  Rh8  1  0.832692  0.167307  0.125542  1
  Rh  Rh9  1  0.832693  0.665386  0.125542  1
  Rh  Rh10  1  0.000000  0.000000  0.249996  1
  Rh  Rh11  1  0.666667  0.333334  0.249994  1
  Rh  Rh12  1  0.334712  0.167357  0.374776  1
  Rh  Rh13  1  0.832642  0.167357  0.374776  1
  Rh  Rh14  1  0.832643  0.665288  0.374776  1
  Rh  Rh15  1  0.000000  0.000000  0.500000  1
  Rh  Rh16  1  0.167367  0.334733  0.625226  1
  Rh  Rh17  1  0.167368  0.832633  0.625226  1
  Rh  Rh18  1  0.665267  0.832633  0.625226  1
  Rh  Rh19  1  0.000000  0.000000  0.749924  1
  Rh  Rh20  1  0.333333  0.666666  0.749997  1
  Rh  Rh21  1  0.167278  0.334555  0.874630  1
  Rh  Rh22  1  0.167279  0.832722  0.874630  1
  Rh  Rh23  1  0.665445  0.832722  0.874630  1
