# generated using pymatgen
data_Nd6HoLuSb20
_symmetry_space_group_name_H-M   'P 1'
_cell_length_a   4.26158000
_cell_length_b   13.48721948
_cell_length_c   15.12345700
_cell_angle_alpha   77.98545300
_cell_angle_beta   90.00000000
_cell_angle_gamma   90.00000000
_symmetry_Int_Tables_number   1
_chemical_formula_structural   Nd6HoLuSb20
_chemical_formula_sum   'Nd6 Ho1 Lu1 Sb20'
_cell_volume   850.20780686
_cell_formula_units_Z   1
loop_
 _symmetry_equiv_pos_site_id
 _symmetry_equiv_pos_as_xyz
  1  'x, y, z'
loop_
 _atom_site_type_symbol
 _atom_site_label
 _atom_site_symmetry_multiplicity
 _atom_site_fract_x
 _atom_site_fract_y
 _atom_site_fract_z
 _atom_site_occupancy
  Nd  Nd0  1  0.750000  0.335842  0.142838  1
  Nd  Nd1  1  0.250000  0.949125  0.361079  1
  Nd  Nd2  1  0.250000  0.664345  0.857606  1
  Nd  Nd3  1  0.250000  0.667885  0.575757  1
  Nd  Nd4  1  0.750000  0.050735  0.638900  1
  Nd  Nd5  1  0.750000  0.332220  0.423792  1
  Ho  Ho6  1  0.250000  0.396818  0.772470  1
  Lu  Lu7  1  0.750000  0.602362  0.227637  1
  Sb  Sb8  1  0.750000  0.851272  0.819844  1
  Sb  Sb9  1  0.250000  0.861936  0.674990  1
  Sb  Sb10  1  0.250000  0.143215  0.478239  1
  Sb  Sb11  1  0.750000  0.284747  0.934151  1
  Sb  Sb12  1  0.250000  0.147281  0.781012  1
  Sb  Sb13  1  0.750000  0.574288  0.440165  1
  Sb  Sb14  1  0.750000  0.138109  0.324972  1
  Sb  Sb15  1  0.250000  0.705589  0.349028  1
  Sb  Sb16  1  0.750000  0.294176  0.649947  1
  Sb  Sb17  1  0.750000  0.851508  0.218691  1
  Sb  Sb18  1  0.250000  0.420375  0.972533  1
  Sb  Sb19  1  0.250000  0.425609  0.558670  1
  Sb  Sb20  1  0.750000  0.572037  0.736597  1
  Sb  Sb21  1  0.250000  0.430272  0.262885  1
  Sb  Sb22  1  0.750000  0.856801  0.521727  1
  Sb  Sb23  1  0.750000  0.031824  0.891125  1
  Sb  Sb24  1  0.250000  0.715148  0.067209  1
  Sb  Sb25  1  0.250000  0.967994  0.109101  1
  Sb  Sb26  1  0.250000  0.148847  0.180228  1
  Sb  Sb27  1  0.750000  0.579641  0.028807  1
