# generated using pymatgen
data_Th3Pd12Au
_symmetry_space_group_name_H-M   'P 1'
_cell_length_a   5.88861900
_cell_length_b   5.88861819
_cell_length_c   9.65044600
_cell_angle_alpha   90.00000000
_cell_angle_beta   90.00000000
_cell_angle_gamma   119.99999894
_symmetry_Int_Tables_number   1
_chemical_formula_structural   Th3Pd12Au
_chemical_formula_sum   'Th3 Pd12 Au1'
_cell_volume   289.80433220
_cell_formula_units_Z   1
loop_
 _symmetry_equiv_pos_site_id
 _symmetry_equiv_pos_as_xyz
  1  'x, y, z'
loop_
 _atom_site_type_symbol
 _atom_site_label
 _atom_site_symmetry_multiplicity
 _atom_site_fract_x
 _atom_site_fract_y
 _atom_site_fract_z
 _atom_site_occupancy
  Th  Th0  1  0.000000  0.000000  0.489798  1
  Th  Th1  1  0.000000  0.000000  0.010202  1
  Th  Th2  1  0.666667  0.333333  0.750000  1
  Pd  Pd3  1  0.498319  0.501681  0.497746  1
  Pd  Pd4  1  0.498319  0.996637  0.497746  1
  Pd  Pd5  1  0.003363  0.501681  0.497746  1
  Pd  Pd6  1  0.498319  0.501681  0.002254  1
  Pd  Pd7  1  0.498319  0.996637  0.002254  1
  Pd  Pd8  1  0.003363  0.501681  0.002254  1
  Pd  Pd9  1  0.826037  0.652074  0.250000  1
  Pd  Pd10  1  0.347926  0.173963  0.250000  1
  Pd  Pd11  1  0.826037  0.173963  0.250000  1
  Pd  Pd12  1  0.172631  0.345263  0.750000  1
  Pd  Pd13  1  0.654737  0.827369  0.750000  1
  Pd  Pd14  1  0.172631  0.827369  0.750000  1
  Au  Au15  1  0.333333  0.666667  0.250000  1
