# generated using pymatgen
data_Ho2USn3IrRh2
_symmetry_space_group_name_H-M   'P 1'
_cell_length_a   7.46700206
_cell_length_b   7.48050616
_cell_length_c   3.88103400
_cell_angle_alpha   90.00000000
_cell_angle_beta   90.00000000
_cell_angle_gamma   118.82681281
_symmetry_Int_Tables_number   1
_chemical_formula_structural   Ho2USn3IrRh2
_chemical_formula_sum   'Ho2 U1 Sn3 Ir1 Rh2'
_cell_volume   189.91927031
_cell_formula_units_Z   1
loop_
 _symmetry_equiv_pos_site_id
 _symmetry_equiv_pos_as_xyz
  1  'x, y, z'
loop_
 _atom_site_type_symbol
 _atom_site_label
 _atom_site_symmetry_multiplicity
 _atom_site_fract_x
 _atom_site_fract_y
 _atom_site_fract_z
 _atom_site_occupancy
  Ho  Ho0  1  0.592346  0.998602  0.500000  1
  Ho  Ho1  1  0.004060  0.595336  0.500000  1
  U  U2  1  0.415428  0.417006  0.500000  1
  Sn  Sn3  1  0.757463  0.755218  0.000000  1
  Sn  Sn4  1  0.258578  0.988472  0.000000  1
  Sn  Sn5  1  0.984097  0.256695  0.000000  1
  Ir  Ir6  1  0.336963  0.635114  0.000000  1
  Rh  Rh7  1  0.635183  0.336938  0.000000  1
  Rh  Rh8  1  0.015882  0.016619  0.500000  1
