# generated using pymatgen
data_Tb3In3Ag2Rh
_symmetry_space_group_name_H-M   'P 1'
_cell_length_a   7.83437500
_cell_length_b   7.83437545
_cell_length_c   3.93020100
_cell_angle_alpha   90.00000000
_cell_angle_beta   90.00000000
_cell_angle_gamma   120.00000234
_symmetry_Int_Tables_number   1
_chemical_formula_structural   Tb3In3Ag2Rh
_chemical_formula_sum   'Tb3 In3 Ag2 Rh1'
_cell_volume   208.90754206
_cell_formula_units_Z   1
loop_
 _symmetry_equiv_pos_site_id
 _symmetry_equiv_pos_as_xyz
  1  'x, y, z'
loop_
 _atom_site_type_symbol
 _atom_site_label
 _atom_site_symmetry_multiplicity
 _atom_site_fract_x
 _atom_site_fract_y
 _atom_site_fract_z
 _atom_site_occupancy
  Tb  Tb0  1  0.973569  0.576586  0.500000  1
  Tb  Tb1  1  0.423414  0.396982  0.500000  1
  Tb  Tb2  1  0.603018  0.026431  0.500000  1
  In  In3  1  0.736133  0.737113  0.000000  1
  In  In4  1  0.000980  0.263867  0.000000  1
  In  In5  1  0.262887  0.999020  0.000000  1
  Ag  Ag6  1  0.333333  0.666667  0.000000  1
  Ag  Ag7  1  0.000000  0.000000  0.500000  1
  Rh  Rh8  1  0.666667  0.333333  0.000000  1
