# generated using pymatgen
data_Dy8HoErRu4
_symmetry_space_group_name_H-M   'P 1'
_cell_length_a   6.34944661
_cell_length_b   7.26547210
_cell_length_c   8.47891907
_cell_angle_alpha   96.64110383
_cell_angle_beta   111.98879349
_cell_angle_gamma   90.00000168
_symmetry_Int_Tables_number   1
_chemical_formula_structural   Dy8HoErRu4
_chemical_formula_sum   'Dy8 Ho1 Er1 Ru4'
_cell_volume   359.86196979
_cell_formula_units_Z   1
loop_
 _symmetry_equiv_pos_site_id
 _symmetry_equiv_pos_as_xyz
  1  'x, y, z'
loop_
 _atom_site_type_symbol
 _atom_site_label
 _atom_site_symmetry_multiplicity
 _atom_site_fract_x
 _atom_site_fract_y
 _atom_site_fract_z
 _atom_site_occupancy
  Dy  Dy0  1  0.792171  0.584189  0.814110  1
  Dy  Dy1  1  0.978062  0.915811  0.185890  1
  Dy  Dy2  1  0.207732  0.415640  0.185864  1
  Dy  Dy3  1  0.021868  0.084360  0.814136  1
  Dy  Dy4  1  0.206720  0.685031  0.566645  1
  Dy  Dy5  1  0.640074  0.814969  0.433355  1
  Dy  Dy6  1  0.793215  0.314932  0.433275  1
  Dy  Dy7  1  0.359941  0.185068  0.566725  1
  Ho  Ho8  1  0.421269  0.750000  0.000000  1
  Er  Er9  1  0.578831  0.250000  0.000000  1
  Ru  Ru10  1  0.603503  0.924486  0.780575  1
  Ru  Ru11  1  0.822927  0.575514  0.219425  1
  Ru  Ru12  1  0.396573  0.075805  0.219460  1
  Ru  Ru13  1  0.177114  0.424195  0.780540  1
