# generated using pymatgen
data_Gd16Ho3InRu12
_symmetry_space_group_name_H-M   'P 1'
_cell_length_a   10.93873900
_cell_length_b   10.93873900
_cell_length_c   6.28230000
_cell_angle_alpha   90.00000000
_cell_angle_beta   90.00000000
_cell_angle_gamma   90.00000000
_symmetry_Int_Tables_number   1
_chemical_formula_structural   Gd16Ho3InRu12
_chemical_formula_sum   'Gd16 Ho3 In1 Ru12'
_cell_volume   751.71495734
_cell_formula_units_Z   1
loop_
 _symmetry_equiv_pos_site_id
 _symmetry_equiv_pos_as_xyz
  1  'x, y, z'
loop_
 _atom_site_type_symbol
 _atom_site_label
 _atom_site_symmetry_multiplicity
 _atom_site_fract_x
 _atom_site_fract_y
 _atom_site_fract_z
 _atom_site_occupancy
  Gd  Gd0  1  0.283104  0.085060  0.379708  1
  Gd  Gd1  1  0.291427  0.913051  0.879721  1
  Gd  Gd2  1  0.708573  0.086949  0.879721  1
  Gd  Gd3  1  0.716896  0.914940  0.379708  1
  Gd  Gd4  1  0.587029  0.791318  0.878882  1
  Gd  Gd5  1  0.586643  0.208558  0.377570  1
  Gd  Gd6  1  0.413357  0.791442  0.377570  1
  Gd  Gd7  1  0.412971  0.208682  0.878882  1
  Gd  Gd8  1  0.208558  0.413357  0.622430  1
  Gd  Gd9  1  0.208682  0.587029  0.121118  1
  Gd  Gd10  1  0.791318  0.412971  0.121118  1
  Gd  Gd11  1  0.791442  0.586643  0.622430  1
  Gd  Gd12  1  0.913051  0.708573  0.120279  1
  Gd  Gd13  1  0.914940  0.283104  0.620292  1
  Gd  Gd14  1  0.085060  0.716896  0.620292  1
  Gd  Gd15  1  0.086949  0.291427  0.120279  1
  Ho  Ho16  1  0.000000  0.000000  0.000000  1
  Ho  Ho17  1  0.500000  0.500000  0.000000  1
  Ho  Ho18  1  0.500000  0.500000  0.500000  1
  In  In19  1  0.000000  0.000000  0.500000  1
  Ru  Ru20  1  0.848431  0.154088  0.242849  1
  Ru  Ru21  1  0.845912  0.848431  0.757151  1
  Ru  Ru22  1  0.154088  0.151569  0.757151  1
  Ru  Ru23  1  0.151569  0.845912  0.242849  1
  Ru  Ru24  1  0.652012  0.348946  0.748393  1
  Ru  Ru25  1  0.651054  0.652012  0.251607  1
  Ru  Ru26  1  0.348946  0.347988  0.251607  1
  Ru  Ru27  1  0.347988  0.651054  0.748393  1
  Ru  Ru28  1  0.500000  0.000000  0.124704  1
  Ru  Ru29  1  0.500000  0.000000  0.620978  1
  Ru  Ru30  1  0.000000  0.500000  0.875296  1
  Ru  Ru31  1  0.000000  0.500000  0.379022  1
