# generated using pymatgen
data_Th14Re5Au
_symmetry_space_group_name_H-M   'P 1'
_cell_length_a   10.10542151
_cell_length_b   10.10542106
_cell_length_c   6.33367058
_cell_angle_alpha   90.08608516
_cell_angle_beta   89.91391709
_cell_angle_gamma   119.56122940
_symmetry_Int_Tables_number   1
_chemical_formula_structural   Th14Re5Au
_chemical_formula_sum   'Th14 Re5 Au1'
_cell_volume   562.59715148
_cell_formula_units_Z   1
loop_
 _symmetry_equiv_pos_site_id
 _symmetry_equiv_pos_as_xyz
  1  'x, y, z'
loop_
 _atom_site_type_symbol
 _atom_site_label
 _atom_site_symmetry_multiplicity
 _atom_site_fract_x
 _atom_site_fract_y
 _atom_site_fract_z
 _atom_site_occupancy
  Th  Th0  1  0.662464  0.337536  0.536037  1
  Th  Th1  1  0.334037  0.665963  0.025182  1
  Th  Th2  1  0.872955  0.749327  0.758218  1
  Th  Th3  1  0.250673  0.127045  0.758218  1
  Th  Th4  1  0.876098  0.123902  0.766966  1
  Th  Th5  1  0.143218  0.261048  0.258395  1
  Th  Th6  1  0.738952  0.856782  0.258395  1
  Th  Th7  1  0.123734  0.876266  0.257521  1
  Th  Th8  1  0.453840  0.920740  0.544479  1
  Th  Th9  1  0.079260  0.546160  0.544479  1
  Th  Th10  1  0.460341  0.539659  0.549994  1
  Th  Th11  1  0.526766  0.067564  0.037867  1
  Th  Th12  1  0.932436  0.473234  0.037867  1
  Th  Th13  1  0.541215  0.458785  0.047851  1
  Re  Re14  1  0.180026  0.370673  0.800828  1
  Re  Re15  1  0.629327  0.819974  0.800828  1
  Re  Re16  1  0.185398  0.814602  0.802360  1
  Re  Re17  1  0.816150  0.621051  0.299810  1
  Re  Re18  1  0.378949  0.183850  0.299810  1
  Au  Au19  1  0.814164  0.185836  0.302991  1
