# generated using pymatgen
data_Lu4Nb2NiOs5
_symmetry_space_group_name_H-M   'P 1'
_cell_length_a   5.45246100
_cell_length_b   5.47320015
_cell_length_c   8.41905500
_cell_angle_alpha   90.00000000
_cell_angle_beta   90.00000000
_cell_angle_gamma   119.87471454
_symmetry_Int_Tables_number   1
_chemical_formula_structural   Lu4Nb2NiOs5
_chemical_formula_sum   'Lu4 Nb2 Ni1 Os5'
_cell_volume   217.85863194
_cell_formula_units_Z   1
loop_
 _symmetry_equiv_pos_site_id
 _symmetry_equiv_pos_as_xyz
  1  'x, y, z'
loop_
 _atom_site_type_symbol
 _atom_site_label
 _atom_site_symmetry_multiplicity
 _atom_site_fract_x
 _atom_site_fract_y
 _atom_site_fract_z
 _atom_site_occupancy
  Lu  Lu0  1  0.333924  0.667849  0.437944  1
  Lu  Lu1  1  0.666195  0.332388  0.565332  1
  Lu  Lu2  1  0.666195  0.332388  0.934668  1
  Lu  Lu3  1  0.333924  0.667849  0.062056  1
  Nb  Nb4  1  0.998454  0.996908  0.998246  1
  Nb  Nb5  1  0.998454  0.996908  0.501754  1
  Ni  Ni6  1  0.171368  0.342737  0.750000  1
  Os  Os7  1  0.176607  0.825597  0.750000  1
  Os  Os8  1  0.350422  0.178824  0.250000  1
  Os  Os9  1  0.827065  0.654129  0.250000  1
  Os  Os10  1  0.648989  0.825597  0.750000  1
  Os  Os11  1  0.828403  0.178824  0.250000  1
