# generated using pymatgen
data_Y6TaNb(Co4P3)4
_symmetry_space_group_name_H-M   'P 1'
_cell_length_a   3.71883500
_cell_length_b   10.66089900
_cell_length_c   12.36134600
_cell_angle_alpha   90.00000000
_cell_angle_beta   90.00000000
_cell_angle_gamma   90.00000000
_symmetry_Int_Tables_number   1
_chemical_formula_structural   Y6TaNb(Co4P3)4
_chemical_formula_sum   'Y6 Ta1 Nb1 Co16 P12'
_cell_volume   490.07946044
_cell_formula_units_Z   1
loop_
 _symmetry_equiv_pos_site_id
 _symmetry_equiv_pos_as_xyz
  1  'x, y, z'
loop_
 _atom_site_type_symbol
 _atom_site_label
 _atom_site_symmetry_multiplicity
 _atom_site_fract_x
 _atom_site_fract_y
 _atom_site_fract_z
 _atom_site_occupancy
  Y  Y0  1  0.000000  0.500000  0.526229  1
  Y  Y1  1  0.500000  0.000000  0.473774  1
  Y  Y2  1  0.500000  0.820307  0.204957  1
  Y  Y3  1  0.500000  0.179693  0.204957  1
  Y  Y4  1  0.000000  0.679616  0.794858  1
  Y  Y5  1  0.000000  0.320384  0.794858  1
  Ta  Ta6  1  0.000000  0.000000  0.843670  1
  Nb  Nb7  1  0.500000  0.500000  0.156797  1
  Co  Co8  1  0.500000  0.500000  0.702113  1
  Co  Co9  1  0.000000  0.000000  0.297936  1
  Co  Co10  1  0.000000  0.500000  0.986234  1
  Co  Co11  1  0.500000  0.000000  0.012993  1
  Co  Co12  1  0.500000  0.332445  0.991651  1
  Co  Co13  1  0.500000  0.667555  0.991651  1
  Co  Co14  1  0.000000  0.166946  0.007879  1
  Co  Co15  1  0.000000  0.833054  0.007879  1
  Co  Co16  1  0.500000  0.295249  0.432380  1
  Co  Co17  1  0.500000  0.704751  0.432380  1
  Co  Co18  1  0.000000  0.204683  0.567916  1
  Co  Co19  1  0.000000  0.795317  0.567916  1
  Co  Co20  1  0.500000  0.878060  0.705914  1
  Co  Co21  1  0.500000  0.121940  0.705914  1
  Co  Co22  1  0.000000  0.622608  0.295044  1
  Co  Co23  1  0.000000  0.377392  0.295044  1
  P  P24  1  0.500000  0.500000  0.882241  1
  P  P25  1  0.000000  0.000000  0.118098  1
  P  P26  1  0.500000  0.500000  0.355167  1
  P  P27  1  0.000000  0.000000  0.644151  1
  P  P28  1  0.500000  0.310682  0.615514  1
  P  P29  1  0.500000  0.689318  0.615514  1
  P  P30  1  0.000000  0.189366  0.384448  1
  P  P31  1  0.000000  0.810634  0.384448  1
  P  P32  1  0.500000  0.841379  0.893394  1
  P  P33  1  0.500000  0.158621  0.893394  1
  P  P34  1  0.000000  0.658462  0.106345  1
  P  P35  1  0.000000  0.341538  0.106345  1
