# generated using pymatgen
data_TbY3Sn5SbRh7
_symmetry_space_group_name_H-M   'P 1'
_cell_length_a   7.61789599
_cell_length_b   7.61789725
_cell_length_c   7.61888530
_cell_angle_alpha   109.37540464
_cell_angle_beta   109.37540551
_cell_angle_gamma   109.61910782
_symmetry_Int_Tables_number   1
_chemical_formula_structural   TbY3Sn5SbRh7
_chemical_formula_sum   'Tb1 Y3 Sn5 Sb1 Rh7'
_cell_volume   340.54300529
_cell_formula_units_Z   1
loop_
 _symmetry_equiv_pos_site_id
 _symmetry_equiv_pos_as_xyz
  1  'x, y, z'
loop_
 _atom_site_type_symbol
 _atom_site_label
 _atom_site_symmetry_multiplicity
 _atom_site_fract_x
 _atom_site_fract_y
 _atom_site_fract_z
 _atom_site_occupancy
  Tb  Tb0  1  0.496117  0.496117  0.497405  1
  Y  Y1  1  0.496094  0.998691  0.000003  1
  Y  Y2  1  0.998691  0.496094  0.000003  1
  Y  Y3  1  0.998740  0.998740  0.502642  1
  Sn  Sn4  1  0.997071  0.314072  0.316830  1
  Sn  Sn5  1  0.680372  0.997347  0.683158  1
  Sn  Sn6  1  0.690740  0.690740  0.000105  1
  Sn  Sn7  1  0.997347  0.680372  0.683158  1
  Sn  Sn8  1  0.314072  0.997071  0.316830  1
  Sb  Sb9  1  0.321263  0.321263  0.999899  1
  Rh  Rh10  1  0.008064  0.008064  0.999996  1
  Rh  Rh11  1  0.501332  0.750260  0.248773  1
  Rh  Rh12  1  0.750260  0.501332  0.248773  1
  Rh  Rh13  1  0.247954  0.748049  0.499992  1
  Rh  Rh14  1  0.252463  0.501373  0.751221  1
  Rh  Rh15  1  0.501373  0.252463  0.751221  1
  Rh  Rh16  1  0.748049  0.247954  0.499992  1
