# generated using pymatgen
data_Er3Th5(ReC2)4
_symmetry_space_group_name_H-M   'P 1'
_cell_length_a   5.29076800
_cell_length_b   6.66387494
_cell_length_c   9.92134731
_cell_angle_alpha   90.22703890
_cell_angle_beta   90.00000000
_cell_angle_gamma   90.00000000
_symmetry_Int_Tables_number   1
_chemical_formula_structural   Er3Th5(ReC2)4
_chemical_formula_sum   'Er3 Th5 Re4 C8'
_cell_volume   349.79435719
_cell_formula_units_Z   1
loop_
 _symmetry_equiv_pos_site_id
 _symmetry_equiv_pos_as_xyz
  1  'x, y, z'
loop_
 _atom_site_type_symbol
 _atom_site_label
 _atom_site_symmetry_multiplicity
 _atom_site_fract_x
 _atom_site_fract_y
 _atom_site_fract_z
 _atom_site_occupancy
  Er  Er0  1  0.750000  0.674860  0.552063  1
  Er  Er1  1  0.250000  0.324255  0.447984  1
  Er  Er2  1  0.750000  0.178878  0.946246  1
  Th  Th3  1  0.250000  0.469732  0.781319  1
  Th  Th4  1  0.750000  0.029233  0.284789  1
  Th  Th5  1  0.250000  0.973106  0.712550  1
  Th  Th6  1  0.750000  0.525148  0.221414  1
  Th  Th7  1  0.250000  0.814633  0.047340  1
  Re  Re8  1  0.250000  0.273614  0.137171  1
  Re  Re9  1  0.750000  0.229004  0.635851  1
  Re  Re10  1  0.250000  0.772303  0.366857  1
  Re  Re11  1  0.750000  0.729294  0.860529  1
  C  C12  1  0.250000  0.170729  0.947202  1
  C  C13  1  0.750000  0.833922  0.052174  1
  C  C14  1  0.250000  0.668843  0.553215  1
  C  C15  1  0.750000  0.332171  0.448183  1
  C  C16  1  0.250000  0.041354  0.263347  1
  C  C17  1  0.750000  0.461741  0.759328  1
  C  C18  1  0.250000  0.535360  0.244729  1
  C  C19  1  0.750000  0.961821  0.737709  1
