# generated using pymatgen
data_Tb20FeCo3Bi8
_symmetry_space_group_name_H-M   'P 1'
_cell_length_a   8.06322605
_cell_length_b   8.89478200
_cell_length_c   12.45532908
_cell_angle_alpha   90.00000000
_cell_angle_beta   90.01278687
_cell_angle_gamma   90.00000000
_symmetry_Int_Tables_number   1
_chemical_formula_structural   Tb20FeCo3Bi8
_chemical_formula_sum   'Tb20 Fe1 Co3 Bi8'
_cell_volume   893.30412486
_cell_formula_units_Z   1
loop_
 _symmetry_equiv_pos_site_id
 _symmetry_equiv_pos_as_xyz
  1  'x, y, z'
loop_
 _atom_site_type_symbol
 _atom_site_label
 _atom_site_symmetry_multiplicity
 _atom_site_fract_x
 _atom_site_fract_y
 _atom_site_fract_z
 _atom_site_occupancy
  Tb  Tb0  1  0.847511  0.750000  0.801361  1
  Tb  Tb1  1  0.152089  0.250000  0.198093  1
  Tb  Tb2  1  0.348095  0.250000  0.698183  1
  Tb  Tb3  1  0.651103  0.750000  0.302401  1
  Tb  Tb4  1  0.380147  0.750000  0.689463  1
  Tb  Tb5  1  0.620941  0.250000  0.309957  1
  Tb  Tb6  1  0.879428  0.250000  0.810123  1
  Tb  Tb7  1  0.120305  0.750000  0.189419  1
  Tb  Tb8  1  0.953839  0.750000  0.503045  1
  Tb  Tb9  1  0.045250  0.250000  0.497150  1
  Tb  Tb10  1  0.455224  0.250000  0.997327  1
  Tb  Tb11  1  0.544764  0.750000  0.002900  1
  Tb  Tb12  1  0.675754  0.032224  0.562142  1
  Tb  Tb13  1  0.323049  0.966101  0.437542  1
  Tb  Tb14  1  0.177027  0.966827  0.937193  1
  Tb  Tb15  1  0.323049  0.533899  0.437542  1
  Tb  Tb16  1  0.823124  0.033894  0.062741  1
  Tb  Tb17  1  0.675754  0.467776  0.562142  1
  Tb  Tb18  1  0.823124  0.466106  0.062741  1
  Tb  Tb19  1  0.177027  0.533173  0.937193  1
  Fe  Fe20  1  0.562455  0.750000  0.508973  1
  Co  Co21  1  0.439844  0.250000  0.491673  1
  Co  Co22  1  0.059496  0.250000  0.991714  1
  Co  Co23  1  0.940598  0.750000  0.008061  1
  Bi  Bi24  1  0.570783  0.492662  0.825832  1
  Bi  Bi25  1  0.429152  0.507401  0.174415  1
  Bi  Bi26  1  0.070877  0.507492  0.674582  1
  Bi  Bi27  1  0.429152  0.992599  0.174415  1
  Bi  Bi28  1  0.929689  0.492574  0.325631  1
  Bi  Bi29  1  0.570783  0.007338  0.825832  1
  Bi  Bi30  1  0.929689  0.007426  0.325631  1
  Bi  Bi31  1  0.070877  0.992508  0.674582  1
