# generated using pymatgen
data_Hf2Ti3NbSi3
_symmetry_space_group_name_H-M   'P 1'
_cell_length_a   6.94207532
_cell_length_b   6.94207493
_cell_length_c   3.62956200
_cell_angle_alpha   90.00000000
_cell_angle_beta   90.00000000
_cell_angle_gamma   120.06246072
_symmetry_Int_Tables_number   1
_chemical_formula_structural   Hf2Ti3NbSi3
_chemical_formula_sum   'Hf2 Ti3 Nb1 Si3'
_cell_volume   151.38741802
_cell_formula_units_Z   1
loop_
 _symmetry_equiv_pos_site_id
 _symmetry_equiv_pos_as_xyz
  1  'x, y, z'
loop_
 _atom_site_type_symbol
 _atom_site_label
 _atom_site_symmetry_multiplicity
 _atom_site_fract_x
 _atom_site_fract_y
 _atom_site_fract_z
 _atom_site_occupancy
  Hf  Hf0  1  0.406446  0.999312  0.500000  1
  Hf  Hf1  1  0.999312  0.406446  0.500000  1
  Ti  Ti2  1  0.747986  0.999723  0.000000  1
  Ti  Ti3  1  0.999723  0.747986  0.000000  1
  Ti  Ti4  1  0.252478  0.252478  0.000000  1
  Nb  Nb5  1  0.593750  0.593750  0.500000  1
  Si  Si6  1  0.337734  0.665908  0.000000  1
  Si  Si7  1  0.665908  0.337734  0.000000  1
  Si  Si8  1  0.996662  0.996662  0.500000  1
