# generated using pymatgen
data_Tm3Al2(GaCu)2
_symmetry_space_group_name_H-M   'P 1'
_cell_length_a   6.78084139
_cell_length_b   6.78084171
_cell_length_c   4.27925300
_cell_angle_alpha   90.00000000
_cell_angle_beta   90.00000000
_cell_angle_gamma   120.57093831
_symmetry_Int_Tables_number   1
_chemical_formula_structural   Tm3Al2(GaCu)2
_chemical_formula_sum   'Tm3 Al2 Ga2 Cu2'
_cell_volume   169.40973567
_cell_formula_units_Z   1
loop_
 _symmetry_equiv_pos_site_id
 _symmetry_equiv_pos_as_xyz
  1  'x, y, z'
loop_
 _atom_site_type_symbol
 _atom_site_label
 _atom_site_symmetry_multiplicity
 _atom_site_fract_x
 _atom_site_fract_y
 _atom_site_fract_z
 _atom_site_occupancy
  Tm  Tm0  1  0.999474  0.588717  0.500000  1
  Tm  Tm1  1  0.419542  0.419542  0.500000  1
  Tm  Tm2  1  0.588717  0.999474  0.500000  1
  Al  Al3  1  0.992909  0.222591  0.000000  1
  Al  Al4  1  0.222591  0.992909  0.000000  1
  Ga  Ga5  1  0.340228  0.668552  0.000000  1
  Ga  Ga6  1  0.668552  0.340228  0.000000  1
  Cu  Cu7  1  0.004102  0.004102  0.500000  1
  Cu  Cu8  1  0.763884  0.763884  0.000000  1
