# generated using pymatgen
data_CaYb3Ho2(Si3Ru)8
_symmetry_space_group_name_H-M   'P 1'
_cell_length_a   10.15022717
_cell_length_b   10.15022819
_cell_length_c   8.12546228
_cell_angle_alpha   89.97130692
_cell_angle_beta   90.02868505
_cell_angle_gamma   132.80747182
_symmetry_Int_Tables_number   1
_chemical_formula_structural   CaYb3Ho2(Si3Ru)8
_chemical_formula_sum   'Ca1 Yb3 Ho2 Si24 Ru8'
_cell_volume   614.16254286
_cell_formula_units_Z   1
loop_
 _symmetry_equiv_pos_site_id
 _symmetry_equiv_pos_as_xyz
  1  'x, y, z'
loop_
 _atom_site_type_symbol
 _atom_site_label
 _atom_site_symmetry_multiplicity
 _atom_site_fract_x
 _atom_site_fract_y
 _atom_site_fract_z
 _atom_site_occupancy
  Ca  Ca0  1  0.500747  0.000747  0.750000  1
  Yb  Yb1  1  0.500053  0.500058  0.500123  1
  Yb  Yb2  1  0.000058  0.000053  0.999877  1
  Yb  Yb3  1  0.999240  0.499240  0.250000  1
  Ho  Ho4  1  0.499323  0.999323  0.250000  1
  Ho  Ho5  1  0.000551  0.500551  0.750000  1
  Si  Si6  1  0.795357  0.204909  0.499804  1
  Si  Si7  1  0.294331  0.704824  0.000232  1
  Si  Si8  1  0.204824  0.794331  0.499768  1
  Si  Si9  1  0.704909  0.295357  0.000196  1
  Si  Si10  1  0.332395  0.335055  0.832211  1
  Si  Si11  1  0.664411  0.668332  0.167920  1
  Si  Si12  1  0.168332  0.164411  0.332080  1
  Si  Si13  1  0.835055  0.832395  0.667789  1
  Si  Si14  1  0.121805  0.889263  0.729933  1
  Si  Si15  1  0.109733  0.876975  0.270098  1
  Si  Si16  1  0.608662  0.375951  0.229986  1
  Si  Si17  1  0.625576  0.393084  0.769794  1
  Si  Si18  1  0.875951  0.108662  0.270014  1
  Si  Si19  1  0.893084  0.125576  0.730206  1
  Si  Si20  1  0.389263  0.621805  0.770067  1
  Si  Si21  1  0.376975  0.609733  0.229902  1
  Si  Si22  1  0.346550  0.113193  0.504788  1
  Si  Si23  1  0.886990  0.653681  0.494428  1
  Si  Si24  1  0.386136  0.153172  0.009544  1
  Si  Si25  1  0.846188  0.613271  0.992285  1
  Si  Si26  1  0.653172  0.886136  0.490456  1
  Si  Si27  1  0.113271  0.346188  0.507715  1
  Si  Si28  1  0.613193  0.846550  0.995212  1
  Si  Si29  1  0.153681  0.386990  0.005572  1
  Ru  Ru30  1  0.671458  0.329797  0.499505  1
  Ru  Ru31  1  0.169427  0.829237  0.000609  1
  Ru  Ru32  1  0.329237  0.669427  0.499391  1
  Ru  Ru33  1  0.829797  0.171458  0.000495  1
  Ru  Ru34  1  0.127026  0.127001  0.625089  1
  Ru  Ru35  1  0.872976  0.873260  0.374788  1
  Ru  Ru36  1  0.373260  0.372976  0.125212  1
  Ru  Ru37  1  0.627001  0.627026  0.874911  1
