# generated using pymatgen
data_Ba4Re2MoO12
_symmetry_space_group_name_H-M   'P 1'
_cell_length_a   10.02856628
_cell_length_b   10.02856643
_cell_length_c   10.02856650
_cell_angle_alpha   33.76016654
_cell_angle_beta   33.76016440
_cell_angle_gamma   33.76016445
_symmetry_Int_Tables_number   1
_chemical_formula_structural   Ba4Re2MoO12
_chemical_formula_sum   'Ba4 Re2 Mo1 O12'
_cell_volume   277.53214582
_cell_formula_units_Z   1
loop_
 _symmetry_equiv_pos_site_id
 _symmetry_equiv_pos_as_xyz
  1  'x, y, z'
loop_
 _atom_site_type_symbol
 _atom_site_label
 _atom_site_symmetry_multiplicity
 _atom_site_fract_x
 _atom_site_fract_y
 _atom_site_fract_z
 _atom_site_occupancy
  Ba  Ba0  1  0.710118  0.710118  0.710118  1
  Ba  Ba1  1  0.289882  0.289882  0.289882  1
  Ba  Ba2  1  0.867242  0.867242  0.867242  1
  Ba  Ba3  1  0.132758  0.132758  0.132758  1
  Re  Re4  1  0.580741  0.580741  0.580741  1
  Re  Re5  1  0.419259  0.419259  0.419259  1
  Mo  Mo6  1  0.000000  0.000000  0.000000  1
  O  O7  1  0.217688  0.694500  0.217688  1
  O  O8  1  0.217688  0.217688  0.694500  1
  O  O9  1  0.694500  0.217688  0.217688  1
  O  O10  1  0.782312  0.305500  0.782312  1
  O  O11  1  0.782312  0.782312  0.305500  1
  O  O12  1  0.305500  0.782312  0.782312  1
  O  O13  1  0.389724  0.858728  0.389724  1
  O  O14  1  0.389724  0.389724  0.858728  1
  O  O15  1  0.858728  0.389724  0.389724  1
  O  O16  1  0.610276  0.141272  0.610276  1
  O  O17  1  0.610276  0.610276  0.141272  1
  O  O18  1  0.141272  0.610276  0.610276  1
