# generated using pymatgen
data_TmScFe8(MoP3)2
_symmetry_space_group_name_H-M   'P 1'
_cell_length_a   3.68300200
_cell_length_b   10.35491800
_cell_length_c   11.91209600
_cell_angle_alpha   90.00000000
_cell_angle_beta   90.00000000
_cell_angle_gamma   90.00000000
_symmetry_Int_Tables_number   1
_chemical_formula_structural   TmScFe8(MoP3)2
_chemical_formula_sum   'Tm2 Sc2 Fe16 Mo4 P12'
_cell_volume   454.29379345
_cell_formula_units_Z   2
loop_
 _symmetry_equiv_pos_site_id
 _symmetry_equiv_pos_as_xyz
  1  'x, y, z'
loop_
 _atom_site_type_symbol
 _atom_site_label
 _atom_site_symmetry_multiplicity
 _atom_site_fract_x
 _atom_site_fract_y
 _atom_site_fract_z
 _atom_site_occupancy
  Tm  Tm0  1  0.750000  0.417974  0.292039  1
  Tm  Tm1  1  0.750000  0.082026  0.792039  1
  Sc  Sc2  1  0.250000  0.582443  0.708032  1
  Sc  Sc3  1  0.250000  0.917557  0.208032  1
  Fe  Fe4  1  0.250000  0.409945  0.493334  1
  Fe  Fe5  1  0.250000  0.090055  0.993334  1
  Fe  Fe6  1  0.750000  0.590668  0.509472  1
  Fe  Fe7  1  0.750000  0.909332  0.009472  1
  Fe  Fe8  1  0.250000  0.216466  0.177351  1
  Fe  Fe9  1  0.250000  0.283534  0.677351  1
  Fe  Fe10  1  0.750000  0.781593  0.822282  1
  Fe  Fe11  1  0.750000  0.718407  0.322282  1
  Fe  Fe12  1  0.250000  0.874889  0.701060  1
  Fe  Fe13  1  0.250000  0.625111  0.201060  1
  Fe  Fe14  1  0.750000  0.121226  0.298095  1
  Fe  Fe15  1  0.750000  0.378774  0.798095  1
  Fe  Fe16  1  0.250000  0.464556  0.930975  1
  Fe  Fe17  1  0.250000  0.035444  0.430975  1
  Fe  Fe18  1  0.750000  0.538294  0.066884  1
  Fe  Fe19  1  0.750000  0.961706  0.566884  1
  Mo  Mo20  1  0.250000  0.706981  0.988533  1
  Mo  Mo21  1  0.250000  0.793019  0.488533  1
  Mo  Mo22  1  0.750000  0.293228  0.012521  1
  Mo  Mo23  1  0.750000  0.206772  0.512521  1
  P  P24  1  0.250000  0.426424  0.113691  1
  P  P25  1  0.250000  0.073576  0.613691  1
  P  P26  1  0.750000  0.575820  0.883178  1
  P  P27  1  0.750000  0.924180  0.383178  1
  P  P28  1  0.250000  0.264666  0.866806  1
  P  P29  1  0.250000  0.235334  0.366806  1
  P  P30  1  0.750000  0.739175  0.134312  1
  P  P31  1  0.750000  0.760825  0.634312  1
  P  P32  1  0.250000  0.593422  0.388974  1
  P  P33  1  0.250000  0.906578  0.888974  1
  P  P34  1  0.750000  0.409696  0.612462  1
  P  P35  1  0.750000  0.090304  0.112462  1
