# generated using pymatgen
data_Sr4Yb5PaPt8
_symmetry_space_group_name_H-M   'P 1'
_cell_length_a   7.67564900
_cell_length_b   7.81887253
_cell_length_c   14.84907200
_cell_angle_alpha   90.02110430
_cell_angle_beta   90.00000000
_cell_angle_gamma   90.00000000
_symmetry_Int_Tables_number   1
_chemical_formula_structural   Sr4Yb5PaPt8
_chemical_formula_sum   'Sr8 Yb10 Pa2 Pt16'
_cell_volume   891.16582432
_cell_formula_units_Z   2
loop_
 _symmetry_equiv_pos_site_id
 _symmetry_equiv_pos_as_xyz
  1  'x, y, z'
loop_
 _atom_site_type_symbol
 _atom_site_label
 _atom_site_symmetry_multiplicity
 _atom_site_fract_x
 _atom_site_fract_y
 _atom_site_fract_z
 _atom_site_occupancy
  Sr  Sr0  1  0.503831  0.328644  0.906848  1
  Sr  Sr1  1  0.003831  0.171356  0.593152  1
  Sr  Sr2  1  0.496461  0.675728  0.400969  1
  Sr  Sr3  1  0.996461  0.824272  0.099031  1
  Sr  Sr4  1  0.501921  0.671882  0.099924  1
  Sr  Sr5  1  0.001921  0.828118  0.400076  1
  Sr  Sr6  1  0.497133  0.317133  0.593314  1
  Sr  Sr7  1  0.997133  0.182867  0.906686  1
  Yb  Yb8  1  0.660671  0.165742  0.376607  1
  Yb  Yb9  1  0.160671  0.334258  0.123393  1
  Yb  Yb10  1  0.661597  0.165199  0.122489  1
  Yb  Yb11  1  0.161597  0.334801  0.377511  1
  Yb  Yb12  1  0.339245  0.833219  0.622399  1
  Yb  Yb13  1  0.839245  0.666781  0.877601  1
  Yb  Yb14  1  0.182287  0.491471  0.750480  1
  Yb  Yb15  1  0.682287  0.008529  0.749520  1
  Yb  Yb16  1  0.824105  0.501038  0.249309  1
  Yb  Yb17  1  0.324105  0.998962  0.250691  1
  Pa  Pa18  1  0.338954  0.839731  0.875275  1
  Pa  Pa19  1  0.838954  0.660269  0.624725  1
  Pt  Pt20  1  0.320035  0.030387  0.033074  1
  Pt  Pt21  1  0.820035  0.469613  0.466926  1
  Pt  Pt22  1  0.678976  0.935366  0.545558  1
  Pt  Pt23  1  0.178976  0.564634  0.954442  1
  Pt  Pt24  1  0.652691  0.955537  0.950867  1
  Pt  Pt25  1  0.152691  0.544463  0.549133  1
  Pt  Pt26  1  0.344275  0.039007  0.458243  1
  Pt  Pt27  1  0.844275  0.460993  0.041757  1
  Pt  Pt28  1  0.538967  0.641758  0.756143  1
  Pt  Pt29  1  0.038967  0.858242  0.743857  1
  Pt  Pt30  1  0.454652  0.367027  0.248816  1
  Pt  Pt31  1  0.954652  0.132973  0.251184  1
  Pt  Pt32  1  0.304605  0.111705  0.759354  1
  Pt  Pt33  1  0.804605  0.388295  0.740646  1
  Pt  Pt34  1  0.699593  0.875453  0.249562  1
  Pt  Pt35  1  0.199593  0.624547  0.250438  1
