# generated using pymatgen
data_HoTm3Co18(TcP6)2
_symmetry_space_group_name_H-M   'P 1'
_cell_length_a   3.66682500
_cell_length_b   10.28953105
_cell_length_c   11.73872806
_cell_angle_alpha   89.98871134
_cell_angle_beta   90.00000000
_cell_angle_gamma   90.00000000
_symmetry_Int_Tables_number   1
_chemical_formula_structural   HoTm3Co18(TcP6)2
_chemical_formula_sum   'Ho1 Tm3 Co18 Tc2 P12'
_cell_volume   442.90114089
_cell_formula_units_Z   1
loop_
 _symmetry_equiv_pos_site_id
 _symmetry_equiv_pos_as_xyz
  1  'x, y, z'
loop_
 _atom_site_type_symbol
 _atom_site_label
 _atom_site_symmetry_multiplicity
 _atom_site_fract_x
 _atom_site_fract_y
 _atom_site_fract_z
 _atom_site_occupancy
  Ho  Ho0  1  0.250000  0.917515  0.202926  1
  Tm  Tm1  1  0.250000  0.582467  0.702794  1
  Tm  Tm2  1  0.750000  0.415395  0.295612  1
  Tm  Tm3  1  0.750000  0.084586  0.795624  1
  Co  Co4  1  0.750000  0.284470  0.009538  1
  Co  Co5  1  0.750000  0.215663  0.509600  1
  Co  Co6  1  0.250000  0.406085  0.487577  1
  Co  Co7  1  0.250000  0.094068  0.987463  1
  Co  Co8  1  0.750000  0.591648  0.511529  1
  Co  Co9  1  0.750000  0.908364  0.010896  1
  Co  Co10  1  0.250000  0.221202  0.176879  1
  Co  Co11  1  0.250000  0.278954  0.676893  1
  Co  Co12  1  0.750000  0.778471  0.822480  1
  Co  Co13  1  0.750000  0.721113  0.322710  1
  Co  Co14  1  0.250000  0.886316  0.701810  1
  Co  Co15  1  0.250000  0.613465  0.201775  1
  Co  Co16  1  0.750000  0.116828  0.300857  1
  Co  Co17  1  0.750000  0.383699  0.800600  1
  Co  Co18  1  0.250000  0.464183  0.932202  1
  Co  Co19  1  0.250000  0.035964  0.432531  1
  Co  Co20  1  0.750000  0.532524  0.068831  1
  Co  Co21  1  0.750000  0.967276  0.569034  1
  Tc  Tc22  1  0.250000  0.710632  0.989229  1
  Tc  Tc23  1  0.250000  0.789163  0.489430  1
  P  P24  1  0.250000  0.417354  0.113253  1
  P  P25  1  0.250000  0.082671  0.613325  1
  P  P26  1  0.750000  0.578643  0.885931  1
  P  P27  1  0.750000  0.921317  0.386458  1
  P  P28  1  0.250000  0.268578  0.868361  1
  P  P29  1  0.250000  0.231455  0.368318  1
  P  P30  1  0.750000  0.729700  0.133241  1
  P  P31  1  0.750000  0.769654  0.633429  1
  P  P32  1  0.250000  0.594960  0.390600  1
  P  P33  1  0.250000  0.905112  0.890649  1
  P  P34  1  0.750000  0.398252  0.608915  1
  P  P35  1  0.750000  0.102255  0.108701  1
