# generated using pymatgen
data_Tb4DyYH18
_symmetry_space_group_name_H-M   'P 1'
_cell_length_a   6.35862300
_cell_length_b   6.35903450
_cell_length_c   6.61897300
_cell_angle_alpha   90.00328454
_cell_angle_beta   90.00181502
_cell_angle_gamma   120.00387266
_symmetry_Int_Tables_number   1
_chemical_formula_structural   Tb4DyYH18
_chemical_formula_sum   'Tb4 Dy1 Y1 H18'
_cell_volume   231.77070857
_cell_formula_units_Z   1
loop_
 _symmetry_equiv_pos_site_id
 _symmetry_equiv_pos_as_xyz
  1  'x, y, z'
loop_
 _atom_site_type_symbol
 _atom_site_label
 _atom_site_symmetry_multiplicity
 _atom_site_fract_x
 _atom_site_fract_y
 _atom_site_fract_z
 _atom_site_occupancy
  Tb  Tb0  1  0.669849  0.669886  0.750087  1
  Tb  Tb1  1  0.330184  0.999992  0.750110  1
  Tb  Tb2  1  0.999956  0.330092  0.750112  1
  Tb  Tb3  1  0.330071  0.330084  0.250110  1
  Dy  Dy4  1  0.669970  0.000012  0.250052  1
  Y  Y5  1  0.999999  0.669938  0.250017  1
  H  H6  1  0.304921  0.304910  0.591975  1
  H  H7  1  0.695022  0.999989  0.591652  1
  H  H8  1  0.999999  0.694997  0.592012  1
  H  H9  1  0.694854  0.695335  0.092108  1
  H  H10  1  0.305179  0.000274  0.091996  1
  H  H11  1  0.999793  0.304251  0.091959  1
  H  H12  1  0.356033  0.356039  0.907686  1
  H  H13  1  0.644006  0.000005  0.908005  1
  H  H14  1  0.000000  0.644015  0.907638  1
  H  H15  1  0.643641  0.644067  0.407720  1
  H  H16  1  0.356615  0.000318  0.407610  1
  H  H17  1  0.999892  0.355736  0.407553  1
  H  H18  1  0.000004  0.000012  0.819396  1
  H  H19  1  0.999565  0.999927  0.319367  1
  H  H20  1  0.333337  0.666665  0.704676  1
  H  H21  1  0.666657  0.333332  0.704676  1
  H  H22  1  0.666820  0.333008  0.204749  1
  H  H23  1  0.333634  0.667118  0.204749  1
