# generated using pymatgen
data_Dy3Al4Co(Ni4B)2
_symmetry_space_group_name_H-M   'P 1'
_cell_length_a   5.17124700
_cell_length_b   5.18600638
_cell_length_c   10.64298400
_cell_angle_alpha   90.00000000
_cell_angle_beta   90.00000000
_cell_angle_gamma   119.90591871
_symmetry_Int_Tables_number   1
_chemical_formula_structural   Dy3Al4Co(Ni4B)2
_chemical_formula_sum   'Dy3 Al4 Co1 Ni8 B2'
_cell_volume   247.41915081
_cell_formula_units_Z   1
loop_
 _symmetry_equiv_pos_site_id
 _symmetry_equiv_pos_as_xyz
  1  'x, y, z'
loop_
 _atom_site_type_symbol
 _atom_site_label
 _atom_site_symmetry_multiplicity
 _atom_site_fract_x
 _atom_site_fract_y
 _atom_site_fract_z
 _atom_site_occupancy
  Dy  Dy0  1  0.000000  0.000000  0.677561  1
  Dy  Dy1  1  0.000000  0.000000  0.348087  1
  Dy  Dy2  1  0.000000  0.000000  0.003164  1
  Al  Al3  1  0.665089  0.330175  0.681935  1
  Al  Al4  1  0.334911  0.669825  0.681935  1
  Al  Al5  1  0.332562  0.665127  0.313186  1
  Al  Al6  1  0.667438  0.334873  0.313186  1
  Co  Co7  1  0.500000  0.000000  0.870154  1
  Ni  Ni8  1  0.500000  0.500000  0.869420  1
  Ni  Ni9  1  0.000000  0.500000  0.869420  1
  Ni  Ni10  1  0.500000  0.500000  0.126812  1
  Ni  Ni11  1  0.500000  0.000000  0.128542  1
  Ni  Ni12  1  0.000000  0.500000  0.126812  1
  Ni  Ni13  1  0.500000  0.500000  0.499183  1
  Ni  Ni14  1  0.500000  0.000000  0.497673  1
  Ni  Ni15  1  0.000000  0.500000  0.499183  1
  B  B16  1  0.663058  0.326115  0.996873  1
  B  B17  1  0.336942  0.673885  0.996873  1
