# generated using pymatgen
data_Li8Dy5Tm3Sn5Sb3
_symmetry_space_group_name_H-M   'P 1'
_cell_length_a   9.37248000
_cell_length_b   9.37248019
_cell_length_c   7.15592300
_cell_angle_alpha   90.00000000
_cell_angle_beta   90.00000000
_cell_angle_gamma   119.99999932
_symmetry_Int_Tables_number   1
_chemical_formula_structural   Li8Dy5Tm3Sn5Sb3
_chemical_formula_sum   'Li8 Dy5 Tm3 Sn5 Sb3'
_cell_volume   544.38399344
_cell_formula_units_Z   1
loop_
 _symmetry_equiv_pos_site_id
 _symmetry_equiv_pos_as_xyz
  1  'x, y, z'
loop_
 _atom_site_type_symbol
 _atom_site_label
 _atom_site_symmetry_multiplicity
 _atom_site_fract_x
 _atom_site_fract_y
 _atom_site_fract_z
 _atom_site_occupancy
  Li  Li0  1  0.166785  0.333569  0.284145  1
  Li  Li1  1  0.166785  0.833215  0.284145  1
  Li  Li2  1  0.666431  0.833215  0.284145  1
  Li  Li3  1  0.833036  0.666070  0.783902  1
  Li  Li4  1  0.833036  0.166964  0.783902  1
  Li  Li5  1  0.333930  0.166964  0.783902  1
  Li  Li6  1  0.333333  0.666667  0.678051  1
  Li  Li7  1  0.666667  0.333333  0.183911  1
  Dy  Dy8  1  0.490145  0.980292  0.996103  1
  Dy  Dy9  1  0.490145  0.509855  0.996103  1
  Dy  Dy10  1  0.019708  0.509855  0.996103  1
  Dy  Dy11  1  0.000000  0.000000  0.497938  1
  Dy  Dy12  1  0.000000  0.000000  0.003306  1
  Tm  Tm13  1  0.511986  0.023970  0.490402  1
  Tm  Tm14  1  0.511986  0.488014  0.490402  1
  Tm  Tm15  1  0.976030  0.488014  0.490402  1
  Sn  Sn16  1  0.832977  0.665954  0.235096  1
  Sn  Sn17  1  0.832977  0.167023  0.235096  1
  Sn  Sn18  1  0.334046  0.167023  0.235096  1
  Sn  Sn19  1  0.333333  0.666667  0.260900  1
  Sn  Sn20  1  0.666667  0.333333  0.755021  1
  Sb  Sb21  1  0.167192  0.334385  0.731308  1
  Sb  Sb22  1  0.167192  0.832808  0.731308  1
  Sb  Sb23  1  0.665615  0.832808  0.731308  1
