# generated using pymatgen
data_PrReF7
_symmetry_space_group_name_H-M   'P 1'
_cell_length_a   5.79812000
_cell_length_b   9.30304333
_cell_length_c   12.47403934
_cell_angle_alpha   61.99555802
_cell_angle_beta   90.00000000
_cell_angle_gamma   90.00000000
_symmetry_Int_Tables_number   1
_chemical_formula_structural   PrReF7
_chemical_formula_sum   'Pr4 Re4 F28'
_cell_volume   594.06829522
_cell_formula_units_Z   4
loop_
 _symmetry_equiv_pos_site_id
 _symmetry_equiv_pos_as_xyz
  1  'x, y, z'
loop_
 _atom_site_type_symbol
 _atom_site_label
 _atom_site_symmetry_multiplicity
 _atom_site_fract_x
 _atom_site_fract_y
 _atom_site_fract_z
 _atom_site_occupancy
  Pr  Pr0  1  0.758248  0.811454  0.764665  1
  Pr  Pr1  1  0.258248  0.188546  0.735335  1
  Pr  Pr2  1  0.241752  0.188546  0.235335  1
  Pr  Pr3  1  0.741752  0.811454  0.264665  1
  Re  Re4  1  0.755895  0.274095  0.957250  1
  Re  Re5  1  0.255895  0.725905  0.542750  1
  Re  Re6  1  0.244105  0.725905  0.042750  1
  Re  Re7  1  0.744105  0.274095  0.457250  1
  F  F8  1  0.446109  0.709099  0.920888  1
  F  F9  1  0.946109  0.290901  0.579112  1
  F  F10  1  0.553891  0.290901  0.079112  1
  F  F11  1  0.053891  0.709099  0.420888  1
  F  F12  1  0.463143  0.284974  0.544545  1
  F  F13  1  0.963143  0.715026  0.955455  1
  F  F14  1  0.536857  0.715026  0.455455  1
  F  F15  1  0.036857  0.284974  0.044545  1
  F  F16  1  0.763398  0.514572  0.860567  1
  F  F17  1  0.263398  0.485428  0.639433  1
  F  F18  1  0.236602  0.485428  0.139433  1
  F  F19  1  0.736602  0.514572  0.360567  1
  F  F20  1  0.761104  0.033568  0.052201  1
  F  F21  1  0.261104  0.966432  0.447799  1
  F  F22  1  0.238896  0.966432  0.947799  1
  F  F23  1  0.738896  0.033568  0.552201  1
  F  F24  1  0.982150  0.731702  0.636030  1
  F  F25  1  0.482150  0.268298  0.863970  1
  F  F26  1  0.017850  0.268298  0.363970  1
  F  F27  1  0.517850  0.731702  0.136030  1
  F  F28  1  0.046284  0.742360  0.166606  1
  F  F29  1  0.546284  0.257640  0.333394  1
  F  F30  1  0.953716  0.257640  0.833394  1
  F  F31  1  0.453716  0.742360  0.666606  1
  F  F32  1  0.412682  0.968493  0.231171  1
  F  F33  1  0.912682  0.031507  0.268829  1
  F  F34  1  0.587318  0.031507  0.768829  1
  F  F35  1  0.087318  0.968493  0.731171  1
