# generated using pymatgen
data_Nd6Al24Ni3Ru5
_symmetry_space_group_name_H-M   'P 1'
_cell_length_a   8.86214548
_cell_length_b   8.82777024
_cell_length_c   9.61226277
_cell_angle_alpha   90.13947298
_cell_angle_beta   89.96779990
_cell_angle_gamma   119.33462741
_symmetry_Int_Tables_number   1
_chemical_formula_structural   Nd6Al24Ni3Ru5
_chemical_formula_sum   'Nd6 Al24 Ni3 Ru5'
_cell_volume   655.56795828
_cell_formula_units_Z   1
loop_
 _symmetry_equiv_pos_site_id
 _symmetry_equiv_pos_as_xyz
  1  'x, y, z'
loop_
 _atom_site_type_symbol
 _atom_site_label
 _atom_site_symmetry_multiplicity
 _atom_site_fract_x
 _atom_site_fract_y
 _atom_site_fract_z
 _atom_site_occupancy
  Nd  Nd0  1  0.188782  0.383649  0.250062  1
  Nd  Nd1  1  0.811218  0.616351  0.749938  1
  Nd  Nd2  1  0.617788  0.809728  0.248361  1
  Nd  Nd3  1  0.382212  0.190272  0.751639  1
  Nd  Nd4  1  0.189994  0.807541  0.249800  1
  Nd  Nd5  1  0.810006  0.192459  0.750200  1
  Al  Al6  1  0.334151  0.667501  0.018065  1
  Al  Al7  1  0.665849  0.332499  0.981935  1
  Al  Al8  1  0.665908  0.333357  0.518526  1
  Al  Al9  1  0.334092  0.666643  0.481474  1
  Al  Al10  1  0.163915  0.327825  0.574031  1
  Al  Al11  1  0.836085  0.672175  0.425969  1
  Al  Al12  1  0.672692  0.837004  0.572943  1
  Al  Al13  1  0.836732  0.672340  0.074664  1
  Al  Al14  1  0.327308  0.162996  0.427057  1
  Al  Al15  1  0.163268  0.327660  0.925336  1
  Al  Al16  1  0.165455  0.836516  0.576375  1
  Al  Al17  1  0.327217  0.165128  0.074484  1
  Al  Al18  1  0.834545  0.163484  0.423625  1
  Al  Al19  1  0.672783  0.834872  0.925516  1
  Al  Al20  1  0.837269  0.165613  0.076871  1
  Al  Al21  1  0.162731  0.834387  0.923129  1
  Al  Al22  1  0.561144  0.124111  0.248376  1
  Al  Al23  1  0.438856  0.875889  0.751624  1
  Al  Al24  1  0.873138  0.437761  0.249519  1
  Al  Al25  1  0.126862  0.562239  0.750481  1
  Al  Al26  1  0.560512  0.438765  0.249328  1
  Al  Al27  1  0.439488  0.561235  0.750672  1
  Al  Al28  1  0.995430  0.001365  0.250111  1
  Al  Al29  1  0.004570  0.998635  0.749889  1
  Ni  Ni30  1  0.500000  0.000000  0.000000  1
  Ni  Ni31  1  0.500000  0.500000  0.000000  1
  Ni  Ni32  1  0.500000  0.500000  0.500000  1
  Ru  Ru33  1  0.000000  0.500000  0.000000  1
  Ru  Ru34  1  0.500000  0.000000  0.500000  1
  Ru  Ru35  1  0.000000  0.500000  0.500000  1
  Ru  Ru36  1  0.000000  0.000000  0.000000  1
  Ru  Ru37  1  0.000000  0.000000  0.500000  1
