# generated using pymatgen
data_Zr3Ga2Sn
_symmetry_space_group_name_H-M   'P 1'
_cell_length_a   5.78988800
_cell_length_b   8.86381800
_cell_length_c   9.48193300
_cell_angle_alpha   90.00000000
_cell_angle_beta   90.00000000
_cell_angle_gamma   90.00000000
_symmetry_Int_Tables_number   1
_chemical_formula_structural   Zr3Ga2Sn
_chemical_formula_sum   'Zr12 Ga8 Sn4'
_cell_volume   486.61767027
_cell_formula_units_Z   4
loop_
 _symmetry_equiv_pos_site_id
 _symmetry_equiv_pos_as_xyz
  1  'x, y, z'
loop_
 _atom_site_type_symbol
 _atom_site_label
 _atom_site_symmetry_multiplicity
 _atom_site_fract_x
 _atom_site_fract_y
 _atom_site_fract_z
 _atom_site_occupancy
  Zr  Zr0  1  0.000000  0.750000  0.122357  1
  Zr  Zr1  1  0.500000  0.250000  0.877643  1
  Zr  Zr2  1  0.000000  0.250000  0.877643  1
  Zr  Zr3  1  0.500000  0.750000  0.122357  1
  Zr  Zr4  1  0.750000  0.470453  0.609370  1
  Zr  Zr5  1  0.250000  0.529547  0.390630  1
  Zr  Zr6  1  0.750000  0.970453  0.390630  1
  Zr  Zr7  1  0.250000  0.029547  0.609370  1
  Zr  Zr8  1  0.750000  0.374154  0.199795  1
  Zr  Zr9  1  0.250000  0.625846  0.800205  1
  Zr  Zr10  1  0.750000  0.874154  0.800205  1
  Zr  Zr11  1  0.250000  0.125846  0.199795  1
  Ga  Ga12  1  0.000000  0.750000  0.569749  1
  Ga  Ga13  1  0.500000  0.250000  0.430251  1
  Ga  Ga14  1  0.000000  0.250000  0.430251  1
  Ga  Ga15  1  0.500000  0.750000  0.569749  1
  Ga  Ga16  1  0.750000  0.136740  0.645209  1
  Ga  Ga17  1  0.250000  0.863260  0.354791  1
  Ga  Ga18  1  0.750000  0.636740  0.354791  1
  Ga  Ga19  1  0.250000  0.363260  0.645209  1
  Sn  Sn20  1  0.750000  0.051750  0.085710  1
  Sn  Sn21  1  0.250000  0.948250  0.914290  1
  Sn  Sn22  1  0.750000  0.551750  0.914290  1
  Sn  Sn23  1  0.250000  0.448250  0.085710  1
