# generated using pymatgen
data_Ho12TmLu7Bi12
_symmetry_space_group_name_H-M   'P 1'
_cell_length_a   8.19933620
_cell_length_b   9.46931603
_cell_length_c   12.01903800
_cell_angle_alpha   90.00416287
_cell_angle_beta   90.01266898
_cell_angle_gamma   89.99777243
_symmetry_Int_Tables_number   1
_chemical_formula_structural   Ho12TmLu7Bi12
_chemical_formula_sum   'Ho12 Tm1 Lu7 Bi12'
_cell_volume   933.18339326
_cell_formula_units_Z   1
loop_
 _symmetry_equiv_pos_site_id
 _symmetry_equiv_pos_as_xyz
  1  'x, y, z'
loop_
 _atom_site_type_symbol
 _atom_site_label
 _atom_site_symmetry_multiplicity
 _atom_site_fract_x
 _atom_site_fract_y
 _atom_site_fract_z
 _atom_site_occupancy
  Ho  Ho0  1  0.186070  0.750071  0.718525  1
  Ho  Ho1  1  0.686137  0.750355  0.781692  1
  Ho  Ho2  1  0.813997  0.249767  0.281587  1
  Ho  Ho3  1  0.313882  0.250300  0.218412  1
  Ho  Ho4  1  0.693285  0.562352  0.059652  1
  Ho  Ho5  1  0.193287  0.937496  0.440183  1
  Ho  Ho6  1  0.306693  0.062334  0.940297  1
  Ho  Ho7  1  0.806931  0.437550  0.559658  1
  Ho  Ho8  1  0.354709  0.750738  0.216314  1
  Ho  Ho9  1  0.854087  0.749924  0.283440  1
  Ho  Ho10  1  0.645634  0.250531  0.783506  1
  Ho  Ho11  1  0.145811  0.249883  0.716476  1
  Tm  Tm12  1  0.192176  0.567233  0.440803  1
  Lu  Lu13  1  0.024073  0.750077  0.989190  1
  Lu  Lu14  1  0.524496  0.750243  0.510871  1
  Lu  Lu15  1  0.976034  0.250118  0.010827  1
  Lu  Lu16  1  0.476010  0.250043  0.489160  1
  Lu  Lu17  1  0.307600  0.431399  0.940804  1
  Lu  Lu18  1  0.807317  0.068354  0.559289  1
  Lu  Lu19  1  0.692428  0.931485  0.059142  1
  Bi  Bi20  1  0.434396  0.003697  0.672012  1
  Bi  Bi21  1  0.934207  0.496501  0.828115  1
  Bi  Bi22  1  0.565757  0.503656  0.327949  1
  Bi  Bi23  1  0.065633  0.996537  0.171919  1
  Bi  Bi24  1  0.566956  0.996344  0.328386  1
  Bi  Bi25  1  0.066892  0.503980  0.171589  1
  Bi  Bi26  1  0.432860  0.496372  0.671562  1
  Bi  Bi27  1  0.933012  0.003977  0.828463  1
  Bi  Bi28  1  0.405049  0.745678  0.957391  1
  Bi  Bi29  1  0.905145  0.754436  0.542560  1
  Bi  Bi30  1  0.594963  0.245723  0.042535  1
  Bi  Bi31  1  0.094472  0.252848  0.457689  1
