# generated using pymatgen
data_Ho18Er2Sn7Pb9
_symmetry_space_group_name_H-M   'P 1'
_cell_length_a   8.13219224
_cell_length_b   8.18540716
_cell_length_c   15.53359000
_cell_angle_alpha   90.00000000
_cell_angle_beta   90.00000000
_cell_angle_gamma   90.02525391
_symmetry_Int_Tables_number   1
_chemical_formula_structural   Ho18Er2Sn7Pb9
_chemical_formula_sum   'Ho18 Er2 Sn7 Pb9'
_cell_volume   1033.99804919
_cell_formula_units_Z   1
loop_
 _symmetry_equiv_pos_site_id
 _symmetry_equiv_pos_as_xyz
  1  'x, y, z'
loop_
 _atom_site_type_symbol
 _atom_site_label
 _atom_site_symmetry_multiplicity
 _atom_site_fract_x
 _atom_site_fract_y
 _atom_site_fract_z
 _atom_site_occupancy
  Ho  Ho0  1  0.380136  0.838508  0.876712  1
  Ho  Ho1  1  0.880430  0.661063  0.623404  1
  Ho  Ho2  1  0.619808  0.161130  0.377239  1
  Ho  Ho3  1  0.119644  0.337412  0.122927  1
  Ho  Ho4  1  0.619808  0.161130  0.122761  1
  Ho  Ho5  1  0.119644  0.337412  0.377073  1
  Ho  Ho6  1  0.380136  0.838508  0.623288  1
  Ho  Ho7  1  0.880430  0.661063  0.876596  1
  Ho  Ho8  1  0.537814  0.324866  0.895839  1
  Ho  Ho9  1  0.038292  0.174610  0.604381  1
  Ho  Ho10  1  0.464761  0.675193  0.397142  1
  Ho  Ho11  1  0.959970  0.827079  0.101585  1
  Ho  Ho12  1  0.464761  0.675193  0.102858  1
  Ho  Ho13  1  0.959970  0.827079  0.398415  1
  Ho  Ho14  1  0.537814  0.324866  0.604161  1
  Ho  Ho15  1  0.038292  0.174610  0.895619  1
  Ho  Ho16  1  0.787284  0.494887  0.250000  1
  Ho  Ho17  1  0.291171  0.006491  0.250000  1
  Er  Er18  1  0.210963  0.503467  0.750000  1
  Er  Er19  1  0.710916  0.996424  0.750000  1
  Sn  Sn20  1  0.575966  0.622702  0.750000  1
  Sn  Sn21  1  0.076104  0.876840  0.750000  1
  Sn  Sn22  1  0.424313  0.376594  0.250000  1
  Sn  Sn23  1  0.923644  0.121687  0.250000  1
  Sn  Sn24  1  0.345721  0.149091  0.750000  1
  Sn  Sn25  1  0.845683  0.350874  0.750000  1
  Sn  Sn26  1  0.655333  0.850733  0.250000  1
  Pb  Pb27  1  0.280576  0.031595  0.041030  1
  Pb  Pb28  1  0.781491  0.467334  0.459016  1
  Pb  Pb29  1  0.718515  0.968426  0.542176  1
  Pb  Pb30  1  0.219220  0.531674  0.958649  1
  Pb  Pb31  1  0.718515  0.968426  0.957824  1
  Pb  Pb32  1  0.219220  0.531674  0.541351  1
  Pb  Pb33  1  0.280576  0.031595  0.458970  1
  Pb  Pb34  1  0.781491  0.467334  0.040984  1
  Pb  Pb35  1  0.151585  0.652429  0.250000  1
