# generated using pymatgen
data_NdCdSn5Ir4
_symmetry_space_group_name_H-M   'P 1'
_cell_length_a   6.90170136
_cell_length_b   7.20007130
_cell_length_c   7.03420800
_cell_angle_alpha   121.09393348
_cell_angle_beta   119.69846354
_cell_angle_gamma   89.45657833
_symmetry_Int_Tables_number   1
_chemical_formula_structural   NdCdSn5Ir4
_chemical_formula_sum   'Nd1 Cd1 Sn5 Ir4'
_cell_volume   245.33122224
_cell_formula_units_Z   1
loop_
 _symmetry_equiv_pos_site_id
 _symmetry_equiv_pos_as_xyz
  1  'x, y, z'
loop_
 _atom_site_type_symbol
 _atom_site_label
 _atom_site_symmetry_multiplicity
 _atom_site_fract_x
 _atom_site_fract_y
 _atom_site_fract_z
 _atom_site_occupancy
  Nd  Nd0  1  0.006948  0.000202  0.000000  1
  Cd  Cd1  1  0.468121  0.116470  0.000000  1
  Sn  Sn2  1  0.130176  0.456540  0.000000  1
  Sn  Sn3  1  0.873962  0.876449  0.338333  1
  Sn  Sn4  1  0.501472  0.004291  0.506986  1
  Sn  Sn5  1  0.994485  0.497305  0.493014  1
  Sn  Sn6  1  0.535629  0.538116  0.661668  1
  Ir  Ir7  1  0.754094  0.408548  0.000000  1
  Ir  Ir8  1  0.392133  0.742180  0.000000  1
  Ir  Ir9  1  0.609135  0.617593  0.375287  1
  Ir  Ir10  1  0.233847  0.242306  0.624714  1
