# generated using pymatgen
data_Ho3TmCo4(P3Rh4)4
_symmetry_space_group_name_H-M   'P 1'
_cell_length_a   3.83762700
_cell_length_b   10.76563420
_cell_length_c   12.40199525
_cell_angle_alpha   89.94720618
_cell_angle_beta   90.00000000
_cell_angle_gamma   90.00000000
_symmetry_Int_Tables_number   1
_chemical_formula_structural   Ho3TmCo4(P3Rh4)4
_chemical_formula_sum   'Ho3 Tm1 Co4 P12 Rh16'
_cell_volume   512.38187242
_cell_formula_units_Z   1
loop_
 _symmetry_equiv_pos_site_id
 _symmetry_equiv_pos_as_xyz
  1  'x, y, z'
loop_
 _atom_site_type_symbol
 _atom_site_label
 _atom_site_symmetry_multiplicity
 _atom_site_fract_x
 _atom_site_fract_y
 _atom_site_fract_z
 _atom_site_occupancy
  Ho  Ho0  1  0.250000  0.914795  0.207957  1
  Ho  Ho1  1  0.750000  0.415056  0.291914  1
  Ho  Ho2  1  0.750000  0.085185  0.792059  1
  Tm  Tm3  1  0.250000  0.585113  0.708065  1
  Co  Co4  1  0.250000  0.464645  0.933304  1
  Co  Co5  1  0.250000  0.035683  0.433905  1
  Co  Co6  1  0.750000  0.535728  0.065829  1
  Co  Co7  1  0.750000  0.963984  0.566396  1
  P  P8  1  0.250000  0.424001  0.105871  1
  P  P9  1  0.250000  0.075783  0.606452  1
  P  P10  1  0.750000  0.576135  0.893395  1
  P  P11  1  0.750000  0.924073  0.393861  1
  P  P12  1  0.250000  0.272022  0.872781  1
  P  P13  1  0.250000  0.228244  0.372746  1
  P  P14  1  0.750000  0.728200  0.127219  1
  P  P15  1  0.750000  0.771294  0.627598  1
  P  P16  1  0.250000  0.598961  0.387875  1
  P  P17  1  0.250000  0.900844  0.888095  1
  P  P18  1  0.750000  0.401304  0.612305  1
  P  P19  1  0.750000  0.099313  0.112017  1
  Rh  Rh20  1  0.250000  0.715865  0.987090  1
  Rh  Rh21  1  0.250000  0.783894  0.487398  1
  Rh  Rh22  1  0.750000  0.284028  0.012396  1
  Rh  Rh23  1  0.750000  0.215833  0.512984  1
  Rh  Rh24  1  0.250000  0.408132  0.479787  1
  Rh  Rh25  1  0.250000  0.091979  0.979768  1
  Rh  Rh26  1  0.750000  0.591825  0.521339  1
  Rh  Rh27  1  0.750000  0.908102  0.020116  1
  Rh  Rh28  1  0.250000  0.228023  0.178288  1
  Rh  Rh29  1  0.250000  0.272087  0.678543  1
  Rh  Rh30  1  0.750000  0.771331  0.821186  1
  Rh  Rh31  1  0.750000  0.727694  0.321788  1
  Rh  Rh32  1  0.250000  0.886685  0.699084  1
  Rh  Rh33  1  0.250000  0.613006  0.198732  1
  Rh  Rh34  1  0.750000  0.113155  0.301158  1
  Rh  Rh35  1  0.750000  0.387999  0.800699  1
