# generated using pymatgen
data_La6RhAuI6
_symmetry_space_group_name_H-M   'P 1'
_cell_length_a   10.99870392
_cell_length_b   10.99801000
_cell_length_c   11.20132470
_cell_angle_alpha   109.41375561
_cell_angle_beta   109.41760185
_cell_angle_gamma   108.86306605
_symmetry_Int_Tables_number   1
_chemical_formula_structural   La6RhAuI6
_chemical_formula_sum   'La12 Rh2 Au2 I12'
_cell_volume   1052.17726935
_cell_formula_units_Z   2
loop_
 _symmetry_equiv_pos_site_id
 _symmetry_equiv_pos_as_xyz
  1  'x, y, z'
loop_
 _atom_site_type_symbol
 _atom_site_label
 _atom_site_symmetry_multiplicity
 _atom_site_fract_x
 _atom_site_fract_y
 _atom_site_fract_z
 _atom_site_occupancy
  La  La0  1  0.460125  0.470278  0.236928  1
  La  La1  1  0.733455  0.223347  0.263072  1
  La  La2  1  0.739299  0.011673  0.474177  1
  La  La3  1  0.234902  0.462344  0.474044  1
  La  La4  1  0.276650  0.766541  0.236931  1
  La  La5  1  0.037655  0.265085  0.025961  1
  La  La6  1  0.029732  0.039897  0.263078  1
  La  La7  1  0.488333  0.760697  0.025811  1
  La  La8  1  0.481263  0.231414  0.462667  1
  La  La9  1  0.016231  0.483773  0.750008  1
  La  La10  1  0.268594  0.018713  0.037324  1
  La  La11  1  0.233780  0.266223  0.750000  1
  Rh  Rh12  1  0.251747  0.248262  0.249995  1
  Rh  Rh13  1  0.498211  0.001790  0.250002  1
  Au  Au14  1  0.998469  0.248452  0.496919  1
  Au  Au15  1  0.251551  0.501534  0.003069  1
  I  I16  1  0.251566  0.756067  0.742313  1
  I  I17  1  0.513730  0.509236  0.757698  1
  I  I18  1  0.979723  0.738202  0.989357  1
  I  I19  1  0.743930  0.248429  0.757686  1
  I  I20  1  0.990769  0.986270  0.742308  1
  I  I21  1  0.248864  0.990376  0.510608  1
  I  I22  1  0.761784  0.520271  0.510639  1
  I  I23  1  0.509613  0.251131  0.989389  1
  I  I24  1  0.757713  0.742261  0.249995  1
  I  I25  1  0.741229  0.991231  0.982509  1
  I  I26  1  0.992295  0.507709  0.249998  1
  I  I27  1  0.508787  0.758794  0.517513  1
