# generated using pymatgen
data_Er6Al15Ga4Si5Os8
_symmetry_space_group_name_H-M   'P 1'
_cell_length_a   8.65933300
_cell_length_b   8.64216657
_cell_length_c   9.63115700
_cell_angle_alpha   90.00000000
_cell_angle_beta   90.00000000
_cell_angle_gamma   120.06572610
_symmetry_Int_Tables_number   1
_chemical_formula_structural   Er6Al15Ga4Si5Os8
_chemical_formula_sum   'Er6 Al15 Ga4 Si5 Os8'
_cell_volume   623.77527135
_cell_formula_units_Z   1
loop_
 _symmetry_equiv_pos_site_id
 _symmetry_equiv_pos_as_xyz
  1  'x, y, z'
loop_
 _atom_site_type_symbol
 _atom_site_label
 _atom_site_symmetry_multiplicity
 _atom_site_fract_x
 _atom_site_fract_y
 _atom_site_fract_z
 _atom_site_occupancy
  Er  Er0  1  0.194706  0.389414  0.250000  1
  Er  Er1  1  0.805982  0.611963  0.750000  1
  Er  Er2  1  0.608612  0.806431  0.250000  1
  Er  Er3  1  0.388934  0.194907  0.750000  1
  Er  Er4  1  0.197818  0.806431  0.250000  1
  Er  Er5  1  0.805974  0.194907  0.750000  1
  Al  Al6  1  0.165925  0.331849  0.576062  1
  Al  Al7  1  0.834439  0.668876  0.420699  1
  Al  Al8  1  0.667235  0.834178  0.574707  1
  Al  Al9  1  0.834439  0.668876  0.079301  1
  Al  Al10  1  0.329398  0.165610  0.421032  1
  Al  Al11  1  0.165925  0.331849  0.923938  1
  Al  Al12  1  0.166944  0.834178  0.574707  1
  Al  Al13  1  0.329398  0.165610  0.078968  1
  Al  Al14  1  0.836212  0.165610  0.421032  1
  Al  Al15  1  0.667235  0.834178  0.925293  1
  Al  Al16  1  0.836212  0.165610  0.078968  1
  Al  Al17  1  0.166944  0.834178  0.925293  1
  Al  Al18  1  0.872725  0.433575  0.250000  1
  Al  Al19  1  0.560849  0.433575  0.250000  1
  Al  Al20  1  0.999756  0.999512  0.250000  1
  Ga  Ga21  1  0.437906  0.875811  0.750000  1
  Ga  Ga22  1  0.126804  0.564233  0.750000  1
  Ga  Ga23  1  0.437428  0.564233  0.750000  1
  Ga  Ga24  1  0.000418  0.000836  0.750000  1
  Si  Si25  1  0.332540  0.665080  0.044539  1
  Si  Si26  1  0.667234  0.334467  0.959302  1
  Si  Si27  1  0.667234  0.334467  0.540698  1
  Si  Si28  1  0.332540  0.665080  0.455461  1
  Si  Si29  1  0.564076  0.128152  0.250000  1
  Os  Os30  1  0.500447  0.000893  0.008366  1
  Os  Os31  1  0.999292  0.499067  0.002139  1
  Os  Os32  1  0.500447  0.000893  0.491634  1
  Os  Os33  1  0.499775  0.499067  0.002139  1
  Os  Os34  1  0.999292  0.499067  0.497861  1
  Os  Os35  1  0.499775  0.499067  0.497861  1
  Os  Os36  1  0.999567  0.999134  0.001519  1
  Os  Os37  1  0.999567  0.999134  0.498481  1
