# generated using pymatgen
data_Sc8Mn3Co4Si14Ru
_symmetry_space_group_name_H-M   'P 1'
_cell_length_a   5.15351223
_cell_length_b   9.57062087
_cell_length_c   9.56960983
_cell_angle_alpha   85.79378820
_cell_angle_beta   74.37932103
_cell_angle_gamma   74.11372581
_symmetry_Int_Tables_number   1
_chemical_formula_structural   Sc8Mn3Co4Si14Ru
_chemical_formula_sum   'Sc8 Mn3 Co4 Si14 Ru1'
_cell_volume   437.20117131
_cell_formula_units_Z   1
loop_
 _symmetry_equiv_pos_site_id
 _symmetry_equiv_pos_as_xyz
  1  'x, y, z'
loop_
 _atom_site_type_symbol
 _atom_site_label
 _atom_site_symmetry_multiplicity
 _atom_site_fract_x
 _atom_site_fract_y
 _atom_site_fract_z
 _atom_site_occupancy
  Sc  Sc0  1  0.194405  0.803920  0.804968  1
  Sc  Sc1  1  0.795322  0.198070  0.195362  1
  Sc  Sc2  1  0.003370  0.196739  0.803601  1
  Sc  Sc3  1  0.008297  0.802288  0.193574  1
  Sc  Sc4  1  0.359135  0.999774  0.275466  1
  Sc  Sc5  1  0.643199  0.999281  0.722099  1
  Sc  Sc6  1  0.639448  0.724784  0.999079  1
  Sc  Sc7  1  0.360564  0.276580  0.999672  1
  Mn  Mn8  1  0.393512  0.213500  0.498128  1
  Mn  Mn9  1  0.899454  0.197861  0.501369  1
  Mn  Mn10  1  0.107796  0.790158  0.498049  1
  Co  Co11  1  0.599023  0.500521  0.800262  1
  Co  Co12  1  0.104596  0.499062  0.788618  1
  Co  Co13  1  0.603577  0.795742  0.501005  1
  Co  Co14  1  0.903472  0.500322  0.193944  1
  Si  Si15  1  0.425321  0.589619  0.597181  1
  Si  Si16  1  0.632478  0.411888  0.412060  1
  Si  Si17  1  0.970530  0.410362  0.594900  1
  Si  Si18  1  0.959825  0.588052  0.410498  1
  Si  Si19  1  0.249617  0.000426  0.999392  1
  Si  Si20  1  0.751635  0.000888  0.997837  1
  Si  Si21  1  0.179026  0.294631  0.296220  1
  Si  Si22  1  0.789476  0.698371  0.703072  1
  Si  Si23  1  0.526118  0.704774  0.294889  1
  Si  Si24  1  0.508238  0.300317  0.702735  1
  Si  Si25  1  0.222381  0.000451  0.581717  1
  Si  Si26  1  0.780324  0.000452  0.416481  1
  Si  Si27  1  0.787706  0.421888  0.998311  1
  Si  Si28  1  0.212447  0.578971  0.997785  1
  Ru  Ru29  1  0.389710  0.500306  0.221726  1
