# generated using pymatgen
data_RbLaPrSmB24
_symmetry_space_group_name_H-M   'P 1'
_cell_length_a   7.20418301
_cell_length_b   7.20418282
_cell_length_c   5.91640200
_cell_angle_alpha   90.00000000
_cell_angle_beta   90.00000000
_cell_angle_gamma   109.27044445
_symmetry_Int_Tables_number   1
_chemical_formula_structural   RbLaPrSmB24
_chemical_formula_sum   'Rb1 La1 Pr1 Sm1 B24'
_cell_volume   289.85843091
_cell_formula_units_Z   1
loop_
 _symmetry_equiv_pos_site_id
 _symmetry_equiv_pos_as_xyz
  1  'x, y, z'
loop_
 _atom_site_type_symbol
 _atom_site_label
 _atom_site_symmetry_multiplicity
 _atom_site_fract_x
 _atom_site_fract_y
 _atom_site_fract_z
 _atom_site_occupancy
  Rb  Rb0  1  0.750181  0.249819  0.500000  1
  La  La1  1  0.998345  0.001655  0.000000  1
  Pr  Pr2  1  0.500895  0.499105  0.000000  1
  Sm  Sm3  1  0.251527  0.748473  0.500000  1
  B  B4  1  0.176367  0.326656  0.648497  1
  B  B5  1  0.926847  0.576534  0.149391  1
  B  B6  1  0.673344  0.823633  0.648497  1
  B  B7  1  0.423466  0.073153  0.149391  1
  B  B8  1  0.176367  0.326656  0.351503  1
  B  B9  1  0.926847  0.576534  0.850609  1
  B  B10  1  0.673344  0.823633  0.351503  1
  B  B11  1  0.423466  0.073153  0.850609  1
  B  B12  1  0.400800  0.398529  0.500000  1
  B  B13  1  0.150236  0.650918  0.000000  1
  B  B14  1  0.898209  0.900273  0.500000  1
  B  B15  1  0.648230  0.147994  0.000000  1
  B  B16  1  0.324439  0.174241  0.648494  1
  B  B17  1  0.076901  0.427476  0.149416  1
  B  B18  1  0.825759  0.675561  0.648494  1
  B  B19  1  0.572524  0.923099  0.149416  1
  B  B20  1  0.099727  0.101791  0.500000  1
  B  B21  1  0.852006  0.351770  0.000000  1
  B  B22  1  0.601471  0.599200  0.500000  1
  B  B23  1  0.349082  0.849764  0.000000  1
  B  B24  1  0.324439  0.174241  0.351506  1
  B  B25  1  0.076901  0.427476  0.850584  1
  B  B26  1  0.825759  0.675561  0.351506  1
  B  B27  1  0.572524  0.923099  0.850584  1
