# generated using pymatgen
data_Li2Pr7Th(Zn3Rh4)2
_symmetry_space_group_name_H-M   'P 1'
_cell_length_a   4.08262700
_cell_length_b   7.30734363
_cell_length_c   16.58956442
_cell_angle_alpha   89.65921020
_cell_angle_beta   90.00000000
_cell_angle_gamma   90.00000000
_symmetry_Int_Tables_number   1
_chemical_formula_structural   Li2Pr7Th(Zn3Rh4)2
_chemical_formula_sum   'Li2 Pr7 Th1 Zn6 Rh8'
_cell_volume   494.91034907
_cell_formula_units_Z   1
loop_
 _symmetry_equiv_pos_site_id
 _symmetry_equiv_pos_as_xyz
  1  'x, y, z'
loop_
 _atom_site_type_symbol
 _atom_site_label
 _atom_site_symmetry_multiplicity
 _atom_site_fract_x
 _atom_site_fract_y
 _atom_site_fract_z
 _atom_site_occupancy
  Li  Li0  1  0.250000  0.996588  0.440369  1
  Li  Li1  1  0.750000  0.507031  0.939908  1
  Pr  Pr2  1  0.750000  0.951541  0.282321  1
  Pr  Pr3  1  0.750000  0.828743  0.060037  1
  Pr  Pr4  1  0.250000  0.046781  0.717359  1
  Pr  Pr5  1  0.250000  0.165447  0.939806  1
  Pr  Pr6  1  0.250000  0.546899  0.783042  1
  Pr  Pr7  1  0.750000  0.338346  0.441440  1
  Pr  Pr8  1  0.250000  0.669157  0.561146  1
  Th  Th9  1  0.750000  0.449307  0.216194  1
  Zn  Zn10  1  0.750000  0.003270  0.558693  1
  Zn  Zn11  1  0.250000  0.631408  0.352555  1
  Zn  Zn12  1  0.750000  0.376429  0.650169  1
  Zn  Zn13  1  0.750000  0.873239  0.850879  1
  Zn  Zn14  1  0.250000  0.497142  0.056181  1
  Zn  Zn15  1  0.250000  0.118060  0.149781  1
  Rh  Rh16  1  0.250000  0.248647  0.566038  1
  Rh  Rh17  1  0.750000  0.257396  0.070174  1
  Rh  Rh18  1  0.250000  0.259657  0.304490  1
  Rh  Rh19  1  0.750000  0.250372  0.811737  1
  Rh  Rh20  1  0.250000  0.754998  0.935295  1
  Rh  Rh21  1  0.750000  0.753960  0.687528  1
  Rh  Rh22  1  0.750000  0.752753  0.436142  1
  Rh  Rh23  1  0.250000  0.722832  0.188717  1
