# generated using pymatgen
data_Er2Ga9PdRu2
_symmetry_space_group_name_H-M   'P 1'
_cell_length_a   7.53473275
_cell_length_b   7.53473286
_cell_length_c   9.62416900
_cell_angle_alpha   90.00000000
_cell_angle_beta   90.00000000
_cell_angle_gamma   119.64806278
_symmetry_Int_Tables_number   1
_chemical_formula_structural   Er2Ga9PdRu2
_chemical_formula_sum   'Er4 Ga18 Pd2 Ru4'
_cell_volume   474.85262982
_cell_formula_units_Z   2
loop_
 _symmetry_equiv_pos_site_id
 _symmetry_equiv_pos_as_xyz
  1  'x, y, z'
loop_
 _atom_site_type_symbol
 _atom_site_label
 _atom_site_symmetry_multiplicity
 _atom_site_fract_x
 _atom_site_fract_y
 _atom_site_fract_z
 _atom_site_occupancy
  Er  Er0  1  0.997616  0.669988  0.250000  1
  Er  Er1  1  0.002384  0.330012  0.750000  1
  Er  Er2  1  0.669988  0.997616  0.250000  1
  Er  Er3  1  0.330012  0.002384  0.750000  1
  Ga  Ga4  1  0.129202  0.129202  0.250000  1
  Ga  Ga5  1  0.870798  0.870798  0.750000  1
  Ga  Ga6  1  0.003370  0.338920  0.079401  1
  Ga  Ga7  1  0.996630  0.661080  0.920599  1
  Ga  Ga8  1  0.996630  0.661080  0.579401  1
  Ga  Ga9  1  0.338920  0.003370  0.420599  1
  Ga  Ga10  1  0.003370  0.338920  0.420599  1
  Ga  Ga11  1  0.661080  0.996630  0.579401  1
  Ga  Ga12  1  0.661080  0.996630  0.920599  1
  Ga  Ga13  1  0.338920  0.003370  0.079401  1
  Ga  Ga14  1  0.340920  0.340920  0.564589  1
  Ga  Ga15  1  0.659080  0.659080  0.435411  1
  Ga  Ga16  1  0.659080  0.659080  0.064589  1
  Ga  Ga17  1  0.340920  0.340920  0.935411  1
  Ga  Ga18  1  0.336072  0.550017  0.250000  1
  Ga  Ga19  1  0.663928  0.449983  0.750000  1
  Ga  Ga20  1  0.550017  0.336072  0.250000  1
  Ga  Ga21  1  0.449983  0.663928  0.750000  1
  Pd  Pd22  1  0.000000  0.000000  0.000000  1
  Pd  Pd23  1  0.000000  0.000000  0.500000  1
  Ru  Ru24  1  0.674169  0.325831  0.000000  1
  Ru  Ru25  1  0.325831  0.674169  0.000000  1
  Ru  Ru26  1  0.325831  0.674169  0.500000  1
  Ru  Ru27  1  0.674169  0.325831  0.500000  1
