# generated using pymatgen
data_Er8Ti4Nb8Si15Sn
_symmetry_space_group_name_H-M   'P 1'
_cell_length_a   7.10361489
_cell_length_b   7.06915253
_cell_length_c   13.03607862
_cell_angle_alpha   90.03968726
_cell_angle_beta   89.84437259
_cell_angle_gamma   89.87146332
_symmetry_Int_Tables_number   1
_chemical_formula_structural   Er8Ti4Nb8Si15Sn
_chemical_formula_sum   'Er8 Ti4 Nb8 Si15 Sn1'
_cell_volume   654.62250506
_cell_formula_units_Z   1
loop_
 _symmetry_equiv_pos_site_id
 _symmetry_equiv_pos_as_xyz
  1  'x, y, z'
loop_
 _atom_site_type_symbol
 _atom_site_label
 _atom_site_symmetry_multiplicity
 _atom_site_fract_x
 _atom_site_fract_y
 _atom_site_fract_z
 _atom_site_occupancy
  Er  Er0  1  0.344598  0.999084  0.461230  1
  Er  Er1  1  0.506401  0.836827  0.719231  1
  Er  Er2  1  0.501089  0.157229  0.217117  1
  Er  Er3  1  0.841681  0.499704  0.282222  1
  Er  Er4  1  0.158804  0.507610  0.785313  1
  Er  Er5  1  0.659941  0.997171  0.969290  1
  Er  Er6  1  0.991054  0.349091  0.527207  1
  Er  Er7  1  0.999628  0.659037  0.033837  1
  Ti  Ti8  1  0.347220  0.508228  0.374732  1
  Ti  Ti9  1  0.845340  0.993013  0.373906  1
  Ti  Ti10  1  0.008813  0.151237  0.124912  1
  Ti  Ti11  1  0.977506  0.834215  0.620237  1
  Nb  Nb12  1  0.329277  0.329050  0.001688  1
  Nb  Nb13  1  0.173486  0.827117  0.250024  1
  Nb  Nb14  1  0.818561  0.174616  0.751641  1
  Nb  Nb15  1  0.671546  0.671286  0.499795  1
  Nb  Nb16  1  0.153060  0.005523  0.881116  1
  Nb  Nb17  1  0.493041  0.651147  0.125206  1
  Nb  Nb18  1  0.513402  0.355200  0.624500  1
  Nb  Nb19  1  0.653111  0.493324  0.877447  1
  Si  Si20  1  0.368223  0.705663  0.934276  1
  Si  Si21  1  0.630197  0.296229  0.431310  1
  Si  Si22  1  0.707383  0.364968  0.069052  1
  Si  Si23  1  0.293366  0.635397  0.566379  1
  Si  Si24  1  0.799477  0.868394  0.184114  1
  Si  Si25  1  0.131427  0.202864  0.315511  1
  Si  Si26  1  0.867937  0.799501  0.817327  1
  Si  Si27  1  0.295056  0.953544  0.066433  1
  Si  Si28  1  0.549288  0.791883  0.313553  1
  Si  Si29  1  0.458021  0.206142  0.817969  1
  Si  Si30  1  0.798623  0.545321  0.687610  1
  Si  Si31  1  0.206138  0.451915  0.187002  1
  Si  Si32  1  0.706353  0.048168  0.562403  1
  Si  Si33  1  0.954293  0.294257  0.937352  1
  Si  Si34  1  0.047262  0.709137  0.433748  1
  Sn  Sn35  1  0.199395  0.126910  0.675312  1
