# generated using pymatgen
data_Nd10Ga4SnSb
_symmetry_space_group_name_H-M   'P 1'
_cell_length_a   9.16396248
_cell_length_b   9.16396307
_cell_length_c   9.16396325
_cell_angle_alpha   127.53305933
_cell_angle_beta   127.53306279
_cell_angle_gamma   77.38268517
_symmetry_Int_Tables_number   1
_chemical_formula_structural   Nd10Ga4SnSb
_chemical_formula_sum   'Nd10 Ga4 Sn1 Sb1'
_cell_volume   469.46155145
_cell_formula_units_Z   1
loop_
 _symmetry_equiv_pos_site_id
 _symmetry_equiv_pos_as_xyz
  1  'x, y, z'
loop_
 _atom_site_type_symbol
 _atom_site_label
 _atom_site_symmetry_multiplicity
 _atom_site_fract_x
 _atom_site_fract_y
 _atom_site_fract_z
 _atom_site_occupancy
  Nd  Nd0  1  0.477731  0.477731  0.000000  1
  Nd  Nd1  1  0.022269  0.022269  0.000000  1
  Nd  Nd2  1  0.530036  0.019786  0.836536  1
  Nd  Nd3  1  0.183250  0.693500  0.163464  1
  Nd  Nd4  1  0.019786  0.183250  0.489750  1
  Nd  Nd5  1  0.693500  0.530036  0.510250  1
  Nd  Nd6  1  0.480214  0.969964  0.163464  1
  Nd  Nd7  1  0.806500  0.316750  0.836536  1
  Nd  Nd8  1  0.969964  0.806500  0.489750  1
  Nd  Nd9  1  0.316750  0.480214  0.510250  1
  Ga  Ga10  1  0.874954  0.374954  0.249906  1
  Ga  Ga11  1  0.125046  0.625046  0.750094  1
  Ga  Ga12  1  0.374954  0.125046  0.500000  1
  Ga  Ga13  1  0.625046  0.874954  0.500000  1
  Sn  Sn14  1  0.250000  0.250000  0.000000  1
  Sb  Sb15  1  0.750000  0.750000  0.000000  1
