# generated using pymatgen
data_SmZn7Ag4Au
_symmetry_space_group_name_H-M   'P 1'
_cell_length_a   7.06671239
_cell_length_b   7.06660727
_cell_length_c   7.06671182
_cell_angle_alpha   97.90942324
_cell_angle_beta   97.40069675
_cell_angle_gamma   137.18887684
_symmetry_Int_Tables_number   1
_chemical_formula_structural   SmZn7Ag4Au
_chemical_formula_sum   'Sm1 Zn7 Ag4 Au1'
_cell_volume   223.27446537
_cell_formula_units_Z   1
loop_
 _symmetry_equiv_pos_site_id
 _symmetry_equiv_pos_as_xyz
  1  'x, y, z'
loop_
 _atom_site_type_symbol
 _atom_site_label
 _atom_site_symmetry_multiplicity
 _atom_site_fract_x
 _atom_site_fract_y
 _atom_site_fract_z
 _atom_site_occupancy
  Sm  Sm0  1  0.996561  0.000000  0.996561  1
  Zn  Zn1  1  0.997839  0.997581  0.495694  1
  Zn  Zn2  1  0.498113  0.002419  0.000258  1
  Zn  Zn3  1  0.997837  0.502140  0.000254  1
  Zn  Zn4  1  0.498113  0.497860  0.495696  1
  Zn  Zn5  1  0.715624  0.500000  0.215624  1
  Zn  Zn6  1  0.501816  0.719802  0.221624  1
  Zn  Zn7  1  0.501823  0.280198  0.782014  1
  Ag  Ag8  1  0.646317  0.000000  0.646317  1
  Ag  Ag9  1  0.998914  0.653735  0.652652  1
  Ag  Ag10  1  0.998917  0.346265  0.345180  1
  Ag  Ag11  1  0.343839  0.000000  0.343839  1
  Au  Au12  1  0.304286  0.500000  0.804286  1
