# generated using pymatgen
data_Ta5TiB4
_symmetry_space_group_name_H-M   'P 1'
_cell_length_a   3.28022500
_cell_length_b   6.17605700
_cell_length_c   6.17605700
_cell_angle_alpha   90.00000000
_cell_angle_beta   90.00000000
_cell_angle_gamma   90.00000000
_symmetry_Int_Tables_number   1
_chemical_formula_structural   Ta5TiB4
_chemical_formula_sum   'Ta5 Ti1 B4'
_cell_volume   125.11985295
_cell_formula_units_Z   1
loop_
 _symmetry_equiv_pos_site_id
 _symmetry_equiv_pos_as_xyz
  1  'x, y, z'
loop_
 _atom_site_type_symbol
 _atom_site_label
 _atom_site_symmetry_multiplicity
 _atom_site_fract_x
 _atom_site_fract_y
 _atom_site_fract_z
 _atom_site_occupancy
  Ta  Ta0  1  0.500000  0.179381  0.676501  1
  Ta  Ta1  1  0.500000  0.820619  0.323499  1
  Ta  Ta2  1  0.500000  0.323499  0.179381  1
  Ta  Ta3  1  0.500000  0.676501  0.820619  1
  Ta  Ta4  1  0.000000  0.000000  0.000000  1
  Ti  Ti5  1  0.000000  0.500000  0.500000  1
  B  B6  1  0.000000  0.606630  0.107680  1
  B  B7  1  0.000000  0.393370  0.892320  1
  B  B8  1  0.000000  0.892320  0.606630  1
  B  B9  1  0.000000  0.107680  0.393370  1
