# generated using pymatgen
data_Lu12Mn2In2Rh
_symmetry_space_group_name_H-M   'P 1'
_cell_length_a   8.22422493
_cell_length_b   8.22402715
_cell_length_c   8.22422600
_cell_angle_alpha   108.58902687
_cell_angle_beta   108.59292421
_cell_angle_gamma   111.24743754
_symmetry_Int_Tables_number   1
_chemical_formula_structural   Lu12Mn2In2Rh
_chemical_formula_sum   'Lu12 Mn2 In2 Rh1'
_cell_volume   427.89103947
_cell_formula_units_Z   1
loop_
 _symmetry_equiv_pos_site_id
 _symmetry_equiv_pos_as_xyz
  1  'x, y, z'
loop_
 _atom_site_type_symbol
 _atom_site_label
 _atom_site_symmetry_multiplicity
 _atom_site_fract_x
 _atom_site_fract_y
 _atom_site_fract_z
 _atom_site_occupancy
  Lu  Lu0  1  0.307878  0.307921  0.615797  1
  Lu  Lu1  1  0.692122  0.692079  0.384203  1
  Lu  Lu2  1  0.692124  0.307921  0.000043  1
  Lu  Lu3  1  0.307876  0.692079  0.999957  1
  Lu  Lu4  1  0.194453  0.433358  0.238905  1
  Lu  Lu5  1  0.805547  0.566642  0.761095  1
  Lu  Lu6  1  0.194447  0.955551  0.761104  1
  Lu  Lu7  1  0.955663  0.194488  0.761178  1
  Lu  Lu8  1  0.805553  0.044449  0.238896  1
  Lu  Lu9  1  0.044337  0.805512  0.238822  1
  Lu  Lu10  1  0.433310  0.194488  0.238825  1
  Lu  Lu11  1  0.566690  0.805512  0.761175  1
  Mn  Mn12  1  0.384663  0.384667  0.000004  1
  Mn  Mn13  1  0.615337  0.615333  0.999996  1
  In  In14  1  0.000000  0.500000  0.500000  1
  In  In15  1  0.500000  0.000000  0.500000  1
  Rh  Rh16  1  0.000000  0.000000  0.000000  1
