# generated using pymatgen
data_Lu2V3Fe3Co6P7
_symmetry_space_group_name_H-M   'P 1'
_cell_length_a   3.59090100
_cell_length_b   9.04092588
_cell_length_c   9.04166405
_cell_angle_alpha   120.00104465
_cell_angle_beta   90.00000000
_cell_angle_gamma   90.00000000
_symmetry_Int_Tables_number   1
_chemical_formula_structural   Lu2V3Fe3Co6P7
_chemical_formula_sum   'Lu2 V3 Fe3 Co6 P7'
_cell_volume   254.20890909
_cell_formula_units_Z   1
loop_
 _symmetry_equiv_pos_site_id
 _symmetry_equiv_pos_as_xyz
  1  'x, y, z'
loop_
 _atom_site_type_symbol
 _atom_site_label
 _atom_site_symmetry_multiplicity
 _atom_site_fract_x
 _atom_site_fract_y
 _atom_site_fract_z
 _atom_site_occupancy
  Lu  Lu0  1  0.000000  0.666691  0.333363  1
  Lu  Lu1  1  0.500000  0.333262  0.666623  1
  V  V2  1  0.500000  0.116122  0.897831  1
  V  V3  1  0.500000  0.102146  0.218275  1
  V  V4  1  0.500000  0.781753  0.883959  1
  Fe  Fe5  1  0.000000  0.880751  0.722140  1
  Fe  Fe6  1  0.000000  0.277916  0.158630  1
  Fe  Fe7  1  0.000000  0.841360  0.119286  1
  Co  Co8  1  0.000000  0.370083  0.937759  1
  Co  Co9  1  0.000000  0.062141  0.432220  1
  Co  Co10  1  0.000000  0.567751  0.629926  1
  Co  Co11  1  0.500000  0.948735  0.560652  1
  Co  Co12  1  0.500000  0.439346  0.388106  1
  Co  Co13  1  0.500000  0.611947  0.051239  1
  P  P14  1  0.000000  0.113239  0.699306  1
  P  P15  1  0.000000  0.300622  0.413919  1
  P  P16  1  0.000000  0.586073  0.886726  1
  P  P17  1  0.500000  0.712544  0.591529  1
  P  P18  1  0.500000  0.408591  0.121035  1
  P  P19  1  0.500000  0.878925  0.287463  1
  P  P20  1  0.000000  0.999997  0.000017  1
