# generated using pymatgen
data_Li4Nd8Zn4Pt7Rh
_symmetry_space_group_name_H-M   'P 1'
_cell_length_a   4.07614900
_cell_length_b   7.42718529
_cell_length_c   16.83670363
_cell_angle_alpha   89.99748910
_cell_angle_beta   90.00000000
_cell_angle_gamma   90.00000000
_symmetry_Int_Tables_number   1
_chemical_formula_structural   Li4Nd8Zn4Pt7Rh
_chemical_formula_sum   'Li4 Nd8 Zn4 Pt7 Rh1'
_cell_volume   509.71965013
_cell_formula_units_Z   1
loop_
 _symmetry_equiv_pos_site_id
 _symmetry_equiv_pos_as_xyz
  1  'x, y, z'
loop_
 _atom_site_type_symbol
 _atom_site_label
 _atom_site_symmetry_multiplicity
 _atom_site_fract_x
 _atom_site_fract_y
 _atom_site_fract_z
 _atom_site_occupancy
  Li  Li0  1  0.750000  0.008212  0.559154  1
  Li  Li1  1  0.250000  0.629151  0.351084  1
  Li  Li2  1  0.750000  0.370144  0.650056  1
  Li  Li3  1  0.250000  0.491193  0.058294  1
  Nd  Nd4  1  0.250000  0.166880  0.938300  1
  Nd  Nd5  1  0.250000  0.664243  0.561238  1
  Nd  Nd6  1  0.750000  0.334136  0.438298  1
  Nd  Nd7  1  0.750000  0.949389  0.283081  1
  Nd  Nd8  1  0.750000  0.833136  0.056738  1
  Nd  Nd9  1  0.750000  0.447621  0.214532  1
  Nd  Nd10  1  0.250000  0.048547  0.717940  1
  Nd  Nd11  1  0.250000  0.557090  0.789801  1
  Zn  Zn12  1  0.750000  0.503139  0.941514  1
  Zn  Zn13  1  0.250000  0.993957  0.439661  1
  Zn  Zn14  1  0.250000  0.124622  0.150069  1
  Zn  Zn15  1  0.750000  0.878383  0.852488  1
  Pt  Pt16  1  0.750000  0.752345  0.438186  1
  Pt  Pt17  1  0.250000  0.243899  0.311078  1
  Pt  Pt18  1  0.750000  0.253677  0.813459  1
  Pt  Pt19  1  0.750000  0.753775  0.688531  1
  Pt  Pt20  1  0.250000  0.247337  0.560950  1
  Pt  Pt21  1  0.250000  0.750938  0.185116  1
  Pt  Pt22  1  0.750000  0.252174  0.063850  1
  Rh  Rh23  1  0.250000  0.746014  0.936583  1
