# generated using pymatgen
data_Ti4GaCo10SiB4
_symmetry_space_group_name_H-M   'P 1'
_cell_length_a   8.34692000
_cell_length_b   8.34692000
_cell_length_c   3.02419100
_cell_angle_alpha   90.00000000
_cell_angle_beta   90.00000000
_cell_angle_gamma   90.00000000
_symmetry_Int_Tables_number   1
_chemical_formula_structural   Ti4GaCo10SiB4
_chemical_formula_sum   'Ti4 Ga1 Co10 Si1 B4'
_cell_volume   210.69863340
_cell_formula_units_Z   1
loop_
 _symmetry_equiv_pos_site_id
 _symmetry_equiv_pos_as_xyz
  1  'x, y, z'
loop_
 _atom_site_type_symbol
 _atom_site_label
 _atom_site_symmetry_multiplicity
 _atom_site_fract_x
 _atom_site_fract_y
 _atom_site_fract_z
 _atom_site_occupancy
  Ti  Ti0  1  0.824864  0.324284  0.000000  1
  Ti  Ti1  1  0.324284  0.175136  0.000000  1
  Ti  Ti2  1  0.675716  0.824864  0.000000  1
  Ti  Ti3  1  0.175136  0.675716  0.000000  1
  Ga  Ga4  1  0.500000  0.500000  0.000000  1
  Co  Co5  1  0.500000  0.000000  0.500000  1
  Co  Co6  1  0.000000  0.500000  0.500000  1
  Co  Co7  1  0.067144  0.214945  0.500000  1
  Co  Co8  1  0.214945  0.932856  0.500000  1
  Co  Co9  1  0.785055  0.067144  0.500000  1
  Co  Co10  1  0.932856  0.785055  0.500000  1
  Co  Co11  1  0.426615  0.720874  0.500000  1
  Co  Co12  1  0.573385  0.279126  0.500000  1
  Co  Co13  1  0.720874  0.573385  0.500000  1
  Co  Co14  1  0.279126  0.426615  0.500000  1
  Si  Si15  1  0.000000  0.000000  0.000000  1
  B  B16  1  0.621068  0.120576  0.000000  1
  B  B17  1  0.120576  0.378932  0.000000  1
  B  B18  1  0.879424  0.621068  0.000000  1
  B  B19  1  0.378932  0.879424  0.000000  1
