# generated using pymatgen
data_La2Al9IrPt2
_symmetry_space_group_name_H-M   'P 1'
_cell_length_a   7.71578106
_cell_length_b   7.71578199
_cell_length_c   9.63474566
_cell_angle_alpha   89.94986029
_cell_angle_beta   89.94985836
_cell_angle_gamma   119.63938211
_symmetry_Int_Tables_number   1
_chemical_formula_structural   La2Al9IrPt2
_chemical_formula_sum   'La4 Al18 Ir2 Pt4'
_cell_volume   498.53629331
_cell_formula_units_Z   2
loop_
 _symmetry_equiv_pos_site_id
 _symmetry_equiv_pos_as_xyz
  1  'x, y, z'
loop_
 _atom_site_type_symbol
 _atom_site_label
 _atom_site_symmetry_multiplicity
 _atom_site_fract_x
 _atom_site_fract_y
 _atom_site_fract_z
 _atom_site_occupancy
  La  La0  1  0.995261  0.669420  0.250420  1
  La  La1  1  0.004739  0.330580  0.749580  1
  La  La2  1  0.669420  0.995261  0.250420  1
  La  La3  1  0.330580  0.004739  0.749580  1
  Al  Al4  1  0.134708  0.134708  0.251295  1
  Al  Al5  1  0.865292  0.865292  0.748705  1
  Al  Al6  1  0.004856  0.334825  0.074929  1
  Al  Al7  1  0.995144  0.665175  0.925071  1
  Al  Al8  1  0.997993  0.661960  0.571377  1
  Al  Al9  1  0.338040  0.002007  0.428623  1
  Al  Al10  1  0.002007  0.338040  0.428623  1
  Al  Al11  1  0.661960  0.997993  0.571377  1
  Al  Al12  1  0.665175  0.995144  0.925071  1
  Al  Al13  1  0.334825  0.004856  0.074929  1
  Al  Al14  1  0.336855  0.336855  0.547137  1
  Al  Al15  1  0.663145  0.663145  0.452863  1
  Al  Al16  1  0.663251  0.663251  0.056021  1
  Al  Al17  1  0.336749  0.336749  0.943979  1
  Al  Al18  1  0.340439  0.544890  0.253899  1
  Al  Al19  1  0.659561  0.455110  0.746101  1
  Al  Al20  1  0.544890  0.340439  0.253899  1
  Al  Al21  1  0.455110  0.659561  0.746101  1
  Ir  Ir22  1  0.329549  0.670451  0.500000  1
  Ir  Ir23  1  0.670451  0.329549  0.500000  1
  Pt  Pt24  1  0.670856  0.329144  0.000000  1
  Pt  Pt25  1  0.329144  0.670856  0.000000  1
  Pt  Pt26  1  0.000000  0.000000  0.000000  1
  Pt  Pt27  1  0.000000  0.000000  0.500000  1
