# generated using pymatgen
data_Ca(La4Pt3)2
_symmetry_space_group_name_H-M   'P 1'
_cell_length_a   7.81666978
_cell_length_b   7.81667049
_cell_length_c   7.81666969
_cell_angle_alpha   71.62625514
_cell_angle_beta   71.62625156
_cell_angle_gamma   71.62625337
_symmetry_Int_Tables_number   1
_chemical_formula_structural   Ca(La4Pt3)2
_chemical_formula_sum   'Ca1 La8 Pt6'
_cell_volume   417.61004268
_cell_formula_units_Z   1
loop_
 _symmetry_equiv_pos_site_id
 _symmetry_equiv_pos_as_xyz
  1  'x, y, z'
loop_
 _atom_site_type_symbol
 _atom_site_label
 _atom_site_symmetry_multiplicity
 _atom_site_fract_x
 _atom_site_fract_y
 _atom_site_fract_z
 _atom_site_occupancy
  Ca  Ca0  1  0.000000  0.000000  0.000000  1
  La  La1  1  0.799532  0.799532  0.799532  1
  La  La2  1  0.200468  0.200468  0.200468  1
  La  La3  1  0.328384  0.610552  0.838408  1
  La  La4  1  0.838408  0.328384  0.610552  1
  La  La5  1  0.610552  0.838408  0.328384  1
  La  La6  1  0.671616  0.389448  0.161592  1
  La  La7  1  0.161592  0.671616  0.389448  1
  La  La8  1  0.389448  0.161592  0.671616  1
  Pt  Pt9  1  0.166767  0.958373  0.587323  1
  Pt  Pt10  1  0.587323  0.166767  0.958373  1
  Pt  Pt11  1  0.958373  0.587323  0.166767  1
  Pt  Pt12  1  0.833233  0.041627  0.412677  1
  Pt  Pt13  1  0.412677  0.833233  0.041627  1
  Pt  Pt14  1  0.041627  0.412677  0.833233  1
