# generated using pymatgen
data_Yb4Ga18(IrPd)3
_symmetry_space_group_name_H-M   'P 1'
_cell_length_a   7.60632434
_cell_length_b   7.60632474
_cell_length_c   9.59480260
_cell_angle_alpha   89.97995556
_cell_angle_beta   89.97994977
_cell_angle_gamma   119.79205117
_symmetry_Int_Tables_number   1
_chemical_formula_structural   Yb4Ga18(IrPd)3
_chemical_formula_sum   'Yb4 Ga18 Ir3 Pd3'
_cell_volume   481.75086012
_cell_formula_units_Z   1
loop_
 _symmetry_equiv_pos_site_id
 _symmetry_equiv_pos_as_xyz
  1  'x, y, z'
loop_
 _atom_site_type_symbol
 _atom_site_label
 _atom_site_symmetry_multiplicity
 _atom_site_fract_x
 _atom_site_fract_y
 _atom_site_fract_z
 _atom_site_occupancy
  Yb  Yb0  1  0.998278  0.667917  0.250838  1
  Yb  Yb1  1  0.002549  0.332225  0.749431  1
  Yb  Yb2  1  0.667775  0.997451  0.250569  1
  Yb  Yb3  1  0.332083  0.001722  0.749162  1
  Ga  Ga4  1  0.128136  0.127183  0.250162  1
  Ga  Ga5  1  0.872817  0.871864  0.749838  1
  Ga  Ga6  1  0.001956  0.335806  0.079802  1
  Ga  Ga7  1  0.002584  0.666524  0.920561  1
  Ga  Ga8  1  0.001354  0.663344  0.577356  1
  Ga  Ga9  1  0.336656  0.998646  0.422644  1
  Ga  Ga10  1  0.998390  0.336662  0.421662  1
  Ga  Ga11  1  0.663338  0.001610  0.578338  1
  Ga  Ga12  1  0.664194  0.998044  0.920198  1
  Ga  Ga13  1  0.333476  0.997416  0.079439  1
  Ga  Ga14  1  0.334199  0.334298  0.562912  1
  Ga  Ga15  1  0.665702  0.665801  0.437088  1
  Ga  Ga16  1  0.665154  0.667081  0.066124  1
  Ga  Ga17  1  0.332919  0.334846  0.933876  1
  Ga  Ga18  1  0.336848  0.547068  0.250440  1
  Ga  Ga19  1  0.663426  0.454701  0.748625  1
  Ga  Ga20  1  0.545299  0.336574  0.251375  1
  Ga  Ga21  1  0.452932  0.663152  0.749560  1
  Ir  Ir22  1  0.329207  0.670793  0.000000  1
  Ir  Ir23  1  0.329092  0.670908  0.500000  1
  Ir  Ir24  1  0.670632  0.329368  0.500000  1
  Pd  Pd25  1  0.671103  0.328897  0.000000  1
  Pd  Pd26  1  0.000247  0.999753  0.000000  1
  Pd  Pd27  1  0.999654  0.000346  0.500000  1
