# generated using pymatgen
data_Hf4TiSn3N
_symmetry_space_group_name_H-M   'P 1'
_cell_length_a   8.31471600
_cell_length_b   8.31471662
_cell_length_c   5.64388300
_cell_angle_alpha   90.00000000
_cell_angle_beta   90.00000000
_cell_angle_gamma   119.99999752
_symmetry_Int_Tables_number   1
_chemical_formula_structural   Hf4TiSn3N
_chemical_formula_sum   'Hf8 Ti2 Sn6 N2'
_cell_volume   337.91192386
_cell_formula_units_Z   2
loop_
 _symmetry_equiv_pos_site_id
 _symmetry_equiv_pos_as_xyz
  1  'x, y, z'
loop_
 _atom_site_type_symbol
 _atom_site_label
 _atom_site_symmetry_multiplicity
 _atom_site_fract_x
 _atom_site_fract_y
 _atom_site_fract_z
 _atom_site_occupancy
  Hf  Hf0  1  0.222343  0.000000  0.252155  1
  Hf  Hf1  1  0.777657  0.000000  0.747845  1
  Hf  Hf2  1  0.000000  0.222343  0.252155  1
  Hf  Hf3  1  0.000000  0.777657  0.747845  1
  Hf  Hf4  1  0.777657  0.777657  0.252155  1
  Hf  Hf5  1  0.222343  0.222343  0.747845  1
  Hf  Hf6  1  0.666667  0.333333  0.500000  1
  Hf  Hf7  1  0.333333  0.666667  0.500000  1
  Ti  Ti8  1  0.333333  0.666667  0.000000  1
  Ti  Ti9  1  0.666667  0.333333  0.000000  1
  Sn  Sn10  1  0.593585  0.000000  0.239774  1
  Sn  Sn11  1  0.406415  0.000000  0.760226  1
  Sn  Sn12  1  0.000000  0.593585  0.239774  1
  Sn  Sn13  1  0.000000  0.406415  0.760226  1
  Sn  Sn14  1  0.406415  0.406415  0.239774  1
  Sn  Sn15  1  0.593585  0.593585  0.760226  1
  N  N16  1  0.000000  0.000000  0.000000  1
  N  N17  1  0.000000  0.000000  0.500000  1
