# generated using pymatgen
data_Ba2LiAg(B3O5)6
_symmetry_space_group_name_H-M   'P 1'
_cell_length_a   8.75062188
_cell_length_b   8.75062211
_cell_length_c   8.75062080
_cell_angle_alpha   81.59058944
_cell_angle_beta   81.59059258
_cell_angle_gamma   81.59059061
_symmetry_Int_Tables_number   1
_chemical_formula_structural   Ba2LiAg(B3O5)6
_chemical_formula_sum   'Ba2 Li1 Ag1 B18 O30'
_cell_volume   650.37446887
_cell_formula_units_Z   1
loop_
 _symmetry_equiv_pos_site_id
 _symmetry_equiv_pos_as_xyz
  1  'x, y, z'
loop_
 _atom_site_type_symbol
 _atom_site_label
 _atom_site_symmetry_multiplicity
 _atom_site_fract_x
 _atom_site_fract_y
 _atom_site_fract_z
 _atom_site_occupancy
  Ba  Ba0  1  0.494496  0.494496  0.494496  1
  Ba  Ba1  1  0.000453  0.000453  0.000453  1
  Li  Li2  1  0.747803  0.747803  0.747803  1
  Ag  Ag3  1  0.245381  0.245381  0.245381  1
  B  B4  1  0.741082  0.602133  0.082571  1
  B  B5  1  0.250015  0.687887  0.811819  1
  B  B6  1  0.749680  0.319412  0.180330  1
  B  B7  1  0.319412  0.180330  0.749680  1
  B  B8  1  0.094921  0.240143  0.594347  1
  B  B9  1  0.240143  0.594347  0.094921  1
  B  B10  1  0.594347  0.094921  0.240143  1
  B  B11  1  0.811819  0.250015  0.687887  1
  B  B12  1  0.082571  0.741082  0.602133  1
  B  B13  1  0.602133  0.082571  0.741082  1
  B  B14  1  0.904710  0.260331  0.405005  1
  B  B15  1  0.260331  0.405005  0.904710  1
  B  B16  1  0.405005  0.904710  0.260331  1
  B  B17  1  0.897762  0.758520  0.417054  1
  B  B18  1  0.758520  0.417054  0.897762  1
  B  B19  1  0.417054  0.897762  0.758520  1
  B  B20  1  0.687887  0.811819  0.250015  1
  B  B21  1  0.180330  0.749680  0.319412  1
  O  O22  1  0.760170  0.748277  0.105011  1
  O  O23  1  0.748277  0.105011  0.760170  1
  O  O24  1  0.486069  0.201754  0.712548  1
  O  O25  1  0.712548  0.486069  0.201754  1
  O  O26  1  0.105011  0.760170  0.748277  1
  O  O27  1  0.714335  0.978515  0.220571  1
  O  O28  1  0.220571  0.714335  0.978515  1
  O  O29  1  0.978515  0.220571  0.714335  1
  O  O30  1  0.251739  0.254001  0.890380  1
  O  O31  1  0.890380  0.251739  0.254001  1
  O  O32  1  0.254001  0.890380  0.251739  1
  O  O33  1  0.751459  0.740138  0.394879  1
  O  O34  1  0.394879  0.751459  0.740138  1
  O  O35  1  0.740138  0.394879  0.751459  1
  O  O36  1  0.608864  0.245948  0.248527  1
  O  O37  1  0.245948  0.248527  0.608864  1
  O  O38  1  0.784743  0.278983  0.521471  1
  O  O39  1  0.278983  0.521471  0.784743  1
  O  O40  1  0.521471  0.784743  0.278983  1
  O  O41  1  0.013867  0.786654  0.297795  1
  O  O42  1  0.786654  0.297795  0.013867  1
  O  O43  1  0.297795  0.013867  0.786654  1
  O  O44  1  0.056865  0.250787  0.442318  1
  O  O45  1  0.250787  0.442318  0.056865  1
  O  O46  1  0.442318  0.056865  0.250787  1
  O  O47  1  0.926309  0.749692  0.573476  1
  O  O48  1  0.749692  0.573476  0.926309  1
  O  O49  1  0.573476  0.926309  0.749692  1
  O  O50  1  0.201754  0.712548  0.486069  1
  O  O51  1  0.248527  0.608864  0.245948  1
