# generated using pymatgen
data_La8Nd12Si15Ni
_symmetry_space_group_name_H-M   'P 1'
_cell_length_a   7.95936665
_cell_length_b   7.95308353
_cell_length_c   15.27778200
_cell_angle_alpha   89.94236621
_cell_angle_beta   89.55260650
_cell_angle_gamma   90.04507207
_symmetry_Int_Tables_number   1
_chemical_formula_structural   La8Nd12Si15Ni
_chemical_formula_sum   'La8 Nd12 Si15 Ni1'
_cell_volume   967.07635931
_cell_formula_units_Z   1
loop_
 _symmetry_equiv_pos_site_id
 _symmetry_equiv_pos_as_xyz
  1  'x, y, z'
loop_
 _atom_site_type_symbol
 _atom_site_label
 _atom_site_symmetry_multiplicity
 _atom_site_fract_x
 _atom_site_fract_y
 _atom_site_fract_z
 _atom_site_occupancy
  La  La0  1  0.989859  0.622832  0.054801  1
  La  La1  1  0.016836  0.376583  0.544821  1
  La  La2  1  0.625879  0.986459  0.949333  1
  La  La3  1  0.126508  0.511923  0.800695  1
  La  La4  1  0.867279  0.480330  0.298496  1
  La  La5  1  0.504807  0.122187  0.198968  1
  La  La6  1  0.493212  0.874896  0.696832  1
  La  La7  1  0.379098  0.018758  0.453996  1
  Nd  Nd8  1  0.373247  0.480334  0.374554  1
  Nd  Nd9  1  0.865913  0.020142  0.373957  1
  Nd  Nd10  1  0.981102  0.128350  0.125644  1
  Nd  Nd11  1  0.024759  0.872481  0.619343  1
  Nd  Nd12  1  0.629069  0.518037  0.873129  1
  Nd  Nd13  1  0.485304  0.376665  0.625215  1
  Nd  Nd14  1  0.511312  0.626461  0.127639  1
  Nd  Nd15  1  0.127665  0.982059  0.876973  1
  Nd  Nd16  1  0.704884  0.693177  0.494319  1
  Nd  Nd17  1  0.815654  0.189670  0.749031  1
  Nd  Nd18  1  0.179433  0.802527  0.266649  1
  Nd  Nd19  1  0.306193  0.310426  0.999889  1
  Si  Si20  1  0.920409  0.286922  0.939803  1
  Si  Si21  1  0.715225  0.081000  0.561093  1
  Si  Si22  1  0.211813  0.420323  0.190826  1
  Si  Si23  1  0.791134  0.578653  0.687383  1
  Si  Si24  1  0.424941  0.211730  0.809775  1
  Si  Si25  1  0.572535  0.787678  0.309631  1
  Si  Si26  1  0.284305  0.921709  0.062762  1
  Si  Si27  1  0.834893  0.805683  0.795449  1
  Si  Si28  1  0.162692  0.198539  0.301976  1
  Si  Si29  1  0.796569  0.833193  0.200176  1
  Si  Si30  1  0.305762  0.670044  0.542734  1
  Si  Si31  1  0.693835  0.332068  0.047976  1
  Si  Si32  1  0.667388  0.304123  0.452580  1
  Si  Si33  1  0.332459  0.696190  0.953783  1
  Si  Si34  1  0.201874  0.167891  0.699357  1
  Ni  Ni35  1  0.076156  0.709961  0.440413  1
