# generated using pymatgen
data_Ho10TlSn5Se2
_symmetry_space_group_name_H-M   'P 1'
_cell_length_a   9.11197300
_cell_length_b   9.11197351
_cell_length_c   6.67482900
_cell_angle_alpha   90.00000000
_cell_angle_beta   90.00000000
_cell_angle_gamma   120.12351092
_symmetry_Int_Tables_number   1
_chemical_formula_structural   Ho10TlSn5Se2
_chemical_formula_sum   'Ho10 Tl1 Sn5 Se2'
_cell_volume   479.35116682
_cell_formula_units_Z   1
loop_
 _symmetry_equiv_pos_site_id
 _symmetry_equiv_pos_as_xyz
  1  'x, y, z'
loop_
 _atom_site_type_symbol
 _atom_site_label
 _atom_site_symmetry_multiplicity
 _atom_site_fract_x
 _atom_site_fract_y
 _atom_site_fract_z
 _atom_site_occupancy
  Ho  Ho0  1  0.667168  0.333002  0.999856  1
  Ho  Ho1  1  0.333002  0.667168  0.999856  1
  Ho  Ho2  1  0.333002  0.667168  0.500144  1
  Ho  Ho3  1  0.667168  0.333002  0.500144  1
  Ho  Ho4  1  0.747795  0.747795  0.750000  1
  Ho  Ho5  1  0.252628  0.998830  0.750000  1
  Ho  Ho6  1  0.998830  0.252628  0.750000  1
  Ho  Ho7  1  0.252749  0.252749  0.250000  1
  Ho  Ho8  1  0.747721  0.000262  0.250000  1
  Ho  Ho9  1  0.000262  0.747721  0.250000  1
  Tl  Tl10  1  0.397173  0.397173  0.750000  1
  Sn  Sn11  1  0.603636  0.999317  0.750000  1
  Sn  Sn12  1  0.999317  0.603636  0.750000  1
  Sn  Sn13  1  0.602361  0.602361  0.250000  1
  Sn  Sn14  1  0.395876  0.000040  0.250000  1
  Sn  Sn15  1  0.000040  0.395876  0.250000  1
  Se  Se16  1  0.000636  0.000636  0.000155  1
  Se  Se17  1  0.000636  0.000636  0.499845  1
