# generated using pymatgen
data_TbEr11InCo4Os
_symmetry_space_group_name_H-M   'P 1'
_cell_length_a   8.24563440
_cell_length_b   8.24563375
_cell_length_c   8.21628335
_cell_angle_alpha   111.67782887
_cell_angle_beta   110.67867209
_cell_angle_gamma   106.26366865
_symmetry_Int_Tables_number   1
_chemical_formula_structural   TbEr11InCo4Os
_chemical_formula_sum   'Tb1 Er11 In1 Co4 Os1'
_cell_volume   428.13019335
_cell_formula_units_Z   1
loop_
 _symmetry_equiv_pos_site_id
 _symmetry_equiv_pos_as_xyz
  1  'x, y, z'
loop_
 _atom_site_type_symbol
 _atom_site_label
 _atom_site_symmetry_multiplicity
 _atom_site_fract_x
 _atom_site_fract_y
 _atom_site_fract_z
 _atom_site_occupancy
  Tb  Tb0  1  0.182796  0.281774  0.464570  1
  Er  Er1  1  0.817751  0.720341  0.538091  1
  Er  Er2  1  0.182247  0.719869  0.902116  1
  Er  Er3  1  0.817284  0.280194  0.097479  1
  Er  Er4  1  0.314764  0.621124  0.305693  1
  Er  Er5  1  0.686206  0.379310  0.694301  1
  Er  Er6  1  0.314991  0.008096  0.694301  1
  Er  Er7  1  0.684569  0.990928  0.305693  1
  Er  Er8  1  0.415741  0.220780  0.194146  1
  Er  Er9  1  0.585852  0.779982  0.806570  1
  Er  Er10  1  0.026588  0.220718  0.806570  1
  Er  Er11  1  0.973367  0.778406  0.194146  1
  In  In12  1  0.499985  0.499076  0.999061  1
  Co  Co13  1  0.110123  0.612389  0.499205  1
  Co  Co14  1  0.886816  0.389081  0.499205  1
  Co  Co15  1  0.376042  0.998931  0.374972  1
  Co  Co16  1  0.624830  0.000368  0.625198  1
  Os  Os17  1  0.000048  0.998634  0.998681  1
