# generated using pymatgen
data_Na8Li4ScIn3Sb8
_symmetry_space_group_name_H-M   'P 1'
_cell_length_a   10.16141998
_cell_length_b   10.16142013
_cell_length_c   6.49888982
_cell_angle_alpha   89.71197853
_cell_angle_beta   90.28802312
_cell_angle_gamma   98.57989143
_symmetry_Int_Tables_number   1
_chemical_formula_structural   Na8Li4ScIn3Sb8
_chemical_formula_sum   'Na8 Li4 Sc1 In3 Sb8'
_cell_volume   663.51501786
_cell_formula_units_Z   1
loop_
 _symmetry_equiv_pos_site_id
 _symmetry_equiv_pos_as_xyz
  1  'x, y, z'
loop_
 _atom_site_type_symbol
 _atom_site_label
 _atom_site_symmetry_multiplicity
 _atom_site_fract_x
 _atom_site_fract_y
 _atom_site_fract_z
 _atom_site_occupancy
  Na  Na0  1  0.076219  0.426789  0.254812  1
  Na  Na1  1  0.426789  0.076219  0.745188  1
  Na  Na2  1  0.929588  0.576452  0.747071  1
  Na  Na3  1  0.576452  0.929588  0.252929  1
  Na  Na4  1  0.672234  0.323737  0.230865  1
  Na  Na5  1  0.823497  0.174062  0.723584  1
  Na  Na6  1  0.323737  0.672234  0.769135  1
  Na  Na7  1  0.174062  0.823497  0.276416  1
  Li  Li8  1  0.379942  0.379942  0.000000  1
  Li  Li9  1  0.121271  0.121271  0.500000  1
  Li  Li10  1  0.619749  0.619749  0.000000  1
  Li  Li11  1  0.879497  0.879497  0.500000  1
  Sc  Sc12  1  0.123543  0.123543  0.000000  1
  In  In13  1  0.366994  0.366994  0.500000  1
  In  In14  1  0.872709  0.872709  0.000000  1
  In  In15  1  0.633014  0.633014  0.500000  1
  Sb  Sb16  1  0.866849  0.634068  0.246630  1
  Sb  Sb17  1  0.634068  0.866849  0.753370  1
  Sb  Sb18  1  0.131369  0.359267  0.759031  1
  Sb  Sb19  1  0.359267  0.131369  0.240969  1
  Sb  Sb20  1  0.889145  0.118231  0.238626  1
  Sb  Sb21  1  0.614109  0.387661  0.741092  1
  Sb  Sb22  1  0.118231  0.889145  0.761374  1
  Sb  Sb23  1  0.387661  0.614109  0.258908  1
