# generated using pymatgen
data_Na2Ag(SO4)2
_symmetry_space_group_name_H-M   'P 1'
_cell_length_a   6.49998334
_cell_length_b   6.50002731
_cell_length_c   9.48857415
_cell_angle_alpha   71.72444543
_cell_angle_beta   71.72460343
_cell_angle_gamma   78.10092298
_symmetry_Int_Tables_number   1
_chemical_formula_structural   Na2Ag(SO4)2
_chemical_formula_sum   'Na4 Ag2 S4 O16'
_cell_volume   358.87540883
_cell_formula_units_Z   2
loop_
 _symmetry_equiv_pos_site_id
 _symmetry_equiv_pos_as_xyz
  1  'x, y, z'
loop_
 _atom_site_type_symbol
 _atom_site_label
 _atom_site_symmetry_multiplicity
 _atom_site_fract_x
 _atom_site_fract_y
 _atom_site_fract_z
 _atom_site_occupancy
  Na  Na0  1  0.575799  0.703858  0.551470  1
  Na  Na1  1  0.424201  0.296142  0.448530  1
  Na  Na2  1  0.296129  0.424203  0.948542  1
  Na  Na3  1  0.703871  0.575797  0.051458  1
  Ag  Ag4  1  0.041741  0.958255  0.250009  1
  Ag  Ag5  1  0.958259  0.041745  0.749991  1
  S  S6  1  0.582392  0.022397  0.182719  1
  S  S7  1  0.417608  0.977603  0.817281  1
  S  S8  1  0.977607  0.417611  0.317280  1
  S  S9  1  0.022393  0.582389  0.682720  1
  O  O10  1  0.481954  0.741864  0.878009  1
  O  O11  1  0.258138  0.518043  0.621993  1
  O  O12  1  0.518046  0.258136  0.121991  1
  O  O13  1  0.741862  0.481957  0.378007  1
  O  O14  1  0.322107  0.003795  0.682640  1
  O  O15  1  0.996217  0.677889  0.817359  1
  O  O16  1  0.677893  0.996205  0.317360  1
  O  O17  1  0.003783  0.322111  0.182641  1
  O  O18  1  0.610170  0.104225  0.745515  1
  O  O19  1  0.895772  0.389832  0.754487  1
  O  O20  1  0.074773  0.255379  0.433397  1
  O  O21  1  0.744619  0.925226  0.066607  1
  O  O22  1  0.925227  0.744621  0.566603  1
  O  O23  1  0.255381  0.074774  0.933393  1
  O  O24  1  0.104228  0.610168  0.245513  1
  O  O25  1  0.389830  0.895775  0.254485  1
