# generated using pymatgen
data_Tb2Fe3Co8NiP7
_symmetry_space_group_name_H-M   'P 1'
_cell_length_a   3.63718500
_cell_length_b   9.00443198
_cell_length_c   9.01004938
_cell_angle_alpha   119.96524348
_cell_angle_beta   90.00000000
_cell_angle_gamma   90.00000000
_symmetry_Int_Tables_number   1
_chemical_formula_structural   Tb2Fe3Co8NiP7
_chemical_formula_sum   'Tb2 Fe3 Co8 Ni1 P7'
_cell_volume   255.64159132
_cell_formula_units_Z   1
loop_
 _symmetry_equiv_pos_site_id
 _symmetry_equiv_pos_as_xyz
  1  'x, y, z'
loop_
 _atom_site_type_symbol
 _atom_site_label
 _atom_site_symmetry_multiplicity
 _atom_site_fract_x
 _atom_site_fract_y
 _atom_site_fract_z
 _atom_site_occupancy
  Tb  Tb0  1  0.000000  0.667792  0.334532  1
  Tb  Tb1  1  0.500000  0.332974  0.665739  1
  Fe  Fe2  1  0.500000  0.123256  0.906701  1
  Fe  Fe3  1  0.500000  0.093724  0.217179  1
  Fe  Fe4  1  0.500000  0.783164  0.876360  1
  Co  Co5  1  0.000000  0.060005  0.430548  1
  Co  Co6  1  0.000000  0.568552  0.628408  1
  Co  Co7  1  0.000000  0.882143  0.726340  1
  Co  Co8  1  0.000000  0.274693  0.156492  1
  Co  Co9  1  0.000000  0.843969  0.118189  1
  Co  Co10  1  0.500000  0.950230  0.566937  1
  Co  Co11  1  0.500000  0.432994  0.384542  1
  Co  Co12  1  0.500000  0.615021  0.048693  1
  Ni  Ni13  1  0.000000  0.371162  0.939140  1
  P  P14  1  0.000000  0.108371  0.698817  1
  P  P15  1  0.000000  0.296680  0.408593  1
  P  P16  1  0.000000  0.594683  0.887505  1
  P  P17  1  0.500000  0.708898  0.598487  1
  P  P18  1  0.500000  0.402924  0.116056  1
  P  P19  1  0.500000  0.888777  0.290271  1
  P  P20  1  0.000000  0.999989  0.000468  1
