# generated using pymatgen
data_Pr3YIn2Ir2Rh
_symmetry_space_group_name_H-M   'P 1'
_cell_length_a   7.72942068
_cell_length_b   7.72942075
_cell_length_c   4.20661200
_cell_angle_alpha   90.00000000
_cell_angle_beta   90.00000000
_cell_angle_gamma   120.80912175
_symmetry_Int_Tables_number   1
_chemical_formula_structural   Pr3YIn2Ir2Rh
_chemical_formula_sum   'Pr3 Y1 In2 Ir2 Rh1'
_cell_volume   215.85296266
_cell_formula_units_Z   1
loop_
 _symmetry_equiv_pos_site_id
 _symmetry_equiv_pos_as_xyz
  1  'x, y, z'
loop_
 _atom_site_type_symbol
 _atom_site_label
 _atom_site_symmetry_multiplicity
 _atom_site_fract_x
 _atom_site_fract_y
 _atom_site_fract_z
 _atom_site_occupancy
  Pr  Pr0  1  0.020654  0.581414  0.500000  1
  Pr  Pr1  1  0.388002  0.388002  0.500000  1
  Pr  Pr2  1  0.581414  0.020654  0.500000  1
  Y  Y3  1  0.756974  0.756974  0.000000  1
  In  In4  1  0.992787  0.245520  0.000000  1
  In  In5  1  0.245520  0.992787  0.000000  1
  Ir  Ir6  1  0.340234  0.668111  0.000000  1
  Ir  Ir7  1  0.668111  0.340234  0.000000  1
  Rh  Rh8  1  0.006303  0.006303  0.500000  1
