# generated using pymatgen
data_Tb2Nd3P12Ru17Pt2
_symmetry_space_group_name_H-M   'P 1'
_cell_length_a   4.01837900
_cell_length_b   12.60372574
_cell_length_c   12.60361410
_cell_angle_alpha   119.43557801
_cell_angle_beta   90.00000000
_cell_angle_gamma   90.00000000
_symmetry_Int_Tables_number   1
_chemical_formula_structural   Tb2Nd3P12Ru17Pt2
_chemical_formula_sum   'Tb2 Nd3 P12 Ru17 Pt2'
_cell_volume   555.92681618
_cell_formula_units_Z   1
loop_
 _symmetry_equiv_pos_site_id
 _symmetry_equiv_pos_as_xyz
  1  'x, y, z'
loop_
 _atom_site_type_symbol
 _atom_site_label
 _atom_site_symmetry_multiplicity
 _atom_site_fract_x
 _atom_site_fract_y
 _atom_site_fract_z
 _atom_site_occupancy
  Tb  Tb0  1  0.000000  0.335709  0.663304  1
  Tb  Tb1  1  0.000000  0.663301  0.335712  1
  Nd  Nd2  1  0.500000  0.998124  0.182055  1
  Nd  Nd3  1  0.500000  0.182050  0.998128  1
  Nd  Nd4  1  0.500000  0.815278  0.815282  1
  P  P5  1  0.000000  0.001319  0.810736  1
  P  P6  1  0.000000  0.810735  0.001326  1
  P  P7  1  0.000000  0.185625  0.185629  1
  P  P8  1  0.500000  0.306127  0.477459  1
  P  P9  1  0.500000  0.185544  0.701210  1
  P  P10  1  0.500000  0.521735  0.819857  1
  P  P11  1  0.500000  0.819852  0.521736  1
  P  P12  1  0.500000  0.477453  0.306129  1
  P  P13  1  0.500000  0.701205  0.185546  1
  P  P14  1  0.000000  0.999568  0.366617  1
  P  P15  1  0.000000  0.366617  0.999571  1
  P  P16  1  0.000000  0.624525  0.624527  1
  Ru  Ru17  1  0.000000  0.444932  0.444939  1
  Ru  Ru18  1  0.500000  0.002592  0.708719  1
  Ru  Ru19  1  0.500000  0.708716  0.002595  1
  Ru  Ru20  1  0.500000  0.284710  0.284713  1
  Ru  Ru21  1  0.000000  0.193720  0.379057  1
  Ru  Ru22  1  0.000000  0.187342  0.802301  1
  Ru  Ru23  1  0.000000  0.620189  0.815981  1
  Ru  Ru24  1  0.000000  0.815978  0.620187  1
  Ru  Ru25  1  0.000000  0.379057  0.193724  1
  Ru  Ru26  1  0.000000  0.802297  0.187347  1
  Ru  Ru27  1  0.500000  0.129484  0.496086  1
  Ru  Ru28  1  0.500000  0.372786  0.878118  1
  Ru  Ru29  1  0.500000  0.507161  0.630836  1
  Ru  Ru30  1  0.500000  0.630831  0.507165  1
  Ru  Ru31  1  0.500000  0.496082  0.129482  1
  Ru  Ru32  1  0.500000  0.878113  0.372789  1
  Ru  Ru33  1  0.000000  0.997348  0.997335  1
  Pt  Pt34  1  0.000000  0.002047  0.551750  1
  Pt  Pt35  1  0.000000  0.551747  0.002048  1
