# generated using pymatgen
data_Ac4CdRu
_symmetry_space_group_name_H-M   'P 1'
_cell_length_a   10.51841646
_cell_length_b   10.51841538
_cell_length_c   10.51841600
_cell_angle_alpha   59.99999806
_cell_angle_beta   60.00000146
_cell_angle_gamma   59.99999939
_symmetry_Int_Tables_number   1
_chemical_formula_structural   Ac4CdRu
_chemical_formula_sum   'Ac16 Cd4 Ru4'
_cell_volume   822.87907992
_cell_formula_units_Z   4
loop_
 _symmetry_equiv_pos_site_id
 _symmetry_equiv_pos_as_xyz
  1  'x, y, z'
loop_
 _atom_site_type_symbol
 _atom_site_label
 _atom_site_symmetry_multiplicity
 _atom_site_fract_x
 _atom_site_fract_y
 _atom_site_fract_z
 _atom_site_occupancy
  Ac  Ac0  1  0.560886  0.560886  0.939114  1
  Ac  Ac1  1  0.939114  0.560886  0.939114  1
  Ac  Ac2  1  0.560886  0.939114  0.939114  1
  Ac  Ac3  1  0.939114  0.939114  0.560886  1
  Ac  Ac4  1  0.560886  0.939114  0.560886  1
  Ac  Ac5  1  0.939114  0.560886  0.560886  1
  Ac  Ac6  1  0.188291  0.188291  0.811709  1
  Ac  Ac7  1  0.811709  0.188291  0.811709  1
  Ac  Ac8  1  0.188290  0.811710  0.811709  1
  Ac  Ac9  1  0.811709  0.811710  0.188291  1
  Ac  Ac10  1  0.188290  0.811709  0.188290  1
  Ac  Ac11  1  0.811709  0.188291  0.188291  1
  Ac  Ac12  1  0.345287  0.345287  0.964139  1
  Ac  Ac13  1  0.345287  0.964139  0.345287  1
  Ac  Ac14  1  0.964139  0.345287  0.345287  1
  Ac  Ac15  1  0.345287  0.345287  0.345287  1
  Cd  Cd16  1  0.578345  0.578345  0.264965  1
  Cd  Cd17  1  0.578345  0.264965  0.578345  1
  Cd  Cd18  1  0.264965  0.578345  0.578345  1
  Cd  Cd19  1  0.578345  0.578345  0.578345  1
  Ru  Ru20  1  0.137668  0.137668  0.586996  1
  Ru  Ru21  1  0.137668  0.586996  0.137668  1
  Ru  Ru22  1  0.586996  0.137668  0.137668  1
  Ru  Ru23  1  0.137668  0.137668  0.137668  1
