# generated using pymatgen
data_Cs4Hf6BBr18
_symmetry_space_group_name_H-M   'P 1'
_cell_length_a   10.83449204
_cell_length_b   11.13042579
_cell_length_c   11.24914096
_cell_angle_alpha   117.89368706
_cell_angle_beta   100.74931882
_cell_angle_gamma   104.24189703
_symmetry_Int_Tables_number   1
_chemical_formula_structural   Cs4Hf6BBr18
_chemical_formula_sum   'Cs4 Hf6 B1 Br18'
_cell_volume   1087.69633659
_cell_formula_units_Z   1
loop_
 _symmetry_equiv_pos_site_id
 _symmetry_equiv_pos_as_xyz
  1  'x, y, z'
loop_
 _atom_site_type_symbol
 _atom_site_label
 _atom_site_symmetry_multiplicity
 _atom_site_fract_x
 _atom_site_fract_y
 _atom_site_fract_z
 _atom_site_occupancy
  Cs  Cs0  1  0.195554  0.729040  0.565028  1
  Cs  Cs1  1  0.837751  0.962360  0.768862  1
  Cs  Cs2  1  0.162249  0.037640  0.231138  1
  Cs  Cs3  1  0.804446  0.270960  0.434972  1
  Hf  Hf4  1  0.354765  0.443734  0.782960  1
  Hf  Hf5  1  0.368623  0.615475  0.122014  1
  Hf  Hf6  1  0.640246  0.724773  0.044993  1
  Hf  Hf7  1  0.645235  0.556266  0.217040  1
  Hf  Hf8  1  0.359754  0.275227  0.955007  1
  Hf  Hf9  1  0.631377  0.384525  0.877986  1
  B  B10  1  0.500000  0.500000  0.000000  1
  Br  Br11  1  0.810289  0.430710  0.108207  1
  Br  Br12  1  0.515262  0.692060  0.385685  1
  Br  Br13  1  0.190382  0.004198  0.903356  1
  Br  Br14  1  0.189711  0.569290  0.891793  1
  Br  Br15  1  0.821524  0.819974  0.298451  1
  Br  Br16  1  0.505121  0.307163  0.197599  1
  Br  Br17  1  0.785316  0.246921  0.733449  1
  Br  Br18  1  0.178476  0.180026  0.701549  1
  Br  Br19  1  0.508310  0.886549  0.184689  1
  Br  Br20  1  0.805819  0.625021  0.911663  1
  Br  Br21  1  0.214684  0.753079  0.266551  1
  Br  Br22  1  0.177295  0.380577  0.522213  1
  Br  Br23  1  0.494879  0.692837  0.802401  1
  Br  Br24  1  0.809618  0.995802  0.096644  1
  Br  Br25  1  0.484738  0.307940  0.614315  1
  Br  Br26  1  0.194181  0.374979  0.088337  1
  Br  Br27  1  0.822705  0.619423  0.477787  1
  Br  Br28  1  0.491690  0.113451  0.815311  1
