# generated using pymatgen
data_Pr8Er12Ga15Sn
_symmetry_space_group_name_H-M   'P 1'
_cell_length_a   7.62018647
_cell_length_b   7.99795403
_cell_length_c   15.35679196
_cell_angle_alpha   90.07349880
_cell_angle_beta   90.12498635
_cell_angle_gamma   90.03255894
_symmetry_Int_Tables_number   1
_chemical_formula_structural   Pr8Er12Ga15Sn
_chemical_formula_sum   'Pr8 Er12 Ga15 Sn1'
_cell_volume   935.93037478
_cell_formula_units_Z   1
loop_
 _symmetry_equiv_pos_site_id
 _symmetry_equiv_pos_as_xyz
  1  'x, y, z'
loop_
 _atom_site_type_symbol
 _atom_site_label
 _atom_site_symmetry_multiplicity
 _atom_site_fract_x
 _atom_site_fract_y
 _atom_site_fract_z
 _atom_site_occupancy
  Pr  Pr0  1  0.489895  0.318289  0.903450  1
  Pr  Pr1  1  0.990472  0.179733  0.593998  1
  Pr  Pr2  1  0.509481  0.678129  0.406572  1
  Pr  Pr3  1  0.010976  0.826191  0.096068  1
  Pr  Pr4  1  0.500492  0.685786  0.097394  1
  Pr  Pr5  1  0.008213  0.818985  0.406279  1
  Pr  Pr6  1  0.490769  0.319313  0.594099  1
  Pr  Pr7  1  0.995085  0.175895  0.902389  1
  Er  Er8  1  0.338111  0.826624  0.875066  1
  Er  Er9  1  0.836062  0.675314  0.623175  1
  Er  Er10  1  0.664201  0.175851  0.376974  1
  Er  Er11  1  0.172236  0.322193  0.124604  1
  Er  Er12  1  0.657660  0.164786  0.126880  1
  Er  Er13  1  0.163342  0.325397  0.377157  1
  Er  Er14  1  0.336572  0.824641  0.622843  1
  Er  Er15  1  0.837819  0.682668  0.872980  1
  Er  Er16  1  0.175638  0.490008  0.748531  1
  Er  Er17  1  0.675873  0.013415  0.748790  1
  Er  Er18  1  0.824735  0.509654  0.251895  1
  Er  Er19  1  0.321566  0.988843  0.254138  1
  Ga  Ga20  1  0.338901  0.033331  0.037181  1
  Ga  Ga21  1  0.839766  0.467148  0.461632  1
  Ga  Ga22  1  0.660413  0.966478  0.538175  1
  Ga  Ga23  1  0.167047  0.534994  0.960077  1
  Ga  Ga24  1  0.660733  0.967390  0.961288  1
  Ga  Ga25  1  0.160751  0.531280  0.539009  1
  Ga  Ga26  1  0.339111  0.032546  0.461431  1
  Ga  Ga27  1  0.543249  0.613621  0.749627  1
  Ga  Ga28  1  0.044533  0.887317  0.747703  1
  Ga  Ga29  1  0.457501  0.386329  0.251865  1
  Ga  Ga30  1  0.956325  0.115034  0.250425  1
  Ga  Ga31  1  0.288218  0.121737  0.748764  1
  Ga  Ga32  1  0.789463  0.380178  0.750290  1
  Ga  Ga33  1  0.711810  0.875760  0.251475  1
  Ga  Ga34  1  0.210452  0.621300  0.250060  1
  Sn  Sn35  1  0.832528  0.463843  0.037716  1
