# generated using pymatgen
data_DyHo2Co8P6W
_symmetry_space_group_name_H-M   'P 1'
_cell_length_a   3.71233300
_cell_length_b   10.52898200
_cell_length_c   12.22679600
_cell_angle_alpha   90.00000000
_cell_angle_beta   90.00000000
_cell_angle_gamma   90.00000000
_symmetry_Int_Tables_number   1
_chemical_formula_structural   DyHo2Co8P6W
_chemical_formula_sum   'Dy2 Ho4 Co16 P12 W2'
_cell_volume   477.90984308
_cell_formula_units_Z   2
loop_
 _symmetry_equiv_pos_site_id
 _symmetry_equiv_pos_as_xyz
  1  'x, y, z'
loop_
 _atom_site_type_symbol
 _atom_site_label
 _atom_site_symmetry_multiplicity
 _atom_site_fract_x
 _atom_site_fract_y
 _atom_site_fract_z
 _atom_site_occupancy
  Dy  Dy0  1  0.000000  0.500000  0.524483  1
  Dy  Dy1  1  0.500000  0.000000  0.475517  1
  Ho  Ho2  1  0.500000  0.819585  0.204910  1
  Ho  Ho3  1  0.500000  0.180415  0.204910  1
  Ho  Ho4  1  0.000000  0.680415  0.795090  1
  Ho  Ho5  1  0.000000  0.319585  0.795090  1
  Co  Co6  1  0.000000  0.500000  0.987180  1
  Co  Co7  1  0.500000  0.000000  0.012820  1
  Co  Co8  1  0.500000  0.295870  0.431325  1
  Co  Co9  1  0.500000  0.704130  0.431325  1
  Co  Co10  1  0.000000  0.204130  0.568675  1
  Co  Co11  1  0.000000  0.795870  0.568675  1
  Co  Co12  1  0.500000  0.878001  0.707519  1
  Co  Co13  1  0.500000  0.121999  0.707519  1
  Co  Co14  1  0.000000  0.621999  0.292481  1
  Co  Co15  1  0.000000  0.378001  0.292481  1
  Co  Co16  1  0.500000  0.332660  0.990346  1
  Co  Co17  1  0.500000  0.667340  0.990346  1
  Co  Co18  1  0.000000  0.167340  0.009654  1
  Co  Co19  1  0.000000  0.832660  0.009654  1
  Co  Co20  1  0.500000  0.500000  0.701619  1
  Co  Co21  1  0.000000  0.000000  0.298381  1
  P  P22  1  0.500000  0.311434  0.616105  1
  P  P23  1  0.500000  0.688566  0.616105  1
  P  P24  1  0.000000  0.188566  0.383895  1
  P  P25  1  0.000000  0.811434  0.383895  1
  P  P26  1  0.500000  0.500000  0.880451  1
  P  P27  1  0.000000  0.000000  0.119549  1
  P  P28  1  0.500000  0.843846  0.892352  1
  P  P29  1  0.500000  0.156154  0.892352  1
  P  P30  1  0.000000  0.656154  0.107648  1
  P  P31  1  0.000000  0.343846  0.107648  1
  P  P32  1  0.500000  0.500000  0.350328  1
  P  P33  1  0.000000  0.000000  0.649672  1
  W  W34  1  0.500000  0.500000  0.156292  1
  W  W35  1  0.000000  0.000000  0.843708  1
