# generated using pymatgen
data_Ti10Al2SnSb3
_symmetry_space_group_name_H-M   'P 1'
_cell_length_a   7.87507088
_cell_length_b   7.87507156
_cell_length_c   7.88425197
_cell_angle_alpha   96.32001818
_cell_angle_beta   96.32001486
_cell_angle_gamma   141.22214836
_symmetry_Int_Tables_number   1
_chemical_formula_structural   Ti10Al2SnSb3
_chemical_formula_sum   'Ti10 Al2 Sn1 Sb3'
_cell_volume   288.90829871
_cell_formula_units_Z   1
loop_
 _symmetry_equiv_pos_site_id
 _symmetry_equiv_pos_as_xyz
  1  'x, y, z'
loop_
 _atom_site_type_symbol
 _atom_site_label
 _atom_site_symmetry_multiplicity
 _atom_site_fract_x
 _atom_site_fract_y
 _atom_site_fract_z
 _atom_site_occupancy
  Ti  Ti0  1  0.218779  0.925794  0.144572  1
  Ti  Ti1  1  0.425794  0.718779  0.144572  1
  Ti  Ti2  1  0.074764  0.218269  0.293033  1
  Ti  Ti3  1  0.718269  0.574764  0.293033  1
  Ti  Ti4  1  0.750534  0.250534  0.499411  1
  Ti  Ti5  1  0.248875  0.748875  0.499411  1
  Ti  Ti6  1  0.281926  0.424236  0.706163  1
  Ti  Ti7  1  0.924236  0.781926  0.706163  1
  Ti  Ti8  1  0.781690  0.074922  0.856612  1
  Ti  Ti9  1  0.574921  0.281690  0.856611  1
  Al  Al10  1  0.249954  0.249954  0.999910  1
  Al  Al11  1  0.749954  0.749954  0.999910  1
  Sn  Sn12  1  0.164517  0.664517  0.829033  1
  Sb  Sb13  1  0.835590  0.335590  0.171180  1
  Sb  Sb14  1  0.336216  0.163976  0.500191  1
  Sb  Sb15  1  0.663976  0.836216  0.500191  1
