# generated using pymatgen
data_Tb12In2CuTc3
_symmetry_space_group_name_H-M   'P 1'
_cell_length_a   8.55575051
_cell_length_b   8.55575067
_cell_length_c   8.55575092
_cell_angle_alpha   113.12808993
_cell_angle_beta   111.96397083
_cell_angle_gamma   103.48487101
_symmetry_Int_Tables_number   1
_chemical_formula_structural   Tb12In2CuTc3
_chemical_formula_sum   'Tb12 In2 Cu1 Tc3'
_cell_volume   478.17055473
_cell_formula_units_Z   1
loop_
 _symmetry_equiv_pos_site_id
 _symmetry_equiv_pos_as_xyz
  1  'x, y, z'
loop_
 _atom_site_type_symbol
 _atom_site_label
 _atom_site_symmetry_multiplicity
 _atom_site_fract_x
 _atom_site_fract_y
 _atom_site_fract_z
 _atom_site_occupancy
  Tb  Tb0  1  0.442201  0.241135  0.201066  1
  Tb  Tb1  1  0.560030  0.758770  0.801260  1
  Tb  Tb2  1  0.040068  0.241135  0.798934  1
  Tb  Tb3  1  0.957510  0.758770  0.198740  1
  Tb  Tb4  1  0.181229  0.278991  0.470517  1
  Tb  Tb5  1  0.808475  0.710713  0.529483  1
  Tb  Tb6  1  0.181229  0.710713  0.902238  1
  Tb  Tb7  1  0.808475  0.278991  0.097762  1
  Tb  Tb8  1  0.339196  0.655286  0.316090  1
  Tb  Tb9  1  0.672728  0.356703  0.683974  1
  Tb  Tb10  1  0.339196  0.023105  0.683910  1
  Tb  Tb11  1  0.672728  0.988753  0.316026  1
  In  In12  1  0.496825  0.496825  0.000000  1
  In  In13  1  0.001874  0.001874  0.000000  1
  Cu  Cu14  1  0.122178  0.622178  0.500000  1
  Tc  Tc15  1  0.884675  0.384675  0.500000  1
  Tc  Tc16  1  0.318512  0.995693  0.322820  1
  Tc  Tc17  1  0.672873  0.995693  0.677180  1
