# generated using pymatgen
data_K10Ba2TaNbP8
_symmetry_space_group_name_H-M   'P 1'
_cell_length_a   10.25491248
_cell_length_b   10.25618855
_cell_length_c   7.99742218
_cell_angle_alpha   89.30512739
_cell_angle_beta   89.29949497
_cell_angle_gamma   120.37788686
_symmetry_Int_Tables_number   1
_chemical_formula_structural   K10Ba2TaNbP8
_chemical_formula_sum   'K10 Ba2 Ta1 Nb1 P8'
_cell_volume   725.44074999
_cell_formula_units_Z   1
loop_
 _symmetry_equiv_pos_site_id
 _symmetry_equiv_pos_as_xyz
  1  'x, y, z'
loop_
 _atom_site_type_symbol
 _atom_site_label
 _atom_site_symmetry_multiplicity
 _atom_site_fract_x
 _atom_site_fract_y
 _atom_site_fract_z
 _atom_site_occupancy
  K  K0  1  0.465206  0.526436  0.501390  1
  K  K1  1  0.060828  0.527215  0.501204  1
  K  K2  1  0.526424  0.465236  0.001361  1
  K  K3  1  0.527108  0.060678  0.000994  1
  K  K4  1  0.864881  0.143718  0.676406  1
  K  K5  1  0.290479  0.153127  0.698908  1
  K  K6  1  0.853812  0.714106  0.664863  1
  K  K7  1  0.143628  0.864892  0.176549  1
  K  K8  1  0.714257  0.853869  0.165068  1
  K  K9  1  0.153088  0.290393  0.199057  1
  Ba  Ba10  1  0.464479  0.933092  0.495197  1
  Ba  Ba11  1  0.933309  0.464686  0.995031  1
  Ta  Ta12  1  0.668581  0.334289  0.394132  1
  Nb  Nb13  1  0.334326  0.668454  0.894174  1
  P  P14  1  0.676832  0.333916  0.695824  1
  P  P15  1  0.333884  0.676810  0.196760  1
  P  P16  1  0.794336  0.201814  0.291850  1
  P  P17  1  0.406480  0.197146  0.311493  1
  P  P18  1  0.799326  0.589972  0.282697  1
  P  P19  1  0.201479  0.794685  0.791699  1
  P  P20  1  0.590594  0.799742  0.782474  1
  P  P21  1  0.196663  0.405726  0.811449  1
