# generated using pymatgen
data_Sc19Si16Tc
_symmetry_space_group_name_H-M   'P 1'
_cell_length_a   6.85187408
_cell_length_b   7.19517931
_cell_length_c   13.57074800
_cell_angle_alpha   90.00000000
_cell_angle_beta   90.00000000
_cell_angle_gamma   89.87481659
_symmetry_Int_Tables_number   1
_chemical_formula_structural   Sc19Si16Tc
_chemical_formula_sum   'Sc19 Si16 Tc1'
_cell_volume   669.04255684
_cell_formula_units_Z   1
loop_
 _symmetry_equiv_pos_site_id
 _symmetry_equiv_pos_as_xyz
  1  'x, y, z'
loop_
 _atom_site_type_symbol
 _atom_site_label
 _atom_site_symmetry_multiplicity
 _atom_site_fract_x
 _atom_site_fract_y
 _atom_site_fract_z
 _atom_site_occupancy
  Sc  Sc0  1  0.842319  0.005125  0.250000  1
  Sc  Sc1  1  0.342988  0.492534  0.250000  1
  Sc  Sc2  1  0.654281  0.509909  0.750000  1
  Sc  Sc3  1  0.991029  0.685962  0.599166  1
  Sc  Sc4  1  0.014216  0.317488  0.407931  1
  Sc  Sc5  1  0.512830  0.179725  0.406179  1
  Sc  Sc6  1  0.014216  0.317488  0.092069  1
  Sc  Sc7  1  0.487873  0.824413  0.595820  1
  Sc  Sc8  1  0.991029  0.685962  0.900834  1
  Sc  Sc9  1  0.487873  0.824413  0.904180  1
  Sc  Sc10  1  0.512830  0.179725  0.093821  1
  Sc  Sc11  1  0.326133  0.321838  0.627720  1
  Sc  Sc12  1  0.672083  0.675399  0.374445  1
  Sc  Sc13  1  0.172668  0.826050  0.377514  1
  Sc  Sc14  1  0.672083  0.675399  0.125555  1
  Sc  Sc15  1  0.826308  0.170581  0.628830  1
  Sc  Sc16  1  0.326133  0.321838  0.872280  1
  Sc  Sc17  1  0.826308  0.170581  0.871170  1
  Sc  Sc18  1  0.172668  0.826050  0.122486  1
  Si  Si19  1  0.026271  0.397059  0.750000  1
  Si  Si20  1  0.974729  0.604338  0.250000  1
  Si  Si21  1  0.470720  0.894475  0.250000  1
  Si  Si22  1  0.515702  0.091032  0.750000  1
  Si  Si23  1  0.281254  0.651810  0.750000  1
  Si  Si24  1  0.720077  0.363062  0.250000  1
  Si  Si25  1  0.216140  0.135373  0.250000  1
  Si  Si26  1  0.793555  0.863737  0.750000  1
  Si  Si27  1  0.159322  0.028158  0.548324  1
  Si  Si28  1  0.838508  0.966829  0.464125  1
  Si  Si29  1  0.341596  0.532098  0.463189  1
  Si  Si30  1  0.838508  0.966829  0.035875  1
  Si  Si31  1  0.662618  0.467940  0.539233  1
  Si  Si32  1  0.159322  0.028158  0.951676  1
  Si  Si33  1  0.662618  0.467940  0.960767  1
  Si  Si34  1  0.341596  0.532098  0.036811  1
  Tc  Tc35  1  0.151597  0.998577  0.750000  1
