# generated using pymatgen
data_Hf4Mn2CuSi4Pt
_symmetry_space_group_name_H-M   'P 1'
_cell_length_a   3.78578000
_cell_length_b   6.50978409
_cell_length_c   7.52414438
_cell_angle_alpha   89.55822263
_cell_angle_beta   90.00000000
_cell_angle_gamma   90.00000000
_symmetry_Int_Tables_number   1
_chemical_formula_structural   Hf4Mn2CuSi4Pt
_chemical_formula_sum   'Hf4 Mn2 Cu1 Si4 Pt1'
_cell_volume   185.42409508
_cell_formula_units_Z   1
loop_
 _symmetry_equiv_pos_site_id
 _symmetry_equiv_pos_as_xyz
  1  'x, y, z'
loop_
 _atom_site_type_symbol
 _atom_site_label
 _atom_site_symmetry_multiplicity
 _atom_site_fract_x
 _atom_site_fract_y
 _atom_site_fract_z
 _atom_site_occupancy
  Hf  Hf0  1  0.250000  0.974184  0.317183  1
  Hf  Hf1  1  0.250000  0.472892  0.175221  1
  Hf  Hf2  1  0.750000  0.024796  0.682233  1
  Hf  Hf3  1  0.750000  0.526375  0.828032  1
  Mn  Mn4  1  0.250000  0.857511  0.937031  1
  Mn  Mn5  1  0.750000  0.141390  0.063287  1
  Cu  Cu6  1  0.750000  0.650102  0.435975  1
  Si  Si7  1  0.250000  0.735775  0.628672  1
  Si  Si8  1  0.250000  0.224589  0.884613  1
  Si  Si9  1  0.750000  0.261202  0.367970  1
  Si  Si10  1  0.750000  0.772912  0.118221  1
  Pt  Pt11  1  0.250000  0.358273  0.561561  1
