# generated using pymatgen
data_Cs10Mg4Sn4S17
_symmetry_space_group_name_H-M   'P 1'
_cell_length_a   10.73878102
_cell_length_b   10.73878166
_cell_length_c   10.73878200
_cell_angle_alpha   90.30752534
_cell_angle_beta   90.30752406
_cell_angle_gamma   90.30752941
_symmetry_Int_Tables_number   1
_chemical_formula_structural   Cs10Mg4Sn4S17
_chemical_formula_sum   'Cs10 Mg4 Sn4 S17'
_cell_volume   1238.35793159
_cell_formula_units_Z   1
loop_
 _symmetry_equiv_pos_site_id
 _symmetry_equiv_pos_as_xyz
  1  'x, y, z'
loop_
 _atom_site_type_symbol
 _atom_site_label
 _atom_site_symmetry_multiplicity
 _atom_site_fract_x
 _atom_site_fract_y
 _atom_site_fract_z
 _atom_site_occupancy
  Cs  Cs0  1  0.999424  0.500507  0.999424  1
  Cs  Cs1  1  0.999424  0.999424  0.500507  1
  Cs  Cs2  1  0.500507  0.999424  0.999424  1
  Cs  Cs3  1  0.035601  0.501438  0.501438  1
  Cs  Cs4  1  0.501438  0.035601  0.501438  1
  Cs  Cs5  1  0.501438  0.501438  0.035601  1
  Cs  Cs6  1  0.333821  0.682205  0.333821  1
  Cs  Cs7  1  0.333821  0.333821  0.682205  1
  Cs  Cs8  1  0.682205  0.333821  0.333821  1
  Cs  Cs9  1  0.666734  0.666734  0.666734  1
  Mg  Mg10  1  0.869958  0.869958  0.869958  1
  Mg  Mg11  1  0.129272  0.870536  0.129272  1
  Mg  Mg12  1  0.870536  0.129272  0.129272  1
  Mg  Mg13  1  0.129272  0.129272  0.870536  1
  Sn  Sn14  1  0.216755  0.782192  0.782192  1
  Sn  Sn15  1  0.782192  0.216755  0.782192  1
  Sn  Sn16  1  0.782192  0.782192  0.216755  1
  Sn  Sn17  1  0.219599  0.219599  0.219599  1
  S  S18  1  0.000390  0.000390  0.000390  1
  S  S19  1  0.339459  0.651612  0.651612  1
  S  S20  1  0.651612  0.339459  0.651612  1
  S  S21  1  0.651612  0.651612  0.339459  1
  S  S22  1  0.349147  0.349147  0.349147  1
  S  S23  1  0.998167  0.735309  0.735309  1
  S  S24  1  0.735309  0.998167  0.735309  1
  S  S25  1  0.735309  0.735309  0.998167  1
  S  S26  1  0.000333  0.736150  0.264493  1
  S  S27  1  0.265281  0.001692  0.265281  1
  S  S28  1  0.264493  0.736150  0.000333  1
  S  S29  1  0.001692  0.265281  0.265281  1
  S  S30  1  0.736150  0.000333  0.264493  1
  S  S31  1  0.736150  0.264493  0.000333  1
  S  S32  1  0.000333  0.264493  0.736150  1
  S  S33  1  0.264493  0.000333  0.736150  1
  S  S34  1  0.265281  0.265281  0.001692  1
