# generated using pymatgen
data_Nb12Si7Os5N4
_symmetry_space_group_name_H-M   'P 1'
_cell_length_a   8.18148489
_cell_length_b   8.23724108
_cell_length_c   8.23724200
_cell_angle_alpha   59.99999632
_cell_angle_beta   59.77430321
_cell_angle_gamma   59.77430127
_symmetry_Int_Tables_number   1
_chemical_formula_structural   Nb12Si7Os5N4
_chemical_formula_sum   'Nb12 Si7 Os5 N4'
_cell_volume   391.19267057
_cell_formula_units_Z   1
loop_
 _symmetry_equiv_pos_site_id
 _symmetry_equiv_pos_as_xyz
  1  'x, y, z'
loop_
 _atom_site_type_symbol
 _atom_site_label
 _atom_site_symmetry_multiplicity
 _atom_site_fract_x
 _atom_site_fract_y
 _atom_site_fract_z
 _atom_site_occupancy
  Nb  Nb0  1  0.809446  0.807062  0.191746  1
  Nb  Nb1  1  0.189538  0.187583  0.811440  1
  Nb  Nb2  1  0.809446  0.191746  0.807062  1
  Nb  Nb3  1  0.189538  0.811440  0.187583  1
  Nb  Nb4  1  0.189538  0.811440  0.811440  1
  Nb  Nb5  1  0.809446  0.191746  0.191746  1
  Nb  Nb6  1  0.441771  0.441727  0.058252  1
  Nb  Nb7  1  0.060902  0.055361  0.441868  1
  Nb  Nb8  1  0.441771  0.058252  0.441727  1
  Nb  Nb9  1  0.060902  0.441868  0.055361  1
  Nb  Nb10  1  0.060902  0.441868  0.441868  1
  Nb  Nb11  1  0.441771  0.058252  0.058252  1
  Si  Si12  1  0.420582  0.751667  0.413876  1
  Si  Si13  1  0.420582  0.413876  0.751667  1
  Si  Si14  1  0.420582  0.413876  0.413876  1
  Si  Si15  1  0.489480  0.836839  0.836839  1
  Si  Si16  1  0.833134  0.493747  0.836558  1
  Si  Si17  1  0.833134  0.836558  0.493747  1
  Si  Si18  1  0.833134  0.836558  0.836558  1
  Os  Os19  1  0.122851  0.625716  0.625716  1
  Os  Os20  1  0.620313  0.114760  0.632464  1
  Os  Os21  1  0.620313  0.632464  0.114760  1
  Os  Os22  1  0.620313  0.632464  0.632464  1
  Os  Os23  1  0.756741  0.414420  0.414420  1
  N  N24  1  0.626945  0.124352  0.124352  1
  N  N25  1  0.125641  0.621051  0.126654  1
  N  N26  1  0.125641  0.126654  0.621051  1
  N  N27  1  0.125641  0.126654  0.126654  1
