# generated using pymatgen
data_Ce2ErTm2Sn3Au
_symmetry_space_group_name_H-M   'P 1'
_cell_length_a   9.33615300
_cell_length_b   9.34445735
_cell_length_c   6.40715800
_cell_angle_alpha   90.00000000
_cell_angle_beta   90.00000000
_cell_angle_gamma   119.97061018
_symmetry_Int_Tables_number   1
_chemical_formula_structural   Ce2ErTm2Sn3Au
_chemical_formula_sum   'Ce4 Er2 Tm4 Sn6 Au2'
_cell_volume   484.22438095
_cell_formula_units_Z   2
loop_
 _symmetry_equiv_pos_site_id
 _symmetry_equiv_pos_as_xyz
  1  'x, y, z'
loop_
 _atom_site_type_symbol
 _atom_site_label
 _atom_site_symmetry_multiplicity
 _atom_site_fract_x
 _atom_site_fract_y
 _atom_site_fract_z
 _atom_site_occupancy
  Ce  Ce0  1  0.333309  0.666620  0.500000  1
  Ce  Ce1  1  0.666691  0.333380  0.500000  1
  Ce  Ce2  1  0.666691  0.333380  0.000000  1
  Ce  Ce3  1  0.333309  0.666620  0.000000  1
  Er  Er4  1  0.271414  0.000000  0.750000  1
  Er  Er5  1  0.728586  0.000000  0.250000  1
  Tm  Tm6  1  0.000427  0.270786  0.750000  1
  Tm  Tm7  1  0.999573  0.729214  0.250000  1
  Tm  Tm8  1  0.729641  0.729214  0.750000  1
  Tm  Tm9  1  0.270359  0.270786  0.250000  1
  Sn  Sn10  1  0.621862  0.000000  0.750000  1
  Sn  Sn11  1  0.378138  0.000000  0.250000  1
  Sn  Sn12  1  0.999705  0.620665  0.750000  1
  Sn  Sn13  1  0.000295  0.379335  0.250000  1
  Sn  Sn14  1  0.379040  0.379335  0.750000  1
  Sn  Sn15  1  0.620960  0.620665  0.250000  1
  Au  Au16  1  0.000000  0.000000  0.500000  1
  Au  Au17  1  0.000000  0.000000  0.000000  1
